data_PCOD8224010
_publ_section_title
;
Structure prediction by ZEFSAII (Michael W. Deem and Ramdas Pophale) SiO2 
 PCOD8224010
Probable space group: P C C A
;
_chemical_formula_sum "Si O2"
_cell_formula_units_Z 36
_cell_length_a 5.119418
_cell_length_b 11.271261
_cell_length_c 22.188637
_cell_angle_alpha 90.000000
_cell_angle_beta 90.000000
_cell_angle_gamma 90.000000
_cell_volume 1280.335310
_symmetry_space_group_name_H-M "P C C A"
_symmetry_group_IT_number 54
_symmetry_cell_setting 'orthorhombic'
loop_
_space_group_symop_operation_xyz
x,y,z
1/2-x,-y,z
1/2+x,-y,1/2-z
-x,y,1/2-z
-x,-y,-z
1/2+x,y,-z
1/2-x,y,1/2+z
x,-y,1/2+z
loop_
_atom_site_type_symbol
_atom_site_label
_atom_site_fract_x
_atom_site_fract_y
_atom_site_fract_z
Si Si1 0.250000 0.500000 0.208652
Si Si2 0.854107 0.667254 0.031246
Si Si3 0.345415 0.124978 0.304655
Si Si4 0.864874 0.876290 0.429024
Si Si5 0.500182 0.699853 0.367463
O O1 0.500000 0.470752 0.250000
O O2 0.194470 0.389773 0.164974
O O3 0.748867 0.636673 0.098791
O O4 0.906390 0.814016 0.029620
O O5 0.635928 0.612685 0.985447
O O6 0.500000 0.187693 0.250000
O O7 0.519104 0.097710 0.363230
O O8 0.101784 0.210139 0.317278
O O9 0.250000 0.000000 0.279011
O O10 0.647164 0.771985 0.420873
O O11 0.750000 0.000000 0.455631
#
# Coordination Sequence:
#
# PCOD8224010 Si02
#       5
#     4   8   8   8   8
#     4  12  34  54  82 112 150 214 264 322 400 464
#     4  11  24  46  77 111 152 205 257 321 396 464
#     4  11  24  39  69 110 153 205 253 317 400 479
#     4  11  23  42  71 109 156 201 251 324 389 473
#     4  11  27  51  73 107 160 195 267 322 385 471
#
# _framework density 28.117636999999998
#
# number of rings (size 3 to 8) (size 9 to 14) (size 15 to 20)
#    0.000    0.889    4.444    0.667    9.333    0.889 
#    0.000    1.111    0.000    0.000    0.000    0.000 
#    0.000    0.000    0.000    0.000    0.000    0.000 
#
# Total GULP energy -446168.679931 kJ/mol
# GULP energy per Si atom -12393.574443 kJ/mol
# Density = 2.805364 g / cm^3
# Si number density = 28.117637 Si / 1000 Ang^3
#
#
#
# Elastic Constant Matrix: (Units=GPa)
#
#
# Indices 1 2 3 4 5 6 
#
# 1 187.5332 54.4669 52.1941 0.0000 0.0000 0.0000
# 2 54.4669 105.5654 36.7962 0.0000 0.0000 0.0000
# 3 52.1941 36.7962 96.2479 0.0000 0.0000 0.0000
# 4 0.0000 0.0000 0.0000 10.4498 0.0000 0.0000
# 5 0.0000 0.0000 0.0000 0.0000 64.5334 0.0000
# 6 0.0000 0.0000 0.0000 0.0000 0.0000 49.2058
#
#
#
# Elastic Compliance Matrix: (Units=1/GPa)
#
#
# Indices 1 2 3 4 5 6 
#
# 1 0.006839 -0.002580 -0.002723 0.000000 0.000000 0.000000
# 2 -0.002580 0.011902 -0.003151 0.000000 0.000000 0.000000
# 3 -0.002723 -0.003151 0.013071 0.000000 0.000000 0.000000
# 4 0.000000 0.000000 0.000000 0.095695 0.000000 0.000000
# 5 0.000000 0.000000 0.000000 0.000000 0.015496 0.000000
# 6 0.000000 0.000000 0.000000 0.000000 0.000000 0.020323
#
#
# Mechanical properties :
#
#
# Convention : Reuss Voigt Hill
#
# Bulk Modulus (GPa) = 67.09065 75.14011 71.11538
# Shear Modulus (GPa) = 26.99745 41.23043 34.11394
#
# Velocity S-wave (km/s) = 3.10201 3.83346 3.48696
# Velocity P-wave (km/s) = 6.06155 6.80994 6.44662
#
# Compressibility (1/GPa) = 0.01490521
#
# Stress axis : x y z
#
# Youngs Moduli (GPa) = 146.21083 84.01729 76.50475
#
# Poissons Ratio (x) = 0.21675 0.20830
# Poissons Ratio (y) = 0.37720 0.24109
# Poissons Ratio (z) = 0.39808 0.26477
#
# Static dielectric constant tensor:
#      x y z
#    x 5.502260 0.000000 0.000000 
#    y 0.000000 4.741220 0.000000 
#    z 0.000000 0.000000 5.068860 
# 
# 
# High freq. dielectric constant tensor:
#      x y z
#    x 2.152380 0.000000 0.000000 
#    y 0.000000 2.113410 0.000000 
#    z 0.000000 0.000000 2.155330 
# 
# From -- ./inp_files/22703.got.cif
#   From: 2010.03.12/outbox.cif.g09.slc.cpg/sg54_12_cif.got.tgz:22703.got - 2010.04.16 15:00:50.
