data_PCOD8224990
_publ_section_title
;
Structure prediction by ZEFSAII (Michael W. Deem and Ramdas Pophale) SiO2 
 PCOD8224990
Probable space group: P B A M
;
_chemical_formula_sum "Si O2"
_cell_formula_units_Z 64
_cell_length_a 17.601623
_cell_length_b 21.415040
_cell_length_c 9.073879
_cell_angle_alpha 90.000000
_cell_angle_beta 90.000000
_cell_angle_gamma 90.000000
_cell_volume 3420.303056
_symmetry_space_group_name_H-M "P B A M"
_symmetry_group_IT_number 55
_symmetry_cell_setting 'orthorhombic'
loop_
_space_group_symop_operation_xyz
x,y,z
-x,-y,z
1/2+x,1/2-y,-z
1/2-x,1/2+y,-z
-x,-y,-z
x,y,-z
1/2-x,1/2+y,z
1/2+x,1/2-y,z
loop_
_atom_site_type_symbol
_atom_site_label
_atom_site_fract_x
_atom_site_fract_y
_atom_site_fract_z
Si Si1 0.896893 0.876579 0.674364
Si Si2 0.751665 0.846490 0.826308
Si Si3 0.388618 0.235439 0.168629
Si Si4 0.514818 0.858648 0.335774
Si Si5 0.911531 0.013916 0.338355
Si Si6 0.158844 0.552881 0.665456
Si Si7 0.927418 0.544812 0.166226
Si Si8 0.944679 0.130559 0.169605
O O1 0.899697 0.865473 0.500000
O O2 0.832532 0.832988 0.748420
O O3 0.978469 0.858555 0.739583
O O4 0.874042 0.948626 0.712988
O O5 0.694158 0.790294 0.783518
O O6 0.719976 0.911723 0.764796
O O7 0.763601 0.852002 0.000000
O O8 0.456348 0.205281 0.263015
O O9 0.390228 0.309730 0.191025
O O10 0.403869 0.216094 0.000000
O O11 0.484901 0.843784 0.500000
O O12 0.582480 0.907707 0.342712
O O13 0.446905 0.888693 0.240597
O O14 0.880998 0.033692 0.500000
O O15 0.896734 0.070581 0.225576
O O16 0.000000 0.000000 0.348876
O O17 0.190998 0.542136 0.500000
O O18 0.140832 0.486514 0.741278
O O19 0.000000 0.500000 0.165229
O O20 0.899395 0.557145 0.000000
O O21 0.966544 0.120024 0.000000
#
# Coordination Sequence:
#
# PCOD8224990 Si02
#       8
#     8   8   8   8   8   8   8   8
#     4  10  20  34  52  76 105 133 164 207 256 303
#     4  10  19  32  50  72 100 134 170 208 255 308
#     4   9  19  33  48  71 103 135 168 209 254 300
#     4   9  16  25  40  62  87 119 159 200 240 285
#     4   8  16  31  50  74 103 129 154 194 248 297
#     4   9  16  26  40  61  89 119 156 201 245 290
#     4   9  15  23  37  57  83 116 153 196 245 290
#     4  10  19  32  53  79 104 132 167 206 249 301
#
# _framework density 18.711791999999999
#
# number of rings (size 3 to 8) (size 9 to 14) (size 15 to 20)
#    0.000    2.750    0.000    3.000    0.000    8.750 
#    0.000    0.000    0.000    1.500    0.000    1.750 
#    0.000    0.000    0.000    0.000    0.000    0.000 
#
# Total GULP energy -793375.947360 kJ/mol
# GULP energy per Si atom -12396.499178 kJ/mol
# Density = 1.866920 g / cm^3
# Si number density = 18.711792 Si / 1000 Ang^3
#
#
#
# Elastic Constant Matrix: (Units=GPa)
#
#
# Indices 1 2 3 4 5 6 
#
# 1 53.7234 23.9856 30.0050 0.0000 0.0000 0.0000
# 2 23.9856 76.0216 42.6665 0.0000 0.0000 0.0000
# 3 30.0050 42.6665 121.1329 0.0000 0.0000 0.0000
# 4 0.0000 0.0000 0.0000 25.8747 0.0000 0.0000
# 5 0.0000 0.0000 0.0000 0.0000 19.5698 0.0000
# 6 0.0000 0.0000 0.0000 0.0000 0.0000 17.0041
#
#
#
# Elastic Compliance Matrix: (Units=1/GPa)
#
#
# Indices 1 2 3 4 5 6 
#
# 1 0.023074 -0.005076 -0.003928 0.000000 0.000000 0.000000
# 2 -0.005076 0.017512 -0.004911 0.000000 0.000000 0.000000
# 3 -0.003928 -0.004911 0.010958 0.000000 0.000000 0.000000
# 4 0.000000 0.000000 0.000000 0.038648 0.000000 0.000000
# 5 0.000000 0.000000 0.000000 0.000000 0.051099 0.000000
# 6 0.000000 0.000000 0.000000 0.000000 0.000000 0.058809
#
#
# Mechanical properties :
#
#
# Convention : Reuss Voigt Hill
#
# Bulk Modulus (GPa) = 42.16724 49.35469 45.76096
# Shear Modulus (GPa) = 21.20146 22.77111 21.98628
#
# Velocity S-wave (km/s) = 3.36974 3.49225 3.43154
# Velocity P-wave (km/s) = 6.14200 6.53411 6.34109
#
# Compressibility (1/GPa) = 0.02371509
#
# Stress axis : x y z
#
# Youngs Moduli (GPa) = 43.33970 57.10444 91.25716
#
# Poissons Ratio (x) = 0.28984 0.35842
# Poissons Ratio (y) = 0.21998 0.44816
# Poissons Ratio (z) = 0.17022 0.28043
#
# Static dielectric constant tensor:
#      x y z
#    x 3.169290 0.000000 0.000000 
#    y 0.000000 3.390400 0.000000 
#    z 0.000000 0.000000 3.627180 
# 
# 
# High freq. dielectric constant tensor:
#      x y z
#    x 1.688740 0.000000 0.000000 
#    y 0.000000 1.704250 0.000000 
#    z 0.000000 0.000000 1.741040 
# 
# From -- ./inp_files/8091.got.cif
#   From: 2010.03.12/outbox.cif.g09.slc.cpg/sg55_5_cif.got.tgz:8091.got - 2010.04.16 15:19:21.
