data_PCOD8224911
_publ_section_title
;
Structure prediction by ZEFSAII (Michael W. Deem and Ramdas Pophale) SiO2 
 PCOD8224911
Probable space group: P B A M
;
_chemical_formula_sum "Si O2"
_cell_formula_units_Z 40
_cell_length_a 29.205111
_cell_length_b 9.319914
_cell_length_c 7.862570
_cell_angle_alpha 90.000000
_cell_angle_beta 90.000000
_cell_angle_gamma 90.000000
_cell_volume 2140.106032
_symmetry_space_group_name_H-M "P B A M"
_symmetry_group_IT_number 55
_symmetry_cell_setting 'orthorhombic'
loop_
_space_group_symop_operation_xyz
x,y,z
-x,-y,z
1/2+x,1/2-y,-z
1/2-x,1/2+y,-z
-x,-y,-z
x,y,-z
1/2-x,1/2+y,z
1/2+x,1/2-y,z
loop_
_atom_site_type_symbol
_atom_site_label
_atom_site_fract_x
_atom_site_fract_y
_atom_site_fract_z
Si Si1 0.456159 0.920467 0.306310
Si Si2 0.297728 0.915205 0.500000
Si Si3 0.960297 0.895799 0.802226
Si Si4 0.798134 0.927815 0.500000
Si Si5 0.141589 0.415807 0.814108
Si Si6 0.859300 0.924923 0.188300
O O1 0.450250 0.969550 0.500000
O O2 0.463565 0.750219 0.302427
O O3 0.410258 0.971331 0.210008
O O4 0.500000 0.000000 0.223447
O O5 0.291529 0.743566 0.500000
O O6 0.324727 0.971076 0.333328
O O7 0.249602 0.992620 0.500000
O O8 0.911338 0.974439 0.772141
O O9 0.966618 0.857598 0.000000
O O10 0.000000 0.000000 0.735107
O O11 0.825162 0.982758 0.332642
O O12 0.140328 0.245586 0.807549
O O13 0.159067 0.468938 0.000000
O O14 0.843775 0.979529 0.000000
#
# Coordination Sequence:
#
# PCOD8224911 Si02
#       6
#     8   4   8   4   8   8
#     4  10  19  31  49  76 106 135 171 209 244 295
#     4  10  20  36  53  76  98 124 167 210 251 306
#     4   9  18  32  50  74 104 136 172 209 245 294
#     4  10  20  34  55  72  98 128 159 210 257 292
#     4   9  17  32  54  74  98 134 169 203 244 297
#     4   8  16  31  51  74  98 130 170 201 238 298
#
# _framework density 18.690663000000001
#
# number of rings (size 3 to 8) (size 9 to 14) (size 15 to 20)
#    0.000    2.800    1.000    1.800    4.200    2.800 
#    0.000    2.000    0.000    2.400    0.000    0.000 
#    0.000    0.000    0.000    0.000    0.000    0.000 
#
# Total GULP energy -495818.235543 kJ/mol
# GULP energy per Si atom -12395.455889 kJ/mol
# Density = 1.864812 g / cm^3
# Si number density = 18.690663 Si / 1000 Ang^3
#
#
#
# Elastic Constant Matrix: (Units=GPa)
#
#
# Indices 1 2 3 4 5 6 
#
# 1 164.2336 34.5897 84.4548 0.0000 0.0000 0.0000
# 2 34.5897 25.9423 18.9145 0.0000 0.0000 0.0000
# 3 84.4548 18.9145 139.6773 0.0000 0.0000 0.0000
# 4 0.0000 0.0000 0.0000 5.4313 0.0000 0.0000
# 5 0.0000 0.0000 0.0000 0.0000 17.0228 0.0000
# 6 0.0000 0.0000 0.0000 0.0000 0.0000 34.2825
#
#
#
# Elastic Compliance Matrix: (Units=1/GPa)
#
#
# Indices 1 2 3 4 5 6 
#
# 1 0.011081 -0.010973 -0.005214 0.000000 0.000000 0.000000
# 2 -0.010973 0.053636 -0.000628 0.000000 0.000000 0.000000
# 3 -0.005214 -0.000628 0.010397 0.000000 0.000000 0.000000
# 4 0.000000 0.000000 0.000000 0.184117 0.000000 0.000000
# 5 0.000000 0.000000 0.000000 0.000000 0.058745 0.000000
# 6 0.000000 0.000000 0.000000 0.000000 0.000000 0.029169
#
#
# Mechanical properties :
#
#
# Convention : Reuss Voigt Hill
#
# Bulk Modulus (GPa) = 24.10620 67.30792 45.70706
# Shear Modulus (GPa) = 12.67087 24.14027 18.40557
#
# Velocity S-wave (km/s) = 2.60652 3.59774 3.14147
# Velocity P-wave (km/s) = 4.68872 7.30397 6.13727
#
# Compressibility (1/GPa) = 0.04148310
#
# Stress axis : x y z
#
# Youngs Moduli (GPa) = 90.24097 18.64404 96.17946
#
# Poissons Ratio (x) = 0.20459 0.50151
# Poissons Ratio (y) = 0.99026 0.06042
# Poissons Ratio (z) = 0.47055 0.01171
#
# Static dielectric constant tensor:
#      x y z
#    x 3.567880 0.000000 0.000000 
#    y 0.000000 2.798860 0.000000 
#    z 0.000000 0.000000 3.779610 
# 
# 
# High freq. dielectric constant tensor:
#      x y z
#    x 1.728810 0.000000 0.000000 
#    y 0.000000 1.666100 0.000000 
#    z 0.000000 0.000000 1.739900 
# 
# From -- ./inp_files/9317.got.cif
#   From: 2010.03.12/outbox.cif.g09.slc.cpg/sg55_5_cif.got.tgz:9317.got - 2010.04.16 15:19:21.
