data_PCOD8224515
_publ_section_title
;
Structure prediction by ZEFSAII (Michael W. Deem and Ramdas Pophale) SiO2 
 PCOD8224515
Probable space group: P B A M
;
_chemical_formula_sum "Si O2"
_cell_formula_units_Z 64
_cell_length_a 20.407443
_cell_length_b 19.895561
_cell_length_c 8.956553
_cell_angle_alpha 90.000000
_cell_angle_beta 90.000000
_cell_angle_gamma 90.000000
_cell_volume 3636.517500
_symmetry_space_group_name_H-M "P B A M"
_symmetry_group_IT_number 55
_symmetry_cell_setting 'orthorhombic'
loop_
_space_group_symop_operation_xyz
x,y,z
-x,-y,z
1/2+x,1/2-y,-z
1/2-x,1/2+y,-z
-x,-y,-z
x,y,-z
1/2-x,1/2+y,z
1/2+x,1/2-y,z
loop_
_atom_site_type_symbol
_atom_site_label
_atom_site_fract_x
_atom_site_fract_y
_atom_site_fract_z
Si Si1 0.554377 0.548976 0.671962
Si Si2 0.348393 0.834561 0.323459
Si Si3 0.075489 0.809790 0.824966
Si Si4 0.518518 0.190410 0.823754
Si Si5 0.664757 0.012358 0.328020
Si Si6 0.544697 0.934808 0.330445
Si Si7 0.697753 0.542771 0.330084
Si Si8 0.280611 0.322560 0.172502
O O1 0.500000 0.500000 0.745452
O O2 0.536926 0.561155 0.500000
O O3 0.554180 0.621452 0.746912
O O4 0.625343 0.511463 0.689393
O O5 0.353075 0.828692 0.500000
O O6 0.411013 0.798605 0.251856
O O7 0.346317 0.912010 0.265966
O O8 0.281747 0.796949 0.268520
O O9 0.150322 0.786386 0.785499
O O10 0.027404 0.751357 0.770136
O O11 0.069916 0.822941 0.000000
O O12 0.485316 0.121326 0.774691
O O13 0.527630 0.189666 0.000000
O O14 0.644311 0.015106 0.500000
O O15 0.741446 0.990824 0.304601
O O16 0.615579 0.956825 0.259447
O O17 0.549748 0.906754 0.500000
O O18 0.500000 0.000000 0.326587
O O19 0.705122 0.572466 0.500000
O O20 0.705847 0.599725 0.207080
O O21 0.262804 0.313010 0.000000
#
# Coordination Sequence:
#
# PCOD8224515 Si02
#       8
#     8   8   8   8   8   8   8   8
#     4   9  17  30  52  80 103 126 162 211 258 298
#     4  10  18  31  50  74  99 128 164 207 253 297
#     4   9  20  36  52  72 102 137 170 205 252 307
#     4  11  22  34  49  73 102 136 174 210 250 295
#     4   8  14  26  45  66  92 125 160 198 242 292
#     4  10  18  31  48  69  98 134 170 206 253 300
#     4   8  14  26  45  70  97 127 158 196 246 296
#     4   9  16  29  49  72  95 124 163 207 246 290
#
# _framework density 17.599256
#
# number of rings (size 3 to 8) (size 9 to 14) (size 15 to 20)
#    0.000    2.750    1.250    1.875    0.000    2.000 
#    0.000    0.625    2.750    0.000    0.000    0.000 
#    0.000    0.000    0.000    0.000    0.000    0.000 
#
# Total GULP energy -792912.912766 kJ/mol
# GULP energy per Si atom -12389.264262 kJ/mol
# Density = 1.755920 g / cm^3
# Si number density = 17.599256 Si / 1000 Ang^3
#
#
#
# Elastic Constant Matrix: (Units=GPa)
#
#
# Indices 1 2 3 4 5 6 
#
# 1 183.0990 56.2006 47.1163 0.0000 0.0000 0.0000
# 2 56.2006 54.0931 25.9377 0.0000 0.0000 0.0000
# 3 47.1163 25.9377 52.8705 0.0000 0.0000 0.0000
# 4 0.0000 0.0000 0.0000 14.3485 0.0000 0.0000
# 5 0.0000 0.0000 0.0000 0.0000 26.2474 0.0000
# 6 0.0000 0.0000 0.0000 0.0000 0.0000 27.8253
#
#
#
# Elastic Compliance Matrix: (Units=1/GPa)
#
#
# Indices 1 2 3 4 5 6 
#
# 1 0.008722 -0.006976 -0.004351 0.000000 0.000000 0.000000
# 2 -0.006976 0.029752 -0.008379 0.000000 0.000000 0.000000
# 3 -0.004351 -0.008379 0.026902 0.000000 0.000000 0.000000
# 4 0.000000 0.000000 0.000000 0.069694 0.000000 0.000000
# 5 0.000000 0.000000 0.000000 0.000000 0.038099 0.000000
# 6 0.000000 0.000000 0.000000 0.000000 0.000000 0.035938
#
#
# Mechanical properties :
#
#
# Convention : Reuss Voigt Hill
#
# Bulk Modulus (GPa) = 38.51392 60.95243 49.73317
# Shear Modulus (GPa) = 19.44202 24.40477 21.92340
#
# Velocity S-wave (km/s) = 3.32732 3.72787 3.53328
# Velocity P-wave (km/s) = 6.05745 7.29644 6.70563
#
# Compressibility (1/GPa) = 0.02596464
#
# Stress axis : x y z
#
# Youngs Moduli (GPa) = 114.64906 33.61084 37.17179
#
# Poissons Ratio (x) = 0.23447 0.16172
# Poissons Ratio (y) = 0.79979 0.31148
# Poissons Ratio (z) = 0.49880 0.28164
#
# Static dielectric constant tensor:
#      x y z
#    x 3.901920 0.000000 0.000000 
#    y 0.000000 2.965690 0.000000 
#    z 0.000000 0.000000 3.154590 
# 
# 
# High freq. dielectric constant tensor:
#      x y z
#    x 1.709920 0.000000 0.000000 
#    y 0.000000 1.621150 0.000000 
#    z 0.000000 0.000000 1.669620 
# 
# From -- ./inp_files/9026.got.cif
#   From: 2010.03.12/outbox.cif.g09.slc.cpg/sg55_5_cif.got.tgz:9026.got - 2010.04.16 15:19:21.
