data_PCOD8224559
_publ_section_title
;
Structure prediction by ZEFSAII (Michael W. Deem and Ramdas Pophale) SiO2 
 PCOD8224559
Probable space group: P B A M
;
_chemical_formula_sum "Si O2"
_cell_formula_units_Z 56
_cell_length_a 16.319789
_cell_length_b 19.065928
_cell_length_c 9.316252
_cell_angle_alpha 90.000000
_cell_angle_beta 90.000000
_cell_angle_gamma 90.000000
_cell_volume 2898.769716
_symmetry_space_group_name_H-M "P B A M"
_symmetry_group_IT_number 55
_symmetry_cell_setting 'orthorhombic'
loop_
_space_group_symop_operation_xyz
x,y,z
-x,-y,z
1/2+x,1/2-y,-z
1/2-x,1/2+y,-z
-x,-y,-z
x,y,-z
1/2-x,1/2+y,z
1/2+x,1/2-y,z
loop_
_atom_site_type_symbol
_atom_site_label
_atom_site_fract_x
_atom_site_fract_y
_atom_site_fract_z
Si Si1 0.690361 0.130592 0.670285
Si Si2 0.374821 0.377419 0.341723
Si Si3 0.738017 0.910882 0.834582
Si Si4 0.382498 0.535901 0.660279
Si Si5 0.406456 0.989437 0.166393
Si Si6 0.677219 0.269158 0.839661
Si Si7 0.981736 0.858835 0.160784
O O1 0.678334 0.124838 0.500000
O O2 0.783387 0.117671 0.719352
O O3 0.631444 0.074217 0.743914
O O4 0.672494 0.209003 0.722058
O O5 0.375363 0.342544 0.500000
O O6 0.409877 0.455808 0.349684
O O7 0.434296 0.332616 0.237706
O O8 0.792943 0.958759 0.731809
O O9 0.754631 0.828579 0.797140
O O10 0.644425 0.937501 0.810547
O O11 0.765288 0.922500 0.000000
O O12 0.378915 0.568833 0.500000
O O13 0.448944 0.574135 0.755894
O O14 0.500000 0.000000 0.218091
O O15 0.404256 0.967341 0.000000
O O16 0.585699 0.298908 0.837445
O O17 0.697149 0.240596 0.000000
O O18 0.004286 0.881432 0.000000
#
# Coordination Sequence:
#
# PCOD8224559 Si02
#       7
#     8   8   8   8   8   8   8
#     4  11  23  40  60  85 118 156 197 242 294 354
#     4  10  21  35  52  80 116 148 184 227 281 344
#     4   9  18  35  59  85 113 148 195 242 288 348
#     4  10  18  31  53  80 114 148 176 222 280 334
#     4  10  21  39  64  91 119 154 197 250 304 352
#     4   9  20  39  58  81 114 152 196 245 296 353
#     4  10  21  35  54  82 112 145 190 234 277 341
#
# _framework density 19.318539000000001
#
# number of rings (size 3 to 8) (size 9 to 14) (size 15 to 20)
#    0.000    2.143    1.429    2.571    0.000    7.143 
#    2.571    0.000    0.000    0.000    0.000    0.000 
#    0.000    0.000    0.000    0.000    0.000    0.000 
#
# Total GULP energy -694110.052865 kJ/mol
# GULP energy per Si atom -12394.822373 kJ/mol
# Density = 1.927457 g / cm^3
# Si number density = 19.318539 Si / 1000 Ang^3
#
#
#
# Elastic Constant Matrix: (Units=GPa)
#
#
# Indices 1 2 3 4 5 6 
#
# 1 143.7971 44.0899 65.2823 0.0000 0.0000 0.0000
# 2 44.0899 83.7689 38.5338 0.0000 0.0000 0.0000
# 3 65.2823 38.5338 99.7816 0.0000 0.0000 0.0000
# 4 0.0000 0.0000 0.0000 26.9836 0.0000 0.0000
# 5 0.0000 0.0000 0.0000 0.0000 31.4282 0.0000
# 6 0.0000 0.0000 0.0000 0.0000 0.0000 10.4238
#
#
#
# Elastic Compliance Matrix: (Units=1/GPa)
#
#
# Indices 1 2 3 4 5 6 
#
# 1 0.010426 -0.002857 -0.005718 0.000000 0.000000 0.000000
# 2 -0.002857 0.015299 -0.004039 0.000000 0.000000 0.000000
# 3 -0.005718 -0.004039 0.015323 0.000000 0.000000 0.000000
# 4 0.000000 0.000000 0.000000 0.037060 0.000000 0.000000
# 5 0.000000 0.000000 0.000000 0.000000 0.031819 0.000000
# 6 0.000000 0.000000 0.000000 0.000000 0.000000 0.095934
#
#
# Mechanical properties :
#
#
# Convention : Reuss Voigt Hill
#
# Bulk Modulus (GPa) = 63.21169 69.23995 66.22582
# Shear Modulus (GPa) = 21.15397 25.72990 23.44193
#
# Velocity S-wave (km/s) = 3.31268 3.65345 3.48723
# Velocity P-wave (km/s) = 6.88648 7.32911 7.11124
#
# Compressibility (1/GPa) = 0.01581986
#
# Stress axis : x y z
#
# Youngs Moduli (GPa) = 95.91213 65.36197 65.26312
#
# Poissons Ratio (x) = 0.18676 0.37317
# Poissons Ratio (y) = 0.27405 0.26359
# Poissons Ratio (z) = 0.54842 0.26399
#
# Static dielectric constant tensor:
#      x y z
#    x 3.669220 0.000000 0.000000 
#    y 0.000000 3.253930 0.000000 
#    z 0.000000 0.000000 3.725650 
# 
# 
# High freq. dielectric constant tensor:
#      x y z
#    x 1.755490 0.000000 0.000000 
#    y 0.000000 1.724700 0.000000 
#    z 0.000000 0.000000 1.758690 
# 
# From -- ./inp_files/6058.got.cif
#   From: 2010.03.12/outbox.cif.g09.slc.cpg/sg55_4_cif.got.tgz:6058.got - 2010.04.16 15:19:21.
