data_PCOD8224483
_publ_section_title
;
Structure prediction by ZEFSAII (Michael W. Deem and Ramdas Pophale) SiO2 
 PCOD8224483
Probable space group: P B A M
;
_chemical_formula_sum "Si O2"
_cell_formula_units_Z 64
_cell_length_a 24.753811
_cell_length_b 8.963480
_cell_length_c 14.686899
_cell_angle_alpha 90.000000
_cell_angle_beta 90.000000
_cell_angle_gamma 90.000000
_cell_volume 3258.733407
_symmetry_space_group_name_H-M "P B A M"
_symmetry_group_IT_number 55
_symmetry_cell_setting 'orthorhombic'
loop_
_space_group_symop_operation_xyz
x,y,z
-x,-y,z
1/2+x,1/2-y,-z
1/2-x,1/2+y,-z
-x,-y,-z
x,y,-z
1/2-x,1/2+y,z
1/2+x,1/2-y,z
loop_
_atom_site_type_symbol
_atom_site_label
_atom_site_fract_x
_atom_site_fract_y
_atom_site_fract_z
Si Si1 0.367576 0.574546 0.897235
Si Si2 0.469448 0.782142 0.896686
Si Si3 0.846543 0.029608 0.603705
Si Si4 0.836377 0.779957 0.729861
Si Si5 0.091857 0.752430 0.103123
Si Si6 0.587592 0.008964 0.228950
Si Si7 0.377424 0.136068 0.396560
Si Si8 0.276962 0.920974 0.396902
O O1 0.425375 0.653487 0.880790
O O2 0.322751 0.638493 0.826272
O O3 0.374562 0.400658 0.876031
O O4 0.346819 0.601738 0.000000
O O5 0.528440 0.714110 0.878973
O O6 0.463125 0.919570 0.824883
O O7 0.464233 0.845063 0.000000
O O8 0.861182 0.991387 0.500000
O O9 0.870202 0.190754 0.629421
O O10 0.782541 0.019395 0.621906
O O11 0.870595 0.899276 0.668317
O O12 0.870541 0.638652 0.756894
O O13 0.786018 0.717804 0.672000
O O14 0.113911 0.620717 0.167027
O O15 0.101248 0.700753 0.000000
O O16 0.577157 0.935688 0.329168
O O17 0.398091 0.117573 0.500000
O O18 0.319732 0.054762 0.383131
O O19 0.281070 0.857349 0.500000
#
# Coordination Sequence:
#
# PCOD8224483 Si02
#       8
#     8   8   8   8   8   8   8   8
#     4   9  18  31  48  72 101 131 161 193 232 281
#     4   9  17  30  49  73  97 121 154 199 246 284
#     4  10  18  30  50  73  95 120 154 197 243 287
#     4  10  19  30  46  70 101 130 155 189 237 288
#     4  10  18  30  50  73  96 122 156 200 245 283
#     4  10  19  29  43  67  98 128 156 190 236 289
#     4   9  18  30  44  65  93 122 153 189 229 280
#     4   9  17  30  49  74  98 119 149 192 240 283
#
# _framework density 19.639533
#
# number of rings (size 3 to 8) (size 9 to 14) (size 15 to 20)
#    0.000    2.500    0.000    3.000    0.000    5.500 
#    0.000    0.000    0.000    2.250    0.000    7.000 
#    0.000   23.000    0.000    0.000    0.000    0.000 
#
# Total GULP energy -792955.462674 kJ/mol
# GULP energy per Si atom -12389.929104 kJ/mol
# Density = 1.959483 g / cm^3
# Si number density = 19.639533 Si / 1000 Ang^3
#
#
#
# Elastic Constant Matrix: (Units=GPa)
#
#
# Indices 1 2 3 4 5 6 
#
# 1 20.5287 6.9819 18.8265 0.0000 0.0000 0.0000
# 2 6.9819 108.8136 66.2505 0.0000 0.0000 0.0000
# 3 18.8265 66.2505 122.9394 0.0000 0.0000 0.0000
# 4 0.0000 0.0000 0.0000 46.0835 0.0000 0.0000
# 5 0.0000 0.0000 0.0000 0.0000 15.8317 0.0000
# 6 0.0000 0.0000 0.0000 0.0000 0.0000 20.7590
#
#
#
# Elastic Compliance Matrix: (Units=1/GPa)
#
#
# Indices 1 2 3 4 5 6 
#
# 1 0.057114 0.002471 -0.010078 0.000000 0.000000 0.000000
# 2 0.002471 0.013785 -0.007807 0.000000 0.000000 0.000000
# 3 -0.010078 -0.007807 0.013884 0.000000 0.000000 0.000000
# 4 0.000000 0.000000 0.000000 0.021700 0.000000 0.000000
# 5 0.000000 0.000000 0.000000 0.000000 0.063164 0.000000
# 6 0.000000 0.000000 0.000000 0.000000 0.000000 0.048172
#
#
# Mechanical properties :
#
#
# Convention : Reuss Voigt Hill
#
# Bulk Modulus (GPa) = 18.53355 48.48881 33.51118
# Shear Modulus (GPa) = 18.75247 27.21637 22.98442
#
# Velocity S-wave (km/s) = 3.09339 3.72667 3.42470
# Velocity P-wave (km/s) = 4.71339 6.57726 5.72173
#
# Compressibility (1/GPa) = 0.05395621
#
# Stress axis : x y z
#
# Youngs Moduli (GPa) = 17.50876 72.54486 72.02342
#
# Poissons Ratio (x) = -0.17928 0.72585
# Poissons Ratio (y) = -0.04327 0.56227
# Poissons Ratio (z) = 0.17645 0.56634
#
# Static dielectric constant tensor:
#      x y z
#    x 3.125050 0.000000 0.000000 
#    y 0.000000 3.849570 0.000000 
#    z 0.000000 0.000000 4.154950 
# 
# 
# High freq. dielectric constant tensor:
#      x y z
#    x 1.696600 0.000000 0.000000 
#    y 0.000000 1.787850 0.000000 
#    z 0.000000 0.000000 1.780370 
# 
# From -- ./inp_files/12609.got.cif
#   From: 2010.03.12/outbox.cif.g09.slc.cpg/sg55_7_cif.got.tgz:12609.got - 2010.04.16 15:19:21.
