data_PCOD8224608
_publ_section_title
;
Structure prediction by ZEFSAII (Michael W. Deem and Ramdas Pophale) SiO2 
 PCOD8224608
Probable space group: P B A M
;
_chemical_formula_sum "Si O2"
_cell_formula_units_Z 64
_cell_length_a 19.570544
_cell_length_b 20.691417
_cell_length_c 8.877785
_cell_angle_alpha 90.000000
_cell_angle_beta 90.000000
_cell_angle_gamma 90.000000
_cell_volume 3594.990560
_symmetry_space_group_name_H-M "P B A M"
_symmetry_group_IT_number 55
_symmetry_cell_setting 'orthorhombic'
loop_
_space_group_symop_operation_xyz
x,y,z
-x,-y,z
1/2+x,1/2-y,-z
1/2-x,1/2+y,-z
-x,-y,-z
x,y,-z
1/2-x,1/2+y,z
1/2+x,1/2-y,z
loop_
_atom_site_type_symbol
_atom_site_label
_atom_site_fract_x
_atom_site_fract_y
_atom_site_fract_z
Si Si1 0.212327 0.428476 0.822263
Si Si2 0.712627 0.686231 0.674100
Si Si3 0.438948 0.123784 0.176938
Si Si4 0.919494 0.772788 0.329834
Si Si5 0.787576 0.806722 0.822416
Si Si6 0.069211 0.757504 0.327009
Si Si7 0.921550 0.620167 0.673145
Si Si8 0.796304 0.427779 0.177729
O O1 0.266984 0.382051 0.744433
O O2 0.135530 0.414431 0.771509
O O3 0.230596 0.501815 0.772619
O O4 0.216990 0.419034 0.000000
O O5 0.733554 0.686208 0.500000
O O6 0.753305 0.744208 0.750068
O O7 0.631365 0.693140 0.697695
O O8 0.420759 0.197667 0.215805
O O9 0.504715 0.097886 0.266173
O O10 0.374613 0.081048 0.230801
O O11 0.453272 0.118229 0.000000
O O12 0.900327 0.791826 0.500000
O O13 0.867675 0.809577 0.219370
O O14 0.913047 0.696389 0.305396
O O15 0.997518 0.793738 0.291330
O O16 0.752006 0.871298 0.755602
O O17 0.779127 0.801312 0.000000
O O18 0.066850 0.731733 0.500000
O O19 0.914145 0.599481 0.500000
O O20 0.794567 0.421033 0.000000
#
# Coordination Sequence:
#
# PCOD8224608 Si02
#       8
#     8   8   8   8   8   8   8   8
#     4  11  22  37  55  75 104 145 184 221 268 318
#     4  11  21  35  55  81 108 138 176 223 271 320
#     4  10  18  32  53  76 105 142 182 219 258 313
#     4   9  18  33  52  77 108 137 170 216 263 311
#     4  11  20  34  56  81 106 138 177 220 266 317
#     4   9  19  34  53  77 109 140 171 217 271 316
#     4  10  20  34  50  75 111 143 177 220 262 314
#     4   9  21  37  52  76 109 141 179 226 268 312
#
# _framework density 17.802551000000001
#
# number of rings (size 3 to 8) (size 9 to 14) (size 15 to 20)
#    0.000    2.000    2.500    2.625    0.000    3.000 
#    0.000    7.500    0.000    0.750    0.000    5.250 
#    0.000    0.000    0.000    0.000    0.000    0.000 
#
# Total GULP energy -793602.938297 kJ/mol
# GULP energy per Si atom -12400.045911 kJ/mol
# Density = 1.776203 g / cm^3
# Si number density = 17.802551 Si / 1000 Ang^3
#
#
#
# Elastic Constant Matrix: (Units=GPa)
#
#
# Indices 1 2 3 4 5 6 
#
# 1 115.3082 52.4175 35.2662 0.0000 0.0000 0.0000
# 2 52.4175 84.4986 28.8842 0.0000 0.0000 0.0000
# 3 35.2662 28.8842 68.6104 0.0000 0.0000 0.0000
# 4 0.0000 0.0000 0.0000 9.3694 0.0000 0.0000
# 5 0.0000 0.0000 0.0000 0.0000 29.4686 0.0000
# 6 0.0000 0.0000 0.0000 0.0000 0.0000 23.1888
#
#
#
# Elastic Compliance Matrix: (Units=1/GPa)
#
#
# Indices 1 2 3 4 5 6 
#
# 1 0.012875 -0.006687 -0.003803 0.000000 0.000000 0.000000
# 2 -0.006687 0.017297 -0.003845 0.000000 0.000000 0.000000
# 3 -0.003803 -0.003845 0.018148 0.000000 0.000000 0.000000
# 4 0.000000 0.000000 0.000000 0.106730 0.000000 0.000000
# 5 0.000000 0.000000 0.000000 0.000000 0.033934 0.000000
# 6 0.000000 0.000000 0.000000 0.000000 0.000000 0.043124
#
#
# Mechanical properties :
#
#
# Convention : Reuss Voigt Hill
#
# Bulk Modulus (GPa) = 50.88671 55.72813 53.30742
# Shear Modulus (GPa) = 18.70352 22.52865 20.61608
#
# Velocity S-wave (km/s) = 3.24483 3.56121 3.40669
# Velocity P-wave (km/s) = 6.53334 6.94845 6.74409
#
# Compressibility (1/GPa) = 0.01965150
#
# Stress axis : x y z
#
# Youngs Moduli (GPa) = 77.66785 57.81351 55.10167
#
# Poissons Ratio (x) = 0.38661 0.20954
# Poissons Ratio (y) = 0.51937 0.21185
# Poissons Ratio (z) = 0.29536 0.22227
#
# Static dielectric constant tensor:
#      x y z
#    x 3.599480 0.000000 0.000000 
#    y 0.000000 3.228730 0.000000 
#    z 0.000000 0.000000 3.286420 
# 
# 
# High freq. dielectric constant tensor:
#      x y z
#    x 1.697560 0.000000 0.000000 
#    y 0.000000 1.659380 0.000000 
#    z 0.000000 0.000000 1.689700 
# 
# From -- ./inp_files/8958.got.cif
#   From: 2010.03.12/outbox.cif.g09.slc.cpg/sg55_5_cif.got.tgz:8958.got - 2010.04.16 15:19:21.
