data_PCOD8224720
_publ_section_title
;
Structure prediction by ZEFSAII (Michael W. Deem and Ramdas Pophale) SiO2 
 PCOD8224720
Probable space group: P B A M
;
_chemical_formula_sum "Si O2"
_cell_formula_units_Z 64
_cell_length_a 24.745916
_cell_length_b 14.741030
_cell_length_c 8.589041
_cell_angle_alpha 90.000000
_cell_angle_beta 90.000000
_cell_angle_gamma 90.000000
_cell_volume 3133.112868
_symmetry_space_group_name_H-M "P B A M"
_symmetry_group_IT_number 55
_symmetry_cell_setting 'orthorhombic'
loop_
_space_group_symop_operation_xyz
x,y,z
-x,-y,z
1/2+x,1/2-y,-z
1/2-x,1/2+y,-z
-x,-y,-z
x,y,-z
1/2-x,1/2+y,z
1/2+x,1/2-y,z
loop_
_atom_site_type_symbol
_atom_site_label
_atom_site_fract_x
_atom_site_fract_y
_atom_site_fract_z
Si Si1 0.023449 0.093096 0.184281
Si Si2 0.140071 0.055845 0.823445
Si Si3 0.349044 0.353161 0.176419
Si Si4 0.260200 0.637918 0.680262
Si Si5 0.053391 0.552504 0.317880
Si Si6 0.268532 0.832050 0.185171
Si Si7 0.448657 0.245894 0.186354
Si Si8 0.169884 0.510358 0.815801
O O1 0.086335 0.109129 0.229190
O O2 0.992053 0.180829 0.245782
O O3 0.017216 0.086119 0.000000
O O4 0.000000 0.000000 0.259022
O O5 0.189905 0.070389 0.708039
O O6 0.122869 0.950773 0.814335
O O7 0.157893 0.081076 0.000000
O O8 0.290671 0.352963 0.258058
O O9 0.389885 0.279279 0.246277
O O10 0.338154 0.324590 0.000000
O O11 0.249299 0.653210 0.500000
O O12 0.282056 0.731452 0.756001
O O13 0.205556 0.594663 0.751520
O O14 0.063210 0.539586 0.500000
O O15 0.039110 0.654881 0.276341
O O16 0.107388 0.518726 0.231607
O O17 0.000000 0.500000 0.260428
O O18 0.308223 0.912391 0.246271
O O19 0.270724 0.833694 0.000000
O O20 0.450502 0.232629 0.000000
O O21 0.174519 0.515980 0.000000
#
# Coordination Sequence:
#
# PCOD8224720 Si02
#       8
#     8   8   8   8   8   8   8   8
#     4   9  16  29  56  91 122 152 194 248 302 352
#     4  10  18  34  58  85 121 161 201 250 303 356
#     4   9  16  31  58  88 117 150 194 250 304 352
#     4  12  25  39  58  90 130 167 202 245 305 374
#     4  11  26  46  64  86 122 167 206 251 312 370
#     4  10  21  38  62  90 119 159 208 256 307 359
#     4  10  19  34  62  95 121 157 209 259 302 358
#     4  11  23  43  71  96 119 155 208 265 312 361
#
# _framework density 20.426969
#
# number of rings (size 3 to 8) (size 9 to 14) (size 15 to 20)
#    0.000    1.750    2.500    2.625    0.000    4.000 
#    0.000    5.000    0.000    0.750    0.000    0.000 
#    0.000    0.000    0.000    0.000    0.000    0.000 
#
# Total GULP energy -793297.146234 kJ/mol
# GULP energy per Si atom -12395.267910 kJ/mol
# Density = 2.038048 g / cm^3
# Si number density = 20.426969 Si / 1000 Ang^3
#
#
#
# Elastic Constant Matrix: (Units=GPa)
#
#
# Indices 1 2 3 4 5 6 
#
# 1 136.7509 64.3787 26.1043 0.0000 0.0000 0.0000
# 2 64.3787 120.3941 21.7648 0.0000 0.0000 0.0000
# 3 26.1043 21.7648 45.0436 0.0000 0.0000 0.0000
# 4 0.0000 0.0000 0.0000 -2.9938 0.0000 0.0000
# 5 0.0000 0.0000 0.0000 0.0000 20.4069 0.0000
# 6 0.0000 0.0000 0.0000 0.0000 0.0000 38.1125
#
#
#
# Elastic Compliance Matrix: (Units=1/GPa)
#
#
# Indices 1 2 3 4 5 6 
#
# 1 0.010284 -0.004845 -0.003619 0.000000 0.000000 0.000000
# 2 -0.004845 0.011384 -0.002693 0.000000 0.000000 0.000000
# 3 -0.003619 -0.002693 0.025599 0.000000 0.000000 0.000000
# 4 0.000000 0.000000 0.000000 -0.334022 0.000000 0.000000
# 5 0.000000 0.000000 0.000000 0.000000 0.049003 0.000000
# 6 0.000000 0.000000 0.000000 0.000000 0.000000 0.026238
#
#
# Mechanical properties :
#
#
# Convention : Reuss Voigt Hill
#
# Bulk Modulus (GPa) = 40.07426 58.52046 49.29736
# Shear Modulus (GPa) = -27.64226 23.76782 -1.93722
#
# Velocity S-wave (km/s) = -3.68261 3.41479 -0.97490
# Velocity P-wave (km/s) = 1.25648 6.65271 4.78734
#
# Compressibility (1/GPa) = 0.02495367
#
# Stress axis : x y z
#
# Youngs Moduli (GPa) = 97.23498 87.84502 39.06386
#
# Poissons Ratio (x) = 0.42562 0.14137
# Poissons Ratio (y) = 0.47112 0.10518
# Poissons Ratio (z) = 0.35189 0.23653
#
# Static dielectric constant tensor:
#      x y z
#    x 3.935500 0.000000 0.000000 
#    y 0.000000 3.838690 0.000000 
#    z 0.000000 0.000000 3.271210 
# 
# 
# High freq. dielectric constant tensor:
#      x y z
#    x 1.810780 0.000000 0.000000 
#    y 0.000000 1.804810 0.000000 
#    z 0.000000 0.000000 1.755920 
# 
# From -- ./inp_files/9752.got.cif
#   From: 2010.03.12/outbox.cif.g09.slc.cpg/sg55_5_cif.got.tgz:9752.got - 2010.04.16 15:19:21.
