data_PCOD8224807
_publ_section_title
;
Structure prediction by ZEFSAII (Michael W. Deem and Ramdas Pophale) SiO2 
 PCOD8224807
Probable space group: P B A M
;
_chemical_formula_sum "Si O2"
_cell_formula_units_Z 52
_cell_length_a 4.998722
_cell_length_b 18.118723
_cell_length_c 32.463172
_cell_angle_alpha 90.000000
_cell_angle_beta 90.000000
_cell_angle_gamma 90.000000
_cell_volume 2940.204397
_symmetry_space_group_name_H-M "P B A M"
_symmetry_group_IT_number 55
_symmetry_cell_setting 'orthorhombic'
loop_
_space_group_symop_operation_xyz
x,y,z
-x,-y,z
1/2+x,1/2-y,-z
1/2-x,1/2+y,-z
-x,-y,-z
x,y,-z
1/2-x,1/2+y,z
1/2+x,1/2-y,z
loop_
_atom_site_type_symbol
_atom_site_label
_atom_site_fract_x
_atom_site_fract_y
_atom_site_fract_z
Si Si1 0.574454 0.200615 0.000000
Si Si2 0.021701 0.584856 0.330723
Si Si3 0.513747 0.800698 0.259238
Si Si4 0.081936 0.298053 0.829671
Si Si5 0.081736 0.201881 0.452837
Si Si6 0.978160 0.084576 0.384554
Si Si7 0.943158 0.299496 0.914567
O O1 0.508692 0.155749 0.042698
O O2 0.381035 0.273126 0.000000
O O3 0.313141 0.603240 0.348397
O O4 0.000000 0.500000 0.316477
O O5 0.961729 0.635051 0.291595
O O6 0.813307 0.602892 0.366952
O O7 0.806585 0.766401 0.265074
O O8 0.481168 0.838460 0.213731
O O9 0.392329 0.275097 0.830698
O O10 0.009027 0.344203 0.871757
O O11 0.052890 0.175826 0.500000
O O12 0.374973 0.232610 0.443028
O O13 0.028544 0.131281 0.425151
O O14 0.000000 0.000000 0.398410
O O15 0.137033 0.227036 0.914551
#
# Coordination Sequence:
#
# PCOD8224807 Si02
#       7
#     4   8   8   8   8   8   8
#     4   8  12  16  24  38  56  84 121 152 187 240
#     4  10  21  35  49  69  96 121 148 186 226 259
#     4  10  19  30  46  67  87 113 150 183 216 263
#     4   8  14  23  34  50  73  98 128 168 207 244
#     4  10  21  36  54  77 102 125 151 185 222 257
#     4  10  21  36  53  72  95 124 154 182 218 263
#     4   8  12  18  27  40  61  89 120 156 196 238
#
# _framework density 17.685845
#
# number of rings (size 3 to 8) (size 9 to 14) (size 15 to 20)
#    0.000    2.769    0.000    1.846    0.000    4.000 
#    0.000    0.000    0.000    5.538    0.000    0.000 
#    0.000    0.000    0.000    0.692    0.000    1.538 
#
# Total GULP energy -644216.079043 kJ/mol
# GULP energy per Si atom -12388.770751 kJ/mol
# Density = 1.764559 g / cm^3
# Si number density = 17.685845 Si / 1000 Ang^3
#
#
#
# Elastic Constant Matrix: (Units=GPa)
#
#
# Indices 1 2 3 4 5 6 
#
# 1 64.2886 6.0213 3.2176 0.0000 0.0000 0.0000
# 2 6.0213 40.3706 56.9072 0.0000 0.0000 0.0000
# 3 3.2176 56.9072 140.1667 0.0000 0.0000 0.0000
# 4 0.0000 0.0000 0.0000 0.9955 0.0000 0.0000
# 5 0.0000 0.0000 0.0000 0.0000 15.2395 0.0000
# 6 0.0000 0.0000 0.0000 0.0000 0.0000 11.5867
#
#
#
# Elastic Compliance Matrix: (Units=1/GPa)
#
#
# Indices 1 2 3 4 5 6 
#
# 1 0.015891 -0.004339 0.001397 0.000000 0.000000 0.000000
# 2 -0.004339 0.059101 -0.023895 0.000000 0.000000 0.000000
# 3 0.001397 -0.023895 0.016804 0.000000 0.000000 0.000000
# 4 0.000000 0.000000 0.000000 1.004475 0.000000 0.000000
# 5 0.000000 0.000000 0.000000 0.000000 0.065619 0.000000
# 6 0.000000 0.000000 0.000000 0.000000 0.000000 0.086306
#
#
# Mechanical properties :
#
#
# Convention : Reuss Voigt Hill
#
# Bulk Modulus (GPa) = 26.23251 41.90199 34.06725
# Shear Modulus (GPa) = 3.80350 17.47634 10.63992
#
# Velocity S-wave (km/s) = 1.46808 3.14690 2.45543
# Velocity P-wave (km/s) = 4.21169 6.07847 5.22906
#
# Compressibility (1/GPa) = 0.03812064
#
# Stress axis : x y z
#
# Youngs Moduli (GPa) = 62.92722 16.92028 59.51107
#
# Poissons Ratio (x) = 0.07343 -0.08314
# Poissons Ratio (y) = 0.27307 1.42202
# Poissons Ratio (z) = -0.08791 0.40431
#
# Static dielectric constant tensor:
#      x y z
#    x 3.524800 0.000000 0.000000 
#    y 0.000000 2.595860 0.000000 
#    z 0.000000 0.000000 3.812620 
# 
# 
# High freq. dielectric constant tensor:
#      x y z
#    x 1.712890 0.000000 0.000000 
#    y 0.000000 1.590630 0.000000 
#    z 0.000000 0.000000 1.714600 
# 
# From -- ./inp_files/24102.got.cif
#   From: 2010.03.12/outbox.cif.g09.slc.cpg/sg55_13_cif.got.tgz:24102.got - 2010.04.16 15:19:21.
