data_PCOD8224707
_publ_section_title
;
Structure prediction by ZEFSAII (Michael W. Deem and Ramdas Pophale) SiO2 
 PCOD8224707
Probable space group: P B A M
;
_chemical_formula_sum "Si O2"
_cell_formula_units_Z 64
_cell_length_a 18.872941
_cell_length_b 19.987997
_cell_length_c 9.038167
_cell_angle_alpha 90.000000
_cell_angle_beta 90.000000
_cell_angle_gamma 90.000000
_cell_volume 3409.488418
_symmetry_space_group_name_H-M "P B A M"
_symmetry_group_IT_number 55
_symmetry_cell_setting 'orthorhombic'
loop_
_space_group_symop_operation_xyz
x,y,z
-x,-y,z
1/2+x,1/2-y,-z
1/2-x,1/2+y,-z
-x,-y,-z
x,y,-z
1/2-x,1/2+y,z
1/2+x,1/2-y,z
loop_
_atom_site_type_symbol
_atom_site_label
_atom_site_fract_x
_atom_site_fract_y
_atom_site_fract_z
Si Si1 0.715708 0.022553 0.324458
Si Si2 0.188130 0.231577 0.675761
Si Si3 0.704923 0.654479 0.324533
Si Si4 0.451617 0.321287 0.674298
Si Si5 0.801339 0.909282 0.827379
Si Si6 0.056061 0.446803 0.324158
Si Si7 0.461799 0.566491 0.828428
Si Si8 0.544510 0.201612 0.674029
O O1 0.722364 0.014521 0.500000
O O2 0.761522 0.085476 0.265865
O O3 0.634767 0.032917 0.274985
O O4 0.742951 0.956023 0.246848
O O5 0.187442 0.220367 0.500000
O O6 0.248145 0.283361 0.727441
O O7 0.205478 0.162747 0.754675
O O8 0.113701 0.260387 0.735761
O O9 0.702619 0.652700 0.500000
O O10 0.625945 0.664002 0.258635
O O11 0.451981 0.332475 0.500000
O O12 0.509683 0.370317 0.740596
O O13 0.474797 0.245136 0.713314
O O14 0.878527 0.940853 0.797775
O O15 0.785270 0.902972 0.000000
O O16 0.050373 0.445673 0.500000
O O17 0.037647 0.373048 0.258862
O O18 0.000000 0.500000 0.257944
O O19 0.500000 0.500000 0.768225
O O20 0.478846 0.577762 0.000000
O O21 0.555403 0.194351 0.500000
#
# Coordination Sequence:
#
# PCOD8224707 Si02
#       8
#     8   8   8   8   8   8   8   8
#     4  10  19  34  55  79 109 146 182 222 275 326
#     4  10  18  34  57  77 104 142 177 217 274 326
#     4   9  18  32  54  83 109 136 177 226 271 321
#     4  10  19  31  52  81 107 133 175 224 266 315
#     4  11  23  36  52  78 110 142 182 225 265 320
#     4   9  17  30  53  83 111 141 180 224 271 326
#     4  10  21  36  51  70 103 144 179 215 264 318
#     4   9  16  29  50  75 105 136 170 217 269 317
#
# _framework density 18.771144
#
# number of rings (size 3 to 8) (size 9 to 14) (size 15 to 20)
#    0.000    2.250    2.500    1.125    0.000    1.750 
#    0.000    5.000    0.000    1.125    0.000    0.000 
#    0.000    0.000    0.000    0.000    0.000    0.000 
#
# Total GULP energy -793602.234192 kJ/mol
# GULP energy per Si atom -12400.034909 kJ/mol
# Density = 1.872842 g / cm^3
# Si number density = 18.771144 Si / 1000 Ang^3
#
#
#
# Elastic Constant Matrix: (Units=GPa)
#
#
# Indices 1 2 3 4 5 6 
#
# 1 126.0880 72.7208 24.8139 0.0000 0.0000 0.0000
# 2 72.7208 174.1087 32.8291 0.0000 0.0000 0.0000
# 3 24.8139 32.8291 28.7514 0.0000 0.0000 0.0000
# 4 0.0000 0.0000 0.0000 2.4102 0.0000 0.0000
# 5 0.0000 0.0000 0.0000 0.0000 14.1458 0.0000
# 6 0.0000 0.0000 0.0000 0.0000 0.0000 39.2516
#
#
#
# Elastic Compliance Matrix: (Units=1/GPa)
#
#
# Indices 1 2 3 4 5 6 
#
# 1 0.011080 -0.003600 -0.005452 0.000000 0.000000 0.000000
# 2 -0.003600 0.008489 -0.006586 0.000000 0.000000 0.000000
# 3 -0.005452 -0.006586 0.047007 0.000000 0.000000 0.000000
# 4 0.000000 0.000000 0.000000 0.414903 0.000000 0.000000
# 5 0.000000 0.000000 0.000000 0.000000 0.070693 0.000000
# 6 0.000000 0.000000 0.000000 0.000000 0.000000 0.025477
#
#
# Mechanical properties :
#
#
# Convention : Reuss Voigt Hill
#
# Bulk Modulus (GPa) = 28.32912 65.51952 46.92432
# Shear Modulus (GPa) = 8.05554 24.40048 16.22801
#
# Velocity S-wave (km/s) = 2.07383 3.60931 2.94346
# Velocity P-wave (km/s) = 4.56716 7.23531 6.05015
#
# Compressibility (1/GPa) = 0.03529937
#
# Stress axis : x y z
#
# Youngs Moduli (GPa) = 90.25127 117.80043 21.27354
#
# Poissons Ratio (x) = 0.42406 0.11599
# Poissons Ratio (y) = 0.32489 0.14011
# Poissons Ratio (z) = 0.49208 0.77584
#
# Static dielectric constant tensor:
#      x y z
#    x 3.643670 0.000000 0.000000 
#    y 0.000000 3.644010 0.000000 
#    z 0.000000 0.000000 2.959260 
# 
# 
# High freq. dielectric constant tensor:
#      x y z
#    x 1.736970 0.000000 0.000000 
#    y 0.000000 1.743830 0.000000 
#    z 0.000000 0.000000 1.678220 
# 
# From -- ./inp_files/8024.got.cif
#   From: 2010.03.12/outbox.cif.g09.slc.cpg/sg55_5_cif.got.tgz:8024.got - 2010.04.16 15:19:21.
