data_PCOD8224163
_publ_section_title
;
Structure prediction by ZEFSAII (Michael W. Deem and Ramdas Pophale) SiO2 
 PCOD8224163
Probable space group: P C C A
;
_chemical_formula_sum "Si O2"
_cell_formula_units_Z 20
_cell_length_a 5.233616
_cell_length_b 5.194475
_cell_length_c 29.432056
_cell_angle_alpha 90.000000
_cell_angle_beta 90.000000
_cell_angle_gamma 90.000000
_cell_volume 800.136562
_symmetry_space_group_name_H-M "P C C A"
_symmetry_group_IT_number 54
_symmetry_cell_setting 'orthorhombic'
loop_
_space_group_symop_operation_xyz
x,y,z
1/2-x,-y,z
1/2+x,-y,1/2-z
-x,y,1/2-z
-x,-y,-z
1/2+x,y,-z
1/2-x,y,1/2+z
x,-y,1/2+z
loop_
_atom_site_type_symbol
_atom_site_label
_atom_site_fract_x
_atom_site_fract_y
_atom_site_fract_z
Si Si1 0.750000 0.500000 0.469602
Si Si2 0.510251 0.348133 0.152160
Si Si3 0.000000 0.159886 0.750000
Si Si4 0.250000 0.000000 0.591732
O O1 0.500000 0.500000 0.500000
O O2 0.792077 0.247298 0.439421
O O3 0.250000 0.500000 0.141997
O O4 0.559678 0.328482 0.205915
O O5 0.750000 0.500000 0.130799
O O6 0.486194 0.072268 0.126120
O O7 0.750000 0.000000 0.762617
#
# Coordination Sequence:
#
# PCOD8224163 Si02
#       4
#     4   8   4   4
#     4  12  30  54  84 114 156 200 258 334 416 486
#     4  12  27  47  76 112 160 212 265 324 386 473
#     4  12  24  44  72 110 162 214 266 322 384 458
#     4  12  28  54  84 118 158 204 266 328 402 480
#
# _framework density 24.995733000000001
#
# number of rings (size 3 to 8) (size 9 to 14) (size 15 to 20)
#    0.000    0.000    4.000    4.800    2.800    3.200 
#    0.000    0.000    0.000    0.000    0.000    0.000 
#    0.000    0.000    0.000    0.000    0.000    0.000 
#
# Total GULP energy -247883.153506 kJ/mol
# GULP energy per Si atom -12394.157675 kJ/mol
# Density = 2.493884 g / cm^3
# Si number density = 24.995733 Si / 1000 Ang^3
#
#
#
# Elastic Constant Matrix: (Units=GPa)
#
#
# Indices 1 2 3 4 5 6 
#
# 1 191.8052 71.6374 52.3533 0.0000 0.0000 0.0000
# 2 71.6374 180.3013 87.4491 0.0000 0.0000 0.0000
# 3 52.3533 87.4491 189.4934 0.0000 0.0000 0.0000
# 4 0.0000 0.0000 0.0000 -115.2454 0.0000 0.0000
# 5 0.0000 0.0000 0.0000 0.0000 14.1138 0.0000
# 6 0.0000 0.0000 0.0000 0.0000 0.0000 51.5418
#
#
#
# Elastic Compliance Matrix: (Units=1/GPa)
#
#
# Indices 1 2 3 4 5 6 
#
# 1 0.006202 -0.002104 -0.000743 0.000000 0.000000 0.000000
# 2 -0.002104 0.007860 -0.003046 0.000000 0.000000 0.000000
# 3 -0.000743 -0.003046 0.006888 0.000000 0.000000 0.000000
# 4 0.000000 0.000000 0.000000 -0.008677 0.000000 0.000000
# 5 0.000000 0.000000 0.000000 0.000000 0.070853 0.000000
# 6 0.000000 0.000000 0.000000 0.000000 0.000000 0.019402
#
#
# Mechanical properties :
#
#
# Convention : Reuss Voigt Hill
#
# Bulk Modulus (GPa) = 109.11228 109.38661 109.24945
# Shear Modulus (GPa) = 42.60154 13.42605 28.01379
#
# Velocity S-wave (km/s) = 4.13286 2.32013 3.35138
# Velocity P-wave (km/s) = 8.15605 7.14384 7.66667
#
# Compressibility (1/GPa) = 0.00916487
#
# Stress axis : x y z
#
# Youngs Moduli (GPa) = 161.23422 127.23422 145.18106
#
# Poissons Ratio (x) = 0.26772 0.10780
# Poissons Ratio (y) = 0.33926 0.44219
# Poissons Ratio (z) = 0.11972 0.38752
#
# Static dielectric constant tensor:
#      x y z
#    x 4.436810 0.000000 0.000000 
#    y 0.000000 5.001980 0.000000 
#    z 0.000000 0.000000 5.153010 
# 
# 
# High freq. dielectric constant tensor:
#      x y z
#    x 2.002520 0.000000 0.000000 
#    y 0.000000 2.004780 0.000000 
#    z 0.000000 0.000000 2.018890 
# 
# From -- ./inp_files/24902.got.cif
#   From: 2010.03.12/outbox.cif.g09.slc.cpg/sg54_13_cif.got.tgz:24902.got - 2010.04.16 15:00:50.
