data_PCOD8224361
_publ_section_title
;
Structure prediction by ZEFSAII (Michael W. Deem and Ramdas Pophale) SiO2 
 PCOD8224361
Probable space group: P B A M
;
_chemical_formula_sum "Si O2"
_cell_formula_units_Z 48
_cell_length_a 22.989974
_cell_length_b 8.707347
_cell_length_c 12.853258
_cell_angle_alpha 90.000000
_cell_angle_beta 90.000000
_cell_angle_gamma 90.000000
_cell_volume 2572.986795
_symmetry_space_group_name_H-M "P B A M"
_symmetry_group_IT_number 55
_symmetry_cell_setting 'orthorhombic'
loop_
_space_group_symop_operation_xyz
x,y,z
-x,-y,z
1/2+x,1/2-y,-z
1/2-x,1/2+y,-z
-x,-y,-z
x,y,-z
1/2-x,1/2+y,z
1/2+x,1/2-y,z
loop_
_atom_site_type_symbol
_atom_site_label
_atom_site_fract_x
_atom_site_fract_y
_atom_site_fract_z
Si Si1 0.790569 0.470113 0.000000
Si Si2 0.018539 0.676651 0.118499
Si Si3 0.900956 0.763287 0.805613
Si Si4 0.791111 0.464324 0.617147
Si Si5 0.828790 0.820168 0.000000
Si Si6 0.363691 0.087681 0.193475
Si Si7 0.327324 0.688378 0.616843
O O1 0.801438 0.651042 0.000000
O O2 0.817787 0.387993 0.899047
O O3 0.721702 0.446035 0.000000
O O4 0.080460 0.697758 0.176572
O O5 0.000000 0.500000 0.117746
O O6 0.970579 0.778779 0.179559
O O7 0.023745 0.735416 0.000000
O O8 0.868280 0.849441 0.899023
O O9 0.885100 0.585768 0.808689
O O10 0.880859 0.837190 0.696037
O O11 0.806765 0.409709 0.500000
O O12 0.833152 0.372823 0.696557
O O13 0.723631 0.432242 0.642017
O O14 0.798967 0.644955 0.631413
O O15 0.351683 0.666728 0.500000
#
# Coordination Sequence:
#
# PCOD8224361 Si02
#       7
#     4   8   8   8   4   8   8
#     4  10  18  27  41  63  87 108 135 174 212 248
#     4   9  14  24  41  61  85 114 142 171 211 255
#     4   9  16  26  41  62  86 110 141 176 209 248
#     4   9  17  29  44  63  88 115 141 172 211 253
#     4  10  18  27  41  63  87 108 135 174 212 248
#     4   9  16  26  41  62  86 110 141 176 209 248
#     4   9  17  29  44  63  88 115 141 172 211 253
#
# _framework density 18.655363000000001
#
# number of rings (size 3 to 8) (size 9 to 14) (size 15 to 20)
#    0.000    2.833    1.667    1.000    0.000    0.000 
#    0.000    0.833    0.000    5.000    0.000    5.833 
#    0.000    5.333    0.000    0.000    0.000    0.000 
#
# Total GULP energy -595039.637721 kJ/mol
# GULP energy per Si atom -12396.659119 kJ/mol
# Density = 1.861290 g / cm^3
# Si number density = 18.655363 Si / 1000 Ang^3
#
#
#
# Elastic Constant Matrix: (Units=GPa)
#
#
# Indices 1 2 3 4 5 6 
#
# 1 23.1169 -4.6505 15.7135 0.0000 0.0000 0.0000
# 2 -4.6505 5.4220 3.2251 0.0000 0.0000 0.0000
# 3 15.7135 3.2251 112.1266 0.0000 0.0000 0.0000
# 4 0.0000 0.0000 0.0000 11.2578 0.0000 0.0000
# 5 0.0000 0.0000 0.0000 0.0000 33.7556 0.0000
# 6 0.0000 0.0000 0.0000 0.0000 0.0000 18.8989
#
#
#
# Elastic Compliance Matrix: (Units=1/GPa)
#
#
# Indices 1 2 3 4 5 6 
#
# 1 0.062385 0.059731 -0.010461 0.000000 0.000000 0.000000
# 2 0.059731 0.244834 -0.015413 0.000000 0.000000 0.000000
# 3 -0.010461 -0.015413 0.010828 0.000000 0.000000 0.000000
# 4 0.000000 0.000000 0.000000 0.088827 0.000000 0.000000
# 5 0.000000 0.000000 0.000000 0.000000 0.029625 0.000000
# 6 0.000000 0.000000 0.000000 0.000000 0.000000 0.052913
#
#
# Mechanical properties :
#
#
# Convention : Reuss Voigt Hill
#
# Bulk Modulus (GPa) = 2.59228 18.80463 10.69845
# Shear Modulus (GPa) = 9.08620 21.20762 15.14691
#
# Velocity S-wave (km/s) = 2.20933 3.37532 2.85254
# Velocity P-wave (km/s) = 2.81083 5.02914 4.07388
#
# Compressibility (1/GPa) = 0.38576149
#
# Stress axis : x y z
#
# Youngs Moduli (GPa) = 16.02942 4.08440 92.35494
#
# Poissons Ratio (x) = -0.24396 0.96610
# Poissons Ratio (y) = -0.95745 1.42345
# Poissons Ratio (z) = 0.16768 0.06295
#
# Static dielectric constant tensor:
#      x y z
#    x 3.591630 0.000000 0.000000 
#    y 0.000000 2.885750 0.000000 
#    z 0.000000 0.000000 3.693340 
# 
# 
# High freq. dielectric constant tensor:
#      x y z
#    x 1.718740 0.000000 0.000000 
#    y 0.000000 1.672550 0.000000 
#    z 0.000000 0.000000 1.729350 
# 
# From -- ./inp_files/12285.got.cif
#   From: 2010.03.12/outbox.cif.g09.slc.cpg/sg55_7_cif.got.tgz:12285.got - 2010.04.16 15:19:21.
