data_PCOD8224191
_publ_section_title
;
Structure prediction by ZEFSAII (Michael W. Deem and Ramdas Pophale) SiO2 
 PCOD8224191
Probable space group: P C C A
;
_chemical_formula_sum "Si O2"
_cell_formula_units_Z 24
_cell_length_a 5.116183
_cell_length_b 8.525380
_cell_length_c 21.116667
_cell_angle_alpha 90.000000
_cell_angle_beta 90.000000
_cell_angle_gamma 90.000000
_cell_volume 921.054200
_symmetry_space_group_name_H-M "P C C A"
_symmetry_group_IT_number 54
_symmetry_cell_setting 'orthorhombic'
loop_
_space_group_symop_operation_xyz
x,y,z
1/2-x,-y,z
1/2+x,-y,1/2-z
-x,y,1/2-z
-x,-y,-z
1/2+x,y,-z
1/2-x,y,1/2+z
x,-y,1/2+z
loop_
_atom_site_type_symbol
_atom_site_label
_atom_site_fract_x
_atom_site_fract_y
_atom_site_fract_z
Si Si1 0.889052 0.820120 0.538931
Si Si2 0.000000 0.764415 0.250000
Si Si3 0.750000 0.500000 0.318114
Si Si4 0.750000 0.500000 0.594810
Si Si5 0.250000 0.000000 0.346566
O O1 0.616211 0.874768 0.508161
O O2 0.849066 0.635188 0.548053
O O3 0.937771 0.897489 0.607717
O O4 0.245282 0.654241 0.227555
O O5 0.083741 0.878501 0.306271
O O6 0.495369 0.465987 0.360121
#
# Coordination Sequence:
#
# PCOD8224191 Si02
#       5
#     8   4   4   4   4
#     4  12  27  52  79 114 160 213 271 332 402 485
#     4  12  30  50  86 120 170 216 278 336 416 496
#     4  12  27  53  78 118 160 217 267 336 396 494
#     4  12  25  51  82 116 158 211 281 328 402 486
#     4  12  30  48  80 124 162 214 262 344 418 480
#
# _framework density 26.057099000000001
#
# number of rings (size 3 to 8) (size 9 to 14) (size 15 to 20)
#    0.000    0.000    3.333    5.000    4.667    0.000 
#    0.000    0.000    0.000    0.000    0.000    0.000 
#    0.000    0.000    0.000    0.000    0.000    0.000 
#
# Total GULP energy -297464.007737 kJ/mol
# GULP energy per Si atom -12394.333656 kJ/mol
# Density = 2.599779 g / cm^3
# Si number density = 26.057099 Si / 1000 Ang^3
#
#
#
# Elastic Constant Matrix: (Units=GPa)
#
#
# Indices 1 2 3 4 5 6 
#
# 1 136.7435 38.6921 58.8434 0.0000 0.0000 0.0000
# 2 38.6921 164.8015 62.4059 0.0000 0.0000 0.0000
# 3 58.8434 62.4059 156.7550 0.0000 0.0000 0.0000
# 4 0.0000 0.0000 0.0000 56.6173 0.0000 0.0000
# 5 0.0000 0.0000 0.0000 0.0000 29.8997 0.0000
# 6 0.0000 0.0000 0.0000 0.0000 0.0000 42.9557
#
#
#
# Elastic Compliance Matrix: (Units=1/GPa)
#
#
# Indices 1 2 3 4 5 6 
#
# 1 0.008850 -0.000965 -0.002938 0.000000 0.000000 0.000000
# 2 -0.000965 0.007250 -0.002524 0.000000 0.000000 0.000000
# 3 -0.002938 -0.002524 0.008487 0.000000 0.000000 0.000000
# 4 0.000000 0.000000 0.000000 0.017662 0.000000 0.000000
# 5 0.000000 0.000000 0.000000 0.000000 0.033445 0.000000
# 6 0.000000 0.000000 0.000000 0.000000 0.000000 0.023280
#
#
# Mechanical properties :
#
#
# Convention : Reuss Voigt Hill
#
# Bulk Modulus (GPa) = 85.22940 86.46477 85.84708
# Shear Modulus (GPa) = 43.19990 45.78511 44.49250
#
# Velocity S-wave (km/s) = 4.07614 4.19633 4.13667
# Velocity P-wave (km/s) = 7.41168 7.53218 7.47217
#
# Compressibility (1/GPa) = 0.01173304
#
# Stress axis : x y z
#
# Youngs Moduli (GPa) = 112.98949 137.92439 117.82578
#
# Poissons Ratio (x) = 0.13315 0.34617
# Poissons Ratio (y) = 0.10908 0.29740
# Poissons Ratio (z) = 0.33196 0.34813
#
# Static dielectric constant tensor:
#      x y z
#    x 3.950450 0.000000 0.000000 
#    y 0.000000 5.434880 0.000000 
#    z 0.000000 0.000000 5.294430 
# 
# 
# High freq. dielectric constant tensor:
#      x y z
#    x 2.024640 0.000000 0.000000 
#    y 0.000000 2.084330 0.000000 
#    z 0.000000 0.000000 2.066370 
# 
# From -- ./inp_files/22573.got.cif
#   From: 2010.03.12/outbox.cif.g09.slc.cpg/sg54_12_cif.got.tgz:22573.got - 2010.04.16 15:00:50.
