data_PCOD8224193
_publ_section_title
;
Structure prediction by ZEFSAII (Michael W. Deem and Ramdas Pophale) SiO2 
 PCOD8224193
Probable space group: P C C A
;
_chemical_formula_sum "Si O2"
_cell_formula_units_Z 40
_cell_length_a 9.319065
_cell_length_b 17.256929
_cell_length_c 10.651929
_cell_angle_alpha 90.000000
_cell_angle_beta 90.000000
_cell_angle_gamma 90.000000
_cell_volume 1713.026637
_symmetry_space_group_name_H-M "P C C A"
_symmetry_group_IT_number 54
_symmetry_cell_setting 'orthorhombic'
loop_
_space_group_symop_operation_xyz
x,y,z
1/2-x,-y,z
1/2+x,-y,1/2-z
-x,y,1/2-z
-x,-y,-z
1/2+x,y,-z
1/2-x,y,1/2+z
x,-y,1/2+z
loop_
_atom_site_type_symbol
_atom_site_label
_atom_site_fract_x
_atom_site_fract_y
_atom_site_fract_z
Si Si1 0.500000 0.208730 0.750000
Si Si2 0.127943 0.555359 0.459818
Si Si3 0.233409 0.299655 0.099825
Si Si4 0.500000 0.659428 0.750000
Si Si5 0.205333 0.157344 0.451602
Si Si6 0.994400 0.066786 0.604493
O O1 0.601823 0.265148 0.825756
O O2 0.589600 0.151969 0.660057
O O3 0.250000 0.500000 0.408103
O O4 0.193195 0.611221 0.568586
O O5 0.084296 0.607462 0.346014
O O6 0.000000 0.500000 0.500000
O O7 0.381133 0.290188 0.177798
O O8 0.255077 0.247659 0.974945
O O9 0.346351 0.111848 0.413137
O O10 0.132444 0.121367 0.577095
O O11 0.000000 0.037614 0.750000
O O12 0.000000 0.000000 0.500000
#
# Coordination Sequence:
#
# PCOD8224193 Si02
#       6
#     4   8   8   4   8   8
#     4  12  26  45  84 111 154 200 262 322 398 453
#     4  12  28  48  67 104 149 196 257 319 401 477
#     4  12  27  49  74 114 145 204 261 328 393 479
#     4  12  28  45  78 101 150 196 262 326 402 471
#     4  12  27  52  80 117 159 206 268 327 391 474
#     4  12  30  51  84 120 168 212 265 322 399 477
#
# _framework density 23.350483000000001
#
# number of rings (size 3 to 8) (size 9 to 14) (size 15 to 20)
#    0.000    0.000    4.000    4.200   11.200    1.600 
#    0.000    0.000    0.000    0.000    0.000    0.000 
#    0.000    0.000    0.000    0.000    0.000    0.000 
#
# Total GULP energy -496027.865300 kJ/mol
# GULP energy per Si atom -12400.696632 kJ/mol
# Density = 2.329734 g / cm^3
# Si number density = 23.350483 Si / 1000 Ang^3
#
#
#
# Elastic Constant Matrix: (Units=GPa)
#
#
# Indices 1 2 3 4 5 6 
#
# 1 160.8412 43.6316 43.7051 0.0000 0.0000 0.0000
# 2 43.6316 101.4883 30.9775 0.0000 0.0000 0.0000
# 3 43.7051 30.9775 117.6163 0.0000 0.0000 0.0000
# 4 0.0000 0.0000 0.0000 56.3592 0.0000 0.0000
# 5 0.0000 0.0000 0.0000 0.0000 50.3421 0.0000
# 6 0.0000 0.0000 0.0000 0.0000 0.0000 45.7403
#
#
#
# Elastic Compliance Matrix: (Units=1/GPa)
#
#
# Indices 1 2 3 4 5 6 
#
# 1 0.007488 -0.002577 -0.002104 0.000000 0.000000 0.000000
# 2 -0.002577 0.011602 -0.002098 0.000000 0.000000 0.000000
# 3 -0.002104 -0.002098 0.009837 0.000000 0.000000 0.000000
# 4 0.000000 0.000000 0.000000 0.017743 0.000000 0.000000
# 5 0.000000 0.000000 0.000000 0.000000 0.019864 0.000000
# 6 0.000000 0.000000 0.000000 0.000000 0.000000 0.021863
#
#
# Mechanical properties :
#
#
# Convention : Reuss Voigt Hill
#
# Bulk Modulus (GPa) = 65.06790 68.50824 66.78807
# Shear Modulus (GPa) = 46.69546 47.93042 47.31294
#
# Velocity S-wave (km/s) = 4.47672 4.53554 4.50623
# Velocity P-wave (km/s) = 7.39241 7.53863 7.46587
#
# Compressibility (1/GPa) = 0.01536856
#
# Stress axis : x y z
#
# Youngs Moduli (GPa) = 133.54604 86.19440 101.66205
#
# Poissons Ratio (x) = 0.22213 0.21387
# Poissons Ratio (y) = 0.34416 0.21329
# Poissons Ratio (z) = 0.28094 0.18084
#
# Static dielectric constant tensor:
#      x y z
#    x 5.838760 0.000000 0.000000 
#    y 0.000000 4.308090 0.000000 
#    z 0.000000 0.000000 5.159370 
# 
# 
# High freq. dielectric constant tensor:
#      x y z
#    x 1.953660 0.000000 0.000000 
#    y 0.000000 1.928970 0.000000 
#    z 0.000000 0.000000 1.927210 
# 
# From -- ./inp_files/6890.got.cif
#   From: 2010.03.12/outbox.cif.g09.slc.cpg/sg54_4_cif.got.tgz:6890.got - 2010.04.16 15:00:50.
