data_PCOD8224575
_publ_section_title
;
Structure prediction by ZEFSAII (Michael W. Deem and Ramdas Pophale) SiO2 
 PCOD8224575
Probable space group: P B A M
;
_chemical_formula_sum "Si O2"
_cell_formula_units_Z 40
_cell_length_a 10.951284
_cell_length_b 27.069241
_cell_length_c 7.268963
_cell_angle_alpha 90.000000
_cell_angle_beta 90.000000
_cell_angle_gamma 90.000000
_cell_volume 2154.832805
_symmetry_space_group_name_H-M "P B A M"
_symmetry_group_IT_number 55
_symmetry_cell_setting 'orthorhombic'
loop_
_space_group_symop_operation_xyz
x,y,z
-x,-y,z
1/2+x,1/2-y,-z
1/2-x,1/2+y,-z
-x,-y,-z
x,y,-z
1/2-x,1/2+y,z
1/2+x,1/2-y,z
loop_
_atom_site_type_symbol
_atom_site_label
_atom_site_fract_x
_atom_site_fract_y
_atom_site_fract_z
Si Si1 0.723439 0.227067 0.500000
Si Si2 0.888244 0.174592 0.784062
Si Si3 0.293828 0.909014 0.791970
Si Si4 0.135930 0.514544 0.787874
Si Si5 0.547165 0.141579 0.500000
Si Si6 0.402162 0.671742 0.500000
Si Si7 0.200243 0.594564 0.500000
O O1 0.799225 0.213745 0.684251
O O2 0.593449 0.198149 0.500000
O O3 0.696627 0.284703 0.500000
O O4 0.832651 0.119678 0.753633
O O5 0.019055 0.175336 0.686423
O O6 0.901078 0.188121 0.000000
O O7 0.276804 0.967134 0.748736
O O8 0.404306 0.886591 0.678130
O O9 0.337052 0.901731 0.000000
O O10 0.188277 0.560867 0.679538
O O11 0.000000 0.500000 0.721478
O O12 0.135519 0.529942 0.000000
O O13 0.401074 0.138184 0.500000
O O14 0.332067 0.619846 0.500000
#
# Coordination Sequence:
#
# PCOD8224575 Si02
#       7
#     4   8   8   8   4   4   4
#     4   9  21  39  63  82 105 140 189 239 289 337
#     4   9  20  41  62  81 108 148 192 231 278 342
#     4   9  17  33  58  82 106 143 188 230 274 330
#     4  10  19  33  53  82 118 150 185 232 282 333
#     4  10  18  31  55  81 108 140 177 229 284 340
#     4  11  25  39  57  83 119 152 187 237 284 334
#     4  12  23  32  52  85 120 152 178 229 289 337
#
# _framework density 18.562925
#
# number of rings (size 3 to 8) (size 9 to 14) (size 15 to 20)
#    0.000    2.200    2.000    1.500    2.800    1.600 
#    0.000    2.000    0.000    3.600    0.000    0.000 
#    0.000    0.000    0.000    0.000    0.000    0.000 
#
# Total GULP energy -495953.310427 kJ/mol
# GULP energy per Si atom -12398.832761 kJ/mol
# Density = 1.852068 g / cm^3
# Si number density = 18.562925 Si / 1000 Ang^3
#
#
#
# Elastic Constant Matrix: (Units=GPa)
#
#
# Indices 1 2 3 4 5 6 
#
# 1 89.6715 52.0735 45.8639 0.0000 0.0000 0.0000
# 2 52.0735 105.1510 45.5580 0.0000 0.0000 0.0000
# 3 45.8639 45.5580 123.7343 0.0000 0.0000 0.0000
# 4 0.0000 0.0000 0.0000 20.2924 0.0000 0.0000
# 5 0.0000 0.0000 0.0000 0.0000 23.8776 0.0000
# 6 0.0000 0.0000 0.0000 0.0000 0.0000 28.5558
#
#
#
# Elastic Compliance Matrix: (Units=1/GPa)
#
#
# Indices 1 2 3 4 5 6 
#
# 1 0.017047 -0.006787 -0.003820 0.000000 0.000000 0.000000
# 2 -0.006787 0.014017 -0.002645 0.000000 0.000000 0.000000
# 3 -0.003820 -0.002645 0.010472 0.000000 0.000000 0.000000
# 4 0.000000 0.000000 0.000000 0.049280 0.000000 0.000000
# 5 0.000000 0.000000 0.000000 0.000000 0.041880 0.000000
# 6 0.000000 0.000000 0.000000 0.000000 0.000000 0.035019
#
#
# Mechanical properties :
#
#
# Convention : Reuss Voigt Hill
#
# Bulk Modulus (GPa) = 66.52660 67.28307 66.90483
# Shear Modulus (GPa) = 25.09666 26.21592 25.65629
#
# Velocity S-wave (km/s) = 3.68091 3.76210 3.72173
# Velocity P-wave (km/s) = 7.34723 7.42939 7.38842
#
# Compressibility (1/GPa) = 0.01503158
#
# Stress axis : x y z
#
# Youngs Moduli (GPa) = 58.66197 71.33978 95.49576
#
# Poissons Ratio (x) = 0.48419 0.36477
# Poissons Ratio (y) = 0.39814 0.25262
# Poissons Ratio (z) = 0.22407 0.18872
#
# Static dielectric constant tensor:
#      x y z
#    x 3.190440 0.000000 0.000000 
#    y 0.000000 3.409130 0.000000 
#    z 0.000000 0.000000 3.540240 
# 
# 
# High freq. dielectric constant tensor:
#      x y z
#    x 1.694790 0.000000 0.000000 
#    y 0.000000 1.715440 0.000000 
#    z 0.000000 0.000000 1.733550 
# 
# From -- ./inp_files/2563.got.cif
#   From: 2010.03.12/outbox.cif.g09.slc.cpg/sg55_2_cif.got.tgz:2563.got - 2010.04.16 15:19:21.
