data_PCOD8224651
_publ_section_title
;
Structure prediction by ZEFSAII (Michael W. Deem and Ramdas Pophale) SiO2 
 PCOD8224651
Probable space group: P B A M
;
_chemical_formula_sum "Si O2"
_cell_formula_units_Z 40
_cell_length_a 15.407850
_cell_length_b 8.966995
_cell_length_c 13.785789
_cell_angle_alpha 90.000000
_cell_angle_beta 90.000000
_cell_angle_gamma 90.000000
_cell_volume 1904.673750
_symmetry_space_group_name_H-M "P B A M"
_symmetry_group_IT_number 55
_symmetry_cell_setting 'orthorhombic'
loop_
_space_group_symop_operation_xyz
x,y,z
-x,-y,z
1/2+x,1/2-y,-z
1/2-x,1/2+y,-z
-x,-y,-z
x,y,-z
1/2-x,1/2+y,z
1/2+x,1/2-y,z
loop_
_atom_site_type_symbol
_atom_site_label
_atom_site_fract_x
_atom_site_fract_y
_atom_site_fract_z
Si Si1 0.027366 0.669700 0.784390
Si Si2 0.868973 0.256499 0.392231
Si Si3 0.842641 0.715395 0.196709
Si Si4 0.802609 0.405659 0.888244
Si Si5 0.705880 0.076474 0.609067
O O1 0.052780 0.749465 0.683655
O O2 0.108546 0.677933 0.857686
O O3 0.000000 0.500000 0.762806
O O4 0.943278 0.754473 0.829275
O O5 0.909343 0.263070 0.500000
O O6 0.808918 0.401682 0.371655
O O7 0.808416 0.111197 0.379794
O O8 0.779274 0.852578 0.175761
O O9 0.809464 0.581092 0.129298
O O10 0.845521 0.670739 0.310373
O O11 0.784541 0.371728 0.000000
O O12 0.674946 0.121956 0.500000
#
# Coordination Sequence:
#
# PCOD8224651 Si02
#       5
#     8   8   8   8   8
#     4  10  20  35  58  87 114 147 191 237 282 342
#     4  10  19  33  57  88 120 154 193 232 283 342
#     4  11  21  39  61  85 115 152 191 237 293 343
#     4  11  23  39  60  84 114 151 195 244 291 337
#     4  10  18  32  57  86 119 155 190 230 282 346
#
# _framework density 21.000971
#
# number of rings (size 3 to 8) (size 9 to 14) (size 15 to 20)
#    0.000    1.600    6.000    0.600    0.000    5.600 
#    0.000    1.000    0.000    2.400    0.000    8.400 
#    0.000    0.000    0.000    0.000    0.000    0.000 
#
# Total GULP energy -495912.319637 kJ/mol
# GULP energy per Si atom -12397.807991 kJ/mol
# Density = 2.095317 g / cm^3
# Si number density = 21.000971 Si / 1000 Ang^3
#
#
#
# Elastic Constant Matrix: (Units=GPa)
#
#
# Indices 1 2 3 4 5 6 
#
# 1 123.4314 36.5557 28.7750 0.0000 0.0000 0.0000
# 2 36.5557 37.2156 15.3334 0.0000 0.0000 0.0000
# 3 28.7750 15.3334 104.2733 0.0000 0.0000 0.0000
# 4 0.0000 0.0000 0.0000 19.8771 0.0000 0.0000
# 5 0.0000 0.0000 0.0000 0.0000 20.7553 0.0000
# 6 0.0000 0.0000 0.0000 0.0000 0.0000 26.6888
#
#
#
# Elastic Compliance Matrix: (Units=1/GPa)
#
#
# Indices 1 2 3 4 5 6 
#
# 1 0.011682 -0.010801 -0.001635 0.000000 0.000000 0.000000
# 2 -0.010801 0.038590 -0.002694 0.000000 0.000000 0.000000
# 3 -0.001635 -0.002694 0.010438 0.000000 0.000000 0.000000
# 4 0.000000 0.000000 0.000000 0.050309 0.000000 0.000000
# 5 0.000000 0.000000 0.000000 0.000000 0.048180 0.000000
# 6 0.000000 0.000000 0.000000 0.000000 0.000000 0.037469
#
#
# Mechanical properties :
#
#
# Convention : Reuss Voigt Hill
#
# Bulk Modulus (GPa) = 32.84223 47.36095 40.10159
# Shear Modulus (GPa) = 21.09013 25.74798 23.41906
#
# Velocity S-wave (km/s) = 3.17242 3.50528 3.34300
# Velocity P-wave (km/s) = 5.39364 6.24367 5.83416
#
# Compressibility (1/GPa) = 0.03044860
#
# Stress axis : x y z
#
# Youngs Moduli (GPa) = 85.60401 25.91361 95.80706
#
# Poissons Ratio (x) = 0.27989 0.15668
# Poissons Ratio (y) = 0.92459 0.25811
# Poissons Ratio (z) = 0.14000 0.06981
#
# Static dielectric constant tensor:
#      x y z
#    x 3.956400 0.000000 0.000000 
#    y 0.000000 3.504220 0.000000 
#    z 0.000000 0.000000 3.877710 
# 
# 
# High freq. dielectric constant tensor:
#      x y z
#    x 1.816730 0.000000 0.000000 
#    y 0.000000 1.785260 0.000000 
#    z 0.000000 0.000000 1.829860 
# 
# From -- ./inp_files/17045.got.cif
#   From: 2010.03.12/outbox.cif.g09.slc.cpg/sg55_9_cif.got.tgz:17045.got - 2010.04.16 15:19:21.
