data_PCOD8224111
_publ_section_title
;
Structure prediction by ZEFSAII (Michael W. Deem and Ramdas Pophale) SiO2 
 PCOD8224111
Probable space group: P C C A
;
_chemical_formula_sum "Si O2"
_cell_formula_units_Z 48
_cell_length_a 11.770338
_cell_length_b 10.998885
_cell_length_c 16.767268
_cell_angle_alpha 90.000000
_cell_angle_beta 90.000000
_cell_angle_gamma 90.000000
_cell_volume 2170.700476
_symmetry_space_group_name_H-M "P C C A"
_symmetry_group_IT_number 54
_symmetry_cell_setting 'orthorhombic'
loop_
_space_group_symop_operation_xyz
x,y,z
1/2-x,-y,z
1/2+x,-y,1/2-z
-x,y,1/2-z
-x,-y,-z
1/2+x,y,-z
1/2-x,y,1/2+z
x,-y,1/2+z
loop_
_atom_site_type_symbol
_atom_site_label
_atom_site_fract_x
_atom_site_fract_y
_atom_site_fract_z
Si Si1 0.613684 0.349301 0.144014
Si Si2 0.897785 0.312728 0.957738
Si Si3 0.234404 0.863876 0.799695
Si Si4 0.750000 0.500000 0.521010
Si Si5 0.000000 0.537149 0.750000
Si Si6 0.510113 0.748054 0.130722
Si Si7 0.775284 0.131701 0.383295
O O1 0.490205 0.315010 0.111288
O O2 0.668024 0.222850 0.168095
O O3 0.695670 0.397115 0.075695
O O4 0.600698 0.448588 0.216239
O O5 0.795502 0.223611 0.936843
O O6 0.846374 0.447505 0.963265
O O7 0.944504 0.283733 0.044470
O O8 0.108138 0.812317 0.816417
O O9 0.264491 0.865826 0.707218
O O10 0.250000 0.000000 0.835736
O O11 0.035122 0.626156 0.676440
O O12 0.408859 0.841067 0.114679
O O13 0.750000 0.000000 0.420878
#
# Coordination Sequence:
#
# PCOD8224111 Si02
#       7
#     8   8   8   4   4   8   8
#     4  12  25  46  71 108 142 190 246 298 377 436
#     4  12  27  45  73 108 149 192 242 307 369 443
#     4  11  25  48  77 105 148 195 251 311 362 445
#     4  12  24  44  68 102 152 184 234 300 374 444
#     4  12  24  44  74 102 146 190 246 300 368 450
#     4  12  25  48  74 105 146 198 241 309 377 433
#     4  11  27  48  74 107 145 198 252 301 372 442
#
# _framework density 22.112677999999999
#
# number of rings (size 3 to 8) (size 9 to 14) (size 15 to 20)
#    0.000    0.333    5.000    2.500    4.667    1.333 
#    3.000    0.000    0.000    0.000    0.000    0.000 
#    0.000    0.000    0.000    0.000    0.000    0.000 
#
# Total GULP energy -595172.840354 kJ/mol
# GULP energy per Si atom -12399.434174 kJ/mol
# Density = 2.206235 g / cm^3
# Si number density = 22.112678 Si / 1000 Ang^3
#
#
#
# Elastic Constant Matrix: (Units=GPa)
#
#
# Indices 1 2 3 4 5 6 
#
# 1 114.3288 59.6238 46.2221 0.0000 0.0000 0.0000
# 2 59.6238 157.8458 54.3027 0.0000 0.0000 0.0000
# 3 46.2221 54.3027 92.9812 0.0000 0.0000 0.0000
# 4 0.0000 0.0000 0.0000 55.4314 0.0000 0.0000
# 5 0.0000 0.0000 0.0000 0.0000 9.1748 0.0000
# 6 0.0000 0.0000 0.0000 0.0000 0.0000 42.4920
#
#
#
# Elastic Compliance Matrix: (Units=1/GPa)
#
#
# Indices 1 2 3 4 5 6 
#
# 1 0.012061 -0.003120 -0.004174 0.000000 0.000000 0.000000
# 2 -0.003120 0.008735 -0.003551 0.000000 0.000000 0.000000
# 3 -0.004174 -0.003551 0.014903 0.000000 0.000000 0.000000
# 4 0.000000 0.000000 0.000000 0.018040 0.000000 0.000000
# 5 0.000000 0.000000 0.000000 0.000000 0.108995 0.000000
# 6 0.000000 0.000000 0.000000 0.000000 0.000000 0.023534
#
#
# Mechanical properties :
#
#
# Convention : Reuss Voigt Hill
#
# Bulk Modulus (GPa) = 71.37117 76.16144 73.76630
# Shear Modulus (GPa) = 23.51529 35.08677 29.30103
#
# Velocity S-wave (km/s) = 3.26457 3.98770 3.64411
# Velocity P-wave (km/s) = 6.82320 7.46455 7.15107
#
# Compressibility (1/GPa) = 0.01401126
#
# Stress axis : x y z
#
# Youngs Moduli (GPa) = 82.91032 114.47725 67.09975
#
# Poissons Ratio (x) = 0.35718 0.28004
# Poissons Ratio (y) = 0.25869 0.23824
# Poissons Ratio (z) = 0.34603 0.40646
#
# Static dielectric constant tensor:
#      x y z
#    x 4.145600 0.000000 0.000000 
#    y 0.000000 4.303710 0.000000 
#    z 0.000000 0.000000 4.085460 
# 
# 
# High freq. dielectric constant tensor:
#      x y z
#    x 1.874000 0.000000 0.000000 
#    y 0.000000 1.879690 0.000000 
#    z 0.000000 0.000000 1.879260 
# 
# From -- ./inp_files/17322.got.cif
#   From: 2010.03.12/outbox.cif.g09.slc.cpg/sg54_9_cif.got.tgz:17322.got - 2010.04.16 15:00:50.
