data_PCOD8224942
_publ_section_title
;
Structure prediction by ZEFSAII (Michael W. Deem and Ramdas Pophale) SiO2 
 PCOD8224942
Probable space group: P B A M
;
_chemical_formula_sum "Si O2"
_cell_formula_units_Z 64
_cell_length_a 20.780837
_cell_length_b 19.221576
_cell_length_c 8.970782
_cell_angle_alpha 90.000000
_cell_angle_beta 90.000000
_cell_angle_gamma 90.000000
_cell_volume 3583.293089
_symmetry_space_group_name_H-M "P B A M"
_symmetry_group_IT_number 55
_symmetry_cell_setting 'orthorhombic'
loop_
_space_group_symop_operation_xyz
x,y,z
-x,-y,z
1/2+x,1/2-y,-z
1/2-x,1/2+y,-z
-x,-y,-z
x,y,-z
1/2-x,1/2+y,z
1/2+x,1/2-y,z
loop_
_atom_site_type_symbol
_atom_site_label
_atom_site_fract_x
_atom_site_fract_y
_atom_site_fract_z
Si Si1 0.755987 0.330786 0.675142
Si Si2 0.617052 0.176846 0.174997
Si Si3 0.694310 0.533995 0.328757
Si Si4 0.436475 0.540018 0.325346
Si Si5 0.751230 0.675989 0.669929
Si Si6 0.690331 0.956660 0.823687
Si Si7 0.880703 0.832348 0.823244
Si Si8 0.563601 0.035687 0.822919
O O1 0.752056 0.345163 0.500000
O O2 0.776629 0.251710 0.713840
O O3 0.809181 0.380285 0.749407
O O4 0.686756 0.349187 0.744689
O O5 0.686991 0.156770 0.234150
O O6 0.595639 0.254538 0.223906
O O7 0.567216 0.116931 0.229061
O O8 0.623800 0.173226 0.000000
O O9 0.709771 0.514484 0.500000
O O10 0.623609 0.508896 0.283187
O O11 0.696730 0.617556 0.304620
O O12 0.746536 0.498327 0.224396
O O13 0.500000 0.500000 0.271721
O O14 0.439316 0.557008 0.500000
O O15 0.432895 0.612748 0.236245
O O16 0.774916 0.678079 0.500000
O O17 0.626594 0.995313 0.764715
O O18 0.690102 0.948576 0.000000
O O19 0.872233 0.839008 0.000000
O O20 0.500000 0.000000 0.752990
O O21 0.560771 0.031035 0.000000
#
# Coordination Sequence:
#
# PCOD8224942 Si02
#       8
#     8   8   8   8   8   8   8   8
#     4  10  19  32  50  74 105 136 168 210 262 316
#     4   9  17  31  51  75 101 132 170 213 257 304
#     4  10  19  33  53  75 101 132 170 215 260 307
#     4  10  21  36  53  74 103 141 178 210 255 316
#     4   9  18  31  50  75 101 133 170 211 263 312
#     4  11  20  31  52  79 103 132 173 215 256 302
#     4  10  19  31  51  77 103 130 169 217 261 305
#     4   9  18  33  52  75 105 140 174 209 253 309
#
# _framework density 17.860666999999999
#
# number of rings (size 3 to 8) (size 9 to 14) (size 15 to 20)
#    0.000    2.250    2.500    1.125    0.000    1.250 
#    0.000    1.250    0.000    3.375    0.000    0.000 
#    0.000    0.000    0.000    0.000    0.000    0.000 
#
# Total GULP energy -793442.166554 kJ/mol
# GULP energy per Si atom -12397.533852 kJ/mol
# Density = 1.782002 g / cm^3
# Si number density = 17.860667 Si / 1000 Ang^3
#
#
#
# Elastic Constant Matrix: (Units=GPa)
#
#
# Indices 1 2 3 4 5 6 
#
# 1 107.2269 73.6759 29.3713 0.0000 0.0000 0.0000
# 2 73.6759 157.1018 39.1748 0.0000 0.0000 0.0000
# 3 29.3713 39.1748 44.9097 0.0000 0.0000 0.0000
# 4 0.0000 0.0000 0.0000 23.7613 0.0000 0.0000
# 5 0.0000 0.0000 0.0000 0.0000 17.9553 0.0000
# 6 0.0000 0.0000 0.0000 0.0000 0.0000 29.0510
#
#
#
# Elastic Compliance Matrix: (Units=1/GPa)
#
#
# Indices 1 2 3 4 5 6 
#
# 1 0.014444 -0.005646 -0.004521 0.000000 0.000000 0.000000
# 2 -0.005646 0.010342 -0.005329 0.000000 0.000000 0.000000
# 3 -0.004521 -0.005329 0.029872 0.000000 0.000000 0.000000
# 4 0.000000 0.000000 0.000000 0.042085 0.000000 0.000000
# 5 0.000000 0.000000 0.000000 0.000000 0.055694 0.000000
# 6 0.000000 0.000000 0.000000 0.000000 0.000000 0.034422
#
#
# Mechanical properties :
#
#
# Convention : Reuss Voigt Hill
#
# Bulk Modulus (GPa) = 42.25522 65.96470 54.10996
# Shear Modulus (GPa) = 22.14933 25.28795 23.71864
#
# Velocity S-wave (km/s) = 3.52535 3.76685 3.64810
# Velocity P-wave (km/s) = 6.34669 7.47877 6.93587
#
# Compressibility (1/GPa) = 0.02366572
#
# Stress axis : x y z
#
# Youngs Moduli (GPa) = 69.23215 96.69283 33.47628
#
# Poissons Ratio (x) = 0.54597 0.15135
# Poissons Ratio (y) = 0.39092 0.17838
# Poissons Ratio (z) = 0.31301 0.51523
#
# Static dielectric constant tensor:
#      x y z
#    x 3.168990 0.000000 0.000000 
#    y 0.000000 3.826340 0.000000 
#    z 0.000000 0.000000 3.202630 
# 
# 
# High freq. dielectric constant tensor:
#      x y z
#    x 1.654850 0.000000 0.000000 
#    y 0.000000 1.714090 0.000000 
#    z 0.000000 0.000000 1.681590 
# 
# From -- ./inp_files/9866.got.cif
#   From: 2010.03.12/outbox.cif.g09.slc.cpg/sg55_5_cif.got.tgz:9866.got - 2010.04.16 15:19:21.
