data_PCOD8224230
_publ_section_title
;
Structure prediction by ZEFSAII (Michael W. Deem and Ramdas Pophale) SiO2 
 PCOD8224230
Probable space group: P B A M
;
_chemical_formula_sum "Si O2"
_cell_formula_units_Z 44
_cell_length_a 13.068318
_cell_length_b 5.244662
_cell_length_c 27.010283
_cell_angle_alpha 90.000000
_cell_angle_beta 90.000000
_cell_angle_gamma 90.000000
_cell_volume 1851.255378
_symmetry_space_group_name_H-M "P B A M"
_symmetry_group_IT_number 55
_symmetry_cell_setting 'orthorhombic'
loop_
_space_group_symop_operation_xyz
x,y,z
-x,-y,z
1/2+x,1/2-y,-z
1/2-x,1/2+y,-z
-x,-y,-z
x,y,-z
1/2-x,1/2+y,z
1/2+x,1/2-y,z
loop_
_atom_site_type_symbol
_atom_site_label
_atom_site_fract_x
_atom_site_fract_y
_atom_site_fract_z
Si Si1 0.625996 0.851649 0.290563
Si Si2 0.814218 0.360954 0.500000
Si Si3 0.815569 0.255397 0.604117
Si Si4 0.686036 0.142256 0.055293
Si Si5 0.644537 0.351430 0.249863
Si Si6 0.562862 0.243117 0.150537
O O1 0.611161 0.796167 0.348839
O O2 0.582431 0.617137 0.257965
O O3 0.745330 0.900239 0.274644
O O4 0.577693 0.128686 0.277699
O O5 0.780287 0.656980 0.500000
O O6 0.875327 0.301693 0.551462
O O7 0.725275 0.466232 0.606583
O O8 0.771522 0.358164 0.063135
O O9 0.599796 0.182803 0.095601
O O10 0.639033 0.168704 0.000000
O O11 0.652923 0.286961 0.191235
O O12 0.500000 0.500000 0.147337
O O13 0.500000 0.000000 0.169696
#
# Coordination Sequence:
#
# PCOD8224230 Si02
#       6
#     8   4   8   8   8   8
#     4  10  17  30  50  76  96 142 181 235 264 325
#     4   8  16  20  34  52  92 140 154 210 270 350
#     4  10  14  25  36  63  96 129 178 208 279 334
#     4  10  23  43  68  94 117 149 194 239 276 330
#     4  10  20  31  50  73 103 136 182 221 268 316
#     4  12  26  41  59  88 122 156 186 233 290 340
#
# _framework density 23.767654
#
# number of rings (size 3 to 8) (size 9 to 14) (size 15 to 20)
#    0.000    1.818    3.636    2.182    5.091    0.727 
#    0.000    0.000    0.000    0.000    0.000    0.000 
#    0.000    0.000    0.000   27.818    0.000    0.000 
#
# Total GULP energy -545166.790898 kJ/mol
# GULP energy per Si atom -12390.154339 kJ/mol
# Density = 2.371356 g / cm^3
# Si number density = 23.767654 Si / 1000 Ang^3
#
#
#
# Elastic Constant Matrix: (Units=GPa)
#
#
# Indices 1 2 3 4 5 6 
#
# 1 10.8128 10.7149 12.4600 0.0000 0.0000 0.0000
# 2 10.7149 167.0405 16.8998 0.0000 0.0000 0.0000
# 3 12.4600 16.8998 175.3754 0.0000 0.0000 0.0000
# 4 0.0000 0.0000 0.0000 40.0466 0.0000 0.0000
# 5 0.0000 0.0000 0.0000 0.0000 16.1986 0.0000
# 6 0.0000 0.0000 0.0000 0.0000 0.0000 -184.1900
#
#
#
# Elastic Compliance Matrix: (Units=1/GPa)
#
#
# Indices 1 2 3 4 5 6 
#
# 1 0.106606 -0.006132 -0.006983 0.000000 0.000000 0.000000
# 2 -0.006132 0.006398 -0.000181 0.000000 0.000000 0.000000
# 3 -0.006983 -0.000181 0.006216 0.000000 0.000000 0.000000
# 4 0.000000 0.000000 0.000000 0.024971 0.000000 0.000000
# 5 0.000000 0.000000 0.000000 0.000000 0.061734 0.000000
# 6 0.000000 0.000000 0.000000 0.000000 0.000000 -0.005429
#
#
# Mechanical properties :
#
#
# Convention : Reuss Voigt Hill
#
# Bulk Modulus (GPa) = 10.79586 48.15313 29.47449
# Shear Modulus (GPa) = 19.38258 -4.71203 7.33528
#
# Velocity S-wave (km/s) = 2.85880 -1.40955 1.75868
# Velocity P-wave (km/s) = 3.93053 4.20176 4.06841
#
# Compressibility (1/GPa) = 0.09262807
#
# Stress axis : x y z
#
# Youngs Moduli (GPa) = 9.38032 156.29378 160.88469
#
# Poissons Ratio (x) = 0.95837 1.12350
# Poissons Ratio (y) = 0.05752 0.02910
# Poissons Ratio (z) = 0.06551 0.02827
#
# Static dielectric constant tensor:
#      x y z
#    x 3.566670 0.000000 0.000000 
#    y 0.000000 5.271520 0.000000 
#    z 0.000000 0.000000 4.875950 
# 
# 
# High freq. dielectric constant tensor:
#      x y z
#    x 1.872030 0.000000 0.000000 
#    y 0.000000 1.990130 0.000000 
#    z 0.000000 0.000000 1.965900 
# 
# From -- ./inp_files/23633.got.cif
#   From: 2010.03.12/outbox.cif.g09.slc.cpg/sg55_12_cif.got.tgz:23633.got - 2010.04.16 15:19:21.
