data_PCOD8224325
_publ_section_title
;
Structure prediction by ZEFSAII (Michael W. Deem and Ramdas Pophale) SiO2 
 PCOD8224325
Probable space group: P B A M
;
_chemical_formula_sum "Si O2"
_cell_formula_units_Z 64
_cell_length_a 22.942571
_cell_length_b 19.060329
_cell_length_c 8.841845
_cell_angle_alpha 90.000000
_cell_angle_beta 90.000000
_cell_angle_gamma 90.000000
_cell_volume 3866.476496
_symmetry_space_group_name_H-M "P B A M"
_symmetry_group_IT_number 55
_symmetry_cell_setting 'orthorhombic'
loop_
_space_group_symop_operation_xyz
x,y,z
-x,-y,z
1/2+x,1/2-y,-z
1/2-x,1/2+y,-z
-x,-y,-z
x,y,-z
1/2-x,1/2+y,z
1/2+x,1/2-y,z
loop_
_atom_site_type_symbol
_atom_site_label
_atom_site_fract_x
_atom_site_fract_y
_atom_site_fract_z
Si Si1 0.153137 0.253395 0.320517
Si Si2 0.383156 0.983738 0.673197
Si Si3 0.247744 0.994045 0.676161
Si Si4 0.281701 0.632571 0.822238
Si Si5 0.435993 0.849676 0.823253
Si Si6 0.762810 0.159550 0.675923
Si Si7 0.942605 0.370067 0.674899
Si Si8 0.826242 0.294501 0.324372
O O1 0.152143 0.248071 0.500000
O O2 0.166016 0.176354 0.254382
O O3 0.092039 0.282799 0.260591
O O4 0.204028 0.305205 0.259114
O O5 0.391524 0.959338 0.500000
O O6 0.316501 0.003040 0.704935
O O7 0.421921 0.051328 0.709872
O O8 0.403710 0.921173 0.779150
O O9 0.232588 0.003200 0.500000
O O10 0.212537 0.052118 0.769609
O O11 0.227150 0.918194 0.742801
O O12 0.218507 0.660889 0.773942
O O13 0.288585 0.637750 0.000000
O O14 0.503477 0.852251 0.780106
O O15 0.429740 0.838070 0.000000
O O16 0.751512 0.148353 0.500000
O O17 0.817481 0.211195 0.707664
O O18 0.960642 0.362734 0.500000
O O19 0.891835 0.315034 0.717573
O O20 0.812737 0.312102 0.500000
#
# Coordination Sequence:
#
# PCOD8224325 Si02
#       8
#     8   8   8   8   8   8   8   8
#     4  10  19  36  55  70  92 130 172 208 245 294
#     4  10  19  33  50  70  97 137 181 209 235 287
#     4  10  17  31  51  74  99 133 170 200 239 295
#     4  11  21  31  47  75 105 130 158 203 256 298
#     4  12  24  34  47  71 102 132 168 213 261 300
#     4   8  15  28  52  75  93 118 161 209 245 283
#     4  10  20  34  51  68  95 136 182 213 239 290
#     4   9  17  33  52  72  94 129 172 211 246 290
#
# _framework density 16.552537999999998
#
# number of rings (size 3 to 8) (size 9 to 14) (size 15 to 20)
#    0.000    2.000    2.500    3.750    0.000    3.000 
#    0.000    0.625    0.000    0.000    0.000    0.875 
#    0.000    7.000    0.000    0.000    0.000    0.000 
#
# Total GULP energy -793591.612744 kJ/mol
# GULP energy per Si atom -12399.868949 kJ/mol
# Density = 1.651486 g / cm^3
# Si number density = 16.552538 Si / 1000 Ang^3
#
#
#
# Elastic Constant Matrix: (Units=GPa)
#
#
# Indices 1 2 3 4 5 6 
#
# 1 42.4202 20.4058 22.3207 0.0000 0.0000 0.0000
# 2 20.4058 91.3131 29.8772 0.0000 0.0000 0.0000
# 3 22.3207 29.8772 77.9994 0.0000 0.0000 0.0000
# 4 0.0000 0.0000 0.0000 15.8134 0.0000 0.0000
# 5 0.0000 0.0000 0.0000 0.0000 16.4002 0.0000
# 6 0.0000 0.0000 0.0000 0.0000 0.0000 23.2551
#
#
#
# Elastic Compliance Matrix: (Units=1/GPa)
#
#
# Indices 1 2 3 4 5 6 
#
# 1 0.029178 -0.004331 -0.006691 0.000000 0.000000 0.000000
# 2 -0.004331 0.013163 -0.003803 0.000000 0.000000 0.000000
# 3 -0.006691 -0.003803 0.016192 0.000000 0.000000 0.000000
# 4 0.000000 0.000000 0.000000 0.063238 0.000000 0.000000
# 5 0.000000 0.000000 0.000000 0.000000 0.060975 0.000000
# 6 0.000000 0.000000 0.000000 0.000000 0.000000 0.043001
#
#
# Mechanical properties :
#
#
# Convention : Reuss Voigt Hill
#
# Bulk Modulus (GPa) = 34.62142 39.66003 37.14072
# Shear Modulus (GPa) = 18.86624 20.36900 19.61762
#
# Velocity S-wave (km/s) = 3.37972 3.51175 3.44637
# Velocity P-wave (km/s) = 6.01594 6.36045 6.19059
#
# Compressibility (1/GPa) = 0.02888385
#
# Stress axis : x y z
#
# Youngs Moduli (GPa) = 34.27281 75.96776 61.75943
#
# Poissons Ratio (x) = 0.32903 0.41321
# Poissons Ratio (y) = 0.14844 0.23486
# Poissons Ratio (z) = 0.22931 0.28889
#
# Static dielectric constant tensor:
#      x y z
#    x 2.964870 0.000000 0.000000 
#    y 0.000000 3.370130 0.000000 
#    z 0.000000 0.000000 2.942120 
# 
# 
# High freq. dielectric constant tensor:
#      x y z
#    x 1.608120 0.000000 0.000000 
#    y 0.000000 1.640210 0.000000 
#    z 0.000000 0.000000 1.624810 
# 
# From -- ./inp_files/8991.got.cif
#   From: 2010.03.12/outbox.cif.g09.slc.cpg/sg55_5_cif.got.tgz:8991.got - 2010.04.16 15:19:21.
