data_PCOD8224869
_publ_section_title
;
Structure prediction by ZEFSAII (Michael W. Deem and Ramdas Pophale) SiO2 
 PCOD8224869
Probable space group: P B A M
;
_chemical_formula_sum "Si O2"
_cell_formula_units_Z 48
_cell_length_a 18.017041
_cell_length_b 18.112845
_cell_length_c 8.619650
_cell_angle_alpha 90.000000
_cell_angle_beta 90.000000
_cell_angle_gamma 90.000000
_cell_volume 2812.935469
_symmetry_space_group_name_H-M "P B A M"
_symmetry_group_IT_number 55
_symmetry_cell_setting 'orthorhombic'
loop_
_space_group_symop_operation_xyz
x,y,z
-x,-y,z
1/2+x,1/2-y,-z
1/2-x,1/2+y,-z
-x,-y,-z
x,y,-z
1/2-x,1/2+y,z
1/2+x,1/2-y,z
loop_
_atom_site_type_symbol
_atom_site_label
_atom_site_fract_x
_atom_site_fract_y
_atom_site_fract_z
Si Si1 0.079297 0.813477 0.679446
Si Si2 0.291529 0.588401 0.816314
Si Si3 0.301789 0.421835 0.816678
Si Si4 0.412999 0.697188 0.682766
Si Si5 0.800948 0.298245 0.320454
Si Si6 0.813907 0.691997 0.179156
O O1 0.075948 0.832897 0.500000
O O2 0.126848 0.878291 0.755457
O O3 0.115521 0.731695 0.704661
O O4 0.996426 0.811664 0.748240
O O5 0.304073 0.505321 0.755459
O O6 0.362716 0.636271 0.766907
O O7 0.215141 0.617640 0.733747
O O8 0.281475 0.590262 0.000000
O O9 0.223139 0.384961 0.762546
O O10 0.306144 0.417817 0.000000
O O11 0.409051 0.684955 0.500000
O O12 0.385520 0.780816 0.723228
O O13 0.776704 0.287606 0.500000
O O14 0.749426 0.252694 0.203918
O O15 0.836965 0.688064 0.000000
#
# Coordination Sequence:
#
# PCOD8224869 Si02
#       6
#     8   8   8   8   8   8
#     4   9  19  32  47  67  93 120 150 185 223 264
#     4  10  19  31  46  68  94 120 148 184 224 266
#     4   9  19  32  47  67  93 120 150 185 223 264
#     4  10  19  31  46  68  94 120 148 184 224 266
#     4   9  16  29  47  66  86 115 152 187 219 260
#     4   9  16  29  47  66  86 115 152 187 219 260
#
# _framework density 17.064025000000001
#
# number of rings (size 3 to 8) (size 9 to 14) (size 15 to 20)
#    0.000    2.667    0.000    4.000    0.000    4.667 
#    0.000    3.333    0.000    1.000    0.000    7.000 
#    0.000    0.000    0.000    0.000    0.000    0.000 
#
# Total GULP energy -594677.973992 kJ/mol
# GULP energy per Si atom -12389.124458 kJ/mol
# Density = 1.702519 g / cm^3
# Si number density = 17.064025 Si / 1000 Ang^3
#
#
#
# Elastic Constant Matrix: (Units=GPa)
#
#
# Indices 1 2 3 4 5 6 
#
# 1 83.4951 86.0069 21.8614 0.0000 0.0000 0.0000
# 2 86.0069 113.5566 29.2207 0.0000 0.0000 0.0000
# 3 21.8614 29.2207 37.1444 0.0000 0.0000 0.0000
# 4 0.0000 0.0000 0.0000 18.9166 0.0000 0.0000
# 5 0.0000 0.0000 0.0000 0.0000 17.8975 0.0000
# 6 0.0000 0.0000 0.0000 0.0000 0.0000 20.4096
#
#
#
# Elastic Compliance Matrix: (Units=1/GPa)
#
#
# Indices 1 2 3 4 5 6 
#
# 1 0.054491 -0.041399 0.000497 0.000000 0.000000 0.000000
# 2 -0.041399 0.042494 -0.009063 0.000000 0.000000 0.000000
# 3 0.000497 -0.009063 0.033759 0.000000 0.000000 0.000000
# 4 0.000000 0.000000 0.000000 0.052864 0.000000 0.000000
# 5 0.000000 0.000000 0.000000 0.000000 0.055874 0.000000
# 6 0.000000 0.000000 0.000000 0.000000 0.000000 0.048996
#
#
# Mechanical properties :
#
#
# Convention : Reuss Voigt Hill
#
# Bulk Modulus (GPa) = 32.45364 56.48599 44.46982
# Shear Modulus (GPa) = 12.54140 17.91857 15.22999
#
# Velocity S-wave (km/s) = 2.71396 3.24401 2.99075
# Velocity P-wave (km/s) = 5.37409 6.87064 6.16792
#
# Compressibility (1/GPa) = 0.03081318
#
# Stress axis : x y z
#
# Youngs Moduli (GPa) = 18.35167 23.53296 29.62133
#
# Poissons Ratio (x) = 0.97424 -0.01472
# Poissons Ratio (y) = 0.75974 0.26847
# Poissons Ratio (z) = -0.00912 0.21329
#
# Static dielectric constant tensor:
#      x y z
#    x 3.445440 0.000000 0.000000 
#    y 0.000000 3.560270 0.000000 
#    z 0.000000 0.000000 3.155110 
# 
# 
# High freq. dielectric constant tensor:
#      x y z
#    x 1.641650 0.000000 0.000000 
#    y 0.000000 1.645400 0.000000 
#    z 0.000000 0.000000 1.663960 
# 
# From -- ./inp_files/5834.got.cif
#   From: 2010.03.12/outbox.cif.g09.slc.cpg/sg55_3_cif.got.tgz:5834.got - 2010.04.16 15:19:21.
