data_PCOD8224842
_publ_section_title
;
Structure prediction by ZEFSAII (Michael W. Deem and Ramdas Pophale) SiO2 
 PCOD8224842
Probable space group: P B A M
;
_chemical_formula_sum "Si O2"
_cell_formula_units_Z 44
_cell_length_a 15.377877
_cell_length_b 5.012868
_cell_length_c 27.249060
_cell_angle_alpha 90.000000
_cell_angle_beta 90.000000
_cell_angle_gamma 90.000000
_cell_volume 2100.555578
_symmetry_space_group_name_H-M "P B A M"
_symmetry_group_IT_number 55
_symmetry_cell_setting 'orthorhombic'
loop_
_space_group_symop_operation_xyz
x,y,z
-x,-y,z
1/2+x,1/2-y,-z
1/2-x,1/2+y,-z
-x,-y,-z
x,y,-z
1/2-x,1/2+y,z
1/2+x,1/2-y,z
loop_
_atom_site_type_symbol
_atom_site_label
_atom_site_fract_x
_atom_site_fract_y
_atom_site_fract_z
Si Si1 0.603468 0.016378 0.687499
Si Si2 0.937930 0.744324 0.500000
Si Si3 0.808125 0.133768 0.844557
Si Si4 0.807707 0.625344 0.586126
Si Si5 0.897949 0.012243 0.745436
Si Si6 0.192518 0.982963 0.947583
O O1 0.638259 0.730174 0.706247
O O2 0.500000 0.000000 0.679128
O O3 0.648085 0.129141 0.639001
O O4 0.635061 0.221160 0.729816
O O5 0.878998 0.724642 0.547929
O O6 0.000000 0.500000 0.500000
O O7 0.000000 0.000000 0.500000
O O8 0.774399 0.435842 0.841382
O O9 0.873824 0.082060 0.800686
O O10 0.859183 0.083186 0.896888
O O11 0.773629 0.324723 0.578932
O O12 0.000000 0.000000 0.742116
O O13 0.276742 0.788987 0.946358
O O14 0.141761 0.934616 0.000000
#
# Coordination Sequence:
#
# PCOD8224842 Si02
#       6
#     8   4   8   8   8   8
#     4  10  22  39  58  80 111 152 190 220 270 342
#     4  12  26  46  70  92 122 164 198 226 274 346
#     4  10  19  30  49  74 100 132 175 224 271 324
#     4  12  25  42  65  95 124 149 188 245 291 320
#     4  10  21  36  53  76 109 146 182 223 271 330
#     4   8  14  25  41  64  93 125 164 213 267 321
#
# _framework density 20.946840000000002
#
# number of rings (size 3 to 8) (size 9 to 14) (size 15 to 20)
#    0.000    1.818    0.000    4.364    0.000    6.545 
#    0.000    0.000    0.000    0.545    0.000    0.000 
#    0.000   18.909    0.000    0.000    0.000    2.909 
#
# Total GULP energy -545129.711820 kJ/mol
# GULP energy per Si atom -12389.311632 kJ/mol
# Density = 2.089916 g / cm^3
# Si number density = 20.946840 Si / 1000 Ang^3
#
#
#
# Elastic Constant Matrix: (Units=GPa)
#
#
# Indices 1 2 3 4 5 6 
#
# 1 34.1287 26.7380 37.9193 0.0000 0.0000 0.0000
# 2 26.7380 113.0081 30.1187 0.0000 0.0000 0.0000
# 3 37.9193 30.1187 173.0726 0.0000 0.0000 0.0000
# 4 0.0000 0.0000 0.0000 33.2799 0.0000 0.0000
# 5 0.0000 0.0000 0.0000 0.0000 749.0110 0.0000
# 6 0.0000 0.0000 0.0000 0.0000 0.0000 19.1238
#
#
#
# Elastic Compliance Matrix: (Units=1/GPa)
#
#
# Indices 1 2 3 4 5 6 
#
# 1 0.045337 -0.008472 -0.008459 0.000000 0.000000 0.000000
# 2 -0.008472 0.010863 -0.000034 0.000000 0.000000 0.000000
# 3 -0.008459 -0.000034 0.007637 0.000000 0.000000 0.000000
# 4 0.000000 0.000000 0.000000 0.030048 0.000000 0.000000
# 5 0.000000 0.000000 0.000000 0.000000 0.001335 0.000000
# 6 0.000000 0.000000 0.000000 0.000000 0.000000 0.052291
#
#
# Mechanical properties :
#
#
# Convention : Reuss Voigt Hill
#
# Bulk Modulus (GPa) = 33.43801 56.64017 45.03909
# Shear Modulus (GPa) = 26.12205 175.31183 100.71694
#
# Velocity S-wave (km/s) = 3.53521 9.15835 6.94165
# Velocity P-wave (km/s) = 5.71503 11.78696 9.26267
#
# Compressibility (1/GPa) = 0.02990608
#
# Stress axis : x y z
#
# Youngs Moduli (GPa) = 22.05728 92.05914 130.93987
#
# Poissons Ratio (x) = 0.77996 1.10757
# Poissons Ratio (y) = 0.18688 0.00446
# Poissons Ratio (z) = 0.18657 0.00314
#
# Static dielectric constant tensor:
#      x y z
#    x 3.358500 0.000000 0.000000 
#    y 0.000000 4.309040 0.000000 
#    z 0.000000 0.000000 4.259330 
# 
# 
# High freq. dielectric constant tensor:
#      x y z
#    x 1.764520 0.000000 0.000000 
#    y 0.000000 1.845770 0.000000 
#    z 0.000000 0.000000 1.848670 
# 
# From -- ./inp_files/23963.got.cif
#   From: 2010.03.12/outbox.cif.g09.slc.cpg/sg55_12_cif.got.tgz:23963.got - 2010.04.16 15:19:21.
