data_PCOD8224027
_publ_section_title
;
Structure prediction by ZEFSAII (Michael W. Deem and Ramdas Pophale) SiO2 
 PCOD8224027
Probable space group: P C C A
;
_chemical_formula_sum "Si O2"
_cell_formula_units_Z 40
_cell_length_a 9.021725
_cell_length_b 18.622670
_cell_length_c 10.545467
_cell_angle_alpha 90.000000
_cell_angle_beta 90.000000
_cell_angle_gamma 90.000000
_cell_volume 1771.729226
_symmetry_space_group_name_H-M "P C C A"
_symmetry_group_IT_number 54
_symmetry_cell_setting 'orthorhombic'
loop_
_space_group_symop_operation_xyz
x,y,z
1/2-x,-y,z
1/2+x,-y,1/2-z
-x,y,1/2-z
-x,-y,-z
1/2+x,y,-z
1/2-x,y,1/2+z
x,-y,1/2+z
loop_
_atom_site_type_symbol
_atom_site_label
_atom_site_fract_x
_atom_site_fract_y
_atom_site_fract_z
Si Si1 0.814778 0.364666 0.563058
Si Si2 0.967608 0.715633 0.608301
Si Si3 0.607981 0.129298 0.910950
Si Si4 0.000000 0.549406 0.250000
Si Si5 0.804919 0.079280 0.145101
Si Si6 0.250000 0.500000 0.086818
O O1 0.708035 0.295924 0.585783
O O2 0.727687 0.428879 0.495614
O O3 0.952199 0.339559 0.481810
O O4 0.878065 0.397320 0.691813
O O5 0.000000 0.692687 0.750000
O O6 0.020022 0.795979 0.579340
O O7 0.474585 0.071475 0.903245
O O8 0.702843 0.124193 0.778836
O O9 0.706956 0.116979 0.035365
O O10 0.905351 0.495386 0.337460
O O11 0.750000 0.000000 0.175034
#
# Coordination Sequence:
#
# PCOD8224027 Si02
#       6
#     8   8   8   4   8   4
#     4  12  27  47  71 105 137 193 235 301 364 433
#     4  12  26  47  72  99 148 189 244 293 363 445
#     4  11  25  47  70 110 149 197 244 309 365 446
#     4  12  26  46  74 104 140 178 236 306 370 424
#     4  11  23  45  75 110 149 192 248 304 375 435
#     4  12  26  48  70 110 140 180 244 298 372 426
#
# _framework density 22.576813999999999
#
# number of rings (size 3 to 8) (size 9 to 14) (size 15 to 20)
#    0.000    0.400    4.000    4.800    4.200    2.400 
#    0.000    0.000    0.000    0.000    0.000    0.000 
#    0.000    0.000    0.000    0.000    0.000    0.000 
#
# Total GULP energy -495895.318845 kJ/mol
# GULP energy per Si atom -12397.382971 kJ/mol
# Density = 2.252543 g / cm^3
# Si number density = 22.576814 Si / 1000 Ang^3
#
#
#
# Elastic Constant Matrix: (Units=GPa)
#
#
# Indices 1 2 3 4 5 6 
#
# 1 129.6847 45.6647 59.2922 0.0000 0.0000 0.0000
# 2 45.6647 103.0523 51.6137 0.0000 0.0000 0.0000
# 3 59.2922 51.6137 110.4433 0.0000 0.0000 0.0000
# 4 0.0000 0.0000 0.0000 21.0561 0.0000 0.0000
# 5 0.0000 0.0000 0.0000 0.0000 42.7939 0.0000
# 6 0.0000 0.0000 0.0000 0.0000 0.0000 44.5958
#
#
#
# Elastic Compliance Matrix: (Units=1/GPa)
#
#
# Indices 1 2 3 4 5 6 
#
# 1 0.010665 -0.002426 -0.004592 0.000000 0.000000 0.000000
# 2 -0.002426 0.013221 -0.004876 0.000000 0.000000 0.000000
# 3 -0.004592 -0.004876 0.013798 0.000000 0.000000 0.000000
# 4 0.000000 0.000000 0.000000 0.047492 0.000000 0.000000
# 5 0.000000 0.000000 0.000000 0.000000 0.023368 0.000000
# 6 0.000000 0.000000 0.000000 0.000000 0.000000 0.022424
#
#
# Mechanical properties :
#
#
# Convention : Reuss Voigt Hill
#
# Bulk Modulus (GPa) = 71.96175 72.92461 72.44318
# Shear Modulus (GPa) = 31.37015 34.12981 32.74998
#
# Velocity S-wave (km/s) = 3.73162 3.89230 3.81281
# Velocity P-wave (km/s) = 7.10704 7.25057 7.17917
#
# Compressibility (1/GPa) = 0.01389627
#
# Stress axis : x y z
#
# Youngs Moduli (GPa) = 93.76883 75.63678 72.47297
#
# Poissons Ratio (x) = 0.18349 0.33276
# Poissons Ratio (y) = 0.22748 0.35339
# Poissons Ratio (z) = 0.43055 0.36882
#
# Static dielectric constant tensor:
#      x y z
#    x 4.537640 0.000000 0.000000 
#    y 0.000000 4.023340 0.000000 
#    z 0.000000 0.000000 4.298910 
# 
# 
# High freq. dielectric constant tensor:
#      x y z
#    x 1.901480 0.000000 0.000000 
#    y 0.000000 1.889750 0.000000 
#    z 0.000000 0.000000 1.898780 
# 
# From -- ./inp_files/6902.got.cif
#   From: 2010.03.12/outbox.cif.g09.slc.cpg/sg54_4_cif.got.tgz:6902.got - 2010.04.16 15:00:50.
