data_PCOD8224355
_publ_section_title
;
Structure prediction by ZEFSAII (Michael W. Deem and Ramdas Pophale) SiO2 
 PCOD8224355
Probable space group: P B A M
;
_chemical_formula_sum "Si O2"
_cell_formula_units_Z 64
_cell_length_a 26.336424
_cell_length_b 18.540354
_cell_length_c 8.965254
_cell_angle_alpha 90.000000
_cell_angle_beta 90.000000
_cell_angle_gamma 90.000000
_cell_volume 4377.613609
_symmetry_space_group_name_H-M "P B A M"
_symmetry_group_IT_number 55
_symmetry_cell_setting 'orthorhombic'
loop_
_space_group_symop_operation_xyz
x,y,z
-x,-y,z
1/2+x,1/2-y,-z
1/2-x,1/2+y,-z
-x,-y,-z
x,y,-z
1/2-x,1/2+y,z
1/2+x,1/2-y,z
loop_
_atom_site_type_symbol
_atom_site_label
_atom_site_fract_x
_atom_site_fract_y
_atom_site_fract_z
Si Si1 0.943107 0.578695 0.824874
Si Si2 0.290192 0.715482 0.329455
Si Si3 0.645494 0.831510 0.677183
Si Si4 0.557725 0.916675 0.176550
Si Si5 0.750467 0.583097 0.675698
Si Si6 0.643903 0.159217 0.668850
Si Si7 0.299674 0.291133 0.175257
Si Si8 0.240726 0.575733 0.671806
O O1 0.928888 0.498088 0.770197
O O2 0.903696 0.637638 0.767483
O O3 0.999854 0.600212 0.775493
O O4 0.940853 0.578380 0.000000
O O5 0.270790 0.732057 0.500000
O O6 0.344696 0.754620 0.308021
O O7 0.251969 0.748928 0.210724
O O8 0.289850 0.628715 0.305221
O O9 0.645357 0.824569 0.500000
O O10 0.592088 0.860954 0.734016
O O11 0.653972 0.752111 0.747663
O O12 0.690255 0.885139 0.735061
O O13 0.565967 0.907378 0.000000
O O14 0.739366 0.585713 0.500000
O O15 0.805838 0.615039 0.713783
O O16 0.706164 0.628304 0.757703
O O17 0.748741 0.502063 0.745272
O O18 0.628764 0.141999 0.500000
O O19 0.309292 0.295665 0.000000
O O20 0.230342 0.559591 0.500000
#
# Coordination Sequence:
#
# PCOD8224355 Si02
#       8
#     8   8   8   8   8   8   8   8
#     4   9  18  30  42  56  80 109 136 167 205 241
#     4   8  15  28  41  56  79 106 134 166 199 233
#     4  10  18  29  44  60  78 105 138 170 202 238
#     4   9  18  31  42  56  79 107 136 170 206 238
#     4   9  16  27  41  58  80 106 134 165 196 231
#     4   9  16  25  39  58  81 106 136 170 200 230
#     4  10  18  27  39  57  80 106 133 163 197 236
#     4   8  14  25  42  59  77 103 134 163 196 233
#
# _framework density 14.619837
#
# number of rings (size 3 to 8) (size 9 to 14) (size 15 to 20)
#    0.000    3.000    0.000    4.500    0.000    4.000 
#    0.000    4.375    0.000    0.000    0.000    0.000 
#    0.000    1.000    0.000   11.500    0.000    2.875 
#
# Total GULP energy -793015.623490 kJ/mol
# GULP energy per Si atom -12390.869117 kJ/mol
# Density = 1.458656 g / cm^3
# Si number density = 14.619837 Si / 1000 Ang^3
#
#
#
# Elastic Constant Matrix: (Units=GPa)
#
#
# Indices 1 2 3 4 5 6 
#
# 1 75.1429 49.0052 25.9081 0.0000 0.0000 0.0000
# 2 49.0052 106.7217 26.2607 0.0000 0.0000 0.0000
# 3 25.9081 26.2607 43.7040 0.0000 0.0000 0.0000
# 4 0.0000 0.0000 0.0000 18.1024 0.0000 0.0000
# 5 0.0000 0.0000 0.0000 0.0000 22.5465 0.0000
# 6 0.0000 0.0000 0.0000 0.0000 0.0000 25.8166
#
#
#
# Elastic Compliance Matrix: (Units=1/GPa)
#
#
# Indices 1 2 3 4 5 6 
#
# 1 0.021057 -0.007742 -0.007831 0.000000 0.000000 0.000000
# 2 -0.007742 0.013843 -0.003728 0.000000 0.000000 0.000000
# 3 -0.007831 -0.003728 0.029763 0.000000 0.000000 0.000000
# 4 0.000000 0.000000 0.000000 0.055241 0.000000 0.000000
# 5 0.000000 0.000000 0.000000 0.000000 0.044353 0.000000
# 6 0.000000 0.000000 0.000000 0.000000 0.000000 0.038735
#
#
# Mechanical properties :
#
#
# Convention : Reuss Voigt Hill
#
# Bulk Modulus (GPa) = 38.37127 47.54628 42.95878
# Shear Modulus (GPa) = 19.97754 21.58606 20.78180
#
# Velocity S-wave (km/s) = 3.70059 3.84668 3.77434
# Velocity P-wave (km/s) = 6.67549 7.23337 6.96002
#
# Compressibility (1/GPa) = 0.02606116
#
# Stress axis : x y z
#
# Youngs Moduli (GPa) = 47.48996 72.24038 33.59834
#
# Poissons Ratio (x) = 0.55931 0.26310
# Poissons Ratio (y) = 0.36768 0.12526
# Poissons Ratio (z) = 0.37188 0.26932
#
# Static dielectric constant tensor:
#      x y z
#    x 2.678080 0.000000 0.000000 
#    y 0.000000 3.134570 0.000000 
#    z 0.000000 0.000000 2.672860 
# 
# 
# High freq. dielectric constant tensor:
#      x y z
#    x 1.521720 0.000000 0.000000 
#    y 0.000000 1.554870 0.000000 
#    z 0.000000 0.000000 1.550690 
# 
# From -- ./inp_files/8178.got.cif
#   From: 2010.03.12/outbox.cif.g09.slc.cpg/sg55_5_cif.got.tgz:8178.got - 2010.04.16 15:19:21.
