data_PCOD8224305
_publ_section_title
;
Structure prediction by ZEFSAII (Michael W. Deem and Ramdas Pophale) SiO2 
 PCOD8224305
Probable space group: P B A M
;
_chemical_formula_sum "Si O2"
_cell_formula_units_Z 56
_cell_length_a 19.373733
_cell_length_b 19.330181
_cell_length_c 8.709171
_cell_angle_alpha 90.000000
_cell_angle_beta 90.000000
_cell_angle_gamma 90.000000
_cell_volume 3261.565079
_symmetry_space_group_name_H-M "P B A M"
_symmetry_group_IT_number 55
_symmetry_cell_setting 'orthorhombic'
loop_
_space_group_symop_operation_xyz
x,y,z
-x,-y,z
1/2+x,1/2-y,-z
1/2-x,1/2+y,-z
-x,-y,-z
x,y,-z
1/2-x,1/2+y,z
1/2+x,1/2-y,z
loop_
_atom_site_type_symbol
_atom_site_label
_atom_site_fract_x
_atom_site_fract_y
_atom_site_fract_z
Si Si1 0.552256 0.942156 0.817286
Si Si2 0.796914 0.477932 0.182543
Si Si3 0.225034 0.157217 0.176798
Si Si4 0.126397 0.261989 0.679890
Si Si5 0.840516 0.232843 0.823467
Si Si6 0.517612 0.788443 0.816569
Si Si7 0.728530 0.130983 0.816663
O O1 0.628131 0.958518 0.749520
O O2 0.526132 0.867520 0.761002
O O3 0.500000 0.000000 0.753188
O O4 0.554932 0.943973 0.000000
O O5 0.739680 0.421290 0.232207
O O6 0.773360 0.552739 0.245724
O O7 0.802089 0.479491 0.000000
O O8 0.165395 0.190643 0.279745
O O9 0.297048 0.197219 0.197703
O O10 0.200849 0.160374 0.000000
O O11 0.127639 0.273802 0.500000
O O12 0.161412 0.327881 0.760337
O O13 0.048764 0.254625 0.739470
O O14 0.916418 0.244803 0.752696
O O15 0.797876 0.168303 0.750622
O O16 0.851412 0.215696 0.000000
O O17 0.511882 0.784747 0.000000
O O18 0.726871 0.134223 0.000000
#
# Coordination Sequence:
#
# PCOD8224305 Si02
#       7
#     8   8   8   8   8   8   8
#     4   9  15  22  40  72 102 124 150 185 231 289
#     4   9  15  26  49  79 101 120 153 198 244 291
#     4   9  16  31  52  73  95 122 160 203 243 286
#     4  11  22  33  45  67  98 131 167 202 237 283
#     4   8  14  26  47  72  94 118 155 197 237 284
#     4  10  17  29  48  68  92 125 161 199 241 283
#     4   9  17  31  52  76  99 124 156 197 243 293
#
# _framework density 17.169671000000001
#
# number of rings (size 3 to 8) (size 9 to 14) (size 15 to 20)
#    0.000    2.714    1.429    3.000    0.000    2.286 
#    0.000    3.571    0.000    4.714    0.000    6.000 
#    0.000    0.000    0.000    0.000    0.000    0.000 
#
# Total GULP energy -694126.448173 kJ/mol
# GULP energy per Si atom -12395.115146 kJ/mol
# Density = 1.713059 g / cm^3
# Si number density = 17.169671 Si / 1000 Ang^3
#
#
#
# Elastic Constant Matrix: (Units=GPa)
#
#
# Indices 1 2 3 4 5 6 
#
# 1 122.1901 57.7589 19.8833 0.0000 0.0000 0.0000
# 2 57.7589 103.0512 14.0930 0.0000 0.0000 0.0000
# 3 19.8833 14.0930 26.0402 0.0000 0.0000 0.0000
# 4 0.0000 0.0000 0.0000 6.1767 0.0000 0.0000
# 5 0.0000 0.0000 0.0000 0.0000 1.7419 0.0000
# 6 0.0000 0.0000 0.0000 0.0000 0.0000 24.2295
#
#
#
# Elastic Compliance Matrix: (Units=1/GPa)
#
#
# Indices 1 2 3 4 5 6 
#
# 1 0.011925 -0.005873 -0.005927 0.000000 0.000000 0.000000
# 2 -0.005873 0.013372 -0.002753 0.000000 0.000000 0.000000
# 3 -0.005927 -0.002753 0.044417 0.000000 0.000000 0.000000
# 4 0.000000 0.000000 0.000000 0.161899 0.000000 0.000000
# 5 0.000000 0.000000 0.000000 0.000000 0.574073 0.000000
# 6 0.000000 0.000000 0.000000 0.000000 0.000000 0.041272
#
#
# Mechanical properties :
#
#
# Convention : Reuss Voigt Hill
#
# Bulk Modulus (GPa) = 24.62484 48.30576 36.46530
# Shear Modulus (GPa) = 5.62051 17.06605 11.34328
#
# Velocity S-wave (km/s) = 1.81125 3.15614 2.57312
# Velocity P-wave (km/s) = 4.32982 6.44027 5.48746
#
# Compressibility (1/GPa) = 0.04060939
#
# Stress axis : x y z
#
# Youngs Moduli (GPa) = 83.86056 74.78242 22.51378
#
# Poissons Ratio (x) = 0.43920 0.13343
# Poissons Ratio (y) = 0.49252 0.06197
# Poissons Ratio (z) = 0.49701 0.20584
#
# Static dielectric constant tensor:
#      x y z
#    x 3.338930 0.000000 0.000000 
#    y 0.000000 3.428250 0.000000 
#    z 0.000000 0.000000 2.696570 
# 
# 
# High freq. dielectric constant tensor:
#      x y z
#    x 1.660490 0.000000 0.000000 
#    y 0.000000 1.658200 0.000000 
#    z 0.000000 0.000000 1.611700 
# 
# From -- ./inp_files/7851.got.cif
#   From: 2010.03.12/outbox.cif.g09.slc.cpg/sg55_4_cif.got.tgz:7851.got - 2010.04.16 15:19:21.
