data_PCOD8224982
_publ_section_title
;
Structure prediction by ZEFSAII (Michael W. Deem and Ramdas Pophale) SiO2 
 PCOD8224982
Probable space group: P B A M
;
_chemical_formula_sum "Si O2"
_cell_formula_units_Z 64
_cell_length_a 19.371315
_cell_length_b 20.525291
_cell_length_c 9.316623
_cell_angle_alpha 90.000000
_cell_angle_beta 90.000000
_cell_angle_gamma 90.000000
_cell_volume 3704.306796
_symmetry_space_group_name_H-M "P B A M"
_symmetry_group_IT_number 55
_symmetry_cell_setting 'orthorhombic'
loop_
_space_group_symop_operation_xyz
x,y,z
-x,-y,z
1/2+x,1/2-y,-z
1/2-x,1/2+y,-z
-x,-y,-z
x,y,-z
1/2-x,1/2+y,z
1/2+x,1/2-y,z
loop_
_atom_site_type_symbol
_atom_site_label
_atom_site_fract_x
_atom_site_fract_y
_atom_site_fract_z
Si Si1 0.710764 0.699946 0.329821
Si Si2 0.209257 0.428843 0.335141
Si Si3 0.918231 0.231556 0.837085
Si Si4 0.563466 0.127346 0.666295
Si Si5 0.287623 0.055670 0.168084
Si Si6 0.713783 0.314420 0.165458
Si Si7 0.570496 0.257218 0.835981
Si Si8 0.569392 0.884089 0.835235
O O1 0.710172 0.708334 0.500000
O O2 0.751218 0.635419 0.281066
O O3 0.632725 0.694536 0.271079
O O4 0.747702 0.762047 0.261919
O O5 0.226939 0.441672 0.500000
O O6 0.127391 0.421090 0.311076
O O7 0.236550 0.490467 0.246966
O O8 0.911913 0.308750 0.812388
O O9 0.996751 0.209266 0.801347
O O10 0.898114 0.213356 0.000000
O O11 0.547291 0.138943 0.500000
O O12 0.584144 0.196313 0.733851
O O13 0.496512 0.095595 0.740553
O O14 0.235786 0.113446 0.213592
O O15 0.365216 0.074118 0.215798
O O16 0.283975 0.042642 0.000000
O O17 0.631244 0.309471 0.186593
O O18 0.735521 0.301993 0.000000
O O19 0.568726 0.230951 0.000000
O O20 0.550790 0.898171 0.000000
#
# Coordination Sequence:
#
# PCOD8224982 Si02
#       8
#     8   8   8   8   8   8   8   8
#     4  11  21  34  53  78 106 139 175 214 258 306
#     4  10  23  38  49  71 108 141 176 217 256 305
#     4   9  17  32  52  78 107 132 167 214 260 307
#     4  10  19  32  49  72 105 141 176 212 248 302
#     4  10  21  36  54  76 103 136 177 218 260 311
#     4  10  19  35  57  80 104 133 172 219 264 309
#     4   9  18  32  54  79 105 134 166 213 267 308
#     4   9  18  33  50  74 106 136 172 216 255 304
#
# _framework density 17.277187000000001
#
# number of rings (size 3 to 8) (size 9 to 14) (size 15 to 20)
#    0.000    2.250    2.500    1.500    0.000    5.500 
#    0.000    2.500    0.000    0.750    0.000    5.250 
#    0.000    0.000    0.000    0.000    0.000    0.000 
#
# Total GULP energy -793657.210564 kJ/mol
# GULP energy per Si atom -12400.893915 kJ/mol
# Density = 1.723786 g / cm^3
# Si number density = 17.277187 Si / 1000 Ang^3
#
#
#
# Elastic Constant Matrix: (Units=GPa)
#
#
# Indices 1 2 3 4 5 6 
#
# 1 98.7207 45.5444 45.6267 0.0000 0.0000 0.0000
# 2 45.5444 85.3675 45.0196 0.0000 0.0000 0.0000
# 3 45.6267 45.0196 72.1701 0.0000 0.0000 0.0000
# 4 0.0000 0.0000 0.0000 26.3874 0.0000 0.0000
# 5 0.0000 0.0000 0.0000 0.0000 26.2054 0.0000
# 6 0.0000 0.0000 0.0000 0.0000 0.0000 21.4714
#
#
#
# Elastic Compliance Matrix: (Units=1/GPa)
#
#
# Indices 1 2 3 4 5 6 
#
# 1 0.015437 -0.004603 -0.006888 0.000000 0.000000 0.000000
# 2 -0.004603 0.018830 -0.008836 0.000000 0.000000 0.000000
# 3 -0.006888 -0.008836 0.023722 0.000000 0.000000 0.000000
# 4 0.000000 0.000000 0.000000 0.037897 0.000000 0.000000
# 5 0.000000 0.000000 0.000000 0.000000 0.038160 0.000000
# 6 0.000000 0.000000 0.000000 0.000000 0.000000 0.046573
#
#
# Mechanical properties :
#
#
# Convention : Reuss Voigt Hill
#
# Bulk Modulus (GPa) = 57.68574 58.73772 58.21173
# Shear Modulus (GPa) = 22.02155 22.81735 22.41945
#
# Velocity S-wave (km/s) = 3.57403 3.63804 3.60618
# Velocity P-wave (km/s) = 7.10581 7.19153 7.14880
#
# Compressibility (1/GPa) = 0.01733531
#
# Stress axis : x y z
#
# Youngs Moduli (GPa) = 64.78090 53.10814 42.15457
#
# Poissons Ratio (x) = 0.24447 0.29035
# Poissons Ratio (y) = 0.29821 0.37246
# Poissons Ratio (z) = 0.44619 0.46924
#
# Static dielectric constant tensor:
#      x y z
#    x 3.467120 0.000000 0.000000 
#    y 0.000000 2.953210 0.000000 
#    z 0.000000 0.000000 3.195750 
# 
# 
# High freq. dielectric constant tensor:
#      x y z
#    x 1.673780 0.000000 0.000000 
#    y 0.000000 1.637190 0.000000 
#    z 0.000000 0.000000 1.667000 
# 
# From -- ./inp_files/8957.got.cif
#   From: 2010.03.12/outbox.cif.g09.slc.cpg/sg55_5_cif.got.tgz:8957.got - 2010.04.16 15:19:21.
