data_PCOD8224508
_publ_section_title
;
Structure prediction by ZEFSAII (Michael W. Deem and Ramdas Pophale) SiO2 
 PCOD8224508
Probable space group: P B A M
;
_chemical_formula_sum "Si O2"
_cell_formula_units_Z 64
_cell_length_a 24.882414
_cell_length_b 14.091877
_cell_length_c 9.350967
_cell_angle_alpha 90.000000
_cell_angle_beta 90.000000
_cell_angle_gamma 90.000000
_cell_volume 3278.822298
_symmetry_space_group_name_H-M "P B A M"
_symmetry_group_IT_number 55
_symmetry_cell_setting 'orthorhombic'
loop_
_space_group_symop_operation_xyz
x,y,z
-x,-y,z
1/2+x,1/2-y,-z
1/2-x,1/2+y,-z
-x,-y,-z
x,y,-z
1/2-x,1/2+y,z
1/2+x,1/2-y,z
loop_
_atom_site_type_symbol
_atom_site_label
_atom_site_fract_x
_atom_site_fract_y
_atom_site_fract_z
Si Si1 0.101205 0.664357 0.661059
Si Si2 0.058684 0.467097 0.336531
Si Si3 0.296332 0.686562 0.166915
Si Si4 0.201275 0.786763 0.671880
Si Si5 0.554726 0.531664 0.839916
Si Si6 0.327614 0.477076 0.831151
Si Si7 0.094490 0.286163 0.164160
Si Si8 0.479742 0.261951 0.155930
O O1 0.096660 0.699202 0.500000
O O2 0.103684 0.550628 0.674486
O O3 0.152481 0.719180 0.726742
O O4 0.044552 0.689808 0.731779
O O5 0.051246 0.434225 0.500000
O O6 0.085143 0.382606 0.249106
O O7 0.000000 0.500000 0.277201
O O8 0.254267 0.736997 0.269416
O O9 0.293900 0.573086 0.193563
O O10 0.353961 0.727552 0.215706
O O11 0.284608 0.708480 0.000000
O O12 0.204131 0.794785 0.500000
O O13 0.197684 0.891561 0.740197
O O14 0.500000 0.500000 0.756022
O O15 0.611700 0.501457 0.772558
O O16 0.555813 0.644524 0.840757
O O17 0.551796 0.487561 0.000000
O O18 0.329356 0.449837 0.000000
O O19 0.042632 0.218015 0.188890
O O20 0.101782 0.315130 0.000000
O O21 0.475120 0.213815 0.000000
#
# Coordination Sequence:
#
# PCOD8224508 Si02
#       8
#     8   8   8   8   8   8   8   8
#     4  10  21  37  55  79 112 149 192 239 284 336
#     4  10  20  35  56  81 115 161 201 233 285 353
#     4  10  23  42  62  87 120 155 196 246 298 351
#     4  11  24  41  62  86 117 156 201 250 293 345
#     4   9  16  28  52  86 118 149 185 227 284 350
#     4  10  20  38  64  90 118 153 194 242 294 350
#     4  10  21  36  56  87 121 150 189 245 298 346
#     4  10  18  30  54  85 114 145 184 230 285 347
#
# _framework density 19.519203000000001
#
# number of rings (size 3 to 8) (size 9 to 14) (size 15 to 20)
#    0.000    2.000    2.500    1.125    0.000    6.250 
#    0.000    2.500    0.000    3.000    0.000    0.000 
#    0.000    0.000    0.000    0.000    0.000    0.000 
#
# Total GULP energy -793164.541512 kJ/mol
# GULP energy per Si atom -12393.195961 kJ/mol
# Density = 1.947478 g / cm^3
# Si number density = 19.519203 Si / 1000 Ang^3
#
#
#
# Elastic Constant Matrix: (Units=GPa)
#
#
# Indices 1 2 3 4 5 6 
#
# 1 111.8651 46.5236 42.0450 0.0000 0.0000 0.0000
# 2 46.5236 94.9861 40.4955 0.0000 0.0000 0.0000
# 3 42.0450 40.4955 55.3971 0.0000 0.0000 0.0000
# 4 0.0000 0.0000 0.0000 21.4948 0.0000 0.0000
# 5 0.0000 0.0000 0.0000 0.0000 2.6795 0.0000
# 6 0.0000 0.0000 0.0000 0.0000 0.0000 35.6080
#
#
#
# Elastic Compliance Matrix: (Units=1/GPa)
#
#
# Indices 1 2 3 4 5 6 
#
# 1 0.013133 -0.003171 -0.007650 0.000000 0.000000 0.000000
# 2 -0.003171 0.016060 -0.009333 0.000000 0.000000 0.000000
# 3 -0.007650 -0.009333 0.030680 0.000000 0.000000 0.000000
# 4 0.000000 0.000000 0.000000 0.046523 0.000000 0.000000
# 5 0.000000 0.000000 0.000000 0.000000 0.373210 0.000000
# 6 0.000000 0.000000 0.000000 0.000000 0.000000 0.028084
#
#
# Mechanical properties :
#
#
# Convention : Reuss Voigt Hill
#
# Bulk Modulus (GPa) = 51.11089 57.81962 54.46526
# Shear Modulus (GPa) = 9.01681 20.83540 14.92611
#
# Velocity S-wave (km/s) = 2.15162 3.27070 2.76830
# Velocity P-wave (km/s) = 5.69337 6.62944 6.17916
#
# Compressibility (1/GPa) = 0.01956530
#
# Stress axis : x y z
#
# Youngs Moduli (GPa) = 76.14153 62.26595 32.59475
#
# Poissons Ratio (x) = 0.19747 0.24934
# Poissons Ratio (y) = 0.24148 0.30421
# Poissons Ratio (z) = 0.58245 0.58113
#
# Static dielectric constant tensor:
#      x y z
#    x 3.662390 0.000000 0.000000 
#    y 0.000000 3.557220 0.000000 
#    z 0.000000 0.000000 3.357710 
# 
# 
# High freq. dielectric constant tensor:
#      x y z
#    x 1.762870 0.000000 0.000000 
#    y 0.000000 1.764570 0.000000 
#    z 0.000000 0.000000 1.732610 
# 
# From -- ./inp_files/9771.got.cif
#   From: 2010.03.12/outbox.cif.g09.slc.cpg/sg55_5_cif.got.tgz:9771.got - 2010.04.16 15:19:21.
