data_PCOD8224343
_publ_section_title
;
Structure prediction by ZEFSAII (Michael W. Deem and Ramdas Pophale) SiO2 
 PCOD8224343
Probable space group: P B A M
;
_chemical_formula_sum "Si O2"
_cell_formula_units_Z 52
_cell_length_a 7.405481
_cell_length_b 24.383603
_cell_length_c 14.861737
_cell_angle_alpha 90.000000
_cell_angle_beta 90.000000
_cell_angle_gamma 90.000000
_cell_volume 2683.618162
_symmetry_space_group_name_H-M "P B A M"
_symmetry_group_IT_number 55
_symmetry_cell_setting 'orthorhombic'
loop_
_space_group_symop_operation_xyz
x,y,z
-x,-y,z
1/2+x,1/2-y,-z
1/2-x,1/2+y,-z
-x,-y,-z
x,y,-z
1/2-x,1/2+y,z
1/2+x,1/2-y,z
loop_
_atom_site_type_symbol
_atom_site_label
_atom_site_fract_x
_atom_site_fract_y
_atom_site_fract_z
Si Si1 0.489002 0.798091 0.601599
Si Si2 0.137447 0.452397 0.899661
Si Si3 0.500000 0.500000 0.845119
Si Si4 0.664091 0.423706 0.701783
Si Si5 0.078608 0.393363 0.726149
Si Si6 0.796270 0.519358 0.597141
Si Si7 0.595013 0.322106 0.599583
O O1 0.400612 0.802533 0.500000
O O2 0.385871 0.834456 0.677690
O O3 0.486438 0.735193 0.635354
O O4 0.690286 0.819004 0.594233
O O5 0.336686 0.478241 0.905736
O O6 0.131518 0.399952 0.831642
O O7 0.000000 0.500000 0.865422
O O8 0.083489 0.432297 0.000000
O O9 0.567481 0.447750 0.788540
O O10 0.664436 0.469489 0.623414
O O11 0.546984 0.371487 0.667517
O O12 0.868931 0.407853 0.722295
O O13 0.212342 0.434928 0.674282
O O14 0.734672 0.542640 0.500000
O O15 0.000000 0.500000 0.589189
O O16 0.517939 0.334623 0.500000
#
# Coordination Sequence:
#
# PCOD8224343 Si02
#       7
#     8   8   4   8   8   8   8
#     4   9  18  31  52  76 106 149 189 227 269 312
#     4  11  22  38  58  82 111 142 178 228 279 337
#     4  12  21  36  55  84 112 146 181 224 275 342
#     4  10  19  31  51  76 113 145 179 224 272 321
#     4  10  17  34  53  77 105 141 187 225 270 333
#     4   9  15  26  47  71 102 142 175 208 261 318
#     4   9  18  33  49  74 110 148 192 230 263 313
#
# _framework density 19.376825
#
# number of rings (size 3 to 8) (size 9 to 14) (size 15 to 20)
#    0.000    2.154    3.077    1.615    0.000    4.923 
#    0.000    1.538    0.000    0.000    0.000   10.769 
#    0.000    0.000    0.000    0.000    0.000    0.000 
#
# Total GULP energy -644398.181372 kJ/mol
# GULP energy per Si atom -12392.272719 kJ/mol
# Density = 1.933272 g / cm^3
# Si number density = 19.376825 Si / 1000 Ang^3
#
#
#
# Elastic Constant Matrix: (Units=GPa)
#
#
# Indices 1 2 3 4 5 6 
#
# 1 30.3063 4.1604 0.3846 0.0000 0.0000 0.0000
# 2 4.1604 104.4724 44.5440 0.0000 0.0000 0.0000
# 3 0.3846 44.5440 111.2356 0.0000 0.0000 0.0000
# 4 0.0000 0.0000 0.0000 22.7620 0.0000 0.0000
# 5 0.0000 0.0000 0.0000 0.0000 15.9860 0.0000
# 6 0.0000 0.0000 0.0000 0.0000 0.0000 23.6582
#
#
#
# Elastic Compliance Matrix: (Units=1/GPa)
#
#
# Indices 1 2 3 4 5 6 
#
# 1 0.033201 -0.001535 0.000500 0.000000 0.000000 0.000000
# 2 -0.001535 0.011614 -0.004645 0.000000 0.000000 0.000000
# 3 0.000500 -0.004645 0.010848 0.000000 0.000000 0.000000
# 4 0.000000 0.000000 0.000000 0.043933 0.000000 0.000000
# 5 0.000000 0.000000 0.000000 0.000000 0.062555 0.000000
# 6 0.000000 0.000000 0.000000 0.000000 0.000000 0.042269
#
#
# Mechanical properties :
#
#
# Convention : Reuss Voigt Hill
#
# Bulk Modulus (GPa) = 22.57251 38.24357 30.40804
# Shear Modulus (GPa) = 21.68746 25.60958 23.64852
#
# Velocity S-wave (km/s) = 3.34914 3.63941 3.49729
# Velocity P-wave (km/s) = 5.16045 6.11882 5.65996
#
# Compressibility (1/GPa) = 0.04430168
#
# Stress axis : x y z
#
# Youngs Moduli (GPa) = 30.11967 86.10518 92.17923
#
# Poissons Ratio (x) = 0.13220 -0.04609
# Poissons Ratio (y) = 0.04624 0.42821
# Poissons Ratio (z) = -0.01506 0.39999
#
# Static dielectric constant tensor:
#      x y z
#    x 3.553770 0.000000 0.000000 
#    y 0.000000 3.601970 0.000000 
#    z 0.000000 0.000000 3.408100 
# 
# 
# High freq. dielectric constant tensor:
#      x y z
#    x 1.763760 0.000000 0.000000 
#    y 0.000000 1.730500 0.000000 
#    z 0.000000 0.000000 1.726270 
# 
# From -- ./inp_files/17744.got.cif
#   From: 2010.03.12/outbox.cif.g09.slc.cpg/sg55_9_cif.got.tgz:17744.got - 2010.04.16 15:19:21.
