data_PCOD8224420
_publ_section_title
;
Structure prediction by ZEFSAII (Michael W. Deem and Ramdas Pophale) SiO2 
 PCOD8224420
Probable space group: P B A M
;
_chemical_formula_sum "Si O2"
_cell_formula_units_Z 48
_cell_length_a 15.761580
_cell_length_b 19.425366
_cell_length_c 8.566074
_cell_angle_alpha 90.000000
_cell_angle_beta 90.000000
_cell_angle_gamma 90.000000
_cell_volume 2622.713083
_symmetry_space_group_name_H-M "P B A M"
_symmetry_group_IT_number 55
_symmetry_cell_setting 'orthorhombic'
loop_
_space_group_symop_operation_xyz
x,y,z
-x,-y,z
1/2+x,1/2-y,-z
1/2-x,1/2+y,-z
-x,-y,-z
x,y,-z
1/2-x,1/2+y,z
1/2+x,1/2-y,z
loop_
_atom_site_type_symbol
_atom_site_label
_atom_site_fract_x
_atom_site_fract_y
_atom_site_fract_z
Si Si1 0.568549 0.448998 0.681174
Si Si2 0.922226 0.453988 0.183962
Si Si3 0.246206 0.557791 0.319470
Si Si4 0.072987 0.697617 0.316133
Si Si5 0.079472 0.205754 0.684875
Si Si6 0.754367 0.294616 0.818970
O O1 0.500000 0.500000 0.762733
O O2 0.545587 0.443260 0.500000
O O3 0.663631 0.480860 0.705131
O O4 0.563824 0.371689 0.751192
O O5 0.836506 0.485130 0.265389
O O6 0.938343 0.375390 0.231994
O O7 0.000000 0.500000 0.244561
O O8 0.911577 0.459778 0.000000
O O9 0.237005 0.580636 0.500000
O O10 0.247163 0.624055 0.209467
O O11 0.070149 0.685963 0.500000
O O12 0.161638 0.734448 0.267918
O O13 0.997299 0.746634 0.258500
O O14 0.088274 0.203644 0.500000
O O15 0.167130 0.237466 0.752232
O O16 0.761838 0.277144 0.000000
#
# Coordination Sequence:
#
# PCOD8224420 Si02
#       6
#     8   8   8   8   8   8
#     4   8  14  27  48  72  95 119 150 189 232 275
#     4  10  20  33  49  69  95 125 157 196 242 291
#     4   9  16  28  48  70  93 123 161 197 229 278
#     4  10  19  32  51  72  96 125 161 204 242 284
#     4   9  18  32  50  72  96 124 160 200 238 279
#     4  10  18  29  48  70  95 127 161 195 235 289
#
# _framework density 18.301658
#
# number of rings (size 3 to 8) (size 9 to 14) (size 15 to 20)
#    0.000    2.667    0.000    6.000    0.000    2.667 
#    0.000    1.667    0.000   16.500    0.000    0.000 
#    0.000    0.000    0.000    0.000    0.000    0.000 
#
# Total GULP energy -594794.352112 kJ/mol
# GULP energy per Si atom -12391.549002 kJ/mol
# Density = 1.826000 g / cm^3
# Si number density = 18.301658 Si / 1000 Ang^3
#
#
#
# Elastic Constant Matrix: (Units=GPa)
#
#
# Indices 1 2 3 4 5 6 
#
# 1 203.0932 63.2557 29.6923 0.0000 0.0000 0.0000
# 2 63.2557 53.0118 12.2816 0.0000 0.0000 0.0000
# 3 29.6923 12.2816 38.2460 0.0000 0.0000 0.0000
# 4 0.0000 0.0000 0.0000 14.1122 0.0000 0.0000
# 5 0.0000 0.0000 0.0000 0.0000 14.2126 0.0000
# 6 0.0000 0.0000 0.0000 0.0000 0.0000 36.0836
#
#
#
# Elastic Compliance Matrix: (Units=1/GPa)
#
#
# Indices 1 2 3 4 5 6 
#
# 1 0.008249 -0.009031 -0.003504 0.000000 0.000000 0.000000
# 2 -0.009031 0.030268 -0.002708 0.000000 0.000000 0.000000
# 3 -0.003504 -0.002708 0.029737 0.000000 0.000000 0.000000
# 4 0.000000 0.000000 0.000000 0.070861 0.000000 0.000000
# 5 0.000000 0.000000 0.000000 0.000000 0.070360 0.000000
# 6 0.000000 0.000000 0.000000 0.000000 0.000000 0.027713
#
#
# Mechanical properties :
#
#
# Convention : Reuss Voigt Hill
#
# Bulk Modulus (GPa) = 26.47859 56.09001 41.28430
# Shear Modulus (GPa) = 17.84039 25.48977 21.66508
#
# Velocity S-wave (km/s) = 3.12556 3.73601 3.44434
# Velocity P-wave (km/s) = 5.24641 7.02314 6.19876
#
# Compressibility (1/GPa) = 0.03776636
#
# Stress axis : x y z
#
# Youngs Moduli (GPa) = 121.22649 33.03867 33.62867
#
# Poissons Ratio (x) = 0.29838 0.11784
# Poissons Ratio (y) = 1.09483 0.09107
# Poissons Ratio (z) = 0.42478 0.08947
#
# Static dielectric constant tensor:
#      x y z
#    x 4.128390 0.000000 0.000000 
#    y 0.000000 3.091510 0.000000 
#    z 0.000000 0.000000 3.177390 
# 
# 
# High freq. dielectric constant tensor:
#      x y z
#    x 1.738300 0.000000 0.000000 
#    y 0.000000 1.654160 0.000000 
#    z 0.000000 0.000000 1.698440 
# 
# From -- ./inp_files/6296.got.cif
#   From: 2010.03.12/outbox.cif.g09.slc.cpg/sg55_4_cif.got.tgz:6296.got - 2010.04.16 15:19:21.
