data_PCOD8224755
_publ_section_title
;
Structure prediction by ZEFSAII (Michael W. Deem and Ramdas Pophale) SiO2 
 PCOD8224755
Probable space group: P B A M
;
_chemical_formula_sum "Si O2"
_cell_formula_units_Z 48
_cell_length_a 8.675274
_cell_length_b 14.973007
_cell_length_c 16.443488
_cell_angle_alpha 90.000000
_cell_angle_beta 90.000000
_cell_angle_gamma 90.000000
_cell_volume 2135.925860
_symmetry_space_group_name_H-M "P B A M"
_symmetry_group_IT_number 55
_symmetry_cell_setting 'orthorhombic'
loop_
_space_group_symop_operation_xyz
x,y,z
-x,-y,z
1/2+x,1/2-y,-z
1/2-x,1/2+y,-z
-x,-y,-z
x,y,-z
1/2-x,1/2+y,z
1/2+x,1/2-y,z
loop_
_atom_site_type_symbol
_atom_site_label
_atom_site_fract_x
_atom_site_fract_y
_atom_site_fract_z
Si Si1 0.334725 0.529927 0.159689
Si Si2 0.827606 0.877078 0.676544
Si Si3 0.009374 0.303299 0.324577
Si Si4 0.155953 0.127231 0.500000
Si Si5 0.656026 0.145321 0.165873
Si Si6 0.978048 0.292527 0.500000
Si Si7 0.166222 0.697677 0.906315
O O1 0.500000 0.500000 0.125337
O O2 0.349649 0.546898 0.256495
O O3 0.210694 0.453149 0.141843
O O4 0.284520 0.618188 0.112430
O O5 0.668333 0.824906 0.694173
O O6 0.963051 0.803301 0.684272
O O7 0.832922 0.925601 0.586370
O O8 0.116034 0.356635 0.261624
O O9 0.049894 0.335023 0.417203
O O10 0.001411 0.185826 0.500000
O O11 0.294582 0.198807 0.500000
O O12 0.507370 0.169680 0.112989
O O13 0.790562 0.216525 0.147915
O O14 0.179802 0.724290 0.000000
#
# Coordination Sequence:
#
# PCOD8224755 Si02
#       7
#     8   8   8   4   8   4   8
#     4  12  27  43  67  99 135 174 223 269 328 399
#     4  10  20  37  62  97 131 179 224 273 328 388
#     4  10  18  35  64  91 132 171 219 267 321 385
#     4   8  16  32  56  87 134 169 221 275 319 379
#     4  12  24  44  71 100 134 172 219 271 329 407
#     4   8  16  28  53  95 121 168 217 264 315 374
#     4  12  27  48  73 100 130 169 216 275 342 402
#
# _framework density 22.47269
#
# number of rings (size 3 to 8) (size 9 to 14) (size 15 to 20)
#    0.000    1.333    3.333    2.000    2.333    2.333 
#    0.000    1.250    0.000    3.000    0.000    0.000 
#    0.000    0.000    0.000    0.000    0.000    0.000 
#
# Total GULP energy -595010.087746 kJ/mol
# GULP energy per Si atom -12396.043495 kJ/mol
# Density = 2.242154 g / cm^3
# Si number density = 22.472690 Si / 1000 Ang^3
#
#
#
# Elastic Constant Matrix: (Units=GPa)
#
#
# Indices 1 2 3 4 5 6 
#
# 1 74.7976 12.2470 16.3234 0.0000 0.0000 0.0000
# 2 12.2470 65.2679 8.6416 0.0000 0.0000 0.0000
# 3 16.3234 8.6416 101.2143 0.0000 0.0000 0.0000
# 4 0.0000 0.0000 0.0000 14.0208 0.0000 0.0000
# 5 0.0000 0.0000 0.0000 0.0000 23.9335 0.0000
# 6 0.0000 0.0000 0.0000 0.0000 0.0000 33.1458
#
#
#
# Elastic Compliance Matrix: (Units=1/GPa)
#
#
# Indices 1 2 3 4 5 6 
#
# 1 0.014217 -0.002391 -0.002089 0.000000 0.000000 0.000000
# 2 -0.002391 0.015899 -0.000972 0.000000 0.000000 0.000000
# 3 -0.002089 -0.000972 0.010300 0.000000 0.000000 0.000000
# 4 0.000000 0.000000 0.000000 0.071323 0.000000 0.000000
# 5 0.000000 0.000000 0.000000 0.000000 0.041783 0.000000
# 6 0.000000 0.000000 0.000000 0.000000 0.000000 0.030170
#
#
# Mechanical properties :
#
#
# Convention : Reuss Voigt Hill
#
# Bulk Modulus (GPa) = 33.88424 35.07820 34.48122
# Shear Modulus (GPa) = 24.45812 27.82452 26.14132
#
# Velocity S-wave (km/s) = 3.30259 3.52255 3.41434
# Velocity P-wave (km/s) = 5.44550 5.67341 5.56063
#
# Compressibility (1/GPa) = 0.02951224
#
# Stress axis : x y z
#
# Youngs Moduli (GPa) = 70.33964 62.89773 97.08884
#
# Poissons Ratio (x) = 0.15040 0.20278
# Poissons Ratio (y) = 0.16819 0.09435
# Poissons Ratio (z) = 0.14692 0.06112
#
# Static dielectric constant tensor:
#      x y z
#    x 4.072310 0.000000 0.000000 
#    y 0.000000 3.620250 0.000000 
#    z 0.000000 0.000000 4.430540 
# 
# 
# High freq. dielectric constant tensor:
#      x y z
#    x 1.890930 0.000000 0.000000 
#    y 0.000000 1.845110 0.000000 
#    z 0.000000 0.000000 1.904090 
# 
# From -- ./inp_files/20855.got.cif
#   From: 2010.03.12/outbox.cif.g09.slc.cpg/sg55_11_cif.got.tgz:20855.got - 2010.04.16 15:19:21.
