data_PCOD8224570
_publ_section_title
;
Structure prediction by ZEFSAII (Michael W. Deem and Ramdas Pophale) SiO2 
 PCOD8224570
Probable space group: P B A M
;
_chemical_formula_sum "Si O2"
_cell_formula_units_Z 64
_cell_length_a 12.527587
_cell_length_b 28.950712
_cell_length_c 8.852758
_cell_angle_alpha 90.000000
_cell_angle_beta 90.000000
_cell_angle_gamma 90.000000
_cell_volume 3210.740964
_symmetry_space_group_name_H-M "P B A M"
_symmetry_group_IT_number 55
_symmetry_cell_setting 'orthorhombic'
loop_
_space_group_symop_operation_xyz
x,y,z
-x,-y,z
1/2+x,1/2-y,-z
1/2-x,1/2+y,-z
-x,-y,-z
x,y,-z
1/2-x,1/2+y,z
1/2+x,1/2-y,z
loop_
_atom_site_type_symbol
_atom_site_label
_atom_site_fract_x
_atom_site_fract_y
_atom_site_fract_z
Si Si1 0.066041 0.205603 0.320261
Si Si2 0.113444 0.482435 0.178594
Si Si3 0.163132 0.379422 0.821255
Si Si4 0.758237 0.439107 0.327742
Si Si5 0.012884 0.049670 0.672940
Si Si6 0.511387 0.192746 0.322909
Si Si7 0.385753 0.364211 0.319733
Si Si8 0.718160 0.838602 0.323149
O O1 0.069129 0.204289 0.500000
O O2 0.055459 0.258271 0.264835
O O3 0.176238 0.184994 0.251140
O O4 0.963700 0.176677 0.263121
O O5 0.141400 0.431346 0.240302
O O6 0.204555 0.517874 0.228773
O O7 0.000000 0.500000 0.244672
O O8 0.108860 0.481277 0.000000
O O9 0.064766 0.347952 0.771547
O O10 0.269281 0.357587 0.749459
O O11 0.174180 0.379127 0.000000
O O12 0.793489 0.448588 0.500000
O O13 0.632185 0.432372 0.313716
O O14 0.804314 0.390722 0.262682
O O15 0.977272 0.043782 0.500000
O O16 0.934160 0.087693 0.744450
O O17 0.000000 0.000000 0.755695
O O18 0.534076 0.184828 0.500000
O O19 0.384714 0.192541 0.288877
O O20 0.377682 0.363810 0.500000
O O21 0.740320 0.843863 0.500000
#
# Coordination Sequence:
#
# PCOD8224570 Si02
#       8
#     8   8   8   8   8   8   8   8
#     4   9  18  33  57  88 114 143 183 232 285 336
#     4  10  22  39  56  75 107 153 196 232 279 337
#     4  11  24  40  56  80 117 153 189 236 284 333
#     4  10  18  31  54  82 110 139 178 233 284 329
#     4   9  16  27  47  78 110 141 177 220 272 327
#     4  10  21  35  59  86 110 145 189 233 281 340
#     4  10  19  35  59  85 115 149 187 228 279 343
#     4   9  17  32  54  86 118 138 176 236 287 331
#
# _framework density 19.933095000000002
#
# number of rings (size 3 to 8) (size 9 to 14) (size 15 to 20)
#    0.000    2.250    1.250    1.875    1.750    2.250 
#    0.000    1.250    0.000    3.750    0.000    0.000 
#    0.000    0.000    0.000    0.000    0.000    0.000 
#
# Total GULP energy -793522.367017 kJ/mol
# GULP energy per Si atom -12398.786985 kJ/mol
# Density = 1.988773 g / cm^3
# Si number density = 19.933095 Si / 1000 Ang^3
#
#
#
# Elastic Constant Matrix: (Units=GPa)
#
#
# Indices 1 2 3 4 5 6 
#
# 1 107.4873 53.3913 18.0777 0.0000 0.0000 0.0000
# 2 53.3913 150.2372 18.8548 0.0000 0.0000 0.0000
# 3 18.0777 18.8548 17.7679 0.0000 0.0000 0.0000
# 4 0.0000 0.0000 0.0000 15.3518 0.0000 0.0000
# 5 0.0000 0.0000 0.0000 0.0000 10.2471 0.0000
# 6 0.0000 0.0000 0.0000 0.0000 0.0000 38.7318
#
#
#
# Elastic Compliance Matrix: (Units=1/GPa)
#
#
# Indices 1 2 3 4 5 6 
#
# 1 0.012483 -0.003279 -0.009221 0.000000 0.000000 0.000000
# 2 -0.003279 0.008540 -0.005726 0.000000 0.000000 0.000000
# 3 -0.009221 -0.005726 0.071740 0.000000 0.000000 0.000000
# 4 0.000000 0.000000 0.000000 0.065139 0.000000 0.000000
# 5 0.000000 0.000000 0.000000 0.000000 0.097588 0.000000
# 6 0.000000 0.000000 0.000000 0.000000 0.000000 0.025819
#
#
# Mechanical properties :
#
#
# Convention : Reuss Voigt Hill
#
# Bulk Modulus (GPa) = 17.75888 50.68222 34.22055
# Shear Modulus (GPa) = 14.85747 25.21073 20.03410
#
# Velocity S-wave (km/s) = 2.73310 3.56022 3.17372
# Velocity P-wave (km/s) = 4.34608 6.51011 5.53489
#
# Compressibility (1/GPa) = 0.05630987
#
# Stress axis : x y z
#
# Youngs Moduli (GPa) = 80.10894 117.09504 13.93932
#
# Poissons Ratio (x) = 0.38395 0.12854
# Poissons Ratio (y) = 0.26267 0.07982
# Poissons Ratio (z) = 0.73869 0.67052
#
# Static dielectric constant tensor:
#      x y z
#    x 3.665260 0.000000 0.000000 
#    y 0.000000 3.899590 0.000000 
#    z 0.000000 0.000000 3.059600 
# 
# 
# High freq. dielectric constant tensor:
#      x y z
#    x 1.788350 0.000000 0.000000 
#    y 0.000000 1.795200 0.000000 
#    z 0.000000 0.000000 1.716270 
# 
# From -- ./inp_files/4601.got.cif
#   From: 2010.03.12/outbox.cif.g09.slc.cpg/sg55_3_cif.got.tgz:4601.got - 2010.04.16 15:19:21.
