data_PCOD8224161
_publ_section_title
;
Structure prediction by ZEFSAII (Michael W. Deem and Ramdas Pophale) SiO2 
 PCOD8224161
Probable space group: P C C A
;
_chemical_formula_sum "Si O2"
_cell_formula_units_Z 24
_cell_length_a 23.723352
_cell_length_b 4.948636
_cell_length_c 8.780829
_cell_angle_alpha 90.000000
_cell_angle_beta 90.000000
_cell_angle_gamma 90.000000
_cell_volume 1030.853815
_symmetry_space_group_name_H-M "P C C A"
_symmetry_group_IT_number 54
_symmetry_cell_setting 'orthorhombic'
loop_
_space_group_symop_operation_xyz
x,y,z
1/2-x,-y,z
1/2+x,-y,1/2-z
-x,y,1/2-z
-x,-y,-z
1/2+x,y,-z
1/2-x,y,1/2+z
x,-y,1/2+z
loop_
_atom_site_type_symbol
_atom_site_label
_atom_site_fract_x
_atom_site_fract_y
_atom_site_fract_z
Si Si1 0.653005 0.806169 0.857491
Si Si2 0.807706 0.342102 0.181573
Si Si3 0.475726 0.754685 0.585073
O O1 0.647112 0.567803 0.731607
O O2 0.590351 0.824523 0.921202
O O3 0.680512 0.073274 0.781856
O O4 0.691465 0.727645 0.003189
O O5 0.750000 0.500000 0.223939
O O6 0.500000 0.737280 0.750000
O O7 0.500000 0.500000 0.500000
O O8 0.500000 0.000000 0.500000
#
# Coordination Sequence:
#
# PCOD8224161 Si02
#       3
#     8   8   8
#     4  12  25  46  70 102 140 183 233 291 350 422
#     4  12  26  45  69  98 135 182 233 289 352 416
#     4  12  24  43  70 104 141 183 230 286 353 424
#
# _framework density 23.281670999999999
#
# number of rings (size 3 to 8) (size 9 to 14) (size 15 to 20)
#    0.000    0.000    0.000   11.000    0.000    2.667 
#    0.000    1.667    0.000    0.000    0.000    0.000 
#    0.000    0.000    0.000    0.000    0.000    0.000 
#
# Total GULP energy -297367.728842 kJ/mol
# GULP energy per Si atom -12390.322035 kJ/mol
# Density = 2.322868 g / cm^3
# Si number density = 23.281671 Si / 1000 Ang^3
#
#
#
# Elastic Constant Matrix: (Units=GPa)
#
#
# Indices 1 2 3 4 5 6 
#
# 1 98.8668 47.5626 48.4174 0.0000 0.0000 0.0000
# 2 47.5626 224.8610 92.8952 0.0000 0.0000 0.0000
# 3 48.4174 92.8952 153.9716 0.0000 0.0000 0.0000
# 4 0.0000 0.0000 0.0000 65.5522 0.0000 0.0000
# 5 0.0000 0.0000 0.0000 0.0000 35.6697 0.0000
# 6 0.0000 0.0000 0.0000 0.0000 0.0000 49.8937
#
#
#
# Elastic Compliance Matrix: (Units=1/GPa)
#
#
# Indices 1 2 3 4 5 6 
#
# 1 0.012248 -0.001331 -0.003048 0.000000 0.000000 0.000000
# 2 -0.001331 0.006068 -0.003243 0.000000 0.000000 0.000000
# 3 -0.003048 -0.003243 0.009410 0.000000 0.000000 0.000000
# 4 0.000000 0.000000 0.000000 0.015255 0.000000 0.000000
# 5 0.000000 0.000000 0.000000 0.000000 0.028035 0.000000
# 6 0.000000 0.000000 0.000000 0.000000 0.000000 0.020043
#
#
# Mechanical properties :
#
#
# Convention : Reuss Voigt Hill
#
# Bulk Modulus (GPa) = 80.11810 95.04998 87.58404
# Shear Modulus (GPa) = 45.26396 49.47808 47.37102
#
# Velocity S-wave (km/s) = 4.41408 4.61498 4.51565
# Velocity P-wave (km/s) = 7.77599 8.32539 8.05538
#
# Compressibility (1/GPa) = 0.01248157
#
# Stress axis : x y z
#
# Youngs Moduli (GPa) = 81.64678 164.78855 106.27513
#
# Poissons Ratio (x) = 0.21940 0.32394
# Poissons Ratio (y) = 0.10870 0.34460
# Poissons Ratio (z) = 0.24887 0.53434
#
# Static dielectric constant tensor:
#      x y z
#    x 1.567800 0.000000 0.000000 
#    y 0.000000 4.599620 0.000000 
#    z 0.000000 0.000000 4.499240 
# 
# 
# High freq. dielectric constant tensor:
#      x y z
#    x 1.933440 0.000000 0.000000 
#    y 0.000000 1.947700 0.000000 
#    z 0.000000 0.000000 1.943160 
# 
# From -- ./inp_files/4918.got.cif
#   From: 2010.03.12/outbox.cif.g09.slc.cpg/sg54_3_cif.got.tgz:4918.got - 2010.04.16 15:00:50.
