data_PCOD8224568
_publ_section_title
;
Structure prediction by ZEFSAII (Michael W. Deem and Ramdas Pophale) SiO2 
 PCOD8224568
Probable space group: P B A M
;
_chemical_formula_sum "Si O2"
_cell_formula_units_Z 64
_cell_length_a 15.280150
_cell_length_b 24.683101
_cell_length_c 9.185729
_cell_angle_alpha 90.000000
_cell_angle_beta 90.000000
_cell_angle_gamma 90.000000
_cell_volume 3464.503197
_symmetry_space_group_name_H-M "P B A M"
_symmetry_group_IT_number 55
_symmetry_cell_setting 'orthorhombic'
loop_
_space_group_symop_operation_xyz
x,y,z
-x,-y,z
1/2+x,1/2-y,-z
1/2-x,1/2+y,-z
-x,-y,-z
x,y,-z
1/2-x,1/2+y,z
1/2+x,1/2-y,z
loop_
_atom_site_type_symbol
_atom_site_label
_atom_site_fract_x
_atom_site_fract_y
_atom_site_fract_z
Si Si1 0.004264 0.659250 0.669538
Si Si2 0.039938 0.782159 0.330949
Si Si3 0.322770 0.555082 0.172945
Si Si4 0.494955 0.615758 0.827389
Si Si5 0.677205 0.566111 0.827138
Si Si6 0.210641 0.760434 0.165822
Si Si7 0.179382 0.638836 0.830285
Si Si8 0.831907 0.644183 0.831561
O O1 0.007913 0.645606 0.500000
O O2 0.918173 0.632584 0.738309
O O3 0.000063 0.723240 0.700030
O O4 0.089244 0.633206 0.743521
O O5 0.041111 0.796363 0.500000
O O6 0.138515 0.785115 0.272117
O O7 0.980986 0.825726 0.246298
O O8 0.416379 0.577332 0.225694
O O9 0.309688 0.494559 0.234999
O O10 0.244905 0.593317 0.231379
O O11 0.320390 0.555116 0.000000
O O12 0.585357 0.589786 0.769740
O O13 0.494076 0.623665 0.000000
O O14 0.757185 0.603311 0.773996
O O15 0.673441 0.564955 0.000000
O O16 0.225823 0.696968 0.197334
O O17 0.299838 0.793804 0.191891
O O18 0.177741 0.769626 0.000000
O O19 0.158507 0.630686 0.000000
O O20 0.853871 0.633199 0.000000
#
# Coordination Sequence:
#
# PCOD8224568 Si02
#       8
#     8   8   8   8   8   8   8   8
#     4  10  22  37  52  74 106 144 179 217 265 316
#     4  10  20  33  49  74 108 142 174 210 256 311
#     4   9  18  31  54  82 106 136 176 218 263 312
#     4  10  18  31  54  81 109 141 172 212 259 311
#     4   9  17  32  52  81 112 136 171 215 262 313
#     4   9  17  31  51  77 105 133 170 214 263 311
#     4   9  18  34  54  78 105 135 174 222 265 306
#     4  10  19  32  54  81 107 137 173 219 265 308
#
# _framework density 18.473068000000001
#
# number of rings (size 3 to 8) (size 9 to 14) (size 15 to 20)
#    0.000    2.500    1.250    1.125    1.750    3.500 
#    0.000    1.250    0.000    7.500    0.000    0.000 
#    0.000    0.000    0.000    0.000    0.000    0.000 
#
# Total GULP energy -793614.368363 kJ/mol
# GULP energy per Si atom -12400.224506 kJ/mol
# Density = 1.843102 g / cm^3
# Si number density = 18.473068 Si / 1000 Ang^3
#
#
#
# Elastic Constant Matrix: (Units=GPa)
#
#
# Indices 1 2 3 4 5 6 
#
# 1 149.2477 70.2560 45.6932 0.0000 0.0000 0.0000
# 2 70.2560 102.5976 31.5411 0.0000 0.0000 0.0000
# 3 45.6932 31.5411 48.6453 0.0000 0.0000 0.0000
# 4 0.0000 0.0000 0.0000 13.4166 0.0000 0.0000
# 5 0.0000 0.0000 0.0000 0.0000 9.0398 0.0000
# 6 0.0000 0.0000 0.0000 0.0000 0.0000 26.2465
#
#
#
# Elastic Compliance Matrix: (Units=1/GPa)
#
#
# Indices 1 2 3 4 5 6 
#
# 1 0.011597 -0.005736 -0.007174 0.000000 0.000000 0.000000
# 2 -0.005736 0.015010 -0.004345 0.000000 0.000000 0.000000
# 3 -0.007174 -0.004345 0.030113 0.000000 0.000000 0.000000
# 4 0.000000 0.000000 0.000000 0.074535 0.000000 0.000000
# 5 0.000000 0.000000 0.000000 0.000000 0.110622 0.000000
# 6 0.000000 0.000000 0.000000 0.000000 0.000000 0.038100
#
#
# Mechanical properties :
#
#
# Convention : Reuss Voigt Hill
#
# Bulk Modulus (GPa) = 45.02353 66.16347 55.59350
# Shear Modulus (GPa) = 15.53330 19.94058 17.73694
#
# Velocity S-wave (km/s) = 2.90291 3.28905 3.10199
# Velocity P-wave (km/s) = 5.97171 7.09350 6.55664
#
# Compressibility (1/GPa) = 0.02221061
#
# Stress axis : x y z
#
# Youngs Moduli (GPa) = 86.23268 66.62186 33.20850
#
# Poissons Ratio (x) = 0.38211 0.23824
# Poissons Ratio (y) = 0.49459 0.14429
# Poissons Ratio (z) = 0.61863 0.28947
#
# Static dielectric constant tensor:
#      x y z
#    x 3.314830 0.000000 0.000000 
#    y 0.000000 3.564270 0.000000 
#    z 0.000000 0.000000 3.076570 
# 
# 
# High freq. dielectric constant tensor:
#      x y z
#    x 1.714240 0.000000 0.000000 
#    y 0.000000 1.713770 0.000000 
#    z 0.000000 0.000000 1.681910 
# 
# From -- ./inp_files/6629.got.cif
#   From: 2010.03.12/outbox.cif.g09.slc.cpg/sg55_4_cif.got.tgz:6629.got - 2010.04.16 15:19:21.
