data_PCOD8224281
_publ_section_title
;
Structure prediction by ZEFSAII (Michael W. Deem and Ramdas Pophale) SiO2 
 PCOD8224281
Probable space group: P B A M
;
_chemical_formula_sum "Si O2"
_cell_formula_units_Z 56
_cell_length_a 22.312036
_cell_length_b 17.840788
_cell_length_c 8.723049
_cell_angle_alpha 90.000000
_cell_angle_beta 90.000000
_cell_angle_gamma 90.000000
_cell_volume 3472.334430
_symmetry_space_group_name_H-M "P B A M"
_symmetry_group_IT_number 55
_symmetry_cell_setting 'orthorhombic'
loop_
_space_group_symop_operation_xyz
x,y,z
-x,-y,z
1/2+x,1/2-y,-z
1/2-x,1/2+y,-z
-x,-y,-z
x,y,-z
1/2-x,1/2+y,z
1/2+x,1/2-y,z
loop_
_atom_site_type_symbol
_atom_site_label
_atom_site_fract_x
_atom_site_fract_y
_atom_site_fract_z
Si Si1 0.183894 0.263299 0.329502
Si Si2 0.932419 0.010483 0.822910
Si Si3 0.821554 0.282888 0.331513
Si Si4 0.661808 0.385081 0.177426
Si Si5 0.280301 0.910473 0.181152
Si Si6 0.783311 0.436495 0.316827
Si Si7 0.153663 0.874361 0.317525
O O1 0.156311 0.270413 0.500000
O O2 0.252630 0.240856 0.339941
O O3 0.148423 0.199204 0.236028
O O4 0.178728 0.343114 0.244466
O O5 0.904111 0.077621 0.724663
O O6 0.898317 0.932466 0.795890
O O7 0.930246 0.034696 0.000000
O O8 0.000000 0.000000 0.764856
O O9 0.848818 0.293513 0.500000
O O10 0.822885 0.365247 0.252002
O O11 0.855698 0.211957 0.254097
O O12 0.714087 0.425016 0.272688
O O13 0.680824 0.382824 0.000000
O O14 0.212112 0.909539 0.239764
O O15 0.309215 0.988406 0.240014
O O16 0.280255 0.907454 0.000000
O O17 0.787254 0.441374 0.500000
O O18 0.164173 0.872849 0.500000
#
# Coordination Sequence:
#
# PCOD8224281 Si02
#       7
#     8   8   8   8   8   8   8
#     4   9  17  29  43  60  83 113 147 180 219 266
#     4  10  21  34  46  63  89 120 154 191 230 268
#     4   7  14  26  40  59  81 108 141 176 215 259
#     4  10  18  29  44  61  84 115 150 187 227 264
#     4  11  19  27  41  64  91 117 147 180 218 265
#     4  10  17  27  43  62  88 119 148 178 217 265
#     4  10  18  30  46  62  83 114 152 189 225 263
#
# _framework density 16.127478
#
# number of rings (size 3 to 8) (size 9 to 14) (size 15 to 20)
#    0.000    2.429    1.429    4.714    0.000    0.857 
#    0.000    2.143    0.000    0.000    0.000    0.000 
#    0.000    1.143    0.000   13.143    0.000    4.000 
#
# Total GULP energy -693918.843000 kJ/mol
# GULP energy per Si atom -12391.407911 kJ/mol
# Density = 1.609077 g / cm^3
# Si number density = 16.127478 Si / 1000 Ang^3
#
#
#
# Elastic Constant Matrix: (Units=GPa)
#
#
# Indices 1 2 3 4 5 6 
#
# 1 38.9679 34.6352 15.0946 0.0000 0.0000 0.0000
# 2 34.6352 166.2584 47.2180 0.0000 0.0000 0.0000
# 3 15.0946 47.2180 81.1985 0.0000 0.0000 0.0000
# 4 0.0000 0.0000 0.0000 27.8668 0.0000 0.0000
# 5 0.0000 0.0000 0.0000 0.0000 10.2888 0.0000
# 6 0.0000 0.0000 0.0000 0.0000 0.0000 13.8933
#
#
#
# Elastic Compliance Matrix: (Units=1/GPa)
#
#
# Indices 1 2 3 4 5 6 
#
# 1 0.031903 -0.005943 -0.002475 0.000000 0.000000 0.000000
# 2 -0.005943 0.008312 -0.003729 0.000000 0.000000 0.000000
# 3 -0.002475 -0.003729 0.014944 0.000000 0.000000 0.000000
# 4 0.000000 0.000000 0.000000 0.035885 0.000000 0.000000
# 5 0.000000 0.000000 0.000000 0.000000 0.097193 0.000000
# 6 0.000000 0.000000 0.000000 0.000000 0.000000 0.071977
#
#
# Mechanical properties :
#
#
# Convention : Reuss Voigt Hill
#
# Bulk Modulus (GPa) = 32.39841 53.36893 42.88367
# Shear Modulus (GPa) = 16.96093 23.04158 20.00125
#
# Velocity S-wave (km/s) = 3.24648 3.78394 3.52546
# Velocity P-wave (km/s) = 5.84683 7.22874 6.57419
#
# Compressibility (1/GPa) = 0.03086572
#
# Stress axis : x y z
#
# Youngs Moduli (GPa) = 31.34482 120.31113 66.91768
#
# Poissons Ratio (x) = 0.71505 0.16560
# Poissons Ratio (y) = 0.18629 0.24951
# Poissons Ratio (z) = 0.07757 0.44859
#
# Static dielectric constant tensor:
#      x y z
#    x 2.514970 0.000000 0.000000 
#    y 0.000000 3.647840 0.000000 
#    z 0.000000 0.000000 3.072730 
# 
# 
# High freq. dielectric constant tensor:
#      x y z
#    x 1.538480 0.000000 0.000000 
#    y 0.000000 1.646470 0.000000 
#    z 0.000000 0.000000 1.622390 
# 
# From -- ./inp_files/8106.got.cif
#   From: 2010.03.12/outbox.cif.g09.slc.cpg/sg55_5_cif.got.tgz:8106.got - 2010.04.16 15:19:21.
