data_PCOD8224253
_publ_section_title
;
Structure prediction by ZEFSAII (Michael W. Deem and Ramdas Pophale) SiO2 
 PCOD8224253
Probable space group: P B A M
;
_chemical_formula_sum "Si O2"
_cell_formula_units_Z 56
_cell_length_a 18.603703
_cell_length_b 8.919403
_cell_length_c 17.811175
_cell_angle_alpha 90.000000
_cell_angle_beta 90.000000
_cell_angle_gamma 90.000000
_cell_volume 2955.478165
_symmetry_space_group_name_H-M "P B A M"
_symmetry_group_IT_number 55
_symmetry_cell_setting 'orthorhombic'
loop_
_space_group_symop_operation_xyz
x,y,z
-x,-y,z
1/2+x,1/2-y,-z
1/2-x,1/2+y,-z
-x,-y,-z
x,y,-z
1/2-x,1/2+y,z
1/2+x,1/2-y,z
loop_
_atom_site_type_symbol
_atom_site_label
_atom_site_fract_x
_atom_site_fract_y
_atom_site_fract_z
Si Si1 0.150065 0.132426 0.918722
Si Si2 0.668983 0.637855 0.585932
Si Si3 0.590097 0.360045 0.240537
Si Si4 0.748998 0.125098 0.869279
Si Si5 0.680855 0.880374 0.221161
Si Si6 0.716787 0.345775 0.655186
Si Si7 0.432842 0.306099 0.717094
O O1 0.097324 0.172972 0.849029
O O2 0.210434 0.262076 0.926626
O O3 0.188096 0.971308 0.907756
O O4 0.109480 0.127751 0.000000
O O5 0.651209 0.673184 0.500000
O O6 0.679567 0.460274 0.597317
O O7 0.744407 0.714229 0.609349
O O8 0.599724 0.696850 0.632731
O O9 0.655524 0.285362 0.286746
O O10 0.592793 0.539242 0.245666
O O11 0.518518 0.291860 0.277959
O O12 0.781907 0.223670 0.802502
O O13 0.687101 0.011595 0.839277
O O14 0.723046 0.932784 0.295852
O O15 0.598174 0.838068 0.238063
#
# Coordination Sequence:
#
# PCOD8224253 Si02
#       7
#     8   8   8   8   8   8   8
#     4  11  21  33  53  81 112 139 171 229 278 309
#     4  10  20  34  53  82 110 135 172 224 275 313
#     4  10  18  34  54  78 106 138 188 215 258 325
#     4  10  18  31  54  78 107 132 181 220 266 312
#     4  10  16  32  55  78  98 139 180 225 246 312
#     4  10  18  31  57  78 102 141 177 217 263 314
#     4   9  19  33  54  78 103 143 179 216 259 320
#
# _framework density 18.947863999999999
#
# number of rings (size 3 to 8) (size 9 to 14) (size 15 to 20)
#    0.000    2.000    4.286    2.571    0.000    0.000 
#    0.000    8.571    0.000    0.857    0.000    3.000 
#    0.000    0.000    0.000    0.000    0.000    0.000 
#
# Total GULP energy -693867.630282 kJ/mol
# GULP energy per Si atom -12390.493398 kJ/mol
# Density = 1.890474 g / cm^3
# Si number density = 18.947864 Si / 1000 Ang^3
#
#
#
# Elastic Constant Matrix: (Units=GPa)
#
#
# Indices 1 2 3 4 5 6 
#
# 1 95.1248 13.6229 44.6609 0.0000 0.0000 0.0000
# 2 13.6229 53.7998 20.2663 0.0000 0.0000 0.0000
# 3 44.6609 20.2663 132.9564 0.0000 0.0000 0.0000
# 4 0.0000 0.0000 0.0000 10.0103 0.0000 0.0000
# 5 0.0000 0.0000 0.0000 0.0000 17.8954 0.0000
# 6 0.0000 0.0000 0.0000 0.0000 0.0000 24.3429
#
#
#
# Elastic Compliance Matrix: (Units=1/GPa)
#
#
# Indices 1 2 3 4 5 6 
#
# 1 0.012625 -0.001697 -0.003982 0.000000 0.000000 0.000000
# 2 -0.001697 0.019948 -0.002471 0.000000 0.000000 0.000000
# 3 -0.003982 -0.002471 0.009236 0.000000 0.000000 0.000000
# 4 0.000000 0.000000 0.000000 0.099898 0.000000 0.000000
# 5 0.000000 0.000000 0.000000 0.000000 0.055880 0.000000
# 6 0.000000 0.000000 0.000000 0.000000 0.000000 0.041080
#
#
# Mechanical properties :
#
#
# Convention : Reuss Voigt Hill
#
# Bulk Modulus (GPa) = 39.20163 48.77569 43.98866
# Shear Modulus (GPa) = 18.97762 24.00511 21.49136
#
# Velocity S-wave (km/s) = 3.16819 3.56322 3.37150
# Velocity P-wave (km/s) = 5.84101 6.53656 6.19855
#
# Compressibility (1/GPa) = 0.02550914
#
# Stress axis : x y z
#
# Youngs Moduli (GPa) = 79.20700 50.13088 108.27766
#
# Poissons Ratio (x) = 0.08506 0.43119
# Poissons Ratio (y) = 0.13440 0.26752
# Poissons Ratio (z) = 0.31542 0.12386
#
# Static dielectric constant tensor:
#      x y z
#    x 3.325610 0.000000 0.000000 
#    y 0.000000 3.402320 0.000000 
#    z 0.000000 0.000000 3.370290 
# 
# 
# High freq. dielectric constant tensor:
#      x y z
#    x 1.708420 0.000000 0.000000 
#    y 0.000000 1.730510 0.000000 
#    z 0.000000 0.000000 1.725400 
# 
# From -- ./inp_files/21907.got.cif
#   From: 2010.03.12/outbox.cif.g09.slc.cpg/sg55_11_cif.got.tgz:21907.got - 2010.04.16 15:19:21.
