data_PCOD8224830
_publ_section_title
;
Structure prediction by ZEFSAII (Michael W. Deem and Ramdas Pophale) SiO2 
 PCOD8224830
Probable space group: P B A M
;
_chemical_formula_sum "Si O2"
_cell_formula_units_Z 48
_cell_length_a 11.793704
_cell_length_b 16.787873
_cell_length_c 12.960639
_cell_angle_alpha 90.000000
_cell_angle_beta 90.000000
_cell_angle_gamma 90.000000
_cell_volume 2566.092533
_symmetry_space_group_name_H-M "P B A M"
_symmetry_group_IT_number 55
_symmetry_cell_setting 'orthorhombic'
loop_
_space_group_symop_operation_xyz
x,y,z
-x,-y,z
1/2+x,1/2-y,-z
1/2-x,1/2+y,-z
-x,-y,-z
x,y,-z
1/2-x,1/2+y,z
1/2+x,1/2-y,z
loop_
_atom_site_type_symbol
_atom_site_label
_atom_site_fract_x
_atom_site_fract_y
_atom_site_fract_z
Si Si1 0.551376 0.415179 0.379451
Si Si2 0.246223 0.388248 0.112607
Si Si3 0.393326 0.299617 0.733211
Si Si4 0.748899 0.343630 0.249509
Si Si5 0.614408 0.957350 0.116618
Si Si6 0.418867 0.749763 0.116431
O O1 0.500000 0.500000 0.341496
O O2 0.575570 0.418311 0.500000
O O3 0.463170 0.343034 0.357257
O O4 0.672147 0.396971 0.325640
O O5 0.333255 0.369735 0.203221
O O6 0.217955 0.480810 0.117598
O O7 0.129917 0.338718 0.125063
O O8 0.299776 0.367838 0.000000
O O9 0.302899 0.233882 0.690941
O O10 0.472501 0.251623 0.811361
O O11 0.853683 0.391598 0.200958
O O12 0.673537 0.314284 0.153774
O O13 0.500000 0.000000 0.153826
O O14 0.598626 0.922148 0.000000
O O15 0.452935 0.727669 0.000000
#
# Coordination Sequence:
#
# PCOD8224830 Si02
#       6
#     8   8   8   8   8   8
#     4  10  22  40  59  76  97 130 171 217 271 323
#     4   9  17  28  44  69 101 136 169 199 236 287
#     4  10  19  32  52  75  99 129 167 212 256 299
#     4  10  20  33  52  78 105 135 172 214 258 305
#     4  10  19  30  47  73 107 143 172 199 238 294
#     4   9  17  29  46  72 106 140 172 204 242 294
#
# _framework density 18.705483000000001
#
# number of rings (size 3 to 8) (size 9 to 14) (size 15 to 20)
#    0.000    2.333    0.000    3.000    0.000    4.000 
#    0.000    0.000    0.000    8.500    0.000    0.000 
#    0.000    0.000    0.000    0.000    0.000    0.000 
#
# Total GULP energy -595041.574139 kJ/mol
# GULP energy per Si atom -12396.699461 kJ/mol
# Density = 1.866291 g / cm^3
# Si number density = 18.705483 Si / 1000 Ang^3
#
#
#
# Elastic Constant Matrix: (Units=GPa)
#
#
# Indices 1 2 3 4 5 6 
#
# 1 75.4535 29.5183 22.7490 0.0000 0.0000 0.0000
# 2 29.5183 81.3518 33.0343 0.0000 0.0000 0.0000
# 3 22.7490 33.0343 59.3825 0.0000 0.0000 0.0000
# 4 0.0000 0.0000 0.0000 20.5044 0.0000 0.0000
# 5 0.0000 0.0000 0.0000 0.0000 16.6911 0.0000
# 6 0.0000 0.0000 0.0000 0.0000 0.0000 32.2393
#
#
#
# Elastic Compliance Matrix: (Units=1/GPa)
#
#
# Indices 1 2 3 4 5 6 
#
# 1 0.016071 -0.004303 -0.003763 0.000000 0.000000 0.000000
# 2 -0.004303 0.017032 -0.007826 0.000000 0.000000 0.000000
# 3 -0.003763 -0.007826 0.022635 0.000000 0.000000 0.000000
# 4 0.000000 0.000000 0.000000 0.048770 0.000000 0.000000
# 5 0.000000 0.000000 0.000000 0.000000 0.059912 0.000000
# 6 0.000000 0.000000 0.000000 0.000000 0.000000 0.031018
#
#
# Mechanical properties :
#
#
# Convention : Reuss Voigt Hill
#
# Bulk Modulus (GPa) = 41.74769 42.97679 42.36224
# Shear Modulus (GPa) = 21.25785 22.61271 21.93528
#
# Velocity S-wave (km/s) = 3.37479 3.48067 3.42814
# Velocity P-wave (km/s) = 6.12800 6.25930 6.19400
#
# Compressibility (1/GPa) = 0.02395342
#
# Stress axis : x y z
#
# Youngs Moduli (GPa) = 62.22302 58.71404 44.17928
#
# Poissons Ratio (x) = 0.25268 0.16624
# Poissons Ratio (y) = 0.26778 0.34575
# Poissons Ratio (z) = 0.23413 0.45950
#
# Static dielectric constant tensor:
#      x y z
#    x 3.419380 0.000000 0.000000 
#    y 0.000000 3.489160 0.000000 
#    z 0.000000 0.000000 3.093420 
# 
# 
# High freq. dielectric constant tensor:
#      x y z
#    x 1.730410 0.000000 0.000000 
#    y 0.000000 1.735470 0.000000 
#    z 0.000000 0.000000 1.688770 
# 
# From -- ./inp_files/13186.got.cif
#   From: 2010.03.12/outbox.cif.g09.slc.cpg/sg55_7_cif.got.tgz:13186.got - 2010.04.16 15:19:21.
