data_PCOD8224551
_publ_section_title
;
Structure prediction by ZEFSAII (Michael W. Deem and Ramdas Pophale) SiO2 
 PCOD8224551
Probable space group: P B A M
;
_chemical_formula_sum "Si O2"
_cell_formula_units_Z 48
_cell_length_a 28.813692
_cell_length_b 10.380218
_cell_length_c 8.824161
_cell_angle_alpha 90.000000
_cell_angle_beta 90.000000
_cell_angle_gamma 90.000000
_cell_volume 2639.239530
_symmetry_space_group_name_H-M "P B A M"
_symmetry_group_IT_number 55
_symmetry_cell_setting 'orthorhombic'
loop_
_space_group_symop_operation_xyz
x,y,z
-x,-y,z
1/2+x,1/2-y,-z
1/2-x,1/2+y,-z
-x,-y,-z
x,y,-z
1/2-x,1/2+y,z
1/2+x,1/2-y,z
loop_
_atom_site_type_symbol
_atom_site_label
_atom_site_fract_x
_atom_site_fract_y
_atom_site_fract_z
Si Si1 0.778349 0.506624 0.321136
Si Si2 0.520204 0.370399 0.177756
Si Si3 0.469694 0.119337 0.820353
Si Si4 0.383669 0.012037 0.324077
Si Si5 0.386001 0.747552 0.173682
Si Si6 0.280535 0.718772 0.176576
O O1 0.772765 0.526794 0.500000
O O2 0.830357 0.462902 0.277405
O O3 0.744890 0.394677 0.264734
O O4 0.765830 0.641838 0.241076
O O5 0.500000 0.500000 0.254274
O O6 0.492819 0.248555 0.246429
O O7 0.575466 0.360897 0.210341
O O8 0.510462 0.373812 0.000000
O O9 0.416717 0.111748 0.763139
O O10 0.500000 0.000000 0.758185
O O11 0.469487 0.119426 0.000000
O O12 0.391607 0.032753 0.500000
O O13 0.397261 0.867173 0.280614
O O14 0.335018 0.691505 0.204090
O O15 0.390792 0.795488 0.000000
O O16 0.267410 0.714397 0.000000
#
# Coordination Sequence:
#
# PCOD8224551 Si02
#       6
#     8   8   8   8   8   8
#     4  10  21  38  57  78 111 149 181 220 280 343
#     4   9  17  31  51  75 105 137 170 208 259 318
#     4  10  18  31  53  78 102 135 175 215 262 310
#     4  10  20  33  53  79 105 137 179 220 263 313
#     4   9  17  33  55  77 105 137 176 218 261 313
#     4  10  20  35  58  84 108 138 184 237 275 316
#
# _framework density 18.187056999999999
#
# number of rings (size 3 to 8) (size 9 to 14) (size 15 to 20)
#    0.000    2.333    1.667    1.500    0.000    3.000 
#    3.000    0.000    0.000    2.000    0.000    0.000 
#    0.000    0.000    0.000    0.000    0.000    0.000 
#
# Total GULP energy -595152.092193 kJ/mol
# GULP energy per Si atom -12399.001921 kJ/mol
# Density = 1.814566 g / cm^3
# Si number density = 18.187057 Si / 1000 Ang^3
#
#
#
# Elastic Constant Matrix: (Units=GPa)
#
#
# Indices 1 2 3 4 5 6 
#
# 1 112.3188 71.3839 22.1244 0.0000 0.0000 0.0000
# 2 71.3839 126.5702 21.0533 0.0000 0.0000 0.0000
# 3 22.1244 21.0533 29.5187 0.0000 0.0000 0.0000
# 4 0.0000 0.0000 0.0000 21.0159 0.0000 0.0000
# 5 0.0000 0.0000 0.0000 0.0000 25.7239 0.0000
# 6 0.0000 0.0000 0.0000 0.0000 0.0000 34.2655
#
#
#
# Elastic Compliance Matrix: (Units=1/GPa)
#
#
# Indices 1 2 3 4 5 6 
#
# 1 0.014701 -0.007328 -0.005792 0.000000 0.000000 0.000000
# 2 -0.007328 0.012617 -0.003506 0.000000 0.000000 0.000000
# 3 -0.005792 -0.003506 0.040719 0.000000 0.000000 0.000000
# 4 0.000000 0.000000 0.000000 0.047583 0.000000 0.000000
# 5 0.000000 0.000000 0.000000 0.000000 0.038874 0.000000
# 6 0.000000 0.000000 0.000000 0.000000 0.000000 0.029184
#
#
# Mechanical properties :
#
#
# Convention : Reuss Voigt Hill
#
# Bulk Modulus (GPa) = 28.74873 55.28121 42.01497
# Shear Modulus (GPa) = 21.87931 26.45746 24.16838
#
# Velocity S-wave (km/s) = 3.47221 3.81824 3.64933
# Velocity P-wave (km/s) = 5.64948 7.06403 6.39598
#
# Compressibility (1/GPa) = 0.03478414
#
# Stress axis : x y z
#
# Youngs Moduli (GPa) = 68.02042 79.25922 24.55857
#
# Poissons Ratio (x) = 0.58081 0.14225
# Poissons Ratio (y) = 0.49845 0.08611
# Poissons Ratio (z) = 0.39400 0.27790
#
# Static dielectric constant tensor:
#      x y z
#    x 3.532280 0.000000 0.000000 
#    y 0.000000 3.382850 0.000000 
#    z 0.000000 0.000000 3.203930 
# 
# 
# High freq. dielectric constant tensor:
#      x y z
#    x 1.714270 0.000000 0.000000 
#    y 0.000000 1.690330 0.000000 
#    z 0.000000 0.000000 1.689610 
# 
# From -- ./inp_files/10514.got.cif
#   From: 2010.03.12/outbox.cif.g09.slc.cpg/sg55_6_cif.got.tgz:10514.got - 2010.04.16 15:19:21.
