data_PCOD8224008
_publ_section_title
;
Structure prediction by ZEFSAII (Michael W. Deem and Ramdas Pophale) SiO2 
 PCOD8224008
Probable space group: P C C A
;
_chemical_formula_sum "Si O2"
_cell_formula_units_Z 48
_cell_length_a 17.254607
_cell_length_b 14.144028
_cell_length_c 8.840490
_cell_angle_alpha 90.000000
_cell_angle_beta 90.000000
_cell_angle_gamma 90.000000
_cell_volume 2157.518442
_symmetry_space_group_name_H-M "P C C A"
_symmetry_group_IT_number 54
_symmetry_cell_setting 'orthorhombic'
loop_
_space_group_symop_operation_xyz
x,y,z
1/2-x,-y,z
1/2+x,-y,1/2-z
-x,y,1/2-z
-x,-y,-z
1/2+x,y,-z
1/2-x,y,1/2+z
x,-y,1/2+z
loop_
_atom_site_type_symbol
_atom_site_label
_atom_site_fract_x
_atom_site_fract_y
_atom_site_fract_z
Si Si1 0.667920 0.542926 0.237621
Si Si2 0.290222 0.744613 0.221648
Si Si3 0.357786 0.248808 0.051134
Si Si4 0.324053 0.070474 0.529347
Si Si5 0.410532 0.070978 0.215653
Si Si6 0.075137 0.440504 0.542227
O O1 0.750000 0.500000 0.274370
O O2 0.661708 0.648279 0.310467
O O3 0.651787 0.541425 0.059327
O O4 0.597374 0.479062 0.294755
O O5 0.307980 0.770106 0.396881
O O6 0.199697 0.720598 0.188825
O O7 0.308204 0.828665 0.105643
O O8 0.428909 0.325551 0.040095
O O9 0.398552 0.151432 0.090983
O O10 0.355578 0.087751 0.360669
O O11 0.250000 0.000000 0.526280
O O12 0.389955 0.026863 0.635175
O O13 0.500000 0.066209 0.250000
O O14 0.000000 0.500000 0.500000
#
# Coordination Sequence:
#
# PCOD8224008 Si02
#       6
#     8   8   8   8   8   8
#     4  11  23  42  68  97 131 182 231 285 341 420
#     4  11  24  42  72 102 134 176 245 296 344 420
#     4  11  24  44  68 105 139 185 239 296 361 419
#     4  12  25  45  73 106 141 187 242 297 353 422
#     4  12  27  46  70 104 145 191 233 295 362 431
#     4  11  25  43  66 101 142 179 228 288 357 420
#
# _framework density 22.247781
#
# number of rings (size 3 to 8) (size 9 to 14) (size 15 to 20)
#    0.000    0.667    3.333    4.000    2.333    4.000 
#    0.000    3.333    0.000    0.000    0.000    0.000 
#    0.000    0.000    0.000    0.000    0.000    0.000 
#
# Total GULP energy -594754.029166 kJ/mol
# GULP energy per Si atom -12390.708941 kJ/mol
# Density = 2.219714 g / cm^3
# Si number density = 22.247781 Si / 1000 Ang^3
#
#
#
# Elastic Constant Matrix: (Units=GPa)
#
#
# Indices 1 2 3 4 5 6 
#
# 1 95.6624 33.6016 28.6500 0.0000 0.0000 0.0000
# 2 33.6016 129.0048 50.5206 0.0000 0.0000 0.0000
# 3 28.6500 50.5206 97.5306 0.0000 0.0000 0.0000
# 4 0.0000 0.0000 0.0000 35.0281 0.0000 0.0000
# 5 0.0000 0.0000 0.0000 0.0000 28.9755 0.0000
# 6 0.0000 0.0000 0.0000 0.0000 0.0000 37.5691
#
#
#
# Elastic Compliance Matrix: (Units=1/GPa)
#
#
# Indices 1 2 3 4 5 6 
#
# 1 0.011930 -0.002176 -0.002377 0.000000 0.000000 0.000000
# 2 -0.002176 0.010121 -0.004604 0.000000 0.000000 0.000000
# 3 -0.002377 -0.004604 0.013336 0.000000 0.000000 0.000000
# 4 0.000000 0.000000 0.000000 0.028549 0.000000 0.000000
# 5 0.000000 0.000000 0.000000 0.000000 0.034512 0.000000
# 6 0.000000 0.000000 0.000000 0.000000 0.000000 0.026618
#
#
# Mechanical properties :
#
#
# Convention : Reuss Voigt Hill
#
# Bulk Modulus (GPa) = 58.57110 60.86026 59.71568
# Shear Modulus (GPa) = 33.54122 34.27625 33.90874
#
# Velocity S-wave (km/s) = 3.88702 3.92938 3.90826
# Velocity P-wave (km/s) = 6.82123 6.92833 6.87499
#
# Compressibility (1/GPa) = 0.01707327
#
# Stress axis : x y z
#
# Youngs Moduli (GPa) = 83.82366 98.80100 74.98467
#
# Poissons Ratio (x) = 0.21503 0.17824
# Poissons Ratio (y) = 0.18244 0.34519
# Poissons Ratio (z) = 0.19925 0.45483
#
# Static dielectric constant tensor:
#      x y z
#    x 3.874730 0.000000 0.000000 
#    y 0.000000 4.354860 0.000000 
#    z 0.000000 0.000000 4.185090 
# 
# 
# High freq. dielectric constant tensor:
#      x y z
#    x 1.859390 0.000000 0.000000 
#    y 0.000000 1.895280 0.000000 
#    z 0.000000 0.000000 1.886770 
# 
# From -- ./inp_files/4175.got.cif
#   From: 2010.03.12/outbox.cif.g09.slc.cpg/sg54_3_cif.got.tgz:4175.got - 2010.04.16 15:00:50.
