data_PCOD8224381
_publ_section_title
;
Structure prediction by ZEFSAII (Michael W. Deem and Ramdas Pophale) SiO2 
 PCOD8224381
Probable space group: P B A M
;
_chemical_formula_sum "Si O2"
_cell_formula_units_Z 56
_cell_length_a 24.879309
_cell_length_b 10.347844
_cell_length_c 13.880355
_cell_angle_alpha 90.000000
_cell_angle_beta 90.000000
_cell_angle_gamma 90.000000
_cell_volume 3573.458646
_symmetry_space_group_name_H-M "P B A M"
_symmetry_group_IT_number 55
_symmetry_cell_setting 'orthorhombic'
loop_
_space_group_symop_operation_xyz
x,y,z
-x,-y,z
1/2+x,1/2-y,-z
1/2-x,1/2+y,-z
-x,-y,-z
x,y,-z
1/2-x,1/2+y,z
1/2+x,1/2-y,z
loop_
_atom_site_type_symbol
_atom_site_label
_atom_site_fract_x
_atom_site_fract_y
_atom_site_fract_z
Si Si1 0.186302 0.251930 0.276846
Si Si2 1.000000 0.640610 0.886300
Si Si3 0.687659 0.000000 0.393157
Si Si4 0.813698 0.251931 0.723154
Si Si5 0.315219 0.500000 0.391065
Si Si6 0.616619 0.153964 0.111236
Si Si7 0.616619 0.846037 0.111236
O O1 0.166814 0.373229 0.339470
O O2 0.250000 0.250000 0.261411
O O3 0.159308 0.264163 0.172336
O O4 0.165295 0.125349 0.332373
O O5 0.056784 0.707396 0.858123
O O6 0.000000 0.500000 0.836978
O O7 0.943216 0.707396 0.858123
O O8 1.000000 0.621312 0.000000
O O9 0.663038 0.000001 0.500000
O O10 0.666814 0.873230 0.339470
O O11 0.751513 0.000000 0.398331
O O12 0.834705 0.125350 0.667627
O O13 0.840692 0.264164 0.827664
O O14 0.339188 0.500000 0.500000
O O15 0.621473 0.000000 0.129594
O O16 0.628641 0.185081 0.000000
O O17 0.628641 0.814919 0.000000
#
# Coordination Sequence:
#
# PCOD8224381 Si02
#       7
#     8   8   8   8   8   8   8
#     4  10  18  28  44  67  93 121 150 180 222 272
#     4   7  12  24  44  67  86 109 147 191 227 255
#     4   9  16  28  45  64  85 114 155 194 225 257
#     4  10  18  28  44  67  93 121 150 180 222 272
#     4   9  18  30  43  62  91 120 149 188 223 259
#     4   9  16  28  46  68  93 118 147 185 224 262
#     4   9  16  28  46  68  93 118 147 185 224 262
#
# _framework density 15.671092
#
# number of rings (size 3 to 8) (size 9 to 14) (size 15 to 20)
#    0.000    3.000    1.429    2.571    0.000    4.000 
#    0.000    0.714    0.000    0.857    0.000    9.000 
#    0.000    0.000    0.000    0.000    0.000    0.000 
#
# Total GULP energy -693823.035754 kJ/mol
# GULP energy per Si atom -12389.697067 kJ/mol
# Density = 1.563542 g / cm^3
# Si number density = 15.671092 Si / 1000 Ang^3
#
#
#
# Elastic Constant Matrix: (Units=GPa)
#
#
# Indices 1 2 3 4 5 6 
#
# 1 55.1342 28.7766 46.8105 0.0000 0.0000 0.0000
# 2 28.7766 102.6823 55.6984 0.0000 0.0000 0.0000
# 3 46.8105 55.6984 114.8628 0.0000 0.0000 0.0000
# 4 0.0000 0.0000 0.0000 26.9860 0.0000 0.0000
# 5 0.0000 0.0000 0.0000 0.0000 3.4555 0.0000
# 6 0.0000 0.0000 0.0000 0.0000 0.0000 8.4147
#
#
#
# Elastic Compliance Matrix: (Units=1/GPa)
#
#
# Indices 1 2 3 4 5 6 
#
# 1 0.028114 -0.002258 -0.010363 0.000000 0.000000 0.000000
# 2 -0.002258 0.013396 -0.005576 0.000000 0.000000 0.000000
# 3 -0.010363 -0.005576 0.015633 0.000000 0.000000 0.000000
# 4 0.000000 0.000000 0.000000 0.037056 0.000000 0.000000
# 5 0.000000 0.000000 0.000000 0.000000 0.289392 0.000000
# 6 0.000000 0.000000 0.000000 0.000000 0.000000 0.118840
#
#
# Mechanical properties :
#
#
# Convention : Reuss Voigt Hill
#
# Bulk Modulus (GPa) = 48.19132 59.47225 53.83179
# Shear Modulus (GPa) = 9.16186 17.19749 13.17967
#
# Velocity S-wave (km/s) = 2.42054 3.31630 2.90318
# Velocity P-wave (km/s) = 6.21535 7.25923 6.75748
#
# Compressibility (1/GPa) = 0.02075062
#
# Stress axis : x y z
#
# Youngs Moduli (GPa) = 35.56918 74.64907 63.96779
#
# Poissons Ratio (x) = 0.16855 0.66287
# Poissons Ratio (y) = 0.08031 0.35667
# Poissons Ratio (z) = 0.36859 0.41622
#
# Static dielectric constant tensor:
#      x y z
#    x 2.894000 0.000000 0.000000 
#    y 0.000000 2.874250 0.000000 
#    z 0.000000 0.000000 2.968090 
# 
# 
# High freq. dielectric constant tensor:
#      x y z
#    x 1.570510 0.000000 0.000000 
#    y 0.000000 1.581890 0.000000 
#    z 0.000000 0.000000 1.597530 
# 
# From -- ./inp_files/13612.got.cif
#   From: 2010.03.12/outbox.cif.g09.slc.cpg/sg55_7_cif.got.tgz:13612.got - 2010.04.16 15:19:21.
