data_PCOD8224499
_publ_section_title
;
Structure prediction by ZEFSAII (Michael W. Deem and Ramdas Pophale) SiO2 
 PCOD8224499
Probable space group: P B A M
;
_chemical_formula_sum "Si O2"
_cell_formula_units_Z 56
_cell_length_a 15.147817
_cell_length_b 20.759565
_cell_length_c 9.335199
_cell_angle_alpha 90.000000
_cell_angle_beta 90.000000
_cell_angle_gamma 90.000000
_cell_volume 2935.566203
_symmetry_space_group_name_H-M "P B A M"
_symmetry_group_IT_number 55
_symmetry_cell_setting 'orthorhombic'
loop_
_space_group_symop_operation_xyz
x,y,z
-x,-y,z
1/2+x,1/2-y,-z
1/2-x,1/2+y,-z
-x,-y,-z
x,y,-z
1/2-x,1/2+y,z
1/2+x,1/2-y,z
loop_
_atom_site_type_symbol
_atom_site_label
_atom_site_fract_x
_atom_site_fract_y
_atom_site_fract_z
Si Si1 0.255101 0.095990 0.830397
Si Si2 0.817000 0.765190 0.830052
Si Si3 0.179616 0.844202 0.172363
Si Si4 0.947197 0.370611 0.841759
Si Si5 0.732864 0.528812 0.331029
Si Si6 0.065432 0.445716 0.335340
Si Si7 0.987289 0.229258 0.159979
O O1 0.218496 0.165165 0.781824
O O2 0.358364 0.094790 0.786667
O O3 0.205627 0.039325 0.741737
O O4 0.241782 0.084900 0.000000
O O5 0.755384 0.706202 0.772780
O O6 0.916958 0.762046 0.763864
O O7 0.817535 0.758429 0.000000
O O8 0.186419 0.912584 0.250616
O O9 0.082275 0.821359 0.226095
O O10 0.184046 0.851976 0.000000
O O11 0.930627 0.294585 0.842175
O O12 0.033965 0.381824 0.745950
O O13 0.969764 0.395641 0.000000
O O14 0.709796 0.528195 0.500000
O O15 0.835605 0.537392 0.300568
O O16 0.048040 0.433217 0.500000
O O17 0.000000 0.500000 0.274256
O O18 0.009487 0.205928 0.000000
#
# Coordination Sequence:
#
# PCOD8224499 Si02
#       7
#     8   8   8   8   8   8   8
#     4  10  19  33  54  80 108 140 179 221 264 316
#     4   9  17  32  56  84 112 139 175 223 270 318
#     4  10  19  35  58  83 110 140 176 222 272 320
#     4  10  18  30  52  81 107 133 172 219 266 318
#     4  11  23  37  52  74 109 148 182 221 269 320
#     4  10  20  33  47  69 104 142 173 206 261 324
#     4   9  17  31  54  83 110 136 170 219 275 320
#
# _framework density 19.076387
#
# number of rings (size 3 to 8) (size 9 to 14) (size 15 to 20)
#    0.000    2.143    2.857    1.286    0.000    2.571 
#    0.000    2.143    0.000    6.857    0.000    0.000 
#    0.000    0.000    0.000    0.000    0.000    0.000 
#
# Total GULP energy -693895.102636 kJ/mol
# GULP energy per Si atom -12390.983976 kJ/mol
# Density = 1.903297 g / cm^3
# Si number density = 19.076387 Si / 1000 Ang^3
#
#
#
# Elastic Constant Matrix: (Units=GPa)
#
#
# Indices 1 2 3 4 5 6 
#
# 1 62.7962 17.1080 15.4761 0.0000 0.0000 0.0000
# 2 17.1080 98.8008 23.4045 0.0000 0.0000 0.0000
# 3 15.4761 23.4045 21.4514 0.0000 0.0000 0.0000
# 4 0.0000 0.0000 0.0000 -2.2255 0.0000 0.0000
# 5 0.0000 0.0000 0.0000 0.0000 17.0997 0.0000
# 6 0.0000 0.0000 0.0000 0.0000 0.0000 31.6063
#
#
#
# Elastic Compliance Matrix: (Units=1/GPa)
#
#
# Indices 1 2 3 4 5 6 
#
# 1 0.019368 -0.000059 -0.013909 0.000000 0.000000 0.000000
# 2 -0.000059 0.013649 -0.014849 0.000000 0.000000 0.000000
# 3 -0.013909 -0.014849 0.072853 0.000000 0.000000 0.000000
# 4 0.000000 0.000000 0.000000 -0.449329 0.000000 0.000000
# 5 0.000000 0.000000 0.000000 0.000000 0.058481 0.000000
# 6 0.000000 0.000000 0.000000 0.000000 0.000000 0.031639
#
#
# Mechanical properties :
#
#
# Convention : Reuss Voigt Hill
#
# Bulk Modulus (GPa) = 20.73146 32.78061 26.75604
# Shear Modulus (GPa) = -27.83571 17.76675 -5.03448
#
# Velocity S-wave (km/s) = -3.82405 3.05511 -1.62630
# Velocity P-wave (km/s) = 2.93371 5.44666 3.24495
#
# Compressibility (1/GPa) = 0.04823587
#
# Stress axis : x y z
#
# Youngs Moduli (GPa) = 51.63042 73.26440 13.72630
#
# Poissons Ratio (x) = 0.00432 0.19092
# Poissons Ratio (y) = 0.00304 0.20383
# Poissons Ratio (z) = 0.71813 1.08793
#
# Static dielectric constant tensor:
#      x y z
#    x 3.590410 0.000000 0.000000 
#    y 0.000000 3.581990 0.000000 
#    z 0.000000 0.000000 3.090480 
# 
# 
# High freq. dielectric constant tensor:
#      x y z
#    x 1.736280 0.000000 0.000000 
#    y 0.000000 1.747390 0.000000 
#    z 0.000000 0.000000 1.697990 
# 
# From -- ./inp_files/6108.got.cif
#   From: 2010.03.12/outbox.cif.g09.slc.cpg/sg55_4_cif.got.tgz:6108.got - 2010.04.16 15:19:21.
