data_PCOD8224257
_publ_section_title
;
Structure prediction by ZEFSAII (Michael W. Deem and Ramdas Pophale) SiO2 
 PCOD8224257
Probable space group: P B A M
;
_chemical_formula_sum "Si O2"
_cell_formula_units_Z 48
_cell_length_a 8.518866
_cell_length_b 17.273872
_cell_length_c 15.191416
_cell_angle_alpha 90.000000
_cell_angle_beta 90.000000
_cell_angle_gamma 90.000000
_cell_volume 2235.474605
_symmetry_space_group_name_H-M "P B A M"
_symmetry_group_IT_number 55
_symmetry_cell_setting 'orthorhombic'
loop_
_space_group_symop_operation_xyz
x,y,z
-x,-y,z
1/2+x,1/2-y,-z
1/2-x,1/2+y,-z
-x,-y,-z
x,y,-z
1/2-x,1/2+y,z
1/2+x,1/2-y,z
loop_
_atom_site_type_symbol
_atom_site_label
_atom_site_fract_x
_atom_site_fract_y
_atom_site_fract_z
Si Si1 0.398028 0.390181 0.690354
Si Si2 0.762799 0.939481 0.000000
Si Si3 0.737839 0.198625 0.837671
Si Si4 0.327129 0.027769 0.500000
Si Si5 0.767449 0.943321 0.688390
Si Si6 0.586752 0.585265 0.500000
Si Si7 0.616263 0.611351 0.000000
Si Si8 0.882921 0.359254 0.838577
O O1 0.313533 0.322261 0.743028
O O2 0.571178 0.407936 0.727465
O O3 0.282697 0.464070 0.696971
O O4 0.438295 0.365671 0.588954
O O5 0.656317 0.918479 0.916414
O O6 0.928903 0.895843 0.000000
O O7 0.793053 0.030539 0.000000
O O8 0.755233 0.290617 0.845200
O O9 0.556606 0.175661 0.845788
O O10 0.836512 0.157610 0.913420
O O11 0.271537 0.076783 0.586070
O O12 0.500000 0.000000 0.500000
O O13 0.265140 0.940277 0.500000
O O14 0.629322 0.907990 0.748019
O O15 0.500000 0.500000 0.500000
#
# Coordination Sequence:
#
# PCOD8224257 Si02
#       8
#     8   4   8   4   8   4   4   8
#     4  10  19  37  63  91 124 162 209 258 314 368
#     4  11  24  45  70  95 125 159 202 255 313 375
#     4  12  26  42  63  90 126 168 209 256 311 380
#     4  10  20  32  59  92 129 158 206 260 308 360
#     4  10  20  37  61  92 126 162 207 261 312 368
#     4  10  16  36  59  92 121 166 202 254 314 362
#     4  11  24  45  70  95 123 159 204 255 314 368
#     4  12  26  42  62  90 127 167 208 255 314 376
#
# _framework density 21.471951000000001
#
# number of rings (size 3 to 8) (size 9 to 14) (size 15 to 20)
#    0.000    1.167    3.333    5.000    4.667    5.333 
#    0.000    0.833    0.000    0.000    0.000    0.000 
#    0.000    0.000    0.000    0.000    0.000    0.000 
#
# Total GULP energy -594865.017877 kJ/mol
# GULP energy per Si atom -12393.021206 kJ/mol
# Density = 2.142308 g / cm^3
# Si number density = 21.471951 Si / 1000 Ang^3
#
#
#
# Elastic Constant Matrix: (Units=GPa)
#
#
# Indices 1 2 3 4 5 6 
#
# 1 86.2521 5.3862 17.7858 0.0000 0.0000 0.0000
# 2 5.3862 56.6610 33.5988 0.0000 0.0000 0.0000
# 3 17.7858 33.5988 144.0354 0.0000 0.0000 0.0000
# 4 0.0000 0.0000 0.0000 7.4893 0.0000 0.0000
# 5 0.0000 0.0000 0.0000 0.0000 26.6804 0.0000
# 6 0.0000 0.0000 0.0000 0.0000 0.0000 35.2411
#
#
#
# Elastic Compliance Matrix: (Units=1/GPa)
#
#
# Indices 1 2 3 4 5 6 
#
# 1 0.011901 -0.000302 -0.001399 0.000000 0.000000 0.000000
# 2 -0.000302 0.020490 -0.004742 0.000000 0.000000 0.000000
# 3 -0.001399 -0.004742 0.008222 0.000000 0.000000 0.000000
# 4 0.000000 0.000000 0.000000 0.133524 0.000000 0.000000
# 5 0.000000 0.000000 0.000000 0.000000 0.037481 0.000000
# 6 0.000000 0.000000 0.000000 0.000000 0.000000 0.028376
#
#
# Mechanical properties :
#
#
# Convention : Reuss Voigt Hill
#
# Bulk Modulus (GPa) = 36.06684 44.49888 40.28286
# Shear Modulus (GPa) = 19.07511 29.22735 24.15123
#
# Velocity S-wave (km/s) = 2.98379 3.69343 3.35741
# Velocity P-wave (km/s) = 5.35764 6.24161 5.81645
#
# Compressibility (1/GPa) = 0.02772630
#
# Stress axis : x y z
#
# Youngs Moduli (GPa) = 84.02452 48.80524 121.62864
#
# Poissons Ratio (x) = 0.01472 0.17019
# Poissons Ratio (y) = 0.02534 0.57680
# Poissons Ratio (z) = 0.11757 0.23145
#
# Static dielectric constant tensor:
#      x y z
#    x 4.015760 0.000000 0.000000 
#    y 0.000000 3.563270 0.000000 
#    z 0.000000 0.000000 4.095700 
# 
# 
# High freq. dielectric constant tensor:
#      x y z
#    x 1.857220 0.000000 0.000000 
#    y 0.000000 1.807170 0.000000 
#    z 0.000000 0.000000 1.857190 
# 
# From -- ./inp_files/17449.got.cif
#   From: 2010.03.12/outbox.cif.g09.slc.cpg/sg55_9_cif.got.tgz:17449.got - 2010.04.16 15:19:21.
