data_PCOD8224947
_publ_section_title
;
Structure prediction by ZEFSAII (Michael W. Deem and Ramdas Pophale) SiO2 
 PCOD8224947
Probable space group: P B A M
;
_chemical_formula_sum "Si O2"
_cell_formula_units_Z 64
_cell_length_a 19.336233
_cell_length_b 20.509999
_cell_length_c 9.340150
_cell_angle_alpha 90.000000
_cell_angle_beta 90.000000
_cell_angle_gamma 90.000000
_cell_volume 3704.173844
_symmetry_space_group_name_H-M "P B A M"
_symmetry_group_IT_number 55
_symmetry_cell_setting 'orthorhombic'
loop_
_space_group_symop_operation_xyz
x,y,z
-x,-y,z
1/2+x,1/2-y,-z
1/2-x,1/2+y,-z
-x,-y,-z
x,y,-z
1/2-x,1/2+y,z
1/2+x,1/2-y,z
loop_
_atom_site_type_symbol
_atom_site_label
_atom_site_fract_x
_atom_site_fract_y
_atom_site_fract_z
Si Si1 0.706092 0.684213 0.167747
Si Si2 0.217012 0.445481 0.165480
Si Si3 0.940739 0.230989 0.835614
Si Si4 0.578679 0.125643 0.836613
Si Si5 0.298248 0.071045 0.331020
Si Si6 0.721129 0.298768 0.663948
Si Si7 0.572048 0.255552 0.664762
Si Si8 0.575176 0.882485 0.837519
O O1 0.734969 0.614311 0.216288
O O2 0.624868 0.686789 0.207248
O O3 0.747946 0.740829 0.244026
O O4 0.717775 0.695370 0.000000
O O5 0.136562 0.428403 0.192538
O O6 0.236708 0.507399 0.261491
O O7 0.230653 0.462241 0.000000
O O8 0.920234 0.305631 0.806120
O O9 0.006430 0.210391 0.740478
O O10 0.961862 0.220867 0.000000
O O11 0.590964 0.186327 0.733369
O O12 0.503454 0.093522 0.810678
O O13 0.583438 0.151839 0.000000
O O14 0.301978 0.061760 0.500000
O O15 0.251707 0.132403 0.284621
O O16 0.375560 0.079536 0.270748
O O17 0.741706 0.285206 0.500000
O O18 0.638281 0.302366 0.682443
O O19 0.553098 0.243845 0.500000
O O20 0.598674 0.897938 0.000000
#
# Coordination Sequence:
#
# PCOD8224947 Si02
#       8
#     8   8   8   8   8   8   8   8
#     4  10  19  34  58  81 102 133 174 218 263 310
#     4  10  21  36  54  76 103 137 176 217 262 310
#     4   9  18  32  52  80 107 132 167 214 263 311
#     4   9  18  33  52  74 103 137 173 213 256 303
#     4  11  23  36  50  72 106 143 176 214 257 306
#     4  10  21  35  52  77 107 138 175 216 258 306
#     4  10  19  31  51  78 106 136 170 212 258 308
#     4   9  17  31  51  74 102 136 173 210 251 304
#
# _framework density 17.277806999999999
#
# number of rings (size 3 to 8) (size 9 to 14) (size 15 to 20)
#    0.000    2.250    2.500    1.500    0.000    5.000 
#    0.000    2.500    0.000    0.750    0.000    5.250 
#    0.000    0.000    0.000    0.000    0.000    0.000 
#
# Total GULP energy -793670.521767 kJ/mol
# GULP energy per Si atom -12401.101903 kJ/mol
# Density = 1.723848 g / cm^3
# Si number density = 17.277807 Si / 1000 Ang^3
#
#
#
# Elastic Constant Matrix: (Units=GPa)
#
#
# Indices 1 2 3 4 5 6 
#
# 1 89.4686 46.9970 45.2908 0.0000 0.0000 0.0000
# 2 46.9970 88.0348 45.0788 0.0000 0.0000 0.0000
# 3 45.2908 45.0788 76.1442 0.0000 0.0000 0.0000
# 4 0.0000 0.0000 0.0000 25.6738 0.0000 0.0000
# 5 0.0000 0.0000 0.0000 0.0000 26.9074 0.0000
# 6 0.0000 0.0000 0.0000 0.0000 0.0000 21.3469
#
#
#
# Elastic Compliance Matrix: (Units=1/GPa)
#
#
# Indices 1 2 3 4 5 6 
#
# 1 0.017893 -0.005887 -0.007157 0.000000 0.000000 0.000000
# 2 -0.005887 0.018238 -0.007295 0.000000 0.000000 0.000000
# 3 -0.007157 -0.007295 0.021709 0.000000 0.000000 0.000000
# 4 0.000000 0.000000 0.000000 0.038950 0.000000 0.000000
# 5 0.000000 0.000000 0.000000 0.000000 0.037165 0.000000
# 6 0.000000 0.000000 0.000000 0.000000 0.000000 0.046845
#
#
# Mechanical properties :
#
#
# Convention : Reuss Voigt Hill
#
# Bulk Modulus (GPa) = 58.27530 58.70897 58.49214
# Shear Modulus (GPa) = 22.00715 22.53769 22.27242
#
# Velocity S-wave (km/s) = 3.57280 3.61561 3.59427
# Velocity P-wave (km/s) = 7.12892 7.17519 7.15209
#
# Compressibility (1/GPa) = 0.01715993
#
# Stress axis : x y z
#
# Youngs Moduli (GPa) = 55.88872 54.83202 46.06323
#
# Poissons Ratio (x) = 0.32279 0.32970
# Poissons Ratio (y) = 0.32901 0.33605
# Poissons Ratio (z) = 0.40002 0.40002
#
# Static dielectric constant tensor:
#      x y z
#    x 3.435890 0.000000 0.000000 
#    y 0.000000 3.029030 0.000000 
#    z 0.000000 0.000000 3.226610 
# 
# 
# High freq. dielectric constant tensor:
#      x y z
#    x 1.670730 0.000000 0.000000 
#    y 0.000000 1.640520 0.000000 
#    z 0.000000 0.000000 1.667990 
# 
# From -- ./inp_files/9116.got.cif
#   From: 2010.03.12/outbox.cif.g09.slc.cpg/sg55_5_cif.got.tgz:9116.got - 2010.04.16 15:19:21.
