data_PCOD8224548
_publ_section_title
;
Structure prediction by ZEFSAII (Michael W. Deem and Ramdas Pophale) SiO2 
 PCOD8224548
Probable space group: P B A M
;
_chemical_formula_sum "Si O2"
_cell_formula_units_Z 48
_cell_length_a 18.894314
_cell_length_b 14.106233
_cell_length_c 9.741379
_cell_angle_alpha 90.000000
_cell_angle_beta 90.000000
_cell_angle_gamma 90.000000
_cell_volume 2596.346323
_symmetry_space_group_name_H-M "P B A M"
_symmetry_group_IT_number 55
_symmetry_cell_setting 'orthorhombic'
loop_
_space_group_symop_operation_xyz
x,y,z
-x,-y,z
1/2+x,1/2-y,-z
1/2-x,1/2+y,-z
-x,-y,-z
x,y,-z
1/2-x,1/2+y,z
1/2+x,1/2-y,z
loop_
_atom_site_type_symbol
_atom_site_label
_atom_site_fract_x
_atom_site_fract_y
_atom_site_fract_z
Si Si1 0.042508 0.357210 0.154237
Si Si2 0.863357 0.147569 0.336905
Si Si3 0.850652 0.939004 0.660743
Si Si4 0.787058 0.335433 0.337148
Si Si5 0.108889 0.551518 0.845171
Si Si6 0.521662 0.312384 0.660838
O O1 0.100637 0.438963 0.176203
O O2 0.057984 0.275289 0.262638
O O3 0.965248 0.398379 0.181051
O O4 0.048026 0.316417 0.000000
O O5 0.866213 0.142773 0.500000
O O6 0.808360 0.229020 0.287637
O O7 0.942498 0.170519 0.283020
O O8 0.840194 0.044902 0.275819
O O9 0.840142 0.948591 0.500000
O O10 0.792145 0.862899 0.712647
O O11 0.929731 0.903519 0.694781
O O12 0.797112 0.343592 0.500000
O O13 0.837165 0.412306 0.267778
O O14 0.135788 0.572971 0.000000
O O15 0.522100 0.289190 0.500000
#
# Coordination Sequence:
#
# PCOD8224548 Si02
#       6
#     8   8   8   8   8   8
#     4   9  18  32  51  75 103 134 166 206 257 305
#     4   9  17  31  50  73 102 134 169 207 251 307
#     4   9  19  32  49  75 107 137 165 208 266 308
#     4  10  19  32  52  77 101 131 173 217 255 296
#     4   9  18  33  51  72 102 138 168 199 255 316
#     4  10  18  31  53  78 101 133 177 215 247 298
#
# _framework density 18.487518000000001
#
# number of rings (size 3 to 8) (size 9 to 14) (size 15 to 20)
#    0.000    2.667    1.667    1.500    0.000    4.000 
#    0.000    5.833    0.000    5.000    0.000    0.000 
#    0.000    0.000    0.000    0.000    0.000    0.000 
#
# Total GULP energy -594932.005741 kJ/mol
# GULP energy per Si atom -12394.416786 kJ/mol
# Density = 1.844544 g / cm^3
# Si number density = 18.487518 Si / 1000 Ang^3
#
#
#
# Elastic Constant Matrix: (Units=GPa)
#
#
# Indices 1 2 3 4 5 6 
#
# 1 85.8919 57.1672 17.9121 0.0000 0.0000 0.0000
# 2 57.1672 138.6045 30.7887 0.0000 0.0000 0.0000
# 3 17.9121 30.7887 32.6766 0.0000 0.0000 0.0000
# 4 0.0000 0.0000 0.0000 15.3356 0.0000 0.0000
# 5 0.0000 0.0000 0.0000 0.0000 12.7914 0.0000
# 6 0.0000 0.0000 0.0000 0.0000 0.0000 24.8284
#
#
#
# Elastic Compliance Matrix: (Units=1/GPa)
#
#
# Indices 1 2 3 4 5 6 
#
# 1 0.016323 -0.006001 -0.003294 0.000000 0.000000 0.000000
# 2 -0.006001 0.011331 -0.007387 0.000000 0.000000 0.000000
# 3 -0.003294 -0.007387 0.039368 0.000000 0.000000 0.000000
# 4 0.000000 0.000000 0.000000 0.065208 0.000000 0.000000
# 5 0.000000 0.000000 0.000000 0.000000 0.078177 0.000000
# 6 0.000000 0.000000 0.000000 0.000000 0.000000 0.040277
#
#
# Mechanical properties :
#
#
# Convention : Reuss Voigt Hill
#
# Bulk Modulus (GPa) = 29.70882 52.10099 40.90491
# Shear Modulus (GPa) = 16.93386 20.67806 18.80596
#
# Velocity S-wave (km/s) = 3.02977 3.34801 3.19286
# Velocity P-wave (km/s) = 5.32390 6.57179 5.98048
#
# Compressibility (1/GPa) = 0.03366004
#
# Stress axis : x y z
#
# Youngs Moduli (GPa) = 61.26146 88.25612 25.40117
#
# Poissons Ratio (x) = 0.52962 0.08366
# Poissons Ratio (y) = 0.36763 0.18763
# Poissons Ratio (z) = 0.20178 0.65191
#
# Static dielectric constant tensor:
#      x y z
#    x 3.476030 0.000000 0.000000 
#    y 0.000000 3.712590 0.000000 
#    z 0.000000 0.000000 3.029760 
# 
# 
# High freq. dielectric constant tensor:
#      x y z
#    x 1.709220 0.000000 0.000000 
#    y 0.000000 1.726030 0.000000 
#    z 0.000000 0.000000 1.674390 
# 
# From -- ./inp_files/5805.got.cif
#   From: 2010.03.12/outbox.cif.g09.slc.cpg/sg55_3_cif.got.tgz:5805.got - 2010.04.16 15:19:21.
