data_PCOD8224695
_publ_section_title
;
Structure prediction by ZEFSAII (Michael W. Deem and Ramdas Pophale) SiO2 
 PCOD8224695
Probable space group: P B A M
;
_chemical_formula_sum "Si O2"
_cell_formula_units_Z 64
_cell_length_a 23.550597
_cell_length_b 15.416839
_cell_length_c 9.065722
_cell_angle_alpha 90.000000
_cell_angle_beta 90.000000
_cell_angle_gamma 90.000000
_cell_volume 3291.543926
_symmetry_space_group_name_H-M "P B A M"
_symmetry_group_IT_number 55
_symmetry_cell_setting 'orthorhombic'
loop_
_space_group_symop_operation_xyz
x,y,z
-x,-y,z
1/2+x,1/2-y,-z
1/2-x,1/2+y,-z
-x,-y,-z
x,y,-z
1/2-x,1/2+y,z
1/2+x,1/2-y,z
loop_
_atom_site_type_symbol
_atom_site_label
_atom_site_fract_x
_atom_site_fract_y
_atom_site_fract_z
Si Si1 0.881775 0.402845 0.331638
Si Si2 0.304007 0.749265 0.672617
Si Si3 0.386312 0.590979 0.673108
Si Si4 0.378451 0.419661 0.169785
Si Si5 0.001515 0.326241 0.668568
Si Si6 0.882568 0.594817 0.325732
Si Si7 0.498511 0.649977 0.829791
Si Si8 0.184520 0.747365 0.174703
O O1 0.860333 0.391307 0.500000
O O2 0.867452 0.498617 0.268005
O O3 0.851065 0.333943 0.230026
O O4 0.949609 0.392920 0.323846
O O5 0.289215 0.749098 0.500000
O O6 0.345698 0.670762 0.713518
O O7 0.333339 0.839076 0.721859
O O8 0.247650 0.739538 0.765779
O O9 0.393930 0.580970 0.500000
O O10 0.358679 0.503103 0.737100
O O11 0.447661 0.605533 0.742983
O O12 0.445820 0.408577 0.189317
O O13 0.344754 0.335986 0.231396
O O14 0.362631 0.435707 0.000000
O O15 0.012708 0.295408 0.500000
O O16 0.057091 0.372220 0.736814
O O17 0.986468 0.243813 0.766751
O O18 0.889000 0.589844 0.500000
O O19 0.481124 0.658338 0.000000
O O20 0.184989 0.744693 0.000000
#
# Coordination Sequence:
#
# PCOD8224695 Si02
#       8
#     8   8   8   8   8   8   8   8
#     4  10  20  35  62  92 118 152 191 234 290 348
#     4  10  22  41  61  83 115 151 195 246 292 340
#     4  11  23  39  62  91 118 149 195 247 292 345
#     4  10  23  41  59  84 120 159 193 234 293 351
#     4  10  18  33  59  90 121 152 190 234 285 346
#     4   9  18  36  60  88 121 151 185 236 291 341
#     4  11  21  36  59  86 122 160 190 231 293 354
#     4  11  24  42  60  81 116 156 198 243 288 344
#
# _framework density 19.443762
#
# number of rings (size 3 to 8) (size 9 to 14) (size 15 to 20)
#    0.000    1.750    2.500    1.875    0.000    7.000 
#    0.000    5.000    0.000    1.500    0.000    0.000 
#    0.000    0.000    0.000    0.000    0.000    0.000 
#
# Total GULP energy -793803.775758 kJ/mol
# GULP energy per Si atom -12403.183996 kJ/mol
# Density = 1.939951 g / cm^3
# Si number density = 19.443762 Si / 1000 Ang^3
#
#
#
# Elastic Constant Matrix: (Units=GPa)
#
#
# Indices 1 2 3 4 5 6 
#
# 1 67.2140 22.5179 29.3730 0.0000 0.0000 0.0000
# 2 22.5179 140.5154 44.2211 0.0000 0.0000 0.0000
# 3 29.3730 44.2211 63.8989 0.0000 0.0000 0.0000
# 4 0.0000 0.0000 0.0000 22.2157 0.0000 0.0000
# 5 0.0000 0.0000 0.0000 0.0000 21.0848 0.0000
# 6 0.0000 0.0000 0.0000 0.0000 0.0000 11.8482
#
#
#
# Elastic Compliance Matrix: (Units=1/GPa)
#
#
# Indices 1 2 3 4 5 6 
#
# 1 0.018633 -0.000371 -0.008308 0.000000 0.000000 0.000000
# 2 -0.000371 0.009106 -0.006131 0.000000 0.000000 0.000000
# 3 -0.008308 -0.006131 0.023712 0.000000 0.000000 0.000000
# 4 0.000000 0.000000 0.000000 0.045013 0.000000 0.000000
# 5 0.000000 0.000000 0.000000 0.000000 0.047428 0.000000
# 6 0.000000 0.000000 0.000000 0.000000 0.000000 0.084401
#
#
# Mechanical properties :
#
#
# Convention : Reuss Voigt Hill
#
# Bulk Modulus (GPa) = 45.80952 51.53914 48.67433
# Shear Modulus (GPa) = 18.85445 22.73083 20.79264
#
# Velocity S-wave (km/s) = 3.11737 3.42285 3.27367
# Velocity P-wave (km/s) = 6.04718 6.49504 6.27511
#
# Compressibility (1/GPa) = 0.02182952
#
# Stress axis : x y z
#
# Youngs Moduli (GPa) = 53.66819 109.82297 42.17335
#
# Poissons Ratio (x) = 0.04078 0.35039
# Poissons Ratio (y) = 0.01993 0.25856
# Poissons Ratio (z) = 0.44589 0.67330
#
# Static dielectric constant tensor:
#      x y z
#    x 3.518910 0.000000 0.000000 
#    y 0.000000 3.823690 0.000000 
#    z 0.000000 0.000000 3.413520 
# 
# 
# High freq. dielectric constant tensor:
#      x y z
#    x 1.755350 0.000000 0.000000 
#    y 0.000000 1.772650 0.000000 
#    z 0.000000 0.000000 1.739780 
# 
# From -- ./inp_files/9706.got.cif
#   From: 2010.03.12/outbox.cif.g09.slc.cpg/sg55_5_cif.got.tgz:9706.got - 2010.04.16 15:19:21.
