data_PCOD8224742
_publ_section_title
;
Structure prediction by ZEFSAII (Michael W. Deem and Ramdas Pophale) SiO2 
 PCOD8224742
Probable space group: P B A M
;
_chemical_formula_sum "Si O2"
_cell_formula_units_Z 64
_cell_length_a 18.830882
_cell_length_b 20.112269
_cell_length_c 8.777847
_cell_angle_alpha 90.000000
_cell_angle_beta 90.000000
_cell_angle_gamma 90.000000
_cell_volume 3324.449481
_symmetry_space_group_name_H-M "P B A M"
_symmetry_group_IT_number 55
_symmetry_cell_setting 'orthorhombic'
loop_
_space_group_symop_operation_xyz
x,y,z
-x,-y,z
1/2+x,1/2-y,-z
1/2-x,1/2+y,-z
-x,-y,-z
x,y,-z
1/2-x,1/2+y,z
1/2+x,1/2-y,z
loop_
_atom_site_type_symbol
_atom_site_label
_atom_site_fract_x
_atom_site_fract_y
_atom_site_fract_z
Si Si1 0.803613 0.409366 0.676972
Si Si2 0.036158 0.567518 0.323503
Si Si3 0.187365 0.737474 0.681240
Si Si4 0.300805 0.844478 0.319579
Si Si5 0.538474 0.704141 0.319181
Si Si6 0.444797 0.445786 0.681266
Si Si7 0.287291 0.471346 0.318090
Si Si8 0.451670 0.816371 0.179098
O O1 0.787202 0.401114 0.500000
O O2 0.880437 0.441698 0.702826
O O3 0.799705 0.336013 0.751627
O O4 0.745151 0.459560 0.747116
O O5 0.017903 0.581791 0.500000
O O6 0.000000 0.500000 0.265943
O O7 0.009952 0.629398 0.225578
O O8 0.181886 0.735023 0.500000
O O9 0.252546 0.782853 0.733899
O O10 0.113254 0.767135 0.742809
O O11 0.311885 0.845028 0.500000
O O12 0.262314 0.911199 0.262079
O O13 0.376192 0.839287 0.240817
O O14 0.533733 0.710225 0.500000
O O15 0.531433 0.627619 0.266024
O O16 0.473433 0.744997 0.247634
O O17 0.500000 0.500000 0.746716
O O18 0.442314 0.448944 0.500000
O O19 0.366641 0.462361 0.746834
O O20 0.288270 0.471281 0.500000
O O21 0.448170 0.809865 0.000000
#
# Coordination Sequence:
#
# PCOD8224742 Si02
#       8
#     8   8   8   8   8   8   8   8
#     4   9  16  26  47  79 111 137 172 221 271 330
#     4  10  19  34  57  83 109 144 186 230 282 337
#     4   9  16  29  53  80 105 139 182 228 278 327
#     4  10  19  34  56  79 104 143 188 232 282 334
#     4  10  18  35  59  82 112 148 186 234 284 343
#     4   9  17  29  52  88 120 143 176 232 295 340
#     4   9  16  28  48  78 113 142 175 223 279 337
#     4  12  25  37  52  80 115 151 190 235 281 334
#
# _framework density 19.251307000000001
#
# number of rings (size 3 to 8) (size 9 to 14) (size 15 to 20)
#    0.000    2.250    2.500    1.875    0.000    3.250 
#    0.000    4.375    0.000    0.375    0.000    0.000 
#    0.000    0.000    0.000    0.000    0.000    0.000 
#
# Total GULP energy -793549.181527 kJ/mol
# GULP energy per Si atom -12399.205961 kJ/mol
# Density = 1.920749 g / cm^3
# Si number density = 19.251307 Si / 1000 Ang^3
#
#
#
# Elastic Constant Matrix: (Units=GPa)
#
#
# Indices 1 2 3 4 5 6 
#
# 1 117.9907 72.6253 23.1436 0.0000 0.0000 0.0000
# 2 72.6253 177.6976 23.0477 0.0000 0.0000 0.0000
# 3 23.1436 23.0477 31.1275 0.0000 0.0000 0.0000
# 4 0.0000 0.0000 0.0000 3.7775 0.0000 0.0000
# 5 0.0000 0.0000 0.0000 0.0000 2.1965 0.0000
# 6 0.0000 0.0000 0.0000 0.0000 0.0000 44.1492
#
#
#
# Elastic Compliance Matrix: (Units=1/GPa)
#
#
# Indices 1 2 3 4 5 6 
#
# 1 0.012253 -0.004233 -0.005976 0.000000 0.000000 0.000000
# 2 -0.004233 0.007688 -0.002545 0.000000 0.000000 0.000000
# 3 -0.005976 -0.002545 0.038454 0.000000 0.000000 0.000000
# 4 0.000000 0.000000 0.000000 0.264725 0.000000 0.000000
# 5 0.000000 0.000000 0.000000 0.000000 0.455266 0.000000
# 6 0.000000 0.000000 0.000000 0.000000 0.000000 0.022650
#
#
# Mechanical properties :
#
#
# Convention : Reuss Voigt Hill
#
# Bulk Modulus (GPa) = 30.40773 62.71656 46.56214
# Shear Modulus (GPa) = 5.97012 23.89125 14.93068
#
# Velocity S-wave (km/s) = 1.76292 3.52663 2.78792
# Velocity P-wave (km/s) = 4.46915 7.01651 5.88237
#
# Compressibility (1/GPa) = 0.03288638
#
# Stress axis : x y z
#
# Youngs Moduli (GPa) = 81.61493 130.08121 26.00534
#
# Poissons Ratio (x) = 0.55058 0.15541
# Poissons Ratio (y) = 0.34544 0.06619
# Poissons Ratio (z) = 0.48774 0.33107
#
# Static dielectric constant tensor:
#      x y z
#    x 3.632520 0.000000 0.000000 
#    y 0.000000 3.927830 0.000000 
#    z 0.000000 0.000000 2.865470 
# 
# 
# High freq. dielectric constant tensor:
#      x y z
#    x 1.755990 0.000000 0.000000 
#    y 0.000000 1.767620 0.000000 
#    z 0.000000 0.000000 1.677110 
# 
# From -- ./inp_files/8060.got.cif
#   From: 2010.03.12/outbox.cif.g09.slc.cpg/sg55_5_cif.got.tgz:8060.got - 2010.04.16 15:19:21.
