data_PCOD8224106
_publ_section_title
;
Structure prediction by ZEFSAII (Michael W. Deem and Ramdas Pophale) SiO2 
 PCOD8224106
Probable space group: P C C A
;
_chemical_formula_sum "Si O2"
_cell_formula_units_Z 64
_cell_length_a 23.191798
_cell_length_b 14.385082
_cell_length_c 8.445365
_cell_angle_alpha 90.000000
_cell_angle_beta 90.000000
_cell_angle_gamma 90.000000
_cell_volume 2817.508180
_symmetry_space_group_name_H-M "P C C A"
_symmetry_group_IT_number 54
_symmetry_cell_setting 'orthorhombic'
loop_
_space_group_symop_operation_xyz
x,y,z
1/2-x,-y,z
1/2+x,-y,1/2-z
-x,y,1/2-z
-x,-y,-z
1/2+x,y,-z
1/2-x,y,1/2+z
x,-y,1/2+z
loop_
_atom_site_type_symbol
_atom_site_label
_atom_site_fract_x
_atom_site_fract_y
_atom_site_fract_z
Si Si1 0.070179 0.266962 0.918036
Si Si2 0.759835 0.312512 0.592582
Si Si3 0.626806 0.926984 0.039388
Si Si4 0.773506 0.178748 0.854411
Si Si5 0.866492 0.429461 0.480881
Si Si6 0.060379 0.767930 0.054261
Si Si7 0.645722 0.880652 0.399863
Si Si8 0.638705 0.622195 0.131542
O O1 0.078137 0.240664 0.736453
O O2 0.005627 0.254273 0.980794
O O3 0.083011 0.376779 0.924631
O O4 0.115429 0.213077 0.034187
O O5 0.783820 0.214563 0.672800
O O6 0.729373 0.280928 0.430494
O O7 0.807103 0.389053 0.553349
O O8 0.704759 0.355174 0.682253
O O9 0.677332 0.884601 0.929051
O O10 0.568304 0.877468 0.981845
O O11 0.626215 0.037406 0.018095
O O12 0.627624 0.904550 0.223338
O O13 0.714268 0.125101 0.884648
O O14 0.884447 0.411718 0.299694
O O15 0.866467 0.539489 0.504871
O O16 0.102751 0.708772 0.939479
#
# Coordination Sequence:
#
# PCOD8224106 Si02
#       8
#     8   8   8   8   8   8   8   8
#     4  11  25  47  72  96 128 173 224 282 341 400
#     4  12  23  41  69  98 135 177 219 268 330 393
#     4  12  26  42  68 100 138 177 223 275 331 399
#     4  12  23  41  69  98 135 177 219 268 330 393
#     4  12  26  42  68 100 138 177 223 275 331 399
#     4  11  25  47  72  96 128 173 224 282 341 400
#     4  12  26  43  67 102 135 179 222 273 336 395
#     4  12  26  43  67 102 135 179 222 273 336 395
#
# _framework density 22.715107
#
# number of rings (size 3 to 8) (size 9 to 14) (size 15 to 20)
#    0.000    0.250    5.000    3.750    3.500    5.000 
#    0.000    0.000    0.000    0.000    0.000    0.000 
#    0.000    0.000    0.000    0.000    0.000    0.000 
#
# Total GULP energy -793122.467325 kJ/mol
# GULP energy per Si atom -12392.538552 kJ/mol
# Density = 2.266341 g / cm^3
# Si number density = 22.715107 Si / 1000 Ang^3
#
#
#
# Elastic Constant Matrix: (Units=GPa)
#
#
# Indices 1 2 3 4 5 6 
#
# 1 86.8333 3.1209 4.2685 0.0000 0.0000 0.0000
# 2 3.1209 88.6217 0.6530 0.0000 0.0000 0.0000
# 3 4.2685 0.6530 92.3434 0.0000 0.0000 0.0000
# 4 0.0000 0.0000 0.0000 39.1651 0.0000 0.0000
# 5 0.0000 0.0000 0.0000 0.0000 26.6074 0.0000
# 6 0.0000 0.0000 0.0000 0.0000 0.0000 1265.1753
#
#
#
# Elastic Compliance Matrix: (Units=1/GPa)
#
#
# Indices 1 2 3 4 5 6 
#
# 1 0.011557 -0.000403 -0.000531 0.000000 0.000000 0.000000
# 2 -0.000403 0.011299 -0.000061 0.000000 0.000000 0.000000
# 3 -0.000531 -0.000061 0.010854 0.000000 0.000000 0.000000
# 4 0.000000 0.000000 0.000000 0.025533 0.000000 0.000000
# 5 0.000000 0.000000 0.000000 0.000000 0.037584 0.000000
# 6 0.000000 0.000000 0.000000 0.000000 0.000000 0.000790
#
#
# Mechanical properties :
#
#
# Convention : Reuss Voigt Hill
#
# Bulk Modulus (GPa) = 31.52761 31.54258 31.53510
# Shear Modulus (GPa) = 45.38000 283.50663 164.44332
#
# Velocity S-wave (km/s) = 4.47451 11.18395 8.51769
# Velocity P-wave (km/s) = 6.37218 13.44212 10.51892
#
# Compressibility (1/GPa) = 0.03171823
#
# Stress axis : x y z
#
# Youngs Moduli (GPa) = 86.52816 88.50683 92.13079
#
# Poissons Ratio (x) = 0.03567 0.04895
# Poissons Ratio (y) = 0.03488 0.00564
# Poissons Ratio (z) = 0.04598 0.00542
#
# Static dielectric constant tensor:
#      x y z
#    x 4.021940 0.000000 0.000000 
#    y 0.000000 4.247810 0.000000 
#    z 0.000000 0.000000 4.326800 
# 
# 
# High freq. dielectric constant tensor:
#      x y z
#    x 1.884640 0.000000 0.000000 
#    y 0.000000 1.895320 0.000000 
#    z 0.000000 0.000000 1.920920 
# 
# From -- ./inp_files/5298.got.cif
#   From: 2010.03.12/outbox.cif.g09.slc.cpg/sg54_3_cif.got.tgz:5298.got - 2010.04.16 15:00:50.
