data_PCOD8224571
_publ_section_title
;
Structure prediction by ZEFSAII (Michael W. Deem and Ramdas Pophale) SiO2 
 PCOD8224571
Probable space group: P B A M
;
_chemical_formula_sum "Si O2"
_cell_formula_units_Z 56
_cell_length_a 14.394861
_cell_length_b 21.135892
_cell_length_c 9.195546
_cell_angle_alpha 90.000000
_cell_angle_beta 90.000000
_cell_angle_gamma 90.000000
_cell_volume 2797.728571
_symmetry_space_group_name_H-M "P B A M"
_symmetry_group_IT_number 55
_symmetry_cell_setting 'orthorhombic'
loop_
_space_group_symop_operation_xyz
x,y,z
-x,-y,z
1/2+x,1/2-y,-z
1/2-x,1/2+y,-z
-x,-y,-z
x,y,-z
1/2-x,1/2+y,z
1/2+x,1/2-y,z
loop_
_atom_site_type_symbol
_atom_site_label
_atom_site_fract_x
_atom_site_fract_y
_atom_site_fract_z
Si Si1 0.877625 0.660936 0.670756
Si Si2 0.272150 0.529881 0.167606
Si Si3 0.434968 0.614769 0.833582
Si Si4 0.403785 0.437162 0.663013
Si Si5 0.988420 0.249670 0.170415
Si Si6 0.177574 0.798092 0.338016
Si Si7 0.103711 0.484420 0.329872
O O1 0.895982 0.668545 0.500000
O O2 0.963625 0.690337 0.756382
O O3 0.783486 0.696929 0.718423
O O4 0.870398 0.587244 0.711969
O O5 0.326103 0.597100 0.185107
O O6 0.335335 0.475984 0.236450
O O7 0.173087 0.532381 0.247687
O O8 0.255326 0.513236 0.000000
O O9 0.493270 0.566057 0.733099
O O10 0.451869 0.687294 0.787784
O O11 0.467650 0.604690 0.000000
O O12 0.409518 0.465881 0.500000
O O13 0.364400 0.367283 0.656273
O O14 0.883057 0.244905 0.229691
O O15 0.983354 0.261104 0.000000
O O16 0.174907 0.768310 0.500000
O O17 0.115756 0.497033 0.500000
O O18 0.000000 0.500000 0.277898
#
# Coordination Sequence:
#
# PCOD8224571 Si02
#       7
#     8   8   8   8   8   8   8
#     4  10  20  39  63  85 113 148 189 238 288 337
#     4  11  21  34  55  81 115 153 185 227 283 341
#     4   9  20  36  51  78 120 154 182 226 283 337
#     4  10  18  31  54  84 113 144 187 230 273 334
#     4  10  21  37  57  84 117 152 193 237 283 342
#     4   9  18  35  58  81 110 147 189 236 283 337
#     4  10  22  42  64  85 112 146 192 244 287 339
#
# _framework density 20.016237
#
# number of rings (size 3 to 8) (size 9 to 14) (size 15 to 20)
#    0.000    2.143    1.429    1.714    0.000    5.429 
#    2.571    0.000    0.000    0.000    0.000    0.000 
#    0.000    0.000    0.000    0.000    0.000    0.000 
#
# Total GULP energy -694429.249254 kJ/mol
# GULP energy per Si atom -12400.522308 kJ/mol
# Density = 1.997068 g / cm^3
# Si number density = 20.016237 Si / 1000 Ang^3
#
#
#
# Elastic Constant Matrix: (Units=GPa)
#
#
# Indices 1 2 3 4 5 6 
#
# 1 112.1238 16.9687 41.9841 0.0000 0.0000 0.0000
# 2 16.9687 21.0203 21.4843 0.0000 0.0000 0.0000
# 3 41.9841 21.4843 76.3397 0.0000 0.0000 0.0000
# 4 0.0000 0.0000 0.0000 20.7903 0.0000 0.0000
# 5 0.0000 0.0000 0.0000 0.0000 32.2819 0.0000
# 6 0.0000 0.0000 0.0000 0.0000 0.0000 27.0673
#
#
#
# Elastic Compliance Matrix: (Units=1/GPa)
#
#
# Indices 1 2 3 4 5 6 
#
# 1 0.011460 -0.003944 -0.005193 0.000000 0.000000 0.000000
# 2 -0.003944 0.068140 -0.017008 0.000000 0.000000 0.000000
# 3 -0.005193 -0.017008 0.020742 0.000000 0.000000 0.000000
# 4 0.000000 0.000000 0.000000 0.048099 0.000000 0.000000
# 5 0.000000 0.000000 0.000000 0.000000 0.030977 0.000000
# 6 0.000000 0.000000 0.000000 0.000000 0.000000 0.036945
#
#
# Mechanical properties :
#
#
# Convention : Reuss Voigt Hill
#
# Bulk Modulus (GPa) = 20.81028 41.15088 30.98058
# Shear Modulus (GPa) = 17.56427 24.63102 21.09764
#
# Velocity S-wave (km/s) = 2.96548 3.51173 3.25010
# Velocity P-wave (km/s) = 4.70581 6.08657 5.44018
#
# Compressibility (1/GPa) = 0.04805317
#
# Stress axis : x y z
#
# Youngs Moduli (GPa) = 87.26071 14.67568 48.21231
#
# Poissons Ratio (x) = 0.05788 0.25035
# Poissons Ratio (y) = 0.34414 0.81998
# Poissons Ratio (z) = 0.45311 0.24960
#
# Static dielectric constant tensor:
#      x y z
#    x 3.764780 0.000000 0.000000 
#    y 0.000000 3.403010 0.000000 
#    z 0.000000 0.000000 3.745000 
# 
# 
# High freq. dielectric constant tensor:
#      x y z
#    x 1.784430 0.000000 0.000000 
#    y 0.000000 1.758560 0.000000 
#    z 0.000000 0.000000 1.781080 
# 
# From -- ./inp_files/6202.got.cif
#   From: 2010.03.12/outbox.cif.g09.slc.cpg/sg55_4_cif.got.tgz:6202.got - 2010.04.16 15:19:21.
