data_PCOD8224610
_publ_section_title
;
Structure prediction by ZEFSAII (Michael W. Deem and Ramdas Pophale) SiO2 
 PCOD8224610
Probable space group: P B A M
;
_chemical_formula_sum "Si O2"
_cell_formula_units_Z 48
_cell_length_a 15.724708
_cell_length_b 9.788283
_cell_length_c 16.447044
_cell_angle_alpha 90.000000
_cell_angle_beta 90.000000
_cell_angle_gamma 90.000000
_cell_volume 2531.494342
_symmetry_space_group_name_H-M "P B A M"
_symmetry_group_IT_number 55
_symmetry_cell_setting 'orthorhombic'
loop_
_space_group_symop_operation_xyz
x,y,z
-x,-y,z
1/2+x,1/2-y,-z
1/2-x,1/2+y,-z
-x,-y,-z
x,y,-z
1/2-x,1/2+y,z
1/2+x,1/2-y,z
loop_
_atom_site_type_symbol
_atom_site_label
_atom_site_fract_x
_atom_site_fract_y
_atom_site_fract_z
Si Si1 0.255591 0.656646 0.670326
Si Si2 0.595731 0.754821 0.762850
Si Si3 0.172696 0.098695 0.843940
Si Si4 0.500000 0.500000 0.801332
Si Si5 0.161099 0.412147 0.594671
Si Si6 0.709966 0.685115 0.093414
Si Si7 0.500000 0.000000 0.303500
O O1 0.170126 0.735449 0.696773
O O2 0.310620 0.613064 0.748106
O O3 0.232990 0.521081 0.620098
O O4 0.308881 0.758930 0.614309
O O5 0.544678 0.614677 0.745366
O O6 0.634642 0.753569 0.853798
O O7 0.533032 0.882459 0.756361
O O8 0.201840 0.233570 0.892086
O O9 0.226226 0.970105 0.878073
O O10 0.071971 0.072291 0.857832
O O11 0.142849 0.425301 0.500000
O O12 0.073713 0.439948 0.640749
O O13 0.682562 0.690874 0.000000
#
# Coordination Sequence:
#
# PCOD8224610 Si02
#       7
#     8   8   8   4   8   8   4
#     4  10  20  36  56  77 106 145 184 214 254 324
#     4   9  20  35  55  78 105 144 181 215 262 317
#     4  10  20  35  57  79 105 144 180 214 263 317
#     4  10  18  32  53  80 103 128 178 226 256 304
#     4  11  21  35  55  82 109 138 175 224 270 310
#     4  10  20  36  54  78 107 139 179 223 262 309
#     4  10  21  36  55  78 110 142 176 216 267 324
#
# _framework density 18.961133
#
# number of rings (size 3 to 8) (size 9 to 14) (size 15 to 20)
#    0.000    2.000    0.000    5.250    0.000    2.667 
#    0.000   10.833    0.000    0.000    0.000   16.333 
#    0.000    0.000    0.000    0.000    0.000    0.000 
#
# Total GULP energy -595209.589491 kJ/mol
# GULP energy per Si atom -12400.199781 kJ/mol
# Density = 1.891798 g / cm^3
# Si number density = 18.961133 Si / 1000 Ang^3
#
#
#
# Elastic Constant Matrix: (Units=GPa)
#
#
# Indices 1 2 3 4 5 6 
#
# 1 91.1594 42.8766 9.9061 0.0000 0.0000 0.0000
# 2 42.8766 88.8154 26.2115 0.0000 0.0000 0.0000
# 3 9.9061 26.2115 83.9183 0.0000 0.0000 0.0000
# 4 0.0000 0.0000 0.0000 24.9468 0.0000 0.0000
# 5 0.0000 0.0000 0.0000 0.0000 5.5086 0.0000
# 6 0.0000 0.0000 0.0000 0.0000 0.0000 39.6258
#
#
#
# Elastic Compliance Matrix: (Units=1/GPa)
#
#
# Indices 1 2 3 4 5 6 
#
# 1 0.014212 -0.007012 0.000513 0.000000 0.000000 0.000000
# 2 -0.007012 0.015863 -0.004127 0.000000 0.000000 0.000000
# 3 0.000513 -0.004127 0.013145 0.000000 0.000000 0.000000
# 4 0.000000 0.000000 0.000000 0.040085 0.000000 0.000000
# 5 0.000000 0.000000 0.000000 0.000000 0.181535 0.000000
# 6 0.000000 0.000000 0.000000 0.000000 0.000000 0.025236
#
#
# Mechanical properties :
#
#
# Convention : Reuss Voigt Hill
#
# Bulk Modulus (GPa) = 45.52398 46.87573 46.19985
# Shear Modulus (GPa) = 15.69112 26.34284 21.01698
#
# Velocity S-wave (km/s) = 2.87982 3.73139 3.33291
# Velocity P-wave (km/s) = 5.92613 6.58331 6.26335
#
# Compressibility (1/GPa) = 0.02196645
#
# Stress axis : x y z
#
# Youngs Moduli (GPa) = 70.36117 63.04150 76.07551
#
# Poissons Ratio (x) = 0.44208 -0.03900
# Poissons Ratio (y) = 0.49340 0.31395
# Poissons Ratio (z) = -0.03607 0.26016
#
# Static dielectric constant tensor:
#      x y z
#    x 3.579970 0.000000 0.000000 
#    y 0.000000 3.718820 0.000000 
#    z 0.000000 0.000000 3.229080 
# 
# 
# High freq. dielectric constant tensor:
#      x y z
#    x 1.737030 0.000000 0.000000 
#    y 0.000000 1.754700 0.000000 
#    z 0.000000 0.000000 1.712970 
# 
# From -- ./inp_files/21543.got.cif
#   From: 2010.03.12/outbox.cif.g09.slc.cpg/sg55_11_cif.got.tgz:21543.got - 2010.04.16 15:19:21.
