data_PCOD8224908
_publ_section_title
;
Structure prediction by ZEFSAII (Michael W. Deem and Ramdas Pophale) SiO2 
 PCOD8224908
Probable space group: P B A M
;
_chemical_formula_sum "Si O2"
_cell_formula_units_Z 56
_cell_length_a 14.752195
_cell_length_b 20.586072
_cell_length_c 9.431908
_cell_angle_alpha 90.000000
_cell_angle_beta 90.000000
_cell_angle_gamma 90.000000
_cell_volume 2864.373768
_symmetry_space_group_name_H-M "P B A M"
_symmetry_group_IT_number 55
_symmetry_cell_setting 'orthorhombic'
loop_
_space_group_symop_operation_xyz
x,y,z
-x,-y,z
1/2+x,1/2-y,-z
1/2-x,1/2+y,-z
-x,-y,-z
x,y,-z
1/2-x,1/2+y,z
1/2+x,1/2-y,z
loop_
_atom_site_type_symbol
_atom_site_label
_atom_site_fract_x
_atom_site_fract_y
_atom_site_fract_z
Si Si1 0.938085 0.627488 0.343953
Si Si2 0.258188 0.407283 0.333656
Si Si3 0.931470 0.441022 0.158151
Si Si4 0.234027 0.028706 0.835359
Si Si5 0.313492 0.263215 0.666638
Si Si6 0.827535 0.827856 0.833172
Si Si7 0.521260 0.269316 0.342421
O O1 0.962254 0.601036 0.500000
O O2 0.847657 0.592345 0.288755
O O3 0.918602 0.704084 0.348495
O O4 0.025041 0.616946 0.246343
O O5 0.272035 0.418346 0.500000
O O6 0.306801 0.467017 0.250917
O O7 0.297876 0.337873 0.287339
O O8 0.835681 0.460901 0.223165
O O9 0.000000 0.500000 0.163685
O O10 0.916023 0.414541 0.000000
O O11 0.181312 0.095211 0.806097
O O12 0.232775 0.009492 0.000000
O O13 0.292309 0.252399 0.500000
O O14 0.251767 0.212995 0.755616
O O15 0.419011 0.251123 0.702911
O O16 0.927681 0.814177 0.771172
O O17 0.823756 0.811168 0.000000
O O18 0.520499 0.301794 0.500000
#
# Coordination Sequence:
#
# PCOD8224908 Si02
#       7
#     8   8   8   8   8   8   8
#     4  10  19  32  52  80 110 140 180 230 283 339
#     4  10  20  35  56  83 112 144 189 239 283 342
#     4  10  19  31  49  74 107 145 182 220 274 343
#     4  10  22  38  53  78 116 155 191 231 287 348
#     4  10  21  40  64  88 117 153 197 245 295 347
#     4  11  23  38  59  87 121 155 193 243 292 351
#     4  10  21  39  62  85 114 151 193 245 294 344
#
# _framework density 19.550521
#
# number of rings (size 3 to 8) (size 9 to 14) (size 15 to 20)
#    0.000    1.857    2.857    1.286    0.000    3.714 
#    0.000    0.714    0.000    4.286    0.000    0.000 
#    0.000    0.000    0.000    0.000    0.000    0.000 
#
# Total GULP energy -694167.603022 kJ/mol
# GULP energy per Si atom -12395.850054 kJ/mol
# Density = 1.950602 g / cm^3
# Si number density = 19.550521 Si / 1000 Ang^3
#
#
#
# Elastic Constant Matrix: (Units=GPa)
#
#
# Indices 1 2 3 4 5 6 
#
# 1 49.3372 15.1686 29.9675 0.0000 0.0000 0.0000
# 2 15.1686 104.4915 46.9276 0.0000 0.0000 0.0000
# 3 29.9675 46.9276 75.1324 0.0000 0.0000 0.0000
# 4 0.0000 0.0000 0.0000 23.8588 0.0000 0.0000
# 5 0.0000 0.0000 0.0000 0.0000 27.5277 0.0000
# 6 0.0000 0.0000 0.0000 0.0000 0.0000 27.5660
#
#
#
# Elastic Compliance Matrix: (Units=1/GPa)
#
#
# Indices 1 2 3 4 5 6 
#
# 1 0.026870 0.001268 -0.011510 0.000000 0.000000 0.000000
# 2 0.001268 0.013361 -0.008851 0.000000 0.000000 0.000000
# 3 -0.011510 -0.008851 0.023429 0.000000 0.000000 0.000000
# 4 0.000000 0.000000 0.000000 0.041913 0.000000 0.000000
# 5 0.000000 0.000000 0.000000 0.000000 0.036327 0.000000
# 6 0.000000 0.000000 0.000000 0.000000 0.000000 0.036277
#
#
# Mechanical properties :
#
#
# Convention : Reuss Voigt Hill
#
# Bulk Modulus (GPa) = 39.25410 45.89872 42.57641
# Shear Modulus (GPa) = 22.23672 24.91700 23.57686
#
# Velocity S-wave (km/s) = 3.37619 3.57388 3.47644
# Velocity P-wave (km/s) = 5.94307 6.36852 6.15947
#
# Compressibility (1/GPa) = 0.02547505
#
# Stress axis : x y z
#
# Youngs Moduli (GPa) = 37.21677 74.84355 42.68196
#
# Poissons Ratio (x) = -0.09494 0.49125
# Poissons Ratio (y) = -0.04721 0.37779
# Poissons Ratio (z) = 0.42835 0.66247
#
# Static dielectric constant tensor:
#      x y z
#    x 3.456440 0.000000 0.000000 
#    y 0.000000 3.512680 0.000000 
#    z 0.000000 0.000000 3.565210 
# 
# 
# High freq. dielectric constant tensor:
#      x y z
#    x 1.748890 0.000000 0.000000 
#    y 0.000000 1.760780 0.000000 
#    z 0.000000 0.000000 1.754400 
# 
# From -- ./inp_files/6036.got.cif
#   From: 2010.03.12/outbox.cif.g09.slc.cpg/sg55_4_cif.got.tgz:6036.got - 2010.04.16 15:19:21.
