data_PCOD8224466
_publ_section_title
;
Structure prediction by ZEFSAII (Michael W. Deem and Ramdas Pophale) SiO2 
 PCOD8224466
Probable space group: P B A M
;
_chemical_formula_sum "Si O2"
_cell_formula_units_Z 64
_cell_length_a 30.536507
_cell_length_b 9.696435
_cell_length_c 12.656091
_cell_angle_alpha 90.000000
_cell_angle_beta 90.000000
_cell_angle_gamma 90.000000
_cell_volume 3747.408495
_symmetry_space_group_name_H-M "P B A M"
_symmetry_group_IT_number 55
_symmetry_cell_setting 'orthorhombic'
loop_
_space_group_symop_operation_xyz
x,y,z
-x,-y,z
1/2+x,1/2-y,-z
1/2-x,1/2+y,-z
-x,-y,-z
x,y,-z
1/2-x,1/2+y,z
1/2+x,1/2-y,z
loop_
_atom_site_type_symbol
_atom_site_label
_atom_site_fract_x
_atom_site_fract_y
_atom_site_fract_z
Si Si1 0.632184 0.486419 0.710144
Si Si2 0.507530 0.150405 0.375506
Si Si3 0.701615 0.433491 0.876827
Si Si4 0.330013 0.992962 0.382054
Si Si5 0.600354 0.220784 0.619138
Si Si6 0.234787 0.348585 0.777517
Si Si7 0.543518 0.587839 0.377122
Si Si8 0.307912 0.292530 0.382926
O O1 0.656136 0.488398 0.824068
O O2 0.632237 0.326935 0.677666
O O3 0.582277 0.542959 0.702916
O O4 0.662043 0.573911 0.630999
O O5 0.515237 0.133320 0.500000
O O6 0.552356 0.214089 0.327563
O O7 0.467126 0.252206 0.351963
O O8 0.500000 0.000000 0.324018
O O9 0.740946 0.540515 0.852483
O O10 0.713538 0.277281 0.842503
O O11 0.692408 0.432874 0.000000
O O12 0.310255 0.962658 0.500000
O O13 0.378443 0.929981 0.374196
O O14 0.300514 0.930950 0.290244
O O15 0.336989 0.155812 0.366035
O O16 0.595641 0.275226 0.500000
O O17 0.268369 0.279614 0.697362
O O18 0.500000 0.500000 0.354273
O O19 0.557836 0.568539 0.500000
O O20 0.287814 0.298459 0.500000
#
# Coordination Sequence:
#
# PCOD8224466 Si02
#       8
#     8   8   8   8   8   8   8   8
#     4  11  21  34  53  76 105 139 180 225 266 314
#     4   9  18  29  44  70 108 148 179 204 237 296
#     4  11  24  40  59  76  99 135 184 240 277 314
#     4  10  20  32  49  77 111 140 170 207 254 325
#     4  10  18  30  48  75 109 145 174 204 251 310
#     4  11  20  39  56  76 102 135 177 219 270 321
#     4  10  18  30  49  76 108 139 173 207 250 317
#     4  10  21  33  49  76 111 145 173 204 256 324
#
# _framework density 17.078468999999998
#
# number of rings (size 3 to 8) (size 9 to 14) (size 15 to 20)
#    0.000    1.750    3.750    1.875    1.750    0.000 
#    0.000    0.000    0.000    0.375    0.000    0.000 
#    0.000    1.000    0.000    0.000    0.000    0.000 
#
# Total GULP energy -793192.906867 kJ/mol
# GULP energy per Si atom -12393.639170 kJ/mol
# Density = 1.703960 g / cm^3
# Si number density = 17.078469 Si / 1000 Ang^3
#
#
#
# Elastic Constant Matrix: (Units=GPa)
#
#
# Indices 1 2 3 4 5 6 
#
# 1 84.1446 27.4661 39.0055 0.0000 0.0000 0.0000
# 2 27.4661 101.8726 34.1503 0.0000 0.0000 0.0000
# 3 39.0055 34.1503 84.6199 0.0000 0.0000 0.0000
# 4 0.0000 0.0000 0.0000 16.3863 0.0000 0.0000
# 5 0.0000 0.0000 0.0000 0.0000 14.1985 0.0000
# 6 0.0000 0.0000 0.0000 0.0000 0.0000 30.1085
#
#
#
# Elastic Compliance Matrix: (Units=1/GPa)
#
#
# Indices 1 2 3 4 5 6 
#
# 1 0.015479 -0.002060 -0.006304 0.000000 0.000000 0.000000
# 2 -0.002060 0.011626 -0.003742 0.000000 0.000000 0.000000
# 3 -0.006304 -0.003742 0.016233 0.000000 0.000000 0.000000
# 4 0.000000 0.000000 0.000000 0.061027 0.000000 0.000000
# 5 0.000000 0.000000 0.000000 0.000000 0.070430 0.000000
# 6 0.000000 0.000000 0.000000 0.000000 0.000000 0.033213
#
#
# Mechanical properties :
#
#
# Convention : Reuss Voigt Hill
#
# Bulk Modulus (GPa) = 52.28397 52.43121 52.35759
# Shear Modulus (GPa) = 20.95591 23.47298 22.21445
#
# Velocity S-wave (km/s) = 3.50671 3.71134 3.61047
# Velocity P-wave (km/s) = 6.86123 7.00944 6.93573
#
# Compressibility (1/GPa) = 0.01912632
#
# Stress axis : x y z
#
# Youngs Moduli (GPa) = 64.60447 86.01286 61.60111
#
# Poissons Ratio (x) = 0.17720 0.38830
# Poissons Ratio (y) = 0.13310 0.23053
# Poissons Ratio (z) = 0.40724 0.32189
#
# Static dielectric constant tensor:
#      x y z
#    x 3.236070 0.000000 0.000000 
#    y 0.000000 3.449940 0.000000 
#    z 0.000000 0.000000 2.798990 
# 
# 
# High freq. dielectric constant tensor:
#      x y z
#    x 1.659660 0.000000 0.000000 
#    y 0.000000 1.683600 0.000000 
#    z 0.000000 0.000000 1.600780 
# 
# From -- ./inp_files/16229.got.cif
#   From: 2010.03.12/outbox.cif.g09.slc.cpg/sg55_9_cif.got.tgz:16229.got - 2010.04.16 15:19:21.
