data_PCOD8224734
_publ_section_title
;
Structure prediction by ZEFSAII (Michael W. Deem and Ramdas Pophale) SiO2 
 PCOD8224734
Probable space group: P B A M
;
_chemical_formula_sum "Si O2"
_cell_formula_units_Z 64
_cell_length_a 30.530481
_cell_length_b 11.762616
_cell_length_c 9.181260
_cell_angle_alpha 90.000000
_cell_angle_beta 90.000000
_cell_angle_gamma 90.000000
_cell_volume 3297.158706
_symmetry_space_group_name_H-M "P B A M"
_symmetry_group_IT_number 55
_symmetry_cell_setting 'orthorhombic'
loop_
_space_group_symop_operation_xyz
x,y,z
-x,-y,z
1/2+x,1/2-y,-z
1/2-x,1/2+y,-z
-x,-y,-z
x,y,-z
1/2-x,1/2+y,z
1/2+x,1/2-y,z
loop_
_atom_site_type_symbol
_atom_site_label
_atom_site_fract_x
_atom_site_fract_y
_atom_site_fract_z
Si Si1 0.708587 0.225286 0.834979
Si Si2 0.295355 0.221984 0.331357
Si Si3 0.832658 0.491415 0.834096
Si Si4 0.917743 0.507771 0.332816
Si Si5 0.552383 0.764353 0.672482
Si Si6 0.544507 0.247251 0.667144
Si Si7 0.370225 0.398466 0.330436
Si Si8 0.376741 0.634553 0.828036
O O1 0.746956 0.261395 0.728494
O O2 0.703770 0.089556 0.825108
O O3 0.663992 0.286111 0.783992
O O4 0.720393 0.262058 0.000000
O O5 0.291921 0.191735 0.500000
O O6 0.324597 0.333358 0.305151
O O7 0.317961 0.117389 0.253743
O O8 0.876444 0.542223 0.764384
O O9 0.841610 0.456139 0.000000
O O10 0.902614 0.491119 0.500000
O O11 0.938342 0.391592 0.268960
O O12 0.951911 0.610772 0.319246
O O13 0.553306 0.770293 0.500000
O O14 0.504406 0.721837 0.723162
O O15 0.589475 0.677959 0.728963
O O16 0.551728 0.285412 0.500000
O O17 0.578718 0.314065 0.765205
O O18 0.376959 0.428396 0.500000
O O19 0.367939 0.511125 0.236419
O O20 0.382003 0.625567 0.000000
#
# Coordination Sequence:
#
# PCOD8224734 Si02
#       8
#     8   8   8   8   8   8   8   8
#     4  10  24  43  61  85 119 161 198 237 293 354
#     4  11  24  41  64  93 120 150 195 251 297 341
#     4  11  22  39  63  89 122 159 194 233 294 359
#     4  10  18  34  60  91 122 151 195 245 291 342
#     4   9  18  36  60  88 121 153 191 243 299 352
#     4  10  20  35  62  91 116 154 198 243 296 350
#     4  10  22  41  61  85 118 154 196 244 294 348
#     4  11  24  42  60  82 119 159 199 244 291 349
#
# _framework density 19.410653
#
# number of rings (size 3 to 8) (size 9 to 14) (size 15 to 20)
#    0.000    1.750    2.500    1.500    1.750    5.000 
#    0.000    3.750    0.000    1.500    0.000    0.000 
#    0.000    0.000    0.000    0.000    0.000    0.000 
#
# Total GULP energy -793746.017510 kJ/mol
# GULP energy per Si atom -12402.281524 kJ/mol
# Density = 1.936647 g / cm^3
# Si number density = 19.410653 Si / 1000 Ang^3
#
#
#
# Elastic Constant Matrix: (Units=GPa)
#
#
# Indices 1 2 3 4 5 6 
#
# 1 104.8288 19.4435 48.5772 0.0000 0.0000 0.0000
# 2 19.4435 85.7796 40.5222 0.0000 0.0000 0.0000
# 3 48.5772 40.5222 87.7263 0.0000 0.0000 0.0000
# 4 0.0000 0.0000 0.0000 29.9462 0.0000 0.0000
# 5 0.0000 0.0000 0.0000 0.0000 140.4651 0.0000
# 6 0.0000 0.0000 0.0000 0.0000 0.0000 21.8134
#
#
#
# Elastic Compliance Matrix: (Units=1/GPa)
#
#
# Indices 1 2 3 4 5 6 
#
# 1 0.012854 0.000574 -0.007383 0.000000 0.000000 0.000000
# 2 0.000574 0.014937 -0.007218 0.000000 0.000000 0.000000
# 3 -0.007383 -0.007218 0.018821 0.000000 0.000000 0.000000
# 4 0.000000 0.000000 0.000000 0.033393 0.000000 0.000000
# 5 0.000000 0.000000 0.000000 0.000000 0.007119 0.000000
# 6 0.000000 0.000000 0.000000 0.000000 0.000000 0.045843
#
#
# Mechanical properties :
#
#
# Convention : Reuss Voigt Hill
#
# Bulk Modulus (GPa) = 53.88056 55.04672 54.46364
# Shear Modulus (GPa) = 29.90287 49.76439 39.83363
#
# Velocity S-wave (km/s) = 3.92923 5.06886 4.53498
# Velocity P-wave (km/s) = 6.95727 7.91697 7.45258
#
# Compressibility (1/GPa) = 0.01855957
#
# Stress axis : x y z
#
# Youngs Moduli (GPa) = 77.79616 66.94655 53.13141
#
# Poissons Ratio (x) = -0.03843 0.39227
# Poissons Ratio (y) = -0.04466 0.38349
# Poissons Ratio (z) = 0.57437 0.48320
#
# Static dielectric constant tensor:
#      x y z
#    x 3.806350 0.000000 0.000000 
#    y 0.000000 3.571310 0.000000 
#    z 0.000000 0.000000 3.442080 
# 
# 
# High freq. dielectric constant tensor:
#      x y z
#    x 1.763650 0.000000 0.000000 
#    y 0.000000 1.761550 0.000000 
#    z 0.000000 0.000000 1.741280 
# 
# From -- ./inp_files/10740.got.cif
#   From: 2010.03.12/outbox.cif.g09.slc.cpg/sg55_6_cif.got.tgz:10740.got - 2010.04.16 15:19:21.
