data_PCOD8224729
_publ_section_title
;
Structure prediction by ZEFSAII (Michael W. Deem and Ramdas Pophale) SiO2 
 PCOD8224729
Probable space group: P B A M
;
_chemical_formula_sum "Si O2"
_cell_formula_units_Z 64
_cell_length_a 30.908190
_cell_length_b 11.918927
_cell_length_c 8.881206
_cell_angle_alpha 90.000000
_cell_angle_beta 90.000000
_cell_angle_gamma 90.000000
_cell_volume 3271.769329
_symmetry_space_group_name_H-M "P B A M"
_symmetry_group_IT_number 55
_symmetry_cell_setting 'orthorhombic'
loop_
_space_group_symop_operation_xyz
x,y,z
-x,-y,z
1/2+x,1/2-y,-z
1/2-x,1/2+y,-z
-x,-y,-z
x,y,-z
1/2-x,1/2+y,z
1/2+x,1/2-y,z
loop_
_atom_site_type_symbol
_atom_site_label
_atom_site_fract_x
_atom_site_fract_y
_atom_site_fract_z
Si Si1 0.698615 0.740912 0.179071
Si Si2 0.955898 0.779712 0.322399
Si Si3 0.664246 0.508018 0.821552
Si Si4 0.622502 0.902924 0.178122
Si Si5 0.458882 0.248450 0.176641
Si Si6 0.932618 0.002736 0.822093
Si Si7 0.295450 0.721717 0.821262
Si Si8 0.628271 0.143464 0.321688
O O1 0.683723 0.621823 0.247710
O O2 0.665730 0.837836 0.232123
O O3 0.746889 0.761835 0.239037
O O4 0.698274 0.736362 0.000000
O O5 0.957852 0.783695 0.500000
O O6 0.960118 0.905370 0.256686
O O7 0.911829 0.720190 0.266428
O O8 0.997242 0.709987 0.260805
O O9 0.616064 0.489821 0.761731
O O10 0.692535 0.403144 0.768279
O O11 0.663319 0.519268 0.000000
O O12 0.580781 0.830315 0.225292
O O13 0.619789 0.018645 0.265523
O O14 0.623580 0.924784 0.000000
O O15 0.448763 0.375330 0.226654
O O16 0.466722 0.239740 0.000000
O O17 0.936607 0.985692 0.000000
O O18 0.327099 0.812222 0.747769
O O19 0.298862 0.736290 0.000000
O O20 0.632207 0.144235 0.500000
#
# Coordination Sequence:
#
# PCOD8224729 Si02
#       8
#     8   8   8   8   8   8   8   8
#     4   9  18  33  58  93 121 141 182 237 284 333
#     4  11  24  39  56  80 113 153 193 234 280 335
#     4   9  16  30  55  88 120 145 176 228 285 332
#     4  10  21  39  62  87 114 147 189 237 286 340
#     4  10  21  37  60  89 116 144 182 235 291 341
#     4  10  18  34  59  86 117 147 180 228 286 338
#     4  10  20  34  61  91 114 148 189 231 279 334
#     4  11  25  42  56  77 115 157 194 236 282 331
#
# _framework density 19.561281000000001
#
# number of rings (size 3 to 8) (size 9 to 14) (size 15 to 20)
#    0.000    2.000    2.500    1.125    1.750    4.500 
#    0.000    3.125    0.000    1.500    0.000    0.000 
#    0.000    0.000    0.000    0.000    0.000    0.000 
#
# Total GULP energy -793659.259959 kJ/mol
# GULP energy per Si atom -12400.925937 kJ/mol
# Density = 1.951676 g / cm^3
# Si number density = 19.561281 Si / 1000 Ang^3
#
#
#
# Elastic Constant Matrix: (Units=GPa)
#
#
# Indices 1 2 3 4 5 6 
#
# 1 125.2213 41.1172 26.1064 0.0000 0.0000 0.0000
# 2 41.1172 117.2219 29.2962 0.0000 0.0000 0.0000
# 3 26.1064 29.2962 31.1410 0.0000 0.0000 0.0000
# 4 0.0000 0.0000 0.0000 12.2588 0.0000 0.0000
# 5 0.0000 0.0000 0.0000 0.0000 14.6967 0.0000
# 6 0.0000 0.0000 0.0000 0.0000 0.0000 25.8784
#
#
#
# Elastic Compliance Matrix: (Units=1/GPa)
#
#
# Indices 1 2 3 4 5 6 
#
# 1 0.009972 -0.001842 -0.006628 0.000000 0.000000 0.000000
# 2 -0.001842 0.011493 -0.009269 0.000000 0.000000 0.000000
# 3 -0.006628 -0.009269 0.046388 0.000000 0.000000 0.000000
# 4 0.000000 0.000000 0.000000 0.081574 0.000000 0.000000
# 5 0.000000 0.000000 0.000000 0.000000 0.068042 0.000000
# 6 0.000000 0.000000 0.000000 0.000000 0.000000 0.038642
#
#
# Mechanical properties :
#
#
# Convention : Reuss Voigt Hill
#
# Bulk Modulus (GPa) = 30.88542 51.84711 41.36627
# Shear Modulus (GPa) = 16.53549 22.37107 19.45328
#
# Velocity S-wave (km/s) = 2.91059 3.38544 3.15696
# Velocity P-wave (km/s) = 5.20756 6.46871 5.87209
#
# Compressibility (1/GPa) = 0.03237773
#
# Stress axis : x y z
#
# Youngs Moduli (GPa) = 100.27799 87.00820 21.55747
#
# Poissons Ratio (x) = 0.16023 0.14287
# Poissons Ratio (y) = 0.18467 0.19981
# Poissons Ratio (z) = 0.66460 0.80644
#
# Static dielectric constant tensor:
#      x y z
#    x 3.876180 0.000000 0.000000 
#    y 0.000000 3.655180 0.000000 
#    z 0.000000 0.000000 3.130560 
# 
# 
# High freq. dielectric constant tensor:
#      x y z
#    x 1.781790 0.000000 0.000000 
#    y 0.000000 1.767400 0.000000 
#    z 0.000000 0.000000 1.720800 
# 
# From -- ./inp_files/4534.got.cif
#   From: 2010.03.12/outbox.cif.g09.slc.cpg/sg55_3_cif.got.tgz:4534.got - 2010.04.16 15:19:21.
