data_PCOD8224414
_publ_section_title
;
Structure prediction by ZEFSAII (Michael W. Deem and Ramdas Pophale) SiO2 
 PCOD8224414
Probable space group: P B A M
;
_chemical_formula_sum "Si O2"
_cell_formula_units_Z 48
_cell_length_a 9.673885
_cell_length_b 31.609264
_cell_length_c 8.403010
_cell_angle_alpha 90.000000
_cell_angle_beta 90.000000
_cell_angle_gamma 90.000000
_cell_volume 2569.509244
_symmetry_space_group_name_H-M "P B A M"
_symmetry_group_IT_number 55
_symmetry_cell_setting 'orthorhombic'
loop_
_space_group_symop_operation_xyz
x,y,z
-x,-y,z
1/2+x,1/2-y,-z
1/2-x,1/2+y,-z
-x,-y,-z
x,y,-z
1/2-x,1/2+y,z
1/2+x,1/2-y,z
loop_
_atom_site_type_symbol
_atom_site_label
_atom_site_fract_x
_atom_site_fract_y
_atom_site_fract_z
Si Si1 0.101297 0.213193 0.310996
Si Si2 0.584899 0.789037 0.689377
Si Si3 0.089760 0.539135 0.686077
Si Si4 0.390354 0.125002 0.184768
Si Si5 0.407223 0.621421 0.682838
Si Si6 0.893773 0.964689 0.184747
O O1 0.102855 0.214843 0.500000
O O2 0.258470 0.218596 0.249777
O O3 0.036778 0.167454 0.258355
O O4 0.007275 0.250709 0.241462
O O5 0.574222 0.791608 0.500000
O O6 0.525417 0.832750 0.765678
O O7 0.066535 0.545359 0.500000
O O8 0.030952 0.581087 0.776163
O O9 0.251218 0.530697 0.720204
O O10 0.000000 0.500000 0.750912
O O11 0.257598 0.124122 0.299150
O O12 0.348670 0.126208 0.000000
O O13 0.445955 0.613210 0.500000
O O14 0.462973 0.581667 0.785002
O O15 0.861469 0.970575 0.000000
O O16 0.000000 0.000000 0.246948
#
# Coordination Sequence:
#
# PCOD8224414 Si02
#       6
#     8   8   8   8   8   8
#     4   8  15  27  47  69  89 116 151 192 232 270
#     4   9  16  30  48  67  91 120 155 192 231 276
#     4  10  20  34  53  75  96 123 163 206 244 283
#     4  10  18  29  47  70  95 125 157 189 233 287
#     4   9  16  29  49  70  92 123 162 198 233 277
#     4  10  20  33  50  73 101 132 162 194 239 292
#
# _framework density 18.680610000000001
#
# number of rings (size 3 to 8) (size 9 to 14) (size 15 to 20)
#    0.000    2.667    0.000    6.000    0.000    2.667 
#    0.000    5.833    0.000    4.000    0.000    0.000 
#    0.000    0.000    0.000    0.000    0.000    0.000 
#
# Total GULP energy -594815.467798 kJ/mol
# GULP energy per Si atom -12391.988912 kJ/mol
# Density = 1.863809 g / cm^3
# Si number density = 18.680610 Si / 1000 Ang^3
#
#
#
# Elastic Constant Matrix: (Units=GPa)
#
#
# Indices 1 2 3 4 5 6 
#
# 1 52.5934 64.7193 11.2709 0.0000 0.0000 0.0000
# 2 64.7193 213.3424 26.3779 0.0000 0.0000 0.0000
# 3 11.2709 26.3779 39.3600 0.0000 0.0000 0.0000
# 4 0.0000 0.0000 0.0000 19.4763 0.0000 0.0000
# 5 0.0000 0.0000 0.0000 0.0000 11.2013 0.0000
# 6 0.0000 0.0000 0.0000 0.0000 0.0000 35.2456
#
#
#
# Elastic Compliance Matrix: (Units=1/GPa)
#
#
# Indices 1 2 3 4 5 6 
#
# 1 0.030614 -0.008944 -0.002772 0.000000 0.000000 0.000000
# 2 -0.008944 0.007724 -0.002615 0.000000 0.000000 0.000000
# 3 -0.002772 -0.002615 0.027953 0.000000 0.000000 0.000000
# 4 0.000000 0.000000 0.000000 0.051344 0.000000 0.000000
# 5 0.000000 0.000000 0.000000 0.000000 0.089275 0.000000
# 6 0.000000 0.000000 0.000000 0.000000 0.000000 0.028372
#
#
# Mechanical properties :
#
#
# Convention : Reuss Voigt Hill
#
# Bulk Modulus (GPa) = 26.57611 56.67023 41.62317
# Shear Modulus (GPa) = 18.08385 26.71316 22.39851
#
# Velocity S-wave (km/s) = 3.11473 3.78563 3.46645
# Velocity P-wave (km/s) = 5.21468 7.03635 6.19286
#
# Compressibility (1/GPa) = 0.03762777
#
# Stress axis : x y z
#
# Youngs Moduli (GPa) = 32.66427 129.46664 35.77435
#
# Poissons Ratio (x) = 1.15800 0.09918
# Poissons Ratio (y) = 0.29216 0.09355
# Poissons Ratio (z) = 0.09056 0.33857
#
# Static dielectric constant tensor:
#      x y z
#    x 3.098280 0.000000 0.000000 
#    y 0.000000 4.303340 0.000000 
#    z 0.000000 0.000000 3.154720 
# 
# 
# High freq. dielectric constant tensor:
#      x y z
#    x 1.665890 0.000000 0.000000 
#    y 0.000000 1.755580 0.000000 
#    z 0.000000 0.000000 1.711900 
# 
# From -- ./inp_files/4174.got.cif
#   From: 2010.03.12/outbox.cif.g09.slc.cpg/sg55_3_cif.got.tgz:4174.got - 2010.04.16 15:19:21.
