data_PCOD8224229
_publ_section_title
;
Structure prediction by ZEFSAII (Michael W. Deem and Ramdas Pophale) SiO2 
 PCOD8224229
Probable space group: P B A M
;
_chemical_formula_sum "Si O2"
_cell_formula_units_Z 48
_cell_length_a 5.250806
_cell_length_b 15.666276
_cell_length_c 28.581365
_cell_angle_alpha 90.000000
_cell_angle_beta 90.000000
_cell_angle_gamma 90.000000
_cell_volume 2351.119548
_symmetry_space_group_name_H-M "P B A M"
_symmetry_group_IT_number 55
_symmetry_cell_setting 'orthorhombic'
loop_
_space_group_symop_operation_xyz
x,y,z
-x,-y,z
1/2+x,1/2-y,-z
1/2-x,1/2+y,-z
-x,-y,-z
x,y,-z
1/2-x,1/2+y,z
1/2+x,1/2-y,z
loop_
_atom_site_type_symbol
_atom_site_label
_atom_site_fract_x
_atom_site_fract_y
_atom_site_fract_z
Si Si1 0.749956 0.054489 0.128326
Si Si2 0.822598 0.697860 0.201344
Si Si3 0.162292 0.148346 0.349736
Si Si4 0.662686 0.161913 0.689535
Si Si5 0.210430 0.194734 0.550968
Si Si6 0.682127 0.697061 0.054412
O O1 0.689496 0.109524 0.174121
O O2 0.810545 0.109906 0.082729
O O3 0.500000 0.000000 0.116733
O O4 0.000000 0.000000 0.139832
O O5 0.082333 0.744688 0.186704
O O6 0.813796 0.679448 0.256033
O O7 0.905001 0.106966 0.328510
O O8 0.146542 0.249787 0.339217
O O9 0.406479 0.109043 0.322721
O O10 0.179333 0.129857 0.405487
O O11 0.186911 0.148355 0.500000
O O12 0.489577 0.235129 0.555087
O O13 0.425424 0.746419 0.068320
O O14 0.685246 0.672966 0.000000
#
# Coordination Sequence:
#
# PCOD8224229 Si02
#       6
#     8   8   8   8   8   8
#     4  12  26  41  57  85 123 156 183 224 286 338
#     4  12  21  36  58  80 103 140 193 236 270 317
#     4  10  14  25  36  58  89 109 161 218 252 302
#     4  10  16  25  42  64  84 114 160 224 255 288
#     4  10  16  20  29  45  74 118 153 184 243 319
#     4  10  21  41  68  94 117 149 194 236 272 318
#
# _framework density 20.415807000000001
#
# number of rings (size 3 to 8) (size 9 to 14) (size 15 to 20)
#    0.000    1.333    6.667    3.000    0.000    0.667 
#    0.000    0.000    0.000    0.000    0.000    0.000 
#    0.000    0.000    0.000    0.000    0.000   28.333 
#
# Total GULP energy -594993.583293 kJ/mol
# GULP energy per Si atom -12395.699652 kJ/mol
# Density = 2.036934 g / cm^3
# Si number density = 20.415807 Si / 1000 Ang^3
#
#
#
# Elastic Constant Matrix: (Units=GPa)
#
#
# Indices 1 2 3 4 5 6 
#
# 1 163.4848 21.2896 10.1517 0.0000 0.0000 0.0000
# 2 21.2896 44.3332 26.4058 0.0000 0.0000 0.0000
# 3 10.1517 26.4058 76.3545 0.0000 0.0000 0.0000
# 4 0.0000 0.0000 0.0000 0.2117 0.0000 0.0000
# 5 0.0000 0.0000 0.0000 0.0000 21.8695 0.0000
# 6 0.0000 0.0000 0.0000 0.0000 0.0000 90.7403
#
#
#
# Elastic Compliance Matrix: (Units=1/GPa)
#
#
# Indices 1 2 3 4 5 6 
#
# 1 0.006529 -0.003298 0.000272 0.000000 0.000000 0.000000
# 2 -0.003298 0.030074 -0.009962 0.000000 0.000000 0.000000
# 3 0.000272 -0.009962 0.016506 0.000000 0.000000 0.000000
# 4 0.000000 0.000000 0.000000 4.723145 0.000000 0.000000
# 5 0.000000 0.000000 0.000000 0.000000 0.045726 0.000000
# 6 0.000000 0.000000 0.000000 0.000000 0.000000 0.011020
#
#
# Mechanical properties :
#
#
# Convention : Reuss Voigt Hill
#
# Bulk Modulus (GPa) = 36.85405 44.42961 40.64183
# Shear Modulus (GPa) = 1.02711 37.65266 19.33989
#
# Velocity S-wave (km/s) = 0.71006 4.29918 3.08116
# Velocity P-wave (km/s) = 4.33165 6.81568 5.71037
#
# Compressibility (1/GPa) = 0.02713406
#
# Stress axis : x y z
#
# Youngs Moduli (GPa) = 153.15563 33.25171 60.58492
#
# Poissons Ratio (x) = 0.10965 -0.01650
# Poissons Ratio (y) = 0.50506 0.60354
# Poissons Ratio (z) = -0.04171 0.33125
#
# Static dielectric constant tensor:
#      x y z
#    x 5.386760 0.000000 0.000000 
#    y 0.000000 3.026480 0.000000 
#    z 0.000000 0.000000 3.988890 
# 
# 
# High freq. dielectric constant tensor:
#      x y z
#    x 1.839410 0.000000 0.000000 
#    y 0.000000 1.718940 0.000000 
#    z 0.000000 0.000000 1.819570 
# 
# From -- ./inp_files/23807.got.cif
#   From: 2010.03.12/outbox.cif.g09.slc.cpg/sg55_12_cif.got.tgz:23807.got - 2010.04.16 15:19:21.
