data_PCOD8224703
_publ_section_title
;
Structure prediction by ZEFSAII (Michael W. Deem and Ramdas Pophale) SiO2 
 PCOD8224703
Probable space group: P B A M
;
_chemical_formula_sum "Si O2"
_cell_formula_units_Z 64
_cell_length_a 16.735051
_cell_length_b 22.482476
_cell_length_c 8.381597
_cell_angle_alpha 90.000000
_cell_angle_beta 90.000000
_cell_angle_gamma 90.000000
_cell_volume 3153.537169
_symmetry_space_group_name_H-M "P B A M"
_symmetry_group_IT_number 55
_symmetry_cell_setting 'orthorhombic'
loop_
_space_group_symop_operation_xyz
x,y,z
-x,-y,z
1/2+x,1/2-y,-z
1/2-x,1/2+y,-z
-x,-y,-z
x,y,-z
1/2-x,1/2+y,z
1/2+x,1/2-y,z
loop_
_atom_site_type_symbol
_atom_site_label
_atom_site_fract_x
_atom_site_fract_y
_atom_site_fract_z
Si Si1 0.647638 0.356411 0.189006
Si Si2 0.178436 0.384436 0.189604
Si Si3 0.591673 0.231294 0.813696
Si Si4 0.590344 0.999210 0.189746
Si Si5 0.998154 0.933444 0.809965
Si Si6 0.082347 0.733562 0.683743
Si Si7 0.826812 0.378228 0.811364
Si Si8 0.144948 0.853647 0.811295
O O1 0.632405 0.290429 0.260478
O O2 0.580749 0.401061 0.258105
O O3 0.734096 0.380424 0.238664
O O4 0.638333 0.353735 0.000000
O O5 0.131648 0.327517 0.262721
O O6 0.138300 0.444199 0.259886
O O7 0.270813 0.381926 0.241496
O O8 0.170651 0.385071 0.000000
O O9 0.497332 0.232628 0.788112
O O10 0.609346 0.230050 0.000000
O O11 0.633746 0.939413 0.247517
O O12 0.500000 0.000000 0.256428
O O13 0.589751 0.001808 0.000000
O O14 0.076065 0.897967 0.750455
O O15 0.996929 0.935498 0.000000
O O16 0.000000 0.000000 0.739444
O O17 0.057908 0.736205 0.500000
O O18 0.132458 0.674875 0.717514
O O19 0.136222 0.789869 0.729166
O O20 0.837548 0.368176 0.000000
O O21 0.140766 0.843825 0.000000
#
# Coordination Sequence:
#
# PCOD8224703 Si02
#       8
#     8   8   8   8   8   8   8   8
#     4   9  17  30  51  82 110 139 178 217 264 320
#     4   9  18  30  54  87 112 137 178 226 269 317
#     4  10  18  34  56  78 106 139 179 224 271 323
#     4   9  17  30  50  83 117 141 171 219 272 319
#     4   9  17  28  50  85 120 143 168 216 271 320
#     4  12  24  37  54  78 109 143 186 229 273 323
#     4  10  20  34  57  81 109 144 181 224 271 321
#     4  10  19  35  58  83 112 144 179 221 271 322
#
# _framework density 20.294671999999998
#
# number of rings (size 3 to 8) (size 9 to 14) (size 15 to 20)
#    0.000    2.250    1.250    2.625    1.750    4.000 
#    0.000    2.500    0.000    4.500    0.000    0.000 
#    0.000    0.000    0.000    0.000    0.000    0.000 
#
# Total GULP energy -793646.042294 kJ/mol
# GULP energy per Si atom -12400.719411 kJ/mol
# Density = 2.024848 g / cm^3
# Si number density = 20.294672 Si / 1000 Ang^3
#
#
#
# Elastic Constant Matrix: (Units=GPa)
#
#
# Indices 1 2 3 4 5 6 
#
# 1 176.1998 101.3070 3.3368 0.0000 0.0000 0.0000
# 2 101.3070 211.3150 12.5982 0.0000 0.0000 0.0000
# 3 3.3368 12.5982 14.6011 0.0000 0.0000 0.0000
# 4 0.0000 0.0000 0.0000 1.8218 0.0000 0.0000
# 5 0.0000 0.0000 0.0000 0.0000 2.2643 0.0000
# 6 0.0000 0.0000 0.0000 0.0000 0.0000 40.4426
#
#
#
# Elastic Compliance Matrix: (Units=1/GPa)
#
#
# Indices 1 2 3 4 5 6 
#
# 1 0.007868 -0.003863 0.001535 0.000000 0.000000 0.000000
# 2 -0.003863 0.006886 -0.005058 0.000000 0.000000 0.000000
# 3 0.001535 -0.005058 0.072502 0.000000 0.000000 0.000000
# 4 0.000000 0.000000 0.000000 0.548893 0.000000 0.000000
# 5 0.000000 0.000000 0.000000 0.000000 0.441634 0.000000
# 6 0.000000 0.000000 0.000000 0.000000 0.000000 0.024726
#
#
# Mechanical properties :
#
#
# Convention : Reuss Voigt Hill
#
# Bulk Modulus (GPa) = 13.79650 70.73335 42.26493
# Shear Modulus (GPa) = 4.38042 27.89733 16.13888
#
# Velocity S-wave (km/s) = 1.47075 3.71160 2.82304
# Velocity P-wave (km/s) = 3.11400 7.30047 5.61221
#
# Compressibility (1/GPa) = 0.07248215
#
# Stress axis : x y z
#
# Youngs Moduli (GPa) = 127.10441 145.22259 13.79282
#
# Poissons Ratio (x) = 0.56104 -0.02118
# Poissons Ratio (y) = 0.49105 0.06977
# Poissons Ratio (z) = -0.19515 0.73461
#
# Static dielectric constant tensor:
#      x y z
#    x 3.857050 0.000000 0.000000 
#    y 0.000000 4.033190 0.000000 
#    z 0.000000 0.000000 2.959860 
# 
# 
# High freq. dielectric constant tensor:
#      x y z
#    x 1.807630 0.000000 0.000000 
#    y 0.000000 1.809980 0.000000 
#    z 0.000000 0.000000 1.724040 
# 
# From -- ./inp_files/6708.got.cif
#   From: 2010.03.12/outbox.cif.g09.slc.cpg/sg55_4_cif.got.tgz:6708.got - 2010.04.16 15:19:21.
