data_PCOD8224337
_publ_section_title
;
Structure prediction by ZEFSAII (Michael W. Deem and Ramdas Pophale) SiO2 
 PCOD8224337
Probable space group: P B A M
;
_chemical_formula_sum "Si O2"
_cell_formula_units_Z 52
_cell_length_a 8.917219
_cell_length_b 17.094723
_cell_length_c 17.130542
_cell_angle_alpha 90.000000
_cell_angle_beta 90.000000
_cell_angle_gamma 90.000000
_cell_volume 2611.335090
_symmetry_space_group_name_H-M "P B A M"
_symmetry_group_IT_number 55
_symmetry_cell_setting 'orthorhombic'
loop_
_space_group_symop_operation_xyz
x,y,z
-x,-y,z
1/2+x,1/2-y,-z
1/2-x,1/2+y,-z
-x,-y,-z
x,y,-z
1/2-x,1/2+y,z
1/2+x,1/2-y,z
loop_
_atom_site_type_symbol
_atom_site_label
_atom_site_fract_x
_atom_site_fract_y
_atom_site_fract_z
Si Si1 0.923522 0.846379 0.214297
Si Si2 0.198491 0.468976 0.362843
Si Si3 0.500000 0.500000 0.691051
Si Si4 0.889607 0.562725 0.190972
Si Si5 0.907883 0.079528 0.087767
Si Si6 0.944422 0.374510 0.586040
Si Si7 0.905242 0.302377 0.254292
O O1 0.755636 0.812744 0.213338
O O2 0.980840 0.856317 0.125424
O O3 0.039767 0.786597 0.253667
O O4 0.931458 0.930718 0.256326
O O5 0.377258 0.463055 0.367171
O O6 0.157393 0.478642 0.271643
O O7 0.143708 0.544088 0.410035
O O8 0.121693 0.391920 0.399559
O O9 0.745189 0.575683 0.137393
O O10 0.000000 0.500000 0.148735
O O11 0.973434 0.644214 0.209273
O O12 0.866636 0.105324 0.000000
O O13 0.000000 0.000000 0.087848
O O14 0.921590 0.336988 0.500000
O O15 0.883414 0.318700 0.653576
#
# Coordination Sequence:
#
# PCOD8224337 Si02
#       7
#     8   8   4   8   8   8   8
#     4  12  23  42  66  95 125 168 220 265 314 394
#     4  10  17  32  62  92 118 168 214 252 301 381
#     4  12  20  36  68  88 122 164 222 256 300 382
#     4  11  18  36  63  95 129 169 220 251 308 389
#     4  11  23  39  64  98 132 167 210 269 325 375
#     4  10  20  38  61  91 129 165 208 269 326 370
#     4  11  24  40  67  95 122 171 224 263 320 390
#
# _framework density 19.913186
#
# number of rings (size 3 to 8) (size 9 to 14) (size 15 to 20)
#    0.000    1.077    6.923    2.769    2.154    0.308 
#    0.000    6.154    0.000    0.000    0.000    0.000 
#    0.000    0.000    0.000    0.000    0.000    0.000 
#
# Total GULP energy -644568.762483 kJ/mol
# GULP energy per Si atom -12395.553125 kJ/mol
# Density = 1.986786 g / cm^3
# Si number density = 19.913186 Si / 1000 Ang^3
#
#
#
# Elastic Constant Matrix: (Units=GPa)
#
#
# Indices 1 2 3 4 5 6 
#
# 1 140.3563 19.1210 48.2215 0.0000 0.0000 0.0000
# 2 19.1210 69.9184 23.2137 0.0000 0.0000 0.0000
# 3 48.2215 23.2137 137.6364 0.0000 0.0000 0.0000
# 4 0.0000 0.0000 0.0000 9.9007 0.0000 0.0000
# 5 0.0000 0.0000 0.0000 0.0000 22.0941 0.0000
# 6 0.0000 0.0000 0.0000 0.0000 0.0000 29.1261
#
#
#
# Elastic Compliance Matrix: (Units=1/GPa)
#
#
# Indices 1 2 3 4 5 6 
#
# 1 0.008221 -0.001369 -0.002650 0.000000 0.000000 0.000000
# 2 -0.001369 0.015379 -0.002114 0.000000 0.000000 0.000000
# 3 -0.002650 -0.002114 0.008550 0.000000 0.000000 0.000000
# 4 0.000000 0.000000 0.000000 0.101003 0.000000 0.000000
# 5 0.000000 0.000000 0.000000 0.000000 0.045261 0.000000
# 6 0.000000 0.000000 0.000000 0.000000 0.000000 0.034333
#
#
# Mechanical properties :
#
#
# Convention : Reuss Voigt Hill
#
# Bulk Modulus (GPa) = 50.28785 58.78038 54.53412
# Shear Modulus (GPa) = 21.58509 29.38118 25.48314
#
# Velocity S-wave (km/s) = 3.29593 3.84534 3.58119
# Velocity P-wave (km/s) = 6.30813 7.02125 6.67422
#
# Compressibility (1/GPa) = 0.01988552
#
# Stress axis : x y z
#
# Youngs Moduli (GPa) = 121.63253 65.02527 116.95363
#
# Poissons Ratio (x) = 0.08900 0.30988
# Poissons Ratio (y) = 0.16648 0.24727
# Poissons Ratio (z) = 0.32228 0.13748
#
# Static dielectric constant tensor:
#      x y z
#    x 3.974960 0.000000 0.000000 
#    y 0.000000 3.467300 0.000000 
#    z 0.000000 0.000000 3.599810 
# 
# 
# High freq. dielectric constant tensor:
#      x y z
#    x 1.792180 0.000000 0.000000 
#    y 0.000000 1.758940 0.000000 
#    z 0.000000 0.000000 1.752010 
# 
# From -- ./inp_files/20950.got.cif
#   From: 2010.03.12/outbox.cif.g09.slc.cpg/sg55_11_cif.got.tgz:20950.got - 2010.04.16 15:19:21.
