data_PCOD8224317
_publ_section_title
;
Structure prediction by ZEFSAII (Michael W. Deem and Ramdas Pophale) SiO2 
 PCOD8224317
Probable space group: P B A M
;
_chemical_formula_sum "Si O2"
_cell_formula_units_Z 64
_cell_length_a 14.418429
_cell_length_b 14.311046
_cell_length_c 18.122252
_cell_angle_alpha 90.000000
_cell_angle_beta 90.000000
_cell_angle_gamma 90.000000
_cell_volume 3739.396232
_symmetry_space_group_name_H-M "P B A M"
_symmetry_group_IT_number 55
_symmetry_cell_setting 'orthorhombic'
loop_
_space_group_symop_operation_xyz
x,y,z
-x,-y,z
1/2+x,1/2-y,-z
1/2-x,1/2+y,-z
-x,-y,-z
x,y,-z
1/2-x,1/2+y,z
1/2+x,1/2-y,z
loop_
_atom_site_type_symbol
_atom_site_label
_atom_site_fract_x
_atom_site_fract_y
_atom_site_fract_z
Si Si1 0.309361 0.171759 0.825672
Si Si2 0.640731 0.434727 0.419267
Si Si3 0.011054 0.608052 0.913529
Si Si4 0.364330 0.331840 0.271049
Si Si5 0.636920 0.260317 0.085899
Si Si6 0.201634 0.034071 0.732257
Si Si7 0.530964 0.403301 0.178467
Si Si8 0.946844 0.137994 0.580412
O O1 0.404647 0.154164 0.868585
O O2 0.314633 0.238540 0.755070
O O3 0.237351 0.226492 0.877964
O O4 0.275504 0.072879 0.791513
O O5 0.689719 0.423393 0.500000
O O6 0.715163 0.427770 0.352145
O O7 0.558607 0.358413 0.411463
O O8 0.589941 0.533347 0.413446
O O9 0.000000 0.500000 0.890630
O O10 0.914550 0.662029 0.894893
O O11 0.034817 0.617380 0.000000
O O12 0.295175 0.421111 0.267841
O O13 0.447949 0.347291 0.214839
O O14 0.399491 0.305790 0.353107
O O15 0.571768 0.343791 0.112202
O O16 0.652840 0.269828 0.000000
O O17 0.100993 0.071909 0.755557
O O18 0.500000 0.500000 0.140559
O O19 0.919315 0.180439 0.500000
#
# Coordination Sequence:
#
# PCOD8224317 Si02
#       8
#     8   8   8   8   8   8   8   8
#     4  11  22  34  55  77 102 137 179 213 263 315
#     4   8  12  22  42  69 100 132 163 201 258 314
#     4  10  22  40  59  76 103 140 177 216 257 312
#     4  10  17  30  49  72 103 131 167 214 258 302
#     4  10  21  37  54  75 103 132 171 218 258 309
#     4   9  18  29  46  74 104 130 165 210 258 304
#     4   9  16  30  50  73  99 125 154 205 263 309
#     4   8  13  22  43  71  98 130 165 204 257 315
#
# _framework density 17.115062000000002
#
# number of rings (size 3 to 8) (size 9 to 14) (size 15 to 20)
#    0.000    2.625    2.500    1.125    1.750    0.250 
#    0.000    0.625    0.000    0.000    0.000    0.000 
#    0.000    1.000    0.000    0.000    0.000    0.000 
#
# Total GULP energy -792973.305163 kJ/mol
# GULP energy per Si atom -12390.207893 kJ/mol
# Density = 1.707611 g / cm^3
# Si number density = 17.115062 Si / 1000 Ang^3
#
#
#
# Elastic Constant Matrix: (Units=GPa)
#
#
# Indices 1 2 3 4 5 6 
#
# 1 53.1072 22.3415 40.9859 0.0000 0.0000 0.0000
# 2 22.3415 72.6031 37.8983 0.0000 0.0000 0.0000
# 3 40.9859 37.8983 103.2838 0.0000 0.0000 0.0000
# 4 0.0000 0.0000 0.0000 20.8889 0.0000 0.0000
# 5 0.0000 0.0000 0.0000 0.0000 17.7581 0.0000
# 6 0.0000 0.0000 0.0000 0.0000 0.0000 17.3850
#
#
#
# Elastic Compliance Matrix: (Units=1/GPa)
#
#
# Indices 1 2 3 4 5 6 
#
# 1 0.027829 -0.003462 -0.009773 0.000000 0.000000 0.000000
# 2 -0.003462 0.017467 -0.005035 0.000000 0.000000 0.000000
# 3 -0.009773 -0.005035 0.015408 0.000000 0.000000 0.000000
# 4 0.000000 0.000000 0.000000 0.047872 0.000000 0.000000
# 5 0.000000 0.000000 0.000000 0.000000 0.056312 0.000000
# 6 0.000000 0.000000 0.000000 0.000000 0.000000 0.057521
#
#
# Mechanical properties :
#
#
# Convention : Reuss Voigt Hill
#
# Bulk Modulus (GPa) = 41.38558 47.93838 44.66198
# Shear Modulus (GPa) = 18.72627 19.72429 19.22528
#
# Velocity S-wave (km/s) = 3.31137 3.39846 3.35520
# Velocity P-wave (km/s) = 6.23326 6.59315 6.41573
#
# Compressibility (1/GPa) = 0.02416300
#
# Stress axis : x y z
#
# Youngs Moduli (GPa) = 35.93429 57.24963 64.90182
#
# Poissons Ratio (x) = 0.19820 0.63427
# Poissons Ratio (y) = 0.12441 0.32681
# Poissons Ratio (z) = 0.35118 0.28828
#
# Static dielectric constant tensor:
#      x y z
#    x 2.971810 0.000000 0.000000 
#    y 0.000000 3.077290 0.000000 
#    z 0.000000 0.000000 3.406760 
# 
# 
# High freq. dielectric constant tensor:
#      x y z
#    x 1.631600 0.000000 0.000000 
#    y 0.000000 1.636790 0.000000 
#    z 0.000000 0.000000 1.671940 
# 
# From -- ./inp_files/21687.got.cif
#   From: 2010.03.12/outbox.cif.g09.slc.cpg/sg55_11_cif.got.tgz:21687.got - 2010.04.16 15:19:21.
