data_PCOD8224250
_publ_section_title
;
Structure prediction by ZEFSAII (Michael W. Deem and Ramdas Pophale) SiO2 
 PCOD8224250
Probable space group: P B A M
;
_chemical_formula_sum "Si O2"
_cell_formula_units_Z 48
_cell_length_a 8.979571
_cell_length_b 15.336561
_cell_length_c 16.622357
_cell_angle_alpha 90.000000
_cell_angle_beta 90.000000
_cell_angle_gamma 90.000000
_cell_volume 2289.160168
_symmetry_space_group_name_H-M "P B A M"
_symmetry_group_IT_number 55
_symmetry_cell_setting 'orthorhombic'
loop_
_space_group_symop_operation_xyz
x,y,z
-x,-y,z
1/2+x,1/2-y,-z
1/2-x,1/2+y,-z
-x,-y,-z
x,y,-z
1/2-x,1/2+y,z
1/2+x,1/2-y,z
loop_
_atom_site_type_symbol
_atom_site_label
_atom_site_fract_x
_atom_site_fract_y
_atom_site_fract_z
Si Si1 0.167937 0.530158 0.177384
Si Si2 0.734245 0.870049 0.673450
Si Si3 0.091561 0.300188 0.325461
Si Si4 0.253553 0.134856 0.500000
Si Si5 0.724893 0.154237 0.162728
Si Si6 0.067011 0.292602 0.500000
Si Si7 0.083545 0.700825 0.906999
O O1 0.250189 0.554990 0.260462
O O2 0.254841 0.447211 0.138532
O O3 0.171008 0.612588 0.117533
O O4 0.000000 0.500000 0.196452
O O5 0.583045 0.815607 0.691626
O O6 0.871930 0.803001 0.680069
O O7 0.734263 0.917479 0.584659
O O8 0.186653 0.349748 0.257868
O O9 0.130543 0.334965 0.416512
O O10 0.102213 0.189918 0.500000
O O11 0.388638 0.204555 0.500000
O O12 0.590570 0.192522 0.109901
O O13 0.864760 0.215396 0.144513
O O14 0.113150 0.718929 0.000000
#
# Coordination Sequence:
#
# PCOD8224250 Si02
#       7
#     8   8   8   4   8   4   8
#     4  10  20  35  57  83 112 144 183 224 274 335
#     4  10  17  32  53  81 114 149 191 227 275 325
#     4  10  16  31  53  78 114 150 186 229 268 328
#     4   8  16  26  46  77 112 146 183 233 266 315
#     4  11  21  38  61  83 112 146 185 228 278 336
#     4   8  16  24  45  78 107 147 187 221 270 312
#     4  11  23  39  60  84 110 144 185 231 283 336
#
# _framework density 20.968388999999998
#
# number of rings (size 3 to 8) (size 9 to 14) (size 15 to 20)
#    0.000    2.000    5.000    0.500    0.000    3.667 
#    0.000    2.083    0.000    2.000    0.000    0.000 
#    0.000   17.333    0.000    0.000    0.000    0.000 
#
# Total GULP energy -594676.473195 kJ/mol
# GULP energy per Si atom -12389.093192 kJ/mol
# Density = 2.092066 g / cm^3
# Si number density = 20.968389 Si / 1000 Ang^3
#
#
#
# Elastic Constant Matrix: (Units=GPa)
#
#
# Indices 1 2 3 4 5 6 
#
# 1 34.3502 26.0081 15.2900 0.0000 0.0000 0.0000
# 2 26.0081 88.8117 21.5248 0.0000 0.0000 0.0000
# 3 15.2900 21.5248 113.6400 0.0000 0.0000 0.0000
# 4 0.0000 0.0000 0.0000 15.2520 0.0000 0.0000
# 5 0.0000 0.0000 0.0000 0.0000 20.0864 0.0000
# 6 0.0000 0.0000 0.0000 0.0000 0.0000 22.1185
#
#
#
# Elastic Compliance Matrix: (Units=1/GPa)
#
#
# Indices 1 2 3 4 5 6 
#
# 1 0.038478 -0.010495 -0.003189 0.000000 0.000000 0.000000
# 2 -0.010495 0.014664 -0.001365 0.000000 0.000000 0.000000
# 3 -0.003189 -0.001365 0.009487 0.000000 0.000000 0.000000
# 4 0.000000 0.000000 0.000000 0.065565 0.000000 0.000000
# 5 0.000000 0.000000 0.000000 0.000000 0.049785 0.000000
# 6 0.000000 0.000000 0.000000 0.000000 0.000000 0.045211
#
#
# Mechanical properties :
#
#
# Convention : Reuss Voigt Hill
#
# Bulk Modulus (GPa) = 30.74095 40.27195 35.50645
# Shear Modulus (GPa) = 18.92983 23.08999 21.00991
#
# Velocity S-wave (km/s) = 3.00789 3.32200 3.16884
# Velocity P-wave (km/s) = 5.17258 5.82769 5.50988
#
# Compressibility (1/GPa) = 0.03252990
#
# Stress axis : x y z
#
# Youngs Moduli (GPa) = 25.98897 68.19345 105.40233
#
# Poissons Ratio (x) = 0.71570 0.33615
# Poissons Ratio (y) = 0.27276 0.14392
# Poissons Ratio (z) = 0.08288 0.09312
#
# Static dielectric constant tensor:
#      x y z
#    x 3.530620 0.000000 0.000000 
#    y 0.000000 3.686120 0.000000 
#    z 0.000000 0.000000 4.128890 
# 
# 
# High freq. dielectric constant tensor:
#      x y z
#    x 1.787130 0.000000 0.000000 
#    y 0.000000 1.787980 0.000000 
#    z 0.000000 0.000000 1.840640 
# 
# From -- ./inp_files/20857.got.cif
#   From: 2010.03.12/outbox.cif.g09.slc.cpg/sg55_11_cif.got.tgz:20857.got - 2010.04.16 15:19:21.
