data_PCOD8224630
_publ_section_title
;
Structure prediction by ZEFSAII (Michael W. Deem and Ramdas Pophale) SiO2 
 PCOD8224630
Probable space group: P B A M
;
_chemical_formula_sum "Si O2"
_cell_formula_units_Z 48
_cell_length_a 16.682696
_cell_length_b 18.234125
_cell_length_c 8.782231
_cell_angle_alpha 90.000000
_cell_angle_beta 90.000000
_cell_angle_gamma 90.000000
_cell_volume 2671.505175
_symmetry_space_group_name_H-M "P B A M"
_symmetry_group_IT_number 55
_symmetry_cell_setting 'orthorhombic'
loop_
_space_group_symop_operation_xyz
x,y,z
-x,-y,z
1/2+x,1/2-y,-z
1/2-x,1/2+y,-z
-x,-y,-z
x,y,-z
1/2-x,1/2+y,z
1/2+x,1/2-y,z
loop_
_atom_site_type_symbol
_atom_site_label
_atom_site_fract_x
_atom_site_fract_y
_atom_site_fract_z
Si Si1 0.584919 0.024009 0.320537
Si Si2 0.173417 0.332483 0.681395
Si Si3 0.640544 0.328291 0.679557
Si Si4 0.178420 0.905337 0.820650
Si Si5 0.252592 0.045050 0.678642
Si Si6 0.486982 0.415851 0.320140
O O1 0.573996 0.027803 0.500000
O O2 0.611682 0.104478 0.261147
O O3 0.500000 0.000000 0.245179
O O4 0.653652 0.964442 0.277175
O O5 0.179191 0.332978 0.500000
O O6 0.145179 0.253837 0.746710
O O7 0.261144 0.347408 0.746493
O O8 0.633160 0.323256 0.500000
O O9 0.721144 0.373957 0.722765
O O10 0.562261 0.369395 0.742761
O O11 0.090098 0.883756 0.765035
O O12 0.198276 0.987471 0.768015
O O13 0.184523 0.899578 0.000000
O O14 0.239829 0.028677 0.500000
O O15 0.500000 0.500000 0.274625
O O16 0.475206 0.407152 0.500000
#
# Coordination Sequence:
#
# PCOD8224630 Si02
#       6
#     8   8   8   8   8   8
#     4   8  14  26  47  73  97 123 160 207 251 293
#     4   9  18  34  53  73 101 134 172 216 260 303
#     4   9  17  31  52  79 101 128 169 215 266 309
#     4  11  21  33  50  74 103 139 177 204 246 309
#     4   9  16  31  53  73  98 130 166 211 259 308
#     4  10  18  32  55  79 105 132 166 214 266 312
#
# _framework density 17.967397999999999
#
# number of rings (size 3 to 8) (size 9 to 14) (size 15 to 20)
#    0.000    2.667    1.667    2.500    0.000    0.333 
#    3.000    1.667    0.000    8.000    0.000    0.000 
#    0.000    0.000    0.000    0.000    0.000    0.000 
#
# Total GULP energy -595008.485795 kJ/mol
# GULP energy per Si atom -12396.010121 kJ/mol
# Density = 1.792650 g / cm^3
# Si number density = 17.967398 Si / 1000 Ang^3
#
#
#
# Elastic Constant Matrix: (Units=GPa)
#
#
# Indices 1 2 3 4 5 6 
#
# 1 163.4179 89.2315 20.4624 0.0000 0.0000 0.0000
# 2 89.2315 146.6992 19.6612 0.0000 0.0000 0.0000
# 3 20.4624 19.6612 29.9393 0.0000 0.0000 0.0000
# 4 0.0000 0.0000 0.0000 6.1786 0.0000 0.0000
# 5 0.0000 0.0000 0.0000 0.0000 4.7755 0.0000
# 6 0.0000 0.0000 0.0000 0.0000 0.0000 26.4344
#
#
#
# Elastic Compliance Matrix: (Units=1/GPa)
#
#
# Indices 1 2 3 4 5 6 
#
# 1 0.009390 -0.005320 -0.002924 0.000000 0.000000 0.000000
# 2 -0.005320 0.010488 -0.003252 0.000000 0.000000 0.000000
# 3 -0.002924 -0.003252 0.037535 0.000000 0.000000 0.000000
# 4 0.000000 0.000000 0.000000 0.161848 0.000000 0.000000
# 5 0.000000 0.000000 0.000000 0.000000 0.209402 0.000000
# 6 0.000000 0.000000 0.000000 0.000000 0.000000 0.037830
#
#
# Mechanical properties :
#
#
# Convention : Reuss Voigt Hill
#
# Bulk Modulus (GPa) = 29.05142 66.52963 47.79053
# Shear Modulus (GPa) = 9.98087 21.52446 15.75266
#
# Velocity S-wave (km/s) = 2.35946 3.46493 2.96419
# Velocity P-wave (km/s) = 4.86074 7.28807 6.19447
#
# Compressibility (1/GPa) = 0.03442173
#
# Stress axis : x y z
#
# Youngs Moduli (GPa) = 106.49362 95.34424 26.64171
#
# Poissons Ratio (x) = 0.50721 0.07791
# Poissons Ratio (y) = 0.56652 0.08663
# Poissons Ratio (z) = 0.31143 0.31004
#
# Static dielectric constant tensor:
#      x y z
#    x 3.612030 0.000000 0.000000 
#    y 0.000000 3.533210 0.000000 
#    z 0.000000 0.000000 2.863360 
# 
# 
# High freq. dielectric constant tensor:
#      x y z
#    x 1.704420 0.000000 0.000000 
#    y 0.000000 1.685880 0.000000 
#    z 0.000000 0.000000 1.650380 
# 
# From -- ./inp_files/7543.got.cif
#   From: 2010.03.12/outbox.cif.g09.slc.cpg/sg55_4_cif.got.tgz:7543.got - 2010.04.16 15:19:21.
