data_PCOD8224153
_publ_section_title
;
Structure prediction by ZEFSAII (Michael W. Deem and Ramdas Pophale) SiO2 
 PCOD8224153
Probable space group: P C C A
;
_chemical_formula_sum "Si O2"
_cell_formula_units_Z 40
_cell_length_a 9.511544
_cell_length_b 7.418681
_cell_length_c 25.847919
_cell_angle_alpha 90.000000
_cell_angle_beta 90.000000
_cell_angle_gamma 90.000000
_cell_volume 1823.909571
_symmetry_space_group_name_H-M "P C C A"
_symmetry_group_IT_number 54
_symmetry_cell_setting 'orthorhombic'
loop_
_space_group_symop_operation_xyz
x,y,z
1/2-x,-y,z
1/2+x,-y,1/2-z
-x,y,1/2-z
-x,-y,-z
1/2+x,y,-z
1/2-x,y,1/2+z
x,-y,1/2+z
loop_
_atom_site_type_symbol
_atom_site_label
_atom_site_fract_x
_atom_site_fract_y
_atom_site_fract_z
Si Si1 0.250000 0.500000 0.259189
Si Si2 0.929670 0.349925 0.654182
Si Si3 0.200570 0.193908 0.421824
Si Si4 0.750000 0.500000 0.497252
Si Si5 0.078764 0.657895 0.592729
Si Si6 0.717153 0.796148 0.822504
O O1 0.116422 0.539476 0.295231
O O2 0.220698 0.326609 0.223435
O O3 0.797468 0.252231 0.626847
O O4 0.000261 0.485787 0.615059
O O5 0.048404 0.209865 0.672243
O O6 0.194762 0.338930 0.467346
O O7 0.035586 0.179593 0.406462
O O8 0.250000 0.000000 0.442665
O O9 0.872095 0.408026 0.463451
O O10 0.213587 0.725678 0.624390
O O11 0.750000 0.000000 0.808702
#
# Coordination Sequence:
#
# PCOD8224153 Si02
#       6
#     4   8   8   4   8   8
#     4  12  24  46  74  98 142 182 232 286 350 414
#     4  12  23  49  71  97 144 188 223 286 357 408
#     4  12  27  44  71 106 139 182 235 289 347 417
#     4  12  24  44  74  98 140 184 238 284 352 408
#     4  12  23  48  73  96 144 187 225 287 351 419
#     4  12  27  46  73 108 139 182 236 287 347 418
#
# _framework density 21.930910999999998
#
# number of rings (size 3 to 8) (size 9 to 14) (size 15 to 20)
#    0.000    0.000    8.000    2.400    0.000    2.400 
#    7.200    0.000    0.000    0.000    0.000    0.000 
#    0.000    0.000    0.000    0.000    0.000    0.000 
#
# Total GULP energy -495995.509319 kJ/mol
# GULP energy per Si atom -12399.887733 kJ/mol
# Density = 2.188099 g / cm^3
# Si number density = 21.930911 Si / 1000 Ang^3
#
#
#
# Elastic Constant Matrix: (Units=GPa)
#
#
# Indices 1 2 3 4 5 6 
#
# 1 157.8706 42.4197 51.9981 0.0000 0.0000 0.0000
# 2 42.4197 125.5905 44.2567 0.0000 0.0000 0.0000
# 3 51.9981 44.2567 119.0241 0.0000 0.0000 0.0000
# 4 0.0000 0.0000 0.0000 5.5051 0.0000 0.0000
# 5 0.0000 0.0000 0.0000 0.0000 22.0859 0.0000
# 6 0.0000 0.0000 0.0000 0.0000 0.0000 41.5823
#
#
#
# Elastic Compliance Matrix: (Units=1/GPa)
#
#
# Indices 1 2 3 4 5 6 
#
# 1 0.007676 -0.001624 -0.002750 0.000000 0.000000 0.000000
# 2 -0.001624 0.009506 -0.002825 0.000000 0.000000 0.000000
# 3 -0.002750 -0.002825 0.010654 0.000000 0.000000 0.000000
# 4 0.000000 0.000000 0.000000 0.181650 0.000000 0.000000
# 5 0.000000 0.000000 0.000000 0.000000 0.045278 0.000000
# 6 0.000000 0.000000 0.000000 0.000000 0.000000 0.024049
#
#
# Mechanical properties :
#
#
# Convention : Reuss Voigt Hill
#
# Bulk Modulus (GPa) = 74.41375 75.53714 74.97545
# Shear Modulus (GPa) = 16.79598 31.42204 24.10901
#
# Velocity S-wave (km/s) = 2.77042 3.78931 3.31919
# Velocity P-wave (km/s) = 6.65119 7.32551 6.99648
#
# Compressibility (1/GPa) = 0.01343838
#
# Stress axis : x y z
#
# Youngs Moduli (GPa) = 130.27093 105.19144 93.86558
#
# Poissons Ratio (x) = 0.17081 0.25811
# Poissons Ratio (y) = 0.21153 0.26521
# Poissons Ratio (z) = 0.35822 0.29721
#
# Static dielectric constant tensor:
#      x y z
#    x 4.705870 0.000000 0.000000 
#    y 0.000000 3.983650 0.000000 
#    z 0.000000 0.000000 4.101770 
# 
# 
# High freq. dielectric constant tensor:
#      x y z
#    x 1.883610 0.000000 0.000000 
#    y 0.000000 1.853010 0.000000 
#    z 0.000000 0.000000 1.867910 
# 
# From -- ./inp_files/23312.got.cif
#   From: 2010.03.12/outbox.cif.g09.slc.cpg/sg54_12_cif.got.tgz:23312.got - 2010.04.16 15:00:50.
