data_PCOD8224117
_publ_section_title
;
Structure prediction by ZEFSAII (Michael W. Deem and Ramdas Pophale) SiO2 
 PCOD8224117
Probable space group: P C C A
;
_chemical_formula_sum "Si O2"
_cell_formula_units_Z 28
_cell_length_a 9.083340
_cell_length_b 7.974550
_cell_length_c 17.239312
_cell_angle_alpha 90.000000
_cell_angle_beta 90.000000
_cell_angle_gamma 90.000000
_cell_volume 1248.739029
_symmetry_space_group_name_H-M "P C C A"
_symmetry_group_IT_number 54
_symmetry_cell_setting 'orthorhombic'
loop_
_space_group_symop_operation_xyz
x,y,z
1/2-x,-y,z
1/2+x,-y,1/2-z
-x,y,1/2-z
-x,-y,-z
1/2+x,y,-z
1/2-x,y,1/2+z
x,-y,1/2+z
loop_
_atom_site_type_symbol
_atom_site_label
_atom_site_fract_x
_atom_site_fract_y
_atom_site_fract_z
Si Si1 0.766273 0.313151 0.947960
Si Si2 0.750000 0.000000 0.689362
Si Si3 0.438496 0.868759 0.941302
Si Si4 0.662405 0.329540 0.779789
O O1 0.750000 0.500000 0.979048
O O2 0.664908 0.292306 0.871720
O O3 0.935524 0.270596 0.926270
O O4 0.709378 0.203850 0.019880
O O5 0.605028 0.960874 0.638293
O O6 0.771861 0.834866 0.740017
O O7 0.500000 0.000000 0.000000
O O8 0.750000 0.500000 0.759505
O O9 0.500000 0.362884 0.750000
#
# Coordination Sequence:
#
# PCOD8224117 Si02
#       4
#     8   4   8   8
#     4  11  26  46  73 101 146 185 239 295 352 428
#     4  12  28  42  80 102 150 188 236 308 360 432
#     4  12  24  46  70 108 136 187 241 290 359 422
#     4  11  29  48  73 107 144 191 240 295 363 432
#
# _framework density 22.422619999999998
#
# number of rings (size 3 to 8) (size 9 to 14) (size 15 to 20)
#    0.000    0.571    2.857    2.571   16.000    1.143 
#    0.000    0.000    0.000    0.000    0.000    0.000 
#    0.000    0.000    0.000    0.000    0.000    0.000 
#
# Total GULP energy -347252.750997 kJ/mol
# GULP energy per Si atom -12401.883964 kJ/mol
# Density = 2.237159 g / cm^3
# Si number density = 22.422620 Si / 1000 Ang^3
#
#
#
# Elastic Constant Matrix: (Units=GPa)
#
#
# Indices 1 2 3 4 5 6 
#
# 1 99.6974 20.6567 3.5436 0.0000 0.0000 0.0000
# 2 20.6567 156.4776 33.4640 0.0000 0.0000 0.0000
# 3 3.5436 33.4640 75.8833 0.0000 0.0000 0.0000
# 4 0.0000 0.0000 0.0000 30.9025 0.0000 0.0000
# 5 0.0000 0.0000 0.0000 0.0000 38.1013 0.0000
# 6 0.0000 0.0000 0.0000 0.0000 0.0000 44.5493
#
#
#
# Elastic Compliance Matrix: (Units=1/GPa)
#
#
# Indices 1 2 3 4 5 6 
#
# 1 0.010314 -0.001390 0.000131 0.000000 0.000000 0.000000
# 2 -0.001390 0.007243 -0.003129 0.000000 0.000000 0.000000
# 3 0.000131 -0.003129 0.014552 0.000000 0.000000 0.000000
# 4 0.000000 0.000000 0.000000 0.032360 0.000000 0.000000
# 5 0.000000 0.000000 0.000000 0.000000 0.026246 0.000000
# 6 0.000000 0.000000 0.000000 0.000000 0.000000 0.022447
#
#
# Mechanical properties :
#
#
# Convention : Reuss Voigt Hill
#
# Bulk Modulus (GPa) = 42.85693 49.70966 46.28330
# Shear Modulus (GPa) = 38.54601 41.00354 39.77478
#
# Velocity S-wave (km/s) = 4.15066 4.28093 4.21630
# Velocity P-wave (km/s) = 6.49041 6.83028 6.66251
#
# Compressibility (1/GPa) = 0.02333345
#
# Stress axis : x y z
#
# Youngs Moduli (GPa) = 96.95935 138.05725 68.71884
#
# Poissons Ratio (x) = 0.19184 -0.00901
# Poissons Ratio (y) = 0.13473 0.21505
# Poissons Ratio (z) = -0.01272 0.43203
#
# Static dielectric constant tensor:
#      x y z
#    x 6.095370 0.000000 0.000000 
#    y 0.000000 3.928740 0.000000 
#    z 0.000000 0.000000 4.323990 
# 
# 
# High freq. dielectric constant tensor:
#      x y z
#    x 1.888720 0.000000 0.000000 
#    y 0.000000 1.905520 0.000000 
#    z 0.000000 0.000000 1.886660 
# 
# From -- ./inp_files/16152.got.cif
#   From: 2010.03.12/outbox.cif.g09.slc.cpg/sg54_9_cif.got.tgz:16152.got - 2010.04.16 15:00:50.
