data_PCOD8224198
_publ_section_title
;
Structure prediction by ZEFSAII (Michael W. Deem and Ramdas Pophale) SiO2 
 PCOD8224198
Probable space group: P C C A
;
_chemical_formula_sum "Si O2"
_cell_formula_units_Z 36
_cell_length_a 7.853770
_cell_length_b 9.082967
_cell_length_c 22.373842
_cell_angle_alpha 90.000000
_cell_angle_beta 90.000000
_cell_angle_gamma 90.000000
_cell_volume 1596.049961
_symmetry_space_group_name_H-M "P C C A"
_symmetry_group_IT_number 54
_symmetry_cell_setting 'orthorhombic'
loop_
_space_group_symop_operation_xyz
x,y,z
1/2-x,-y,z
1/2+x,-y,1/2-z
-x,y,1/2-z
-x,-y,-z
1/2+x,y,-z
1/2-x,y,1/2+z
x,-y,1/2+z
loop_
_atom_site_type_symbol
_atom_site_label
_atom_site_fract_x
_atom_site_fract_y
_atom_site_fract_z
Si Si1 0.250000 0.000000 0.666010
Si Si2 0.385864 0.211729 0.566165
Si Si3 0.900814 0.382818 0.651371
Si Si4 0.750000 0.500000 0.887385
Si Si5 0.234692 0.162644 0.938526
Si Si6 0.500000 0.180158 0.250000
O O1 0.154251 0.883418 0.624558
O O2 0.386389 0.919929 0.707353
O O3 0.289988 0.366152 0.568748
O O4 0.585656 0.244502 0.564113
O O5 0.330563 0.131900 0.505489
O O6 0.750000 0.500000 0.647913
O O7 0.897698 0.268237 0.595741
O O8 0.877581 0.285419 0.710860
O O9 0.084913 0.463204 0.653249
O O10 0.250000 0.000000 0.908543
#
# Coordination Sequence:
#
# PCOD8224198 Si02
#       6
#     4   8   8   4   8   4
#     4  12  28  50  74 114 144 210 250 324 376 464
#     4  12  26  46  78 111 158 194 255 318 388 459
#     4  12  28  51  77 112 152 209 256 319 383 454
#     4  12  26  50  74 112 156 196 260 312 386 456
#     4  12  26  46  78 114 155 199 251 320 389 459
#     4  12  30  48  80 106 158 196 270 310 382 458
#
# _framework density 22.555683999999999
#
# number of rings (size 3 to 8) (size 9 to 14) (size 15 to 20)
#    0.000    0.000    5.556    3.333    7.778    1.778 
#    0.000    0.000    0.000    0.000    0.000    0.000 
#    0.000    0.000    0.000    0.000    0.000    0.000 
#
# Total GULP energy -446571.343756 kJ/mol
# GULP energy per Si atom -12404.759549 kJ/mol
# Density = 2.250435 g / cm^3
# Si number density = 22.555684 Si / 1000 Ang^3
#
#
#
# Elastic Constant Matrix: (Units=GPa)
#
#
# Indices 1 2 3 4 5 6 
#
# 1 137.3740 48.1261 47.0207 0.0000 0.0000 0.0000
# 2 48.1261 142.9650 56.5643 0.0000 0.0000 0.0000
# 3 47.0207 56.5643 141.4824 0.0000 0.0000 0.0000
# 4 0.0000 0.0000 0.0000 5.8222 0.0000 0.0000
# 5 0.0000 0.0000 0.0000 0.0000 27.0415 0.0000
# 6 0.0000 0.0000 0.0000 0.0000 0.0000 32.0994
#
#
#
# Elastic Compliance Matrix: (Units=1/GPa)
#
#
# Indices 1 2 3 4 5 6 
#
# 1 0.008726 -0.002126 -0.002050 0.000000 0.000000 0.000000
# 2 -0.002126 0.008827 -0.002822 0.000000 0.000000 0.000000
# 3 -0.002050 -0.002822 0.008878 0.000000 0.000000 0.000000
# 4 0.000000 0.000000 0.000000 0.171756 0.000000 0.000000
# 5 0.000000 0.000000 0.000000 0.000000 0.036980 0.000000
# 6 0.000000 0.000000 0.000000 0.000000 0.000000 0.031153
#
#
# Mechanical properties :
#
#
# Convention : Reuss Voigt Hill
#
# Bulk Modulus (GPa) = 80.42788 80.58264 80.50526
# Shear Modulus (GPa) = 17.57704 30.99997 24.28851
#
# Velocity S-wave (km/s) = 2.79458 3.71128 3.28506
# Velocity P-wave (km/s) = 6.79321 7.35992 7.08224
#
# Compressibility (1/GPa) = 0.01243350
#
# Stress axis : x y z
#
# Youngs Moduli (GPa) = 114.60046 113.28611 112.64205
#
# Poissons Ratio (x) = 0.24089 0.23091
# Poissons Ratio (y) = 0.24368 0.31792
# Poissons Ratio (z) = 0.23492 0.31974
#
# Static dielectric constant tensor:
#      x y z
#    x 4.237310 0.000000 0.000000 
#    y 0.000000 4.287470 0.000000 
#    z 0.000000 0.000000 4.053400 
# 
# 
# High freq. dielectric constant tensor:
#      x y z
#    x 1.899760 0.000000 0.000000 
#    y 0.000000 1.908680 0.000000 
#    z 0.000000 0.000000 1.883490 
# 
# From -- ./inp_files/20169.got.cif
#   From: 2010.03.12/outbox.cif.g09.slc.cpg/sg54_11_cif.got.tgz:20169.got - 2010.04.16 15:00:50.
