data_PCOD8224965
_publ_section_title
;
Structure prediction by ZEFSAII (Michael W. Deem and Ramdas Pophale) SiO2 
 PCOD8224965
Probable space group: P B A M
;
_chemical_formula_sum "Si O2"
_cell_formula_units_Z 64
_cell_length_a 12.445176
_cell_length_b 29.102172
_cell_length_c 9.296681
_cell_angle_alpha 90.000000
_cell_angle_beta 90.000000
_cell_angle_gamma 90.000000
_cell_volume 3367.087288
_symmetry_space_group_name_H-M "P B A M"
_symmetry_group_IT_number 55
_symmetry_cell_setting 'orthorhombic'
loop_
_space_group_symop_operation_xyz
x,y,z
-x,-y,z
1/2+x,1/2-y,-z
1/2-x,1/2+y,-z
-x,-y,-z
x,y,-z
1/2-x,1/2+y,z
1/2+x,1/2-y,z
loop_
_atom_site_type_symbol
_atom_site_label
_atom_site_fract_x
_atom_site_fract_y
_atom_site_fract_z
Si Si1 0.907717 0.256846 0.337840
Si Si2 0.622225 0.501196 0.169958
Si Si3 0.402242 0.751455 0.160736
Si Si4 0.000757 0.551572 0.170921
Si Si5 0.700869 0.682780 0.161678
Si Si6 0.770740 0.583468 0.828639
Si Si7 0.232695 0.585824 0.829845
Si Si8 0.207386 0.176673 0.664320
O O1 0.945955 0.248324 0.500000
O O2 0.881124 0.207068 0.269533
O O3 0.814199 0.293421 0.330062
O O4 0.002600 0.278356 0.242086
O O5 0.500000 0.500000 0.233356
O O6 0.688860 0.544792 0.231722
O O7 0.688625 0.455898 0.212391
O O8 0.615204 0.506033 0.000000
O O9 0.306025 0.786549 0.156570
O O10 0.382393 0.704772 0.249614
O O11 0.436836 0.737524 0.000000
O O12 0.892792 0.576401 0.229688
O O13 0.000000 0.500000 0.232489
O O14 0.110427 0.576232 0.222141
O O15 0.000014 0.550165 0.000000
O O16 0.728311 0.632698 0.224774
O O17 0.652541 0.679039 0.000000
O O18 0.774673 0.581407 0.000000
O O19 0.275762 0.628918 0.743149
O O20 0.236684 0.595764 0.000000
O O21 0.170988 0.168327 0.500000
#
# Coordination Sequence:
#
# PCOD8224965 Si02
#       8
#     8   8   8   8   8   8   8   8
#     4  10  21  37  55  75 106 146 180 215 269 330
#     4   9  17  29  46  74 111 142 171 215 270 327
#     4  10  20  35  56  81 107 136 180 233 275 313
#     4   9  15  26  47  76 108 138 173 224 277 322
#     4   9  19  33  52  79 106 137 178 225 269 312
#     4   9  16  28  46  73 106 139 175 220 274 322
#     4  10  19  31  53  81 105 136 183 231 273 318
#     4  10  22  38  54  76 110 149 183 218 269 333
#
# _framework density 19.007525999999999
#
# number of rings (size 3 to 8) (size 9 to 14) (size 15 to 20)
#    0.000    2.500    1.250    1.125    1.750    3.000 
#    0.000    2.500    0.000    1.500    0.000    0.000 
#    0.000    0.000    0.000    0.000    0.000    0.000 
#
# Total GULP energy -793324.617081 kJ/mol
# GULP energy per Si atom -12395.697142 kJ/mol
# Density = 1.896426 g / cm^3
# Si number density = 19.007526 Si / 1000 Ang^3
#
#
#
# Elastic Constant Matrix: (Units=GPa)
#
#
# Indices 1 2 3 4 5 6 
#
# 1 92.3305 18.2048 24.3289 0.0000 0.0000 0.0000
# 2 18.2048 114.4175 31.5996 0.0000 0.0000 0.0000
# 3 24.3289 31.5996 83.7639 0.0000 0.0000 0.0000
# 4 0.0000 0.0000 0.0000 13.4257 0.0000 0.0000
# 5 0.0000 0.0000 0.0000 0.0000 20.0832 0.0000
# 6 0.0000 0.0000 0.0000 0.0000 0.0000 -13.0491
#
#
#
# Elastic Compliance Matrix: (Units=1/GPa)
#
#
# Indices 1 2 3 4 5 6 
#
# 1 0.011839 -0.001043 -0.003045 0.000000 0.000000 0.000000
# 2 -0.001043 0.009848 -0.003412 0.000000 0.000000 0.000000
# 3 -0.003045 -0.003412 0.014110 0.000000 0.000000 0.000000
# 4 0.000000 0.000000 0.000000 0.074484 0.000000 0.000000
# 5 0.000000 0.000000 0.000000 0.000000 0.049793 0.000000
# 6 0.000000 0.000000 0.000000 0.000000 0.000000 -0.076634
#
#
# Mechanical properties :
#
#
# Convention : Reuss Voigt Hill
#
# Bulk Modulus (GPa) = 48.08475 48.75318 48.41897
# Shear Modulus (GPa) = 47.45044 18.51717 32.98381
#
# Velocity S-wave (km/s) = 5.00182 3.12461 4.17022
# Velocity P-wave (km/s) = 7.66226 6.22275 6.97972
#
# Compressibility (1/GPa) = 0.02079661
#
# Stress axis : x y z
#
# Youngs Moduli (GPa) = 84.46923 101.54101 70.87129
#
# Poissons Ratio (x) = 0.10587 0.21581
# Poissons Ratio (y) = 0.08807 0.24184
# Poissons Ratio (z) = 0.25722 0.34650
#
# Static dielectric constant tensor:
#      x y z
#    x 3.732090 0.000000 0.000000 
#    y 0.000000 3.491140 0.000000 
#    z 0.000000 0.000000 3.230300 
# 
# 
# High freq. dielectric constant tensor:
#      x y z
#    x 1.749660 0.000000 0.000000 
#    y 0.000000 1.739500 0.000000 
#    z 0.000000 0.000000 1.694830 
# 
# From -- ./inp_files/4650.got.cif
#   From: 2010.03.12/outbox.cif.g09.slc.cpg/sg55_3_cif.got.tgz:4650.got - 2010.04.16 15:19:21.
