data_PCOD8224088
_publ_section_title
;
Structure prediction by ZEFSAII (Michael W. Deem and Ramdas Pophale) SiO2 
 PCOD8224088
Probable space group: P C C A
;
_chemical_formula_sum "Si O2"
_cell_formula_units_Z 28
_cell_length_a 4.834339
_cell_length_b 20.871459
_cell_length_c 11.353011
_cell_angle_alpha 90.000000
_cell_angle_beta 90.000000
_cell_angle_gamma 90.000000
_cell_volume 1145.515497
_symmetry_space_group_name_H-M "P C C A"
_symmetry_group_IT_number 54
_symmetry_cell_setting 'orthorhombic'
loop_
_space_group_symop_operation_xyz
x,y,z
1/2-x,-y,z
1/2+x,-y,1/2-z
-x,y,1/2-z
-x,-y,-z
1/2+x,y,-z
1/2-x,y,1/2+z
x,-y,1/2+z
loop_
_atom_site_type_symbol
_atom_site_label
_atom_site_fract_x
_atom_site_fract_y
_atom_site_fract_z
Si Si1 0.000000 0.397260 0.750000
Si Si2 0.500000 0.895679 0.250000
Si Si3 0.211003 0.292471 0.579238
Si Si4 0.750000 0.000000 0.913852
Si Si5 0.500000 0.186598 0.250000
Si Si6 0.250000 0.500000 0.410658
O O1 0.173786 0.354234 0.660313
O O2 0.220490 0.439293 0.823767
O O3 0.306770 0.937934 0.164954
O O4 0.255709 0.853149 0.309388
O O5 0.529847 0.294442 0.540087
O O6 0.141381 0.227674 0.647707
O O7 0.500000 0.000000 0.000000
O O8 0.500000 0.500000 0.500000
#
# Coordination Sequence:
#
# PCOD8224088 Si02
#       6
#     4   4   8   4   4   4
#     4  11  26  46  70 102 142 183 234 294 352 421
#     4  12  25  46  68 104 143 180 236 292 340 420
#     4  11  25  45  69 100 137 182 232 289 353 416
#     4  12  26  44  70 100 140 188 228 282 350 408
#     4  11  25  42  70 100 137 181 232 292 350 413
#     4  12  26  44  70 102 138 186 234 286 350 418
#
# _framework density 24.443145000000001
#
# number of rings (size 3 to 8) (size 9 to 14) (size 15 to 20)
#    0.000    0.571    0.000    7.714    0.000   14.857 
#    0.000    0.000    0.000    0.000    0.000    0.000 
#    0.000    0.000    0.000    0.000    0.000    0.000 
#
# Total GULP energy -347031.768603 kJ/mol
# GULP energy per Si atom -12393.991736 kJ/mol
# Density = 2.438751 g / cm^3
# Si number density = 24.443145 Si / 1000 Ang^3
#
#
#
# Elastic Constant Matrix: (Units=GPa)
#
#
# Indices 1 2 3 4 5 6 
#
# 1 143.5868 51.9608 41.1836 0.0000 0.0000 0.0000
# 2 51.9608 147.3656 55.7483 0.0000 0.0000 0.0000
# 3 41.1836 55.7483 121.8710 0.0000 0.0000 0.0000
# 4 0.0000 0.0000 0.0000 -297.7998 0.0000 0.0000
# 5 0.0000 0.0000 0.0000 0.0000 55.2742 0.0000
# 6 0.0000 0.0000 0.0000 0.0000 0.0000 35.7954
#
#
#
# Elastic Compliance Matrix: (Units=1/GPa)
#
#
# Indices 1 2 3 4 5 6 
#
# 1 0.008287 -0.002252 -0.001770 0.000000 0.000000 0.000000
# 2 -0.002252 0.008818 -0.003273 0.000000 0.000000 0.000000
# 3 -0.001770 -0.003273 0.010301 0.000000 0.000000 0.000000
# 4 0.000000 0.000000 0.000000 -0.003358 0.000000 0.000000
# 5 0.000000 0.000000 0.000000 0.000000 0.018092 0.000000
# 6 0.000000 0.000000 0.000000 0.000000 0.000000 0.027937
#
#
# Mechanical properties :
#
#
# Convention : Reuss Voigt Hill
#
# Bulk Modulus (GPa) = 78.02975 78.95653 78.49314
# Shear Modulus (GPa) = 56.21882 -23.75068 16.23407
#
# Velocity S-wave (km/s) = 4.80102 -3.12054 2.57992
# Velocity P-wave (km/s) = 7.91993 4.40324 6.40757
#
# Compressibility (1/GPa) = 0.01281562
#
# Stress axis : x y z
#
# Youngs Moduli (GPa) = 120.66747 113.40384 97.08201
#
# Poissons Ratio (x) = 0.25543 0.17185
# Poissons Ratio (y) = 0.27179 0.31771
# Poissons Ratio (z) = 0.21360 0.37112
#
# Static dielectric constant tensor:
#      x y z
#    x 4.413930 0.000000 0.000000 
#    y 0.000000 4.839330 0.000000 
#    z 0.000000 0.000000 3.708030 
# 
# 
# High freq. dielectric constant tensor:
#      x y z
#    x 1.991020 0.000000 0.000000 
#    y 0.000000 1.987460 0.000000 
#    z 0.000000 0.000000 1.973080 
# 
# From -- ./inp_files/6250.got.cif
#   From: 2010.03.12/outbox.cif.g09.slc.cpg/sg54_4_cif.got.tgz:6250.got - 2010.04.16 15:00:50.
