data_PCOD8224291
_publ_section_title
;
Structure prediction by ZEFSAII (Michael W. Deem and Ramdas Pophale) SiO2 
 PCOD8224291
Probable space group: P B A M
;
_chemical_formula_sum "Si O2"
_cell_formula_units_Z 56
_cell_length_a 20.438512
_cell_length_b 14.423972
_cell_length_c 13.142107
_cell_angle_alpha 90.000000
_cell_angle_beta 90.000000
_cell_angle_gamma 90.000000
_cell_volume 3874.352609
_symmetry_space_group_name_H-M "P B A M"
_symmetry_group_IT_number 55
_symmetry_cell_setting 'orthorhombic'
loop_
_space_group_symop_operation_xyz
x,y,z
-x,-y,z
1/2+x,1/2-y,-z
1/2-x,1/2+y,-z
-x,-y,-z
x,y,-z
1/2-x,1/2+y,z
1/2+x,1/2-y,z
loop_
_atom_site_type_symbol
_atom_site_label
_atom_site_fract_x
_atom_site_fract_y
_atom_site_fract_z
Si Si1 0.729859 0.503823 0.382713
Si Si2 0.809159 0.803167 0.380151
Si Si3 0.678050 0.701673 0.381216
Si Si4 0.431278 0.051358 0.886403
Si Si5 0.568475 0.190793 0.618077
Si Si6 0.872453 0.506823 0.694306
Si Si7 0.930534 0.318596 0.287752
O O1 0.751201 0.496147 0.500000
O O2 0.692018 0.411028 0.347972
O O3 0.683099 0.591328 0.364686
O O4 0.795497 0.515407 0.319167
O O5 0.811949 0.789164 0.500000
O O6 0.744096 0.751154 0.341066
O O7 0.874535 0.756312 0.334367
O O8 0.664565 0.725132 0.500000
O O9 0.618797 0.734319 0.309478
O O10 0.436260 0.153184 0.832195
O O11 0.500000 0.000000 0.890507
O O12 0.384423 0.986637 0.816617
O O13 0.402506 0.063685 0.000000
O O14 0.557733 0.211524 0.500000
O O15 0.588836 0.084762 0.633311
O O16 0.501319 0.213091 0.674616
O O17 0.901950 0.409134 0.652421
#
# Coordination Sequence:
#
# PCOD8224291 Si02
#       7
#     8   8   8   8   8   8   8
#     4  10  18  29  45  67  94 127 160 179 209 266
#     4   9  17  28  41  59  90 130 155 178 212 258
#     4  10  18  28  44  65  93 125 156 183 213 271
#     4   9  17  31  46  65  93 117 143 186 242 290
#     4  11  19  27  40  67  99 120 147 186 225 267
#     4  10  17  28  45  70  89 116 145 188 230 270
#     4  10  19  30  43  69  88 121 148 190 234 267
#
# _framework density 14.454027
#
# number of rings (size 3 to 8) (size 9 to 14) (size 15 to 20)
#    0.857    1.286    4.286    1.286    0.000    2.286 
#    0.000    0.714    0.000    4.286    0.000    1.000 
#    0.000    1.143    0.000    0.000    0.000    0.000 
#
# Total GULP energy -694003.248956 kJ/mol
# GULP energy per Si atom -12392.915160 kJ/mol
# Density = 1.442113 g / cm^3
# Si number density = 14.454027 Si / 1000 Ang^3
#
#
#
# Elastic Constant Matrix: (Units=GPa)
#
#
# Indices 1 2 3 4 5 6 
#
# 1 93.5447 33.1038 26.4869 0.0000 0.0000 0.0000
# 2 33.1038 78.1104 17.3173 0.0000 0.0000 0.0000
# 3 26.4869 17.3173 57.6530 0.0000 0.0000 0.0000
# 4 0.0000 0.0000 0.0000 1.8726 0.0000 0.0000
# 5 0.0000 0.0000 0.0000 0.0000 13.0936 0.0000
# 6 0.0000 0.0000 0.0000 0.0000 0.0000 25.9605
#
#
#
# Elastic Compliance Matrix: (Units=1/GPa)
#
#
# Indices 1 2 3 4 5 6 
#
# 1 0.013755 -0.004744 -0.004894 0.000000 0.000000 0.000000
# 2 -0.004744 0.015352 -0.002432 0.000000 0.000000 0.000000
# 3 -0.004894 -0.002432 0.020324 0.000000 0.000000 0.000000
# 4 0.000000 0.000000 0.000000 0.534008 0.000000 0.000000
# 5 0.000000 0.000000 0.000000 0.000000 0.076373 0.000000
# 6 0.000000 0.000000 0.000000 0.000000 0.000000 0.038520
#
#
# Mechanical properties :
#
#
# Convention : Reuss Voigt Hill
#
# Bulk Modulus (GPa) = 39.54035 42.56933 41.05484
# Shear Modulus (GPa) = 6.84085 18.34536 12.59311
#
# Velocity S-wave (km/s) = 2.17787 3.56648 2.95490
# Velocity P-wave (km/s) = 5.80857 6.81727 6.33303
#
# Compressibility (1/GPa) = 0.02529062
#
# Stress axis : x y z
#
# Youngs Moduli (GPa) = 72.70210 65.13727 49.20285
#
# Poissons Ratio (x) = 0.30903 0.24081
# Poissons Ratio (y) = 0.34492 0.11965
# Poissons Ratio (z) = 0.35581 0.15839
#
# Static dielectric constant tensor:
#      x y z
#    x 2.837700 0.000000 0.000000 
#    y 0.000000 2.861510 0.000000 
#    z 0.000000 0.000000 2.601140 
# 
# 
# High freq. dielectric constant tensor:
#      x y z
#    x 1.552140 0.000000 0.000000 
#    y 0.000000 1.546280 0.000000 
#    z 0.000000 0.000000 1.507700 
# 
# From -- ./inp_files/19549.got.cif
#   From: 2010.03.12/outbox.cif.g09.slc.cpg/sg55_10_cif.got.tgz:19549.got - 2010.04.16 15:19:21.
