data_PCOD8224043
_publ_section_title
;
Structure prediction by ZEFSAII (Michael W. Deem and Ramdas Pophale) SiO2 
 PCOD8224043
Probable space group: P C C A
;
_chemical_formula_sum "Si O2"
_cell_formula_units_Z 32
_cell_length_a 4.958325
_cell_length_b 23.522774
_cell_length_c 12.433211
_cell_angle_alpha 90.000000
_cell_angle_beta 90.000000
_cell_angle_gamma 90.000000
_cell_volume 1450.129641
_symmetry_space_group_name_H-M "P C C A"
_symmetry_group_IT_number 54
_symmetry_cell_setting 'orthorhombic'
loop_
_space_group_symop_operation_xyz
x,y,z
1/2-x,-y,z
1/2+x,-y,1/2-z
-x,y,1/2-z
-x,-y,-z
1/2+x,y,-z
1/2-x,y,1/2+z
x,-y,1/2+z
loop_
_atom_site_type_symbol
_atom_site_label
_atom_site_fract_x
_atom_site_fract_y
_atom_site_fract_z
Si Si1 0.750000 0.500000 0.180926
Si Si2 0.500000 0.961446 0.750000
Si Si3 0.500000 0.223904 0.250000
Si Si4 0.000000 0.700204 0.750000
Si Si5 0.040529 0.131435 0.925699
Si Si6 0.319092 0.385076 0.931767
O O1 0.500000 0.475864 0.250000
O O2 0.631902 0.551403 0.111082
O O3 0.415745 0.923990 0.852613
O O4 0.250000 0.000000 0.715533
O O5 0.247688 0.261269 0.210923
O O6 0.589835 0.186489 0.148053
O O7 0.893636 0.661704 0.654324
O O8 0.741056 0.131627 0.973725
O O9 0.508493 0.376814 0.035672
#
# Coordination Sequence:
#
# PCOD8224043 Si02
#       6
#     4   4   4   4   8   8
#     4  12  24  44  72  94 134 176 210 266 334 402
#     4  11  24  41  64 102 141 172 219 272 322 386
#     4  11  26  44  67  95 130 172 223 280 326 386
#     4  12  26  45  67  97 133 168 218 282 334 388
#     4  11  24  43  68  96 131 179 225 267 327 389
#     4  12  26  44  68  99 130 170 216 266 332 404
#
# _framework density 22.066994000000001
#
# number of rings (size 3 to 8) (size 9 to 14) (size 15 to 20)
#    0.000    0.500    1.250    6.750    1.750   13.000 
#    0.000    0.000    0.000    0.000    0.000    0.000 
#    0.000    0.000    0.000    0.000    0.000    0.000 
#
# Total GULP energy -397098.322699 kJ/mol
# GULP energy per Si atom -12409.322584 kJ/mol
# Density = 2.201677 g / cm^3
# Si number density = 22.066994 Si / 1000 Ang^3
#
#
#
# Elastic Constant Matrix: (Units=GPa)
#
#
# Indices 1 2 3 4 5 6 
#
# 1 113.7358 35.6585 17.1896 0.0000 0.0000 0.0000
# 2 35.6585 137.8505 44.6327 0.0000 0.0000 0.0000
# 3 17.1896 44.6327 94.3152 0.0000 0.0000 0.0000
# 4 0.0000 0.0000 0.0000 87.4894 0.0000 0.0000
# 5 0.0000 0.0000 0.0000 0.0000 50.1187 0.0000
# 6 0.0000 0.0000 0.0000 0.0000 0.0000 40.5533
#
#
#
# Elastic Compliance Matrix: (Units=1/GPa)
#
#
# Indices 1 2 3 4 5 6 
#
# 1 0.009605 -0.002265 -0.000679 0.000000 0.000000 0.000000
# 2 -0.002265 0.009101 -0.003894 0.000000 0.000000 0.000000
# 3 -0.000679 -0.003894 0.012569 0.000000 0.000000 0.000000
# 4 0.000000 0.000000 0.000000 0.011430 0.000000 0.000000
# 5 0.000000 0.000000 0.000000 0.000000 0.019953 0.000000
# 6 0.000000 0.000000 0.000000 0.000000 0.000000 0.024659
#
#
# Mechanical properties :
#
#
# Convention : Reuss Voigt Hill
#
# Bulk Modulus (GPa) = 56.81875 60.09590 58.45732
# Shear Modulus (GPa) = 46.79090 52.19366 49.49228
#
# Velocity S-wave (km/s) = 4.60978 4.86865 4.74098
# Velocity P-wave (km/s) = 7.35783 7.67447 7.51781
#
# Compressibility (1/GPa) = 0.01759982
#
# Stress axis : x y z
#
# Youngs Moduli (GPa) = 104.11291 109.87961 79.55935
#
# Poissons Ratio (x) = 0.24885 0.05401
# Poissons Ratio (y) = 0.23579 0.30981
# Poissons Ratio (z) = 0.07067 0.42787
#
# Static dielectric constant tensor:
#      x y z
#    x 3.818460 0.000000 0.000000 
#    y 0.000000 4.099000 0.000000 
#    z 0.000000 0.000000 3.915410 
# 
# 
# High freq. dielectric constant tensor:
#      x y z
#    x 1.884000 0.000000 0.000000 
#    y 0.000000 1.880330 0.000000 
#    z 0.000000 0.000000 1.871460 
# 
# From -- ./inp_files/6316.got.cif
#   From: 2010.03.12/outbox.cif.g09.slc.cpg/sg54_4_cif.got.tgz:6316.got - 2010.04.16 15:00:50.
