data_PCOD8224428
_publ_section_title
;
Structure prediction by ZEFSAII (Michael W. Deem and Ramdas Pophale) SiO2 
 PCOD8224428
Probable space group: P B A M
;
_chemical_formula_sum "Si O2"
_cell_formula_units_Z 48
_cell_length_a 9.199096
_cell_length_b 18.623020
_cell_length_c 13.079330
_cell_angle_alpha 90.000000
_cell_angle_beta 90.000000
_cell_angle_gamma 90.000000
_cell_volume 2240.684749
_symmetry_space_group_name_H-M "P B A M"
_symmetry_group_IT_number 55
_symmetry_cell_setting 'orthorhombic'
loop_
_space_group_symop_operation_xyz
x,y,z
-x,-y,z
1/2+x,1/2-y,-z
1/2-x,1/2+y,-z
-x,-y,-z
x,y,-z
1/2-x,1/2+y,z
1/2+x,1/2-y,z
loop_
_atom_site_type_symbol
_atom_site_label
_atom_site_fract_x
_atom_site_fract_y
_atom_site_fract_z
Si Si1 0.394346 0.594646 0.884130
Si Si2 0.607099 0.714057 0.887211
Si Si3 0.119532 0.640812 0.219390
Si Si4 0.457117 0.425053 0.682742
Si Si5 0.816415 0.649622 0.278671
Si Si6 0.328813 0.699588 0.381244
O O1 0.445635 0.678063 0.884613
O O2 0.229141 0.587813 0.841130
O O3 0.504127 0.558786 0.802665
O O4 0.405223 0.561926 0.000000
O O5 0.579126 0.794702 0.855313
O O6 0.722499 0.673184 0.818090
O O7 0.673605 0.710756 0.000000
O O8 0.188534 0.669032 0.324333
O O9 0.963019 0.606196 0.247052
O O10 0.500000 0.500000 0.624959
O O11 0.286387 0.408268 0.663060
O O12 0.537825 0.354192 0.640752
O O13 0.864058 0.719399 0.344572
O O14 0.292209 0.701666 0.500000
#
# Coordination Sequence:
#
# PCOD8224428 Si02
#       6
#     8   8   8   8   8   8
#     4   9  18  32  50  74 110 154 191 227 278 338
#     4   9  16  27  46  75 111 148 186 229 275 329
#     4  10  18  29  48  76 108 139 180 235 286 329
#     4  10  22  40  61  85 115 153 195 236 280 337
#     4  10  20  34  55  84 114 148 191 234 282 338
#     4  10  21  38  58  81 112 148 187 233 286 345
#
# _framework density 21.422022999999999
#
# number of rings (size 3 to 8) (size 9 to 14) (size 15 to 20)
#    0.000    2.333    0.000    5.500    0.000    6.000 
#    0.000    3.333    0.000    2.000    0.000    0.000 
#    0.000    0.000    0.000    0.000    0.000    0.000 
#
# Total GULP energy -594637.057611 kJ/mol
# GULP energy per Si atom -12388.272034 kJ/mol
# Density = 2.137327 g / cm^3
# Si number density = 21.422023 Si / 1000 Ang^3
#
#
#
# Elastic Constant Matrix: (Units=GPa)
#
#
# Indices 1 2 3 4 5 6 
#
# 1 124.3944 9.2639 8.4250 0.0000 0.0000 0.0000
# 2 9.2639 52.2179 8.5398 0.0000 0.0000 0.0000
# 3 8.4250 8.5398 100.5782 0.0000 0.0000 0.0000
# 4 0.0000 0.0000 0.0000 2.7768 0.0000 0.0000
# 5 0.0000 0.0000 0.0000 0.0000 9.5042 0.0000
# 6 0.0000 0.0000 0.0000 0.0000 0.0000 14.3535
#
#
#
# Elastic Compliance Matrix: (Units=1/GPa)
#
#
# Indices 1 2 3 4 5 6 
#
# 1 0.008179 -0.001358 -0.000570 0.000000 0.000000 0.000000
# 2 -0.001358 0.019646 -0.001554 0.000000 0.000000 0.000000
# 3 -0.000570 -0.001554 0.010122 0.000000 0.000000 0.000000
# 4 0.000000 0.000000 0.000000 0.360133 0.000000 0.000000
# 5 0.000000 0.000000 0.000000 0.000000 0.105217 0.000000
# 6 0.000000 0.000000 0.000000 0.000000 0.000000 0.069669
#
#
# Mechanical properties :
#
#
# Convention : Reuss Voigt Hill
#
# Bulk Modulus (GPa) = 32.27609 36.62754 34.45181
# Shear Modulus (GPa) = 8.47089 22.05767 15.26428
#
# Velocity S-wave (km/s) = 1.99070 3.21233 2.67226
# Velocity P-wave (km/s) = 4.51479 5.55823 5.06346
#
# Compressibility (1/GPa) = 0.03098269
#
# Stress axis : x y z
#
# Youngs Moduli (GPa) = 122.26953 50.90198 98.79264
#
# Poissons Ratio (x) = 0.06911 0.05629
# Poissons Ratio (y) = 0.16601 0.15355
# Poissons Ratio (z) = 0.06967 0.07912
#
# Static dielectric constant tensor:
#      x y z
#    x 3.974080 0.000000 0.000000 
#    y 0.000000 3.646590 0.000000 
#    z 0.000000 0.000000 3.862120 
# 
# 
# High freq. dielectric constant tensor:
#      x y z
#    x 1.841290 0.000000 0.000000 
#    y 0.000000 1.806000 0.000000 
#    z 0.000000 0.000000 1.829490 
# 
# From -- ./inp_files/17489.got.cif
#   From: 2010.03.12/outbox.cif.g09.slc.cpg/sg55_9_cif.got.tgz:17489.got - 2010.04.16 15:19:21.
