data_PCOD8224456
_publ_section_title
;
Structure prediction by ZEFSAII (Michael W. Deem and Ramdas Pophale) SiO2 
 PCOD8224456
Probable space group: P B A M
;
_chemical_formula_sum "Si O2"
_cell_formula_units_Z 48
_cell_length_a 23.891483
_cell_length_b 13.948289
_cell_length_c 8.465843
_cell_angle_alpha 90.000000
_cell_angle_beta 90.000000
_cell_angle_gamma 90.000000
_cell_volume 2821.202471
_symmetry_space_group_name_H-M "P B A M"
_symmetry_group_IT_number 55
_symmetry_cell_setting 'orthorhombic'
loop_
_space_group_symop_operation_xyz
x,y,z
-x,-y,z
1/2+x,1/2-y,-z
1/2-x,1/2+y,-z
-x,-y,-z
x,y,-z
1/2-x,1/2+y,z
1/2+x,1/2-y,z
loop_
_atom_site_type_symbol
_atom_site_label
_atom_site_fract_x
_atom_site_fract_y
_atom_site_fract_z
Si Si1 0.061677 0.595710 0.317393
Si Si2 0.555935 0.109563 0.814748
Si Si3 0.664679 0.215097 0.811812
Si Si4 0.273793 0.389784 0.187440
Si Si5 0.162806 0.705056 0.185897
Si Si6 0.275114 0.601100 0.812558
O O1 0.063589 0.567809 0.500000
O O2 0.073365 0.500435 0.215782
O O3 0.107260 0.676181 0.278850
O O4 0.000661 0.637914 0.275781
O O5 0.604855 0.178946 0.748459
O O6 0.546475 0.124064 0.000000
O O7 0.713756 0.145671 0.746998
O O8 0.677712 0.323622 0.752124
O O9 0.665096 0.211239 0.000000
O O10 0.322175 0.314414 0.235081
O O11 0.287120 0.495287 0.258383
O O12 0.270015 0.395173 0.000000
O O13 0.213540 0.636070 0.239380
O O14 0.151739 0.696479 0.000000
O O15 0.277151 0.598621 0.000000
#
# Coordination Sequence:
#
# PCOD8224456 Si02
#       6
#     8   8   8   8   8   8
#     4  11  21  31  43  62  89 117 145 178 219 258
#     4  10  18  30  48  67  87 112 145 180 217 262
#     4   8  14  23  40  68  93 112 137 174 217 257
#     4   8  13  22  40  67  94 115 136 170 215 256
#     4   9  16  27  45  67  89 115 146 175 209 256
#     4   8  13  23  42  69  95 113 137 177 219 255
#
# _framework density 17.014022000000001
#
# number of rings (size 3 to 8) (size 9 to 14) (size 15 to 20)
#    0.000    3.000    0.000    6.000    0.000    2.667 
#    0.000    0.000    0.000   14.000    0.000    7.000 
#    0.000    0.000    0.000    0.000    0.000    0.000 
#
# Total GULP energy -594901.736459 kJ/mol
# GULP energy per Si atom -12393.786176 kJ/mol
# Density = 1.697530 g / cm^3
# Si number density = 17.014022 Si / 1000 Ang^3
#
#
#
# Elastic Constant Matrix: (Units=GPa)
#
#
# Indices 1 2 3 4 5 6 
#
# 1 126.8427 76.1860 16.1408 0.0000 0.0000 0.0000
# 2 76.1860 144.0935 6.9044 0.0000 0.0000 0.0000
# 3 16.1408 6.9044 26.4845 0.0000 0.0000 0.0000
# 4 0.0000 0.0000 0.0000 3.1784 0.0000 0.0000
# 5 0.0000 0.0000 0.0000 0.0000 -0.2009 0.0000
# 6 0.0000 0.0000 0.0000 0.0000 0.0000 30.5801
#
#
#
# Elastic Compliance Matrix: (Units=1/GPa)
#
#
# Indices 1 2 3 4 5 6 
#
# 1 0.012408 -0.006276 -0.005925 0.000000 0.000000 0.000000
# 2 -0.006276 0.010203 0.001165 0.000000 0.000000 0.000000
# 3 -0.005925 0.001165 0.041065 0.000000 0.000000 0.000000
# 4 0.000000 0.000000 0.000000 0.314628 0.000000 0.000000
# 5 0.000000 0.000000 0.000000 0.000000 -4.978724 0.000000
# 6 0.000000 0.000000 0.000000 0.000000 0.000000 0.032701
#
#
# Mechanical properties :
#
#
# Convention : Reuss Voigt Hill
#
# Bulk Modulus (GPa) = 24.03701 55.09811 39.56756
# Shear Modulus (GPa) = -1.10332 19.92414 9.41041
#
# Velocity S-wave (km/s) = -0.80615 3.42576 2.35435
# Velocity P-wave (km/s) = 3.64581 6.93556 5.54049
#
# Compressibility (1/GPa) = 0.04160252
#
# Stress axis : x y z
#
# Youngs Moduli (GPa) = 80.59611 98.01487 24.35140
#
# Poissons Ratio (x) = 0.61517 0.14429
# Poissons Ratio (y) = 0.50584 -0.02838
# Poissons Ratio (z) = 0.47757 -0.11421
#
# Static dielectric constant tensor:
#      x y z
#    x 3.257320 0.000000 0.000000 
#    y 0.000000 3.546800 0.000000 
#    z 0.000000 0.000000 2.710560 
# 
# 
# High freq. dielectric constant tensor:
#      x y z
#    x 1.647600 0.000000 0.000000 
#    y 0.000000 1.650160 0.000000 
#    z 0.000000 0.000000 1.615730 
# 
# From -- ./inp_files/6285.got.cif
#   From: 2010.03.12/outbox.cif.g09.slc.cpg/sg55_4_cif.got.tgz:6285.got - 2010.04.16 15:19:21.
