data_PCOD8224962
_publ_section_title
;
Structure prediction by ZEFSAII (Michael W. Deem and Ramdas Pophale) SiO2 
 PCOD8224962
Probable space group: P B A M
;
_chemical_formula_sum "Si O2"
_cell_formula_units_Z 36
_cell_length_a 20.166581
_cell_length_b 5.074118
_cell_length_c 19.606797
_cell_angle_alpha 90.000000
_cell_angle_beta 90.000000
_cell_angle_gamma 90.000000
_cell_volume 2006.316709
_symmetry_space_group_name_H-M "P B A M"
_symmetry_group_IT_number 55
_symmetry_cell_setting 'orthorhombic'
loop_
_space_group_symop_operation_xyz
x,y,z
-x,-y,z
1/2+x,1/2-y,-z
1/2-x,1/2+y,-z
-x,-y,-z
x,y,-z
1/2-x,1/2+y,z
1/2+x,1/2-y,z
loop_
_atom_site_type_symbol
_atom_site_label
_atom_site_fract_x
_atom_site_fract_y
_atom_site_fract_z
Si Si1 0.000000 0.500000 0.677257
Si Si2 0.293745 0.724285 0.500000
Si Si3 0.794666 0.171517 0.145778
Si Si4 0.370908 0.766473 0.638734
Si Si5 0.291714 0.225610 0.000000
Si Si6 0.875175 0.253342 0.722151
O O1 0.049759 0.323678 0.630789
O O2 0.045256 0.692866 0.724376
O O3 0.267114 0.427107 0.500000
O O4 0.339247 0.771541 0.565012
O O5 0.735085 0.380246 0.154134
O O6 0.851513 0.214070 0.201106
O O7 0.829624 0.207119 0.070952
O O8 0.356910 0.493105 0.675500
O O9 0.338768 0.996333 0.686304
O O10 0.226782 0.416779 0.000000
#
# Coordination Sequence:
#
# PCOD8224962 Si02
#       6
#     4   4   8   8   4   8
#     4   8  22  39  56  79 102 138 186 222 252 305
#     4  12  26  41  57  83 113 138 166 216 276 320
#     4  10  19  31  52  82 110 142 173 213 269 316
#     4  10  22  39  58  78 106 142 174 219 260 315
#     4   8  16  30  46  73 113 141 171 208 254 322
#     4  10  20  36  57  80 105 139 181 224 254 311
#
# _framework density 17.943327
#
# number of rings (size 3 to 8) (size 9 to 14) (size 15 to 20)
#    1.333    0.889    0.000    3.333    0.000    5.778 
#    0.000    1.111    0.000    0.667    0.000    1.556 
#    0.000    0.000    0.000    0.000    0.000    0.000 
#
# Total GULP energy -445997.021583 kJ/mol
# GULP energy per Si atom -12388.806155 kJ/mol
# Density = 1.790249 g / cm^3
# Si number density = 17.943327 Si / 1000 Ang^3
#
#
#
# Elastic Constant Matrix: (Units=GPa)
#
#
# Indices 1 2 3 4 5 6 
#
# 1 61.0762 6.4302 51.7714 0.0000 0.0000 0.0000
# 2 6.4302 90.0480 12.9574 0.0000 0.0000 0.0000
# 3 51.7714 12.9574 141.4055 0.0000 0.0000 0.0000
# 4 0.0000 0.0000 0.0000 29.0705 0.0000 0.0000
# 5 0.0000 0.0000 0.0000 0.0000 7.8685 0.0000
# 6 0.0000 0.0000 0.0000 0.0000 0.0000 8.1485
#
#
#
# Elastic Compliance Matrix: (Units=1/GPa)
#
#
# Indices 1 2 3 4 5 6 
#
# 1 0.023759 -0.000451 -0.008657 0.000000 0.000000 0.000000
# 2 -0.000451 0.011262 -0.000867 0.000000 0.000000 0.000000
# 3 -0.008657 -0.000867 0.010321 0.000000 0.000000 0.000000
# 4 0.000000 0.000000 0.000000 0.034399 0.000000 0.000000
# 5 0.000000 0.000000 0.000000 0.000000 0.127089 0.000000
# 6 0.000000 0.000000 0.000000 0.000000 0.000000 0.122722
#
#
# Mechanical properties :
#
#
# Convention : Reuss Voigt Hill
#
# Bulk Modulus (GPa) = 39.38283 48.31642 43.84962
# Shear Modulus (GPa) = 13.96778 23.77553 18.87166
#
# Velocity S-wave (km/s) = 2.79308 3.64405 3.24657
# Velocity P-wave (km/s) = 5.69191 6.68515 6.20842
#
# Compressibility (1/GPa) = 0.02539178
#
# Stress axis : x y z
#
# Youngs Moduli (GPa) = 42.08962 88.79317 96.89077
#
# Poissons Ratio (x) = 0.04003 0.83881
# Poissons Ratio (y) = 0.01898 0.08400
# Poissons Ratio (z) = 0.36438 0.07698
#
# Static dielectric constant tensor:
#      x y z
#    x 2.953530 0.000000 0.000000 
#    y 0.000000 3.565030 0.000000 
#    z 0.000000 0.000000 3.436930 
# 
# 
# High freq. dielectric constant tensor:
#      x y z
#    x 1.649860 0.000000 0.000000 
#    y 0.000000 1.719350 0.000000 
#    z 0.000000 0.000000 1.695790 
# 
# From -- ./inp_files/23030.got.cif
#   From: 2010.03.12/outbox.cif.g09.slc.cpg/sg55_12_cif.got.tgz:23030.got - 2010.04.16 15:19:21.
