data_PCOD8224506
_publ_section_title
;
Structure prediction by ZEFSAII (Michael W. Deem and Ramdas Pophale) SiO2 
 PCOD8224506
Probable space group: P B A M
;
_chemical_formula_sum "Si O2"
_cell_formula_units_Z 64
_cell_length_a 17.188754
_cell_length_b 22.041568
_cell_length_c 9.144601
_cell_angle_alpha 90.000000
_cell_angle_beta 90.000000
_cell_angle_gamma 90.000000
_cell_volume 3464.588371
_symmetry_space_group_name_H-M "P B A M"
_symmetry_group_IT_number 55
_symmetry_cell_setting 'orthorhombic'
loop_
_space_group_symop_operation_xyz
x,y,z
-x,-y,z
1/2+x,1/2-y,-z
1/2-x,1/2+y,-z
-x,-y,-z
x,y,-z
1/2-x,1/2+y,z
1/2+x,1/2-y,z
loop_
_atom_site_type_symbol
_atom_site_label
_atom_site_fract_x
_atom_site_fract_y
_atom_site_fract_z
Si Si1 0.850784 0.471897 0.326112
Si Si2 0.784465 0.159100 0.825932
Si Si3 0.662080 0.776651 0.331388
Si Si4 0.219273 0.116977 0.332907
Si Si5 0.579702 0.426467 0.827368
Si Si6 0.637884 0.109198 0.325814
Si Si7 0.591954 0.562404 0.173180
Si Si8 0.535759 0.870956 0.673190
O O1 0.854387 0.472715 0.500000
O O2 0.772126 0.438627 0.273151
O O3 0.853019 0.540393 0.266442
O O4 0.924313 0.432849 0.265817
O O5 0.825927 0.220255 0.774637
O O6 0.700436 0.152220 0.751632
O O7 0.838381 0.104034 0.767912
O O8 0.775536 0.159618 0.000000
O O9 0.653957 0.755546 0.500000
O O10 0.736136 0.820076 0.313736
O O11 0.584231 0.811659 0.276945
O O12 0.197544 0.105330 0.500000
O O13 0.139245 0.121124 0.243201
O O14 0.491882 0.411467 0.774873
O O15 0.602679 0.493822 0.770507
O O16 0.586988 0.421615 0.000000
O O17 0.648477 0.113159 0.500000
O O18 0.553331 0.133341 0.274964
O O19 0.591664 0.561880 0.000000
O O20 0.540516 0.874748 0.500000
#
# Coordination Sequence:
#
# PCOD8224506 Si02
#       8
#     8   8   8   8   8   8   8   8
#     4   8  14  26  49  80 109 134 159 194 245 303
#     4  11  22  36  51  70 100 135 172 211 252 294
#     4   9  19  37  54  68  96 135 172 207 248 293
#     4   9  17  30  49  75 104 129 159 206 250 287
#     4   9  16  31  54  75  97 128 167 202 246 304
#     4  10  18  30  53  82 106 129 162 202 249 305
#     4   8  17  33  51  71  98 132 165 204 248 297
#     4   8  15  30  53  78 102 131 167 206 244 292
#
# _framework density 18.472612999999999
#
# number of rings (size 3 to 8) (size 9 to 14) (size 15 to 20)
#    0.000    3.000    0.000    3.750    0.000    2.000 
#    2.250    3.750    0.000    3.000    0.000    0.000 
#    0.000    0.000    0.000    0.000    0.000    0.000 
#
# Total GULP energy -793314.092103 kJ/mol
# GULP energy per Si atom -12395.532689 kJ/mol
# Density = 1.843057 g / cm^3
# Si number density = 18.472613 Si / 1000 Ang^3
#
#
#
# Elastic Constant Matrix: (Units=GPa)
#
#
# Indices 1 2 3 4 5 6 
#
# 1 114.7935 31.7046 29.0896 0.0000 0.0000 0.0000
# 2 31.7046 66.2423 19.8752 0.0000 0.0000 0.0000
# 3 29.0896 19.8752 36.2889 0.0000 0.0000 0.0000
# 4 0.0000 0.0000 0.0000 19.5183 0.0000 0.0000
# 5 0.0000 0.0000 0.0000 0.0000 22.2383 0.0000
# 6 0.0000 0.0000 0.0000 0.0000 0.0000 19.1392
#
#
#
# Elastic Compliance Matrix: (Units=1/GPa)
#
#
# Indices 1 2 3 4 5 6 
#
# 1 0.011497 -0.003276 -0.007422 0.000000 0.000000 0.000000
# 2 -0.003276 0.018998 -0.007779 0.000000 0.000000 0.000000
# 3 -0.007422 -0.007779 0.037767 0.000000 0.000000 0.000000
# 4 0.000000 0.000000 0.000000 0.051234 0.000000 0.000000
# 5 0.000000 0.000000 0.000000 0.000000 0.044968 0.000000
# 6 0.000000 0.000000 0.000000 0.000000 0.000000 0.052249
#
#
# Mechanical properties :
#
#
# Convention : Reuss Voigt Hill
#
# Bulk Modulus (GPa) = 31.94084 42.07372 37.00728
# Shear Modulus (GPa) = 18.93213 21.28950 20.11081
#
# Velocity S-wave (km/s) = 3.20484 3.39852 3.30310
# Velocity P-wave (km/s) = 5.56984 6.18269 5.88425
#
# Compressibility (1/GPa) = 0.03130788
#
# Stress axis : x y z
#
# Youngs Moduli (GPa) = 86.98104 52.63722 26.47832
#
# Poissons Ratio (x) = 0.17242 0.19652
# Poissons Ratio (y) = 0.28492 0.20598
# Poissons Ratio (z) = 0.64556 0.40948
#
# Static dielectric constant tensor:
#      x y z
#    x 3.652420 0.000000 0.000000 
#    y 0.000000 3.413090 0.000000 
#    z 0.000000 0.000000 2.914520 
# 
# 
# High freq. dielectric constant tensor:
#      x y z
#    x 1.728760 0.000000 0.000000 
#    y 0.000000 1.706260 0.000000 
#    z 0.000000 0.000000 1.671600 
# 
# From -- ./inp_files/7996.got.cif
#   From: 2010.03.12/outbox.cif.g09.slc.cpg/sg55_4_cif.got.tgz:7996.got - 2010.04.16 15:19:21.
