data_PCOD8224696
_publ_section_title
;
Structure prediction by ZEFSAII (Michael W. Deem and Ramdas Pophale) SiO2 
 PCOD8224696
Probable space group: P B A M
;
_chemical_formula_sum "Si O2"
_cell_formula_units_Z 64
_cell_length_a 18.103391
_cell_length_b 12.055509
_cell_length_c 14.755260
_cell_angle_alpha 90.000000
_cell_angle_beta 90.000000
_cell_angle_gamma 90.000000
_cell_volume 3220.270471
_symmetry_space_group_name_H-M "P B A M"
_symmetry_group_IT_number 55
_symmetry_cell_setting 'orthorhombic'
loop_
_space_group_symop_operation_xyz
x,y,z
-x,-y,z
1/2+x,1/2-y,-z
1/2-x,1/2+y,-z
-x,-y,-z
x,y,-z
1/2-x,1/2+y,z
1/2+x,1/2-y,z
loop_
_atom_site_type_symbol
_atom_site_label
_atom_site_fract_x
_atom_site_fract_y
_atom_site_fract_z
Si Si1 0.266427 0.613525 0.771229
Si Si2 0.622851 0.195137 0.218196
Si Si3 0.360776 0.260809 0.173993
Si Si4 0.424911 0.747841 0.400586
Si Si5 0.672517 0.467168 0.597774
Si Si6 0.492193 0.127098 0.895862
Si Si7 0.743234 0.078567 0.103264
Si Si8 0.950334 0.104334 0.317872
O O1 0.341523 0.683235 0.780941
O O2 0.194323 0.690692 0.761723
O O3 0.269374 0.535827 0.681205
O O4 0.267885 0.542011 0.863177
O O5 0.602983 0.164717 0.323511
O O6 0.547194 0.203378 0.162124
O O7 0.676387 0.107309 0.171150
O O8 0.409417 0.173179 0.117320
O O9 0.310208 0.333828 0.106729
O O10 0.412152 0.342897 0.230328
O O11 0.433445 0.805359 0.500000
O O12 0.365249 0.651664 0.408940
O O13 0.503202 0.697108 0.370210
O O14 0.711180 0.492102 0.500000
O O15 0.612442 0.562927 0.613497
O O16 0.500000 0.000000 0.862171
O O17 0.515296 0.135927 0.000000
O O18 0.714625 0.071596 0.000000
O O19 0.000000 0.000000 0.285524
#
# Coordination Sequence:
#
# PCOD8224696 Si02
#       8
#     8   8   8   8   8   8   8   8
#     4  10  22  38  58  83 118 154 192 244 299 346
#     4  10  21  38  60  84 115 153 194 241 289 351
#     4  11  22  37  59  87 119 154 193 246 298 352
#     4   9  17  32  58  89 117 150 188 231 287 349
#     4   9  17  33  57  85 117 153 191 231 283 350
#     4  11  23  39  60  85 113 151 195 241 291 349
#     4  11  23  39  59  83 115 156 201 244 294 352
#     4  10  18  33  60  90 120 152 191 242 298 353
#
# _framework density 19.874106999999999
#
# number of rings (size 3 to 8) (size 9 to 14) (size 15 to 20)
#    0.000    1.875    2.500    1.875    0.000    5.500 
#    0.000    1.875    0.000    2.625    0.000    0.000 
#    0.000    0.000    0.000    0.000    0.000    0.000 
#
# Total GULP energy -793343.079267 kJ/mol
# GULP energy per Si atom -12395.985614 kJ/mol
# Density = 1.982887 g / cm^3
# Si number density = 19.874107 Si / 1000 Ang^3
#
#
#
# Elastic Constant Matrix: (Units=GPa)
#
#
# Indices 1 2 3 4 5 6 
#
# 1 87.8158 32.4368 48.8718 0.0000 0.0000 0.0000
# 2 32.4368 62.2054 45.3096 0.0000 0.0000 0.0000
# 3 48.8718 45.3096 169.2050 0.0000 0.0000 0.0000
# 4 0.0000 0.0000 0.0000 12.4613 0.0000 0.0000
# 5 0.0000 0.0000 0.0000 0.0000 25.3372 0.0000
# 6 0.0000 0.0000 0.0000 0.0000 0.0000 27.7208
#
#
#
# Elastic Compliance Matrix: (Units=1/GPa)
#
#
# Indices 1 2 3 4 5 6 
#
# 1 0.015101 -0.005835 -0.002799 0.000000 0.000000 0.000000
# 2 -0.005835 0.022226 -0.004266 0.000000 0.000000 0.000000
# 3 -0.002799 -0.004266 0.007861 0.000000 0.000000 0.000000
# 4 0.000000 0.000000 0.000000 0.080249 0.000000 0.000000
# 5 0.000000 0.000000 0.000000 0.000000 0.039468 0.000000
# 6 0.000000 0.000000 0.000000 0.000000 0.000000 0.036074
#
#
# Mechanical properties :
#
#
# Convention : Reuss Voigt Hill
#
# Bulk Modulus (GPa) = 51.58277 63.60695 57.59486
# Shear Modulus (GPa) = 21.43703 25.94438 23.69070
#
# Velocity S-wave (km/s) = 3.28783 3.61700 3.45634
# Velocity P-wave (km/s) = 6.35800 7.03690 6.70605
#
# Compressibility (1/GPa) = 0.01938632
#
# Stress axis : x y z
#
# Youngs Moduli (GPa) = 66.22245 44.99211 127.21326
#
# Poissons Ratio (x) = 0.26255 0.35606
# Poissons Ratio (y) = 0.38644 0.54272
# Poissons Ratio (z) = 0.18535 0.19195
#
# Static dielectric constant tensor:
#      x y z
#    x 3.663350 0.000000 0.000000 
#    y 0.000000 3.453350 0.000000 
#    z 0.000000 0.000000 3.854090 
# 
# 
# High freq. dielectric constant tensor:
#      x y z
#    x 1.772750 0.000000 0.000000 
#    y 0.000000 1.753430 0.000000 
#    z 0.000000 0.000000 1.777100 
# 
# From -- ./inp_files/19504.got.cif
#   From: 2010.03.12/outbox.cif.g09.slc.cpg/sg55_10_cif.got.tgz:19504.got - 2010.04.16 15:19:21.
