data_PCOD8224015
_publ_section_title
;
Structure prediction by ZEFSAII (Michael W. Deem and Ramdas Pophale) SiO2 
 PCOD8224015
Probable space group: P C C A
;
_chemical_formula_sum "Si O2"
_cell_formula_units_Z 40
_cell_length_a 9.393727
_cell_length_b 20.320493
_cell_length_c 9.685515
_cell_angle_alpha 90.000000
_cell_angle_beta 90.000000
_cell_angle_gamma 90.000000
_cell_volume 1848.821117
_symmetry_space_group_name_H-M "P C C A"
_symmetry_group_IT_number 54
_symmetry_cell_setting 'orthorhombic'
loop_
_space_group_symop_operation_xyz
x,y,z
1/2-x,-y,z
1/2+x,-y,1/2-z
-x,y,1/2-z
-x,-y,-z
1/2+x,y,-z
1/2-x,y,1/2+z
x,-y,1/2+z
loop_
_atom_site_type_symbol
_atom_site_label
_atom_site_fract_x
_atom_site_fract_y
_atom_site_fract_z
Si Si1 0.704375 0.426994 0.168116
Si Si2 0.500644 0.234235 0.088659
Si Si3 0.582903 0.621317 0.943378
Si Si4 0.663438 0.934054 0.274405
Si Si5 0.745814 0.849855 0.020237
O O1 0.750000 0.500000 0.212126
O O2 0.557741 0.423843 0.079727
O O3 0.683819 0.384484 0.307931
O O4 0.835017 0.399940 0.079772
O O5 0.500000 0.243918 0.250000
O O6 0.460644 0.303968 0.023547
O O7 0.399216 0.174338 0.047662
O O8 0.655170 0.214236 0.032708
O O9 0.500000 0.951541 0.250000
O O10 0.684954 0.907572 0.429038
O O11 0.750000 0.000000 0.250031
O O12 0.717217 0.877743 0.171747
#
# Coordination Sequence:
#
# PCOD8224015 Si02
#       5
#     8   8   8   8   8
#     4  11  23  43  68  99 141 181 232 282 344 410
#     4  12  24  45  71  98 140 175 231 287 336 410
#     4  11  25  44  67 103 136 184 230 286 346 400
#     4  12  28  46  70 104 137 179 227 275 341 404
#     4  12  26  45  72 101 136 182 224 282 341 404
#
# _framework density 21.635407000000001
#
# number of rings (size 3 to 8) (size 9 to 14) (size 15 to 20)
#    0.000    0.400    6.000    3.000    2.800    4.000 
#    0.000    0.000    0.000    0.000    0.000    0.000 
#    0.000    0.000    0.000    0.000    0.000    0.000 
#
# Total GULP energy -496226.333462 kJ/mol
# GULP energy per Si atom -12405.658337 kJ/mol
# Density = 2.158616 g / cm^3
# Si number density = 21.635407 Si / 1000 Ang^3
#
#
#
# Elastic Constant Matrix: (Units=GPa)
#
#
# Indices 1 2 3 4 5 6 
#
# 1 101.3631 44.5341 18.6356 0.0000 0.0000 0.0000
# 2 44.5341 118.1789 24.0849 0.0000 0.0000 0.0000
# 3 18.6356 24.0849 55.8542 0.0000 0.0000 0.0000
# 4 0.0000 0.0000 0.0000 39.4994 0.0000 0.0000
# 5 0.0000 0.0000 0.0000 0.0000 35.1313 0.0000
# 6 0.0000 0.0000 0.0000 0.0000 0.0000 38.5751
#
#
#
# Elastic Compliance Matrix: (Units=1/GPa)
#
#
# Indices 1 2 3 4 5 6 
#
# 1 0.012079 -0.004090 -0.002267 0.000000 0.000000 0.000000
# 2 -0.004090 0.010662 -0.003233 0.000000 0.000000 0.000000
# 3 -0.002267 -0.003233 0.020054 0.000000 0.000000 0.000000
# 4 0.000000 0.000000 0.000000 0.025317 0.000000 0.000000
# 5 0.000000 0.000000 0.000000 0.000000 0.028465 0.000000
# 6 0.000000 0.000000 0.000000 0.000000 0.000000 0.025923
#
#
# Mechanical properties :
#
#
# Convention : Reuss Voigt Hill
#
# Bulk Modulus (GPa) = 42.34370 49.98949 46.16660
# Shear Modulus (GPa) = 33.43345 35.18394 34.30870
#
# Velocity S-wave (km/s) = 3.93531 4.03702 3.98649
# Velocity P-wave (km/s) = 6.34530 6.69967 6.52489
#
# Compressibility (1/GPa) = 0.02361626
#
# Stress axis : x y z
#
# Youngs Moduli (GPa) = 82.78732 93.79233 49.86526
#
# Poissons Ratio (x) = 0.38361 0.11302
# Poissons Ratio (y) = 0.33860 0.16121
# Poissons Ratio (z) = 0.18764 0.30322
#
# Static dielectric constant tensor:
#      x y z
#    x 4.102610 0.000000 0.000000 
#    y 0.000000 4.147410 0.000000 
#    z 0.000000 0.000000 3.857630 
# 
# 
# High freq. dielectric constant tensor:
#      x y z
#    x 1.863600 0.000000 0.000000 
#    y 0.000000 1.855600 0.000000 
#    z 0.000000 0.000000 1.851450 
# 
# From -- ./inp_files/2522.got.cif
#   From: 2010.03.12/outbox.cif.g09.slc.cpg/sg54_2_cif.got.tgz:2522.got - 2010.04.16 15:00:50.
