data_PCOD8224028
_publ_section_title
;
Structure prediction by ZEFSAII (Michael W. Deem and Ramdas Pophale) SiO2 
 PCOD8224028
Probable space group: P C C A
;
_chemical_formula_sum "Si O2"
_cell_formula_units_Z 60
_cell_length_a 15.667240
_cell_length_b 18.116762
_cell_length_c 9.075936
_cell_angle_alpha 90.000000
_cell_angle_beta 90.000000
_cell_angle_gamma 90.000000
_cell_volume 2576.110573
_symmetry_space_group_name_H-M "P C C A"
_symmetry_group_IT_number 54
_symmetry_cell_setting 'orthorhombic'
loop_
_space_group_symop_operation_xyz
x,y,z
1/2-x,-y,z
1/2+x,-y,1/2-z
-x,y,1/2-z
-x,-y,-z
1/2+x,y,-z
1/2-x,y,1/2+z
x,-y,1/2+z
loop_
_atom_site_type_symbol
_atom_site_label
_atom_site_fract_x
_atom_site_fract_y
_atom_site_fract_z
Si Si1 0.145846 0.938600 0.215953
Si Si2 0.571868 0.549732 0.653972
Si Si3 0.319472 0.759113 0.141474
Si Si4 0.167327 0.547449 0.061276
Si Si5 0.468764 0.707317 0.965448
Si Si6 0.824938 0.080216 0.435249
Si Si7 0.163644 0.290941 0.461451
Si Si8 0.500000 0.170425 0.250000
O O1 0.226342 0.919474 0.113922
O O2 0.166824 0.936351 0.390200
O O3 0.069832 0.882635 0.173334
O O4 0.120684 0.021454 0.162420
O O5 0.500000 0.507661 0.750000
O O6 0.591046 0.499135 0.513499
O O7 0.651811 0.562311 0.765069
O O8 0.530694 0.628201 0.611606
O O9 0.359381 0.839151 0.106117
O O10 0.304590 0.743679 0.310935
O O11 0.392443 0.702577 0.084461
O O12 0.224199 0.749128 0.078909
O O13 0.250000 0.500000 0.041019
O O14 0.181078 0.622032 0.970227
O O15 0.447252 0.775621 0.857973
O O16 0.563373 0.725086 0.023457
#
# Coordination Sequence:
#
# PCOD8224028 Si02
#       8
#     8   8   8   8   8   8   8   4
#     4  11  24  43  74 103 149 190 246 304 381 449
#     4  12  26  47  73 103 146 200 242 306 375 443
#     4  12  28  48  78 110 147 197 260 309 380 452
#     4  12  28  46  73 107 149 192 252 307 373 445
#     4  12  26  50  75 105 158 195 257 309 382 444
#     4  11  23  46  69 108 143 196 242 312 372 454
#     4  12  29  48  76 111 146 203 251 316 372 455
#     4  12  24  46  74 110 144 200 246 314 374 446
#
# _framework density 23.290925999999999
#
# number of rings (size 3 to 8) (size 9 to 14) (size 15 to 20)
#    0.000    0.267    3.333    5.200    9.333    1.600 
#    2.400    0.000    0.000    0.000    0.000    0.000 
#    0.000    0.000    0.000    0.000    0.000    0.000 
#
# Total GULP energy -743870.899331 kJ/mol
# GULP energy per Si atom -12397.848322 kJ/mol
# Density = 2.323792 g / cm^3
# Si number density = 23.290926 Si / 1000 Ang^3
#
#
#
# Elastic Constant Matrix: (Units=GPa)
#
#
# Indices 1 2 3 4 5 6 
#
# 1 63.1902 3.6281 13.8803 0.0000 0.0000 0.0000
# 2 3.6281 117.2465 34.5645 0.0000 0.0000 0.0000
# 3 13.8803 34.5645 123.2768 0.0000 0.0000 0.0000
# 4 0.0000 0.0000 0.0000 37.5726 0.0000 0.0000
# 5 0.0000 0.0000 0.0000 0.0000 78.5461 0.0000
# 6 0.0000 0.0000 0.0000 0.0000 0.0000 43.1410
#
#
#
# Elastic Compliance Matrix: (Units=1/GPa)
#
#
# Indices 1 2 3 4 5 6 
#
# 1 0.016227 0.000040 -0.001838 0.000000 0.000000 0.000000
# 2 0.000040 0.009298 -0.002611 0.000000 0.000000 0.000000
# 3 -0.001838 -0.002611 0.009051 0.000000 0.000000 0.000000
# 4 0.000000 0.000000 0.000000 0.026615 0.000000 0.000000
# 5 0.000000 0.000000 0.000000 0.000000 0.012731 0.000000
# 6 0.000000 0.000000 0.000000 0.000000 0.000000 0.023180
#
#
# Mechanical properties :
#
#
# Convention : Reuss Voigt Hill
#
# Bulk Modulus (GPa) = 38.82621 45.31769 42.07195
# Shear Modulus (GPa) = 43.66565 48.62799 46.14682
#
# Velocity S-wave (km/s) = 4.33458 4.57426 4.45603
# Velocity P-wave (km/s) = 6.46203 6.88461 6.67666
#
# Compressibility (1/GPa) = 0.02575580
#
# Stress axis : x y z
#
# Youngs Moduli (GPa) = 61.62665 107.55413 110.48531
#
# Poissons Ratio (x) = -0.00428 0.20309
# Poissons Ratio (y) = -0.00245 0.28852
# Poissons Ratio (z) = 0.11328 0.28086
#
# Static dielectric constant tensor:
#      x y z
#    x 4.113820 0.000000 0.000000 
#    y 0.000000 4.629720 0.000000 
#    z 0.000000 0.000000 4.282340 
# 
# 
# High freq. dielectric constant tensor:
#      x y z
#    x 1.924800 0.000000 0.000000 
#    y 0.000000 1.934130 0.000000 
#    z 0.000000 0.000000 1.923890 
# 
# From -- ./inp_files/4348.got.cif
#   From: 2010.03.12/outbox.cif.g09.slc.cpg/sg54_3_cif.got.tgz:4348.got - 2010.04.16 15:00:50.
