data_PCOD8224376
_publ_section_title
;
Structure prediction by ZEFSAII (Michael W. Deem and Ramdas Pophale) SiO2 
 PCOD8224376
Probable space group: P B A M
;
_chemical_formula_sum "Si O2"
_cell_formula_units_Z 64
_cell_length_a 26.349362
_cell_length_b 18.381262
_cell_length_c 8.600627
_cell_angle_alpha 90.000000
_cell_angle_beta 90.000000
_cell_angle_gamma 90.000000
_cell_volume 4165.580605
_symmetry_space_group_name_H-M "P B A M"
_symmetry_group_IT_number 55
_symmetry_cell_setting 'orthorhombic'
loop_
_space_group_symop_operation_xyz
x,y,z
-x,-y,z
1/2+x,1/2-y,-z
1/2-x,1/2+y,-z
-x,-y,-z
x,y,-z
1/2-x,1/2+y,z
1/2+x,1/2-y,z
loop_
_atom_site_type_symbol
_atom_site_label
_atom_site_fract_x
_atom_site_fract_y
_atom_site_fract_z
Si Si1 0.698198 0.710518 0.674513
Si Si2 0.248823 0.418166 0.815942
Si Si3 0.948881 0.581338 0.183932
Si Si4 0.444770 0.074906 0.682341
Si Si5 0.195993 0.206973 0.328639
Si Si6 0.351005 0.836393 0.818198
Si Si7 0.757265 0.425107 0.684062
Si Si8 0.352328 0.155805 0.817102
O O1 0.677922 0.695805 0.500000
O O2 0.705001 0.634625 0.766150
O O3 0.751317 0.750962 0.667685
O O4 0.659138 0.761434 0.767473
O O5 0.195663 0.384714 0.753543
O O6 0.257651 0.494083 0.730836
O O7 0.249080 0.429060 0.000000
O O8 0.933750 0.498830 0.223442
O O9 0.904050 0.633478 0.247699
O O10 0.999881 0.605473 0.271968
O O11 0.956950 0.588721 0.000000
O O12 0.442766 0.058303 0.500000
O O13 0.403532 0.134354 0.728780
O O14 0.171951 0.202510 0.500000
O O15 0.155934 0.251100 0.223554
O O16 0.209460 0.126208 0.265445
O O17 0.351148 0.844793 0.000000
O O18 0.766801 0.417633 0.500000
O O19 0.808107 0.400460 0.771387
O O20 0.360963 0.151781 0.000000
#
# Coordination Sequence:
#
# PCOD8224376 Si02
#       8
#     8   8   8   8   8   8   8   8
#     4   9  17  30  44  61  85 113 143 179 216 255
#     4  10  18  28  43  65  89 117 148 178 213 256
#     4  10  19  32  46  63  87 114 144 182 220 254
#     4  11  21  32  45  63  85 113 147 182 218 258
#     4   8  16  28  42  59  82 110 141 174 211 250
#     4   9  18  29  43  61  83 111 144 176 212 253
#     4  10  19  30  43  63  88 116 147 180 216 257
#     4  11  20  31  46  63  84 114 148 183 220 261
#
# _framework density 15.364004
#
# number of rings (size 3 to 8) (size 9 to 14) (size 15 to 20)
#    0.000    2.250    0.000    6.000    0.000    6.000 
#    0.000    0.000    0.000    0.000    0.000    0.000 
#    0.000    1.000    0.000   10.500    0.000    5.750 
#
# Total GULP energy -793462.605901 kJ/mol
# GULP energy per Si atom -12397.853217 kJ/mol
# Density = 1.532903 g / cm^3
# Si number density = 15.364004 Si / 1000 Ang^3
#
#
#
# Elastic Constant Matrix: (Units=GPa)
#
#
# Indices 1 2 3 4 5 6 
#
# 1 74.0876 48.0525 14.5904 0.0000 0.0000 0.0000
# 2 48.0525 100.6197 13.7818 0.0000 0.0000 0.0000
# 3 14.5904 13.7818 48.6591 0.0000 0.0000 0.0000
# 4 0.0000 0.0000 0.0000 26.8748 0.0000 0.0000
# 5 0.0000 0.0000 0.0000 0.0000 20.4429 0.0000
# 6 0.0000 0.0000 0.0000 0.0000 0.0000 25.9683
#
#
#
# Elastic Compliance Matrix: (Units=1/GPa)
#
#
# Indices 1 2 3 4 5 6 
#
# 1 0.020093 -0.009125 -0.003441 0.000000 0.000000 0.000000
# 2 -0.009125 0.014483 -0.001366 0.000000 0.000000 0.000000
# 3 -0.003441 -0.001366 0.021970 0.000000 0.000000 0.000000
# 4 0.000000 0.000000 0.000000 0.037210 0.000000 0.000000
# 5 0.000000 0.000000 0.000000 0.000000 0.048917 0.000000
# 6 0.000000 0.000000 0.000000 0.000000 0.000000 0.038509
#
#
# Mechanical properties :
#
#
# Convention : Reuss Voigt Hill
#
# Bulk Modulus (GPa) = 34.86313 41.80174 38.33243
# Shear Modulus (GPa) = 22.87235 24.45331 23.66283
#
# Velocity S-wave (km/s) = 3.86255 3.99381 3.92873
# Velocity P-wave (km/s) = 6.52940 6.96664 6.75156
#
# Compressibility (1/GPa) = 0.02868360
#
# Stress axis : x y z
#
# Youngs Moduli (GPa) = 49.76799 69.04596 45.51717
#
# Poissons Ratio (x) = 0.63002 0.15661
# Poissons Ratio (y) = 0.45411 0.06218
# Poissons Ratio (z) = 0.17123 0.09432
#
# Static dielectric constant tensor:
#      x y z
#    x 2.880040 0.000000 0.000000 
#    y 0.000000 3.055500 0.000000 
#    z 0.000000 0.000000 3.032720 
# 
# 
# High freq. dielectric constant tensor:
#      x y z
#    x 1.553860 0.000000 0.000000 
#    y 0.000000 1.578350 0.000000 
#    z 0.000000 0.000000 1.602610 
# 
# From -- ./inp_files/9870.got.cif
#   From: 2010.03.12/outbox.cif.g09.slc.cpg/sg55_5_cif.got.tgz:9870.got - 2010.04.16 15:19:21.
