data_PCOD8224360
_publ_section_title
;
Structure prediction by ZEFSAII (Michael W. Deem and Ramdas Pophale) SiO2 
 PCOD8224360
Probable space group: P B A M
;
_chemical_formula_sum "Si O2"
_cell_formula_units_Z 64
_cell_length_a 34.389608
_cell_length_b 13.512510
_cell_length_c 9.080540
_cell_angle_alpha 90.000000
_cell_angle_beta 90.000000
_cell_angle_gamma 90.000000
_cell_volume 4219.635424
_symmetry_space_group_name_H-M "P B A M"
_symmetry_group_IT_number 55
_symmetry_cell_setting 'orthorhombic'
loop_
_space_group_symop_operation_xyz
x,y,z
-x,-y,z
1/2+x,1/2-y,-z
1/2-x,1/2+y,-z
-x,-y,-z
x,y,-z
1/2-x,1/2+y,z
1/2+x,1/2-y,z
loop_
_atom_site_type_symbol
_atom_site_label
_atom_site_fract_x
_atom_site_fract_y
_atom_site_fract_z
Si Si1 0.729687 0.892675 0.671229
Si Si2 0.309696 0.283490 0.172629
Si Si3 0.041858 0.118315 0.165233
Si Si4 0.543210 0.616694 0.166797
Si Si5 0.381003 0.385991 0.673644
Si Si6 0.732148 0.099767 0.172052
Si Si7 0.616918 0.386909 0.327299
Si Si8 0.806720 0.774344 0.670847
O O1 0.718747 0.896540 0.500000
O O2 0.699604 0.821037 0.752728
O O3 0.773583 0.856139 0.695920
O O4 0.725392 0.000127 0.739681
O O5 0.348781 0.323719 0.243105
O O6 0.275368 0.361094 0.205460
O O7 0.315512 0.266638 0.000000
O O8 0.077206 0.159909 0.262949
O O9 0.999303 0.156467 0.219929
O O10 0.042172 0.000825 0.171777
O O11 0.048807 0.155919 0.000000
O O12 0.576848 0.655641 0.275683
O O13 0.551734 0.652496 0.000000
O O14 0.376276 0.372057 0.500000
O O15 0.376435 0.500048 0.723410
O O16 0.700792 0.178687 0.229752
O O17 0.725374 0.081491 0.000000
O O18 0.612808 0.383083 0.500000
O O19 0.653126 0.321842 0.272902
O O20 0.808499 0.742666 0.500000
#
# Coordination Sequence:
#
# PCOD8224360 Si02
#       8
#     8   8   8   8   8   8   8   8
#     4  10  19  32  49  64  83 112 143 177 215 254
#     4  10  20  32  45  63  87 113 143 178 213 252
#     4   8  14  24  38  55  78 110 144 173 206 251
#     4   8  14  25  38  54  79 111 143 173 208 250
#     4  10  18  27  41  62  86 113 146 180 214 252
#     4  10  20  32  46  64  85 110 141 177 215 253
#     4   9  17  27  40  60  86 113 143 179 213 248
#     4   9  18  31  45  62  84 112 144 175 210 252
#
# _framework density 15.167187
#
# number of rings (size 3 to 8) (size 9 to 14) (size 15 to 20)
#    0.000    2.750    0.000    3.000    0.000    4.500 
#    0.000    2.500    0.000    0.000    0.000    0.000 
#    0.000    1.000    0.000   10.500    0.000    6.250 
#
# Total GULP energy -793433.530401 kJ/mol
# GULP energy per Si atom -12397.398913 kJ/mol
# Density = 1.513267 g / cm^3
# Si number density = 15.167187 Si / 1000 Ang^3
#
#
#
# Elastic Constant Matrix: (Units=GPa)
#
#
# Indices 1 2 3 4 5 6 
#
# 1 132.7602 48.0828 54.4910 0.0000 0.0000 0.0000
# 2 48.0828 71.8532 43.5923 0.0000 0.0000 0.0000
# 3 54.4910 43.5923 73.8856 0.0000 0.0000 0.0000
# 4 0.0000 0.0000 0.0000 21.6277 0.0000 0.0000
# 5 0.0000 0.0000 0.0000 0.0000 30.1760 0.0000
# 6 0.0000 0.0000 0.0000 0.0000 0.0000 17.4312
#
#
#
# Elastic Compliance Matrix: (Units=1/GPa)
#
#
# Indices 1 2 3 4 5 6 
#
# 1 0.011485 -0.003967 -0.006130 0.000000 0.000000 0.000000
# 2 -0.003967 0.023046 -0.010672 0.000000 0.000000 0.000000
# 3 -0.006130 -0.010672 0.024352 0.000000 0.000000 0.000000
# 4 0.000000 0.000000 0.000000 0.046237 0.000000 0.000000
# 5 0.000000 0.000000 0.000000 0.000000 0.033139 0.000000
# 6 0.000000 0.000000 0.000000 0.000000 0.000000 0.057368
#
#
# Mechanical properties :
#
#
# Convention : Reuss Voigt Hill
#
# Bulk Modulus (GPa) = 57.64990 63.42569 60.53779
# Shear Modulus (GPa) = 20.58075 22.66917 21.62496
#
# Velocity S-wave (km/s) = 3.68764 3.87022 3.78004
# Velocity P-wave (km/s) = 7.49825 7.86638 7.68452
#
# Compressibility (1/GPa) = 0.01734609
#
# Stress axis : x y z
#
# Youngs Moduli (GPa) = 87.06992 43.39152 41.06508
#
# Poissons Ratio (x) = 0.17212 0.25173
# Poissons Ratio (y) = 0.34537 0.43823
# Poissons Ratio (z) = 0.53374 0.46306
#
# Static dielectric constant tensor:
#      x y z
#    x 3.212890 0.000000 0.000000 
#    y 0.000000 2.611360 0.000000 
#    z 0.000000 0.000000 3.008890 
# 
# 
# High freq. dielectric constant tensor:
#      x y z
#    x 1.584150 0.000000 0.000000 
#    y 0.000000 1.535280 0.000000 
#    z 0.000000 0.000000 1.590410 
# 
# From -- ./inp_files/10711.got.cif
#   From: 2010.03.12/outbox.cif.g09.slc.cpg/sg55_6_cif.got.tgz:10711.got - 2010.04.16 15:19:21.
