data_PCOD8224936
_publ_section_title
;
Structure prediction by ZEFSAII (Michael W. Deem and Ramdas Pophale) SiO2 
 PCOD8224936
Probable space group: P B A M
;
_chemical_formula_sum "Si O2"
_cell_formula_units_Z 48
_cell_length_a 16.470515
_cell_length_b 18.190661
_cell_length_c 9.061177
_cell_angle_alpha 90.000000
_cell_angle_beta 90.000000
_cell_angle_gamma 90.000000
_cell_volume 2714.815207
_symmetry_space_group_name_H-M "P B A M"
_symmetry_group_IT_number 55
_symmetry_cell_setting 'orthorhombic'
loop_
_space_group_symop_operation_xyz
x,y,z
-x,-y,z
1/2+x,1/2-y,-z
1/2-x,1/2+y,-z
-x,-y,-z
x,y,-z
1/2-x,1/2+y,z
1/2+x,1/2-y,z
loop_
_atom_site_type_symbol
_atom_site_label
_atom_site_fract_x
_atom_site_fract_y
_atom_site_fract_z
Si Si1 0.678465 0.917954 0.330143
Si Si2 0.500347 0.918351 0.328035
Si Si3 0.662161 0.335153 0.671926
Si Si4 0.653419 0.168986 0.324204
Si Si5 0.914303 0.968914 0.173558
Si Si6 0.247393 0.948782 0.173700
O O1 0.684980 0.944241 0.500000
O O2 0.589458 0.883401 0.298663
O O3 0.744762 0.856453 0.292933
O O4 0.689966 0.989585 0.229718
O O5 0.480924 0.924736 0.500000
O O6 0.429572 0.867486 0.261074
O O7 0.500000 0.000000 0.257804
O O8 0.642226 0.340696 0.500000
O O9 0.650871 0.252837 0.731402
O O10 0.600636 0.389811 0.753349
O O11 0.662306 0.165647 0.500000
O O12 0.730931 0.127991 0.252865
O O13 0.843947 0.026866 0.217869
O O14 0.915717 0.955871 0.000000
O O15 0.000000 0.000000 0.231351
O O16 0.256822 0.939184 0.000000
#
# Coordination Sequence:
#
# PCOD8224936 Si02
#       6
#     8   8   8   8   8   8
#     4   9  16  31  51  69  93 129 165 197 241 294
#     4   9  15  26  49  72  93 130 165 190 234 298
#     4   9  19  33  51  76 102 128 164 211 253 291
#     4  10  19  33  49  73 106 134 162 201 252 302
#     4   9  19  37  57  73  96 134 175 210 251 304
#     4  10  19  31  51  75  96 127 167 205 245 294
#
# _framework density 17.680761
#
# number of rings (size 3 to 8) (size 9 to 14) (size 15 to 20)
#    0.000    2.667    1.667    0.500    0.000    1.667 
#    3.000    1.667    0.000    0.000    0.000    0.000 
#    0.000    0.000    0.000    0.000    0.000    0.000 
#
# Total GULP energy -595077.382215 kJ/mol
# GULP energy per Si atom -12397.445463 kJ/mol
# Density = 1.764052 g / cm^3
# Si number density = 17.680761 Si / 1000 Ang^3
#
#
#
# Elastic Constant Matrix: (Units=GPa)
#
#
# Indices 1 2 3 4 5 6 
#
# 1 124.0362 79.2010 29.1658 0.0000 0.0000 0.0000
# 2 79.2010 156.3117 38.7209 0.0000 0.0000 0.0000
# 3 29.1658 38.7209 35.3494 0.0000 0.0000 0.0000
# 4 0.0000 0.0000 0.0000 16.2822 0.0000 0.0000
# 5 0.0000 0.0000 0.0000 0.0000 21.3352 0.0000
# 6 0.0000 0.0000 0.0000 0.0000 0.0000 26.3394
#
#
#
# Elastic Compliance Matrix: (Units=1/GPa)
#
#
# Indices 1 2 3 4 5 6 
#
# 1 0.012443 -0.005162 -0.004612 0.000000 0.000000 0.000000
# 2 -0.005162 0.010921 -0.007704 0.000000 0.000000 0.000000
# 3 -0.004612 -0.007704 0.040533 0.000000 0.000000 0.000000
# 4 0.000000 0.000000 0.000000 0.061417 0.000000 0.000000
# 5 0.000000 0.000000 0.000000 0.000000 0.046871 0.000000
# 6 0.000000 0.000000 0.000000 0.000000 0.000000 0.037966
#
#
# Mechanical properties :
#
#
# Convention : Reuss Voigt Hill
#
# Bulk Modulus (GPa) = 34.55257 67.76366 51.15812
# Shear Modulus (GPa) = 19.62681 24.03198 21.82940
#
# Velocity S-wave (km/s) = 3.33538 3.69075 3.51756
# Velocity P-wave (km/s) = 5.86668 7.52141 6.74498
#
# Compressibility (1/GPa) = 0.02894141
#
# Stress axis : x y z
#
# Youngs Moduli (GPa) = 80.36796 91.56261 24.67139
#
# Poissons Ratio (x) = 0.47266 0.11378
# Poissons Ratio (y) = 0.41488 0.19007
# Poissons Ratio (z) = 0.37063 0.70540
#
# Static dielectric constant tensor:
#      x y z
#    x 3.482480 0.000000 0.000000 
#    y 0.000000 3.274980 0.000000 
#    z 0.000000 0.000000 3.044380 
# 
# 
# High freq. dielectric constant tensor:
#      x y z
#    x 1.690900 0.000000 0.000000 
#    y 0.000000 1.670860 0.000000 
#    z 0.000000 0.000000 1.658920 
# 
# From -- ./inp_files/7537.got.cif
#   From: 2010.03.12/outbox.cif.g09.slc.cpg/sg55_4_cif.got.tgz:7537.got - 2010.04.16 15:19:21.
