data_PCOD8224836
_publ_section_title
;
Structure prediction by ZEFSAII (Michael W. Deem and Ramdas Pophale) SiO2 
 PCOD8224836
Probable space group: P B A M
;
_chemical_formula_sum "Si O2"
_cell_formula_units_Z 56
_cell_length_a 5.032715
_cell_length_b 17.523117
_cell_length_c 33.830553
_cell_angle_alpha 90.000000
_cell_angle_beta 90.000000
_cell_angle_gamma 90.000000
_cell_volume 2983.477692
_symmetry_space_group_name_H-M "P B A M"
_symmetry_group_IT_number 55
_symmetry_cell_setting 'orthorhombic'
loop_
_space_group_symop_operation_xyz
x,y,z
-x,-y,z
1/2+x,1/2-y,-z
1/2-x,1/2+y,-z
-x,-y,-z
x,y,-z
1/2-x,1/2+y,z
1/2+x,1/2-y,z
loop_
_atom_site_type_symbol
_atom_site_label
_atom_site_fract_x
_atom_site_fract_y
_atom_site_fract_z
Si Si1 0.849218 0.702058 0.814550
Si Si2 0.241617 0.949507 0.045124
Si Si3 0.144009 0.299068 0.905981
Si Si4 0.015995 0.799823 0.457821
Si Si5 0.004806 0.588864 0.251468
Si Si6 0.493546 0.410782 0.698606
Si Si7 0.585838 0.302279 0.626302
O O1 0.552317 0.729316 0.804473
O O2 0.856461 0.677548 0.860133
O O3 0.933786 0.629234 0.789377
O O4 0.281080 0.873138 0.069586
O O5 0.500000 0.000000 0.048574
O O6 0.180497 0.925879 0.000000
O O7 0.000000 0.000000 0.062445
O O8 0.353212 0.232411 0.916658
O O9 0.966973 0.844584 0.500000
O O10 0.322125 0.773867 0.457056
O O11 0.951292 0.844170 0.416856
O O12 0.291620 0.612691 0.268144
O O13 0.000000 0.500000 0.241696
O O14 0.793112 0.612561 0.284870
O O15 0.500000 0.500000 0.688779
O O16 0.546881 0.367099 0.658385
O O17 0.877638 0.266823 0.631008
#
# Coordination Sequence:
#
# PCOD8224836 Si02
#       7
#     8   8   8   8   8   8   8
#     4  10  21  36  54  77 104 132 166 212 256 294
#     4  10  21  37  57  83 113 144 181 223 263 306
#     4  10  21  37  56  81 111 142 177 216 265 320
#     4   8  14  25  41  63  91 118 147 190 237 278
#     4  10  21  36  52  71  96 131 169 201 244 302
#     4  10  21  35  49  69 100 130 158 200 250 294
#     4  10  19  30  48  73  94 120 162 200 235 288
#
# _framework density 18.770043000000001
#
# number of rings (size 3 to 8) (size 9 to 14) (size 15 to 20)
#    0.000    2.286    0.000    2.571    0.000    4.571 
#    0.000    2.143    0.000    0.429    0.000    0.000 
#    0.000   14.857    0.000    0.000    0.000    2.286 
#
# Total GULP energy -694140.294387 kJ/mol
# GULP energy per Si atom -12395.362400 kJ/mol
# Density = 1.872732 g / cm^3
# Si number density = 18.770043 Si / 1000 Ang^3
#
#
#
# Elastic Constant Matrix: (Units=GPa)
#
#
# Indices 1 2 3 4 5 6 
#
# 1 86.4922 19.7361 25.3698 0.0000 0.0000 0.0000
# 2 19.7361 66.7511 68.2549 0.0000 0.0000 0.0000
# 3 25.3698 68.2549 117.6562 0.0000 0.0000 0.0000
# 4 0.0000 0.0000 0.0000 -3.4530 0.0000 0.0000
# 5 0.0000 0.0000 0.0000 0.0000 24.8668 0.0000
# 6 0.0000 0.0000 0.0000 0.0000 0.0000 21.8221
#
#
#
# Elastic Compliance Matrix: (Units=1/GPa)
#
#
# Indices 1 2 3 4 5 6 
#
# 1 0.012485 -0.002307 -0.001354 0.000000 0.000000 0.000000
# 2 -0.002307 0.037252 -0.021113 0.000000 0.000000 0.000000
# 3 -0.001354 -0.021113 0.021039 0.000000 0.000000 0.000000
# 4 0.000000 0.000000 0.000000 -0.289602 0.000000 0.000000
# 5 0.000000 0.000000 0.000000 0.000000 0.040214 0.000000
# 6 0.000000 0.000000 0.000000 0.000000 0.000000 0.045825
#
#
# Mechanical properties :
#
#
# Convention : Reuss Voigt Hill
#
# Bulk Modulus (GPa) = 47.10668 55.29122 51.19895
# Shear Modulus (GPa) = -65.65016 19.14976 -23.25020
#
# Velocity S-wave (km/s) = -5.92047 3.19757 -3.52332
# Velocity P-wave (km/s) = 4.64594 6.56915 3.28397
#
# Compressibility (1/GPa) = 0.02122841
#
# Stress axis : x y z
#
# Youngs Moduli (GPa) = 80.09435 26.84419 47.52991
#
# Poissons Ratio (x) = 0.06194 0.06433
# Poissons Ratio (y) = 0.18481 1.00351
# Poissons Ratio (z) = 0.10841 0.56677
#
# Static dielectric constant tensor:
#      x y z
#    x 3.811690 0.000000 0.000000 
#    y 0.000000 3.008740 0.000000 
#    z 0.000000 0.000000 3.665550 
# 
# 
# High freq. dielectric constant tensor:
#      x y z
#    x 1.755580 0.000000 0.000000 
#    y 0.000000 1.686080 0.000000 
#    z 0.000000 0.000000 1.740690 
# 
# From -- ./inp_files/24075.got.cif
#   From: 2010.03.12/outbox.cif.g09.slc.cpg/sg55_13_cif.got.tgz:24075.got - 2010.04.16 15:19:21.
