data_PCOD8224963
_publ_section_title
;
Structure prediction by ZEFSAII (Michael W. Deem and Ramdas Pophale) SiO2 
 PCOD8224963
Probable space group: P B A M
;
_chemical_formula_sum "Si O2"
_cell_formula_units_Z 64
_cell_length_a 15.503534
_cell_length_b 22.605878
_cell_length_c 9.121457
_cell_angle_alpha 90.000000
_cell_angle_beta 90.000000
_cell_angle_gamma 90.000000
_cell_volume 3196.806140
_symmetry_space_group_name_H-M "P B A M"
_symmetry_group_IT_number 55
_symmetry_cell_setting 'orthorhombic'
loop_
_space_group_symop_operation_xyz
x,y,z
-x,-y,z
1/2+x,1/2-y,-z
1/2-x,1/2+y,-z
-x,-y,-z
x,y,-z
1/2-x,1/2+y,z
1/2+x,1/2-y,z
loop_
_atom_site_type_symbol
_atom_site_label
_atom_site_fract_x
_atom_site_fract_y
_atom_site_fract_z
Si Si1 0.825121 0.069213 0.831654
Si Si2 0.167734 0.048051 0.335898
Si Si3 0.007949 0.568540 0.828310
Si Si4 0.489665 0.569870 0.840540
Si Si5 0.570010 0.180790 0.324761
Si Si6 0.839631 0.387696 0.339819
Si Si7 0.746097 0.189863 0.829574
Si Si8 0.392367 0.241763 0.664452
O O1 0.752829 0.118892 0.811150
O O2 0.918969 0.095127 0.781516
O O3 0.799759 0.011209 0.742788
O O4 0.833864 0.049283 0.000000
O O5 0.144363 0.029767 0.500000
O O6 0.086772 0.083548 0.270408
O O7 0.241534 0.095555 0.322090
O O8 0.106427 0.584432 0.792398
O O9 0.000000 0.500000 0.779910
O O10 0.947147 0.614619 0.739418
O O11 0.988192 0.576490 0.000000
O O12 0.500000 0.500000 0.851443
O O13 0.466966 0.596935 0.000000
O O14 0.577792 0.175521 0.500000
O O15 0.659049 0.207702 0.258343
O O16 0.490749 0.225551 0.282671
O O17 0.876302 0.408347 0.500000
O O18 0.837856 0.317706 0.333588
O O19 0.836778 0.215749 0.769605
O O20 0.736683 0.207930 0.000000
O O21 0.395769 0.268817 0.500000
#
# Coordination Sequence:
#
# PCOD8224963 Si02
#       8
#     8   8   8   8   8   8   8   8
#     4   9  20  36  52  76 114 151 182 227 287 344
#     4  10  19  31  52  83 113 143 187 235 275 332
#     4  10  21  35  55  86 120 152 190 236 287 345
#     4   8  15  31  50  68 101 147 181 214 273 336
#     4  10  22  41  64  87 118 158 196 241 297 356
#     4   9  20  37  55  79 112 150 190 235 285 346
#     4  11  23  39  62  90 120 151 194 249 295 349
#     4   9  20  42  63  80 111 152 195 240 291 345
#
# _framework density 20.01998
#
# number of rings (size 3 to 8) (size 9 to 14) (size 15 to 20)
#    0.000    2.500    0.000    3.000    1.750    7.750 
#    2.250    0.000    0.000    0.000    0.000    0.000 
#    0.000    0.000    0.000    0.000    0.000    0.000 
#
# Total GULP energy -793004.094405 kJ/mol
# GULP energy per Si atom -12390.688975 kJ/mol
# Density = 1.997441 g / cm^3
# Si number density = 20.019980 Si / 1000 Ang^3
#
#
#
# Elastic Constant Matrix: (Units=GPa)
#
#
# Indices 1 2 3 4 5 6 
#
# 1 103.6028 28.4867 48.6097 0.0000 0.0000 0.0000
# 2 28.4867 30.6983 21.4328 0.0000 0.0000 0.0000
# 3 48.6097 21.4328 89.7983 0.0000 0.0000 0.0000
# 4 0.0000 0.0000 0.0000 13.0770 0.0000 0.0000
# 5 0.0000 0.0000 0.0000 0.0000 35.2687 0.0000
# 6 0.0000 0.0000 0.0000 0.0000 0.0000 26.3951
#
#
#
# Elastic Compliance Matrix: (Units=1/GPa)
#
#
# Indices 1 2 3 4 5 6 
#
# 1 0.015118 -0.009978 -0.005802 0.000000 0.000000 0.000000
# 2 -0.009978 0.045674 -0.005500 0.000000 0.000000 0.000000
# 3 -0.005802 -0.005500 0.015590 0.000000 0.000000 0.000000
# 4 0.000000 0.000000 0.000000 0.076470 0.000000 0.000000
# 5 0.000000 0.000000 0.000000 0.000000 0.028354 0.000000
# 6 0.000000 0.000000 0.000000 0.000000 0.000000 0.037886
#
#
# Mechanical properties :
#
#
# Convention : Reuss Voigt Hill
#
# Bulk Modulus (GPa) = 29.56703 46.79530 38.18116
# Shear Modulus (GPa) = 18.31993 23.31950 20.81971
#
# Velocity S-wave (km/s) = 3.02831 3.41664 3.22832
# Velocity P-wave (km/s) = 5.19889 6.24416 5.74535
#
# Compressibility (1/GPa) = 0.03382146
#
# Stress axis : x y z
#
# Youngs Moduli (GPa) = 66.14549 21.89413 64.14492
#
# Poissons Ratio (x) = 0.21846 0.37219
# Poissons Ratio (y) = 0.66000 0.35280
# Poissons Ratio (z) = 0.38379 0.12042
#
# Static dielectric constant tensor:
#      x y z
#    x 4.086970 0.000000 0.000000 
#    y 0.000000 3.489530 0.000000 
#    z 0.000000 0.000000 3.769810 
# 
# 
# High freq. dielectric constant tensor:
#      x y z
#    x 1.789090 0.000000 0.000000 
#    y 0.000000 1.755790 0.000000 
#    z 0.000000 0.000000 1.783110 
# 
# From -- ./inp_files/6510.got.cif
#   From: 2010.03.12/outbox.cif.g09.slc.cpg/sg55_4_cif.got.tgz:6510.got - 2010.04.16 15:19:21.
