data_PCOD8224818
_publ_section_title
;
Structure prediction by ZEFSAII (Michael W. Deem and Ramdas Pophale) SiO2 
 PCOD8224818
Probable space group: P B A M
;
_chemical_formula_sum "Si O2"
_cell_formula_units_Z 64
_cell_length_a 33.246843
_cell_length_b 11.687606
_cell_length_c 9.425650
_cell_angle_alpha 90.000000
_cell_angle_beta 90.000000
_cell_angle_gamma 90.000000
_cell_volume 3662.581391
_symmetry_space_group_name_H-M "P B A M"
_symmetry_group_IT_number 55
_symmetry_cell_setting 'orthorhombic'
loop_
_space_group_symop_operation_xyz
x,y,z
-x,-y,z
1/2+x,1/2-y,-z
1/2-x,1/2+y,-z
-x,-y,-z
x,y,-z
1/2-x,1/2+y,z
1/2+x,1/2-y,z
loop_
_atom_site_type_symbol
_atom_site_label
_atom_site_fract_x
_atom_site_fract_y
_atom_site_fract_z
Si Si1 0.213980 0.396686 0.830899
Si Si2 0.863457 0.474135 0.168257
Si Si3 0.802407 0.060510 0.168004
Si Si4 0.374252 0.280937 0.832245
Si Si5 0.831859 0.821243 0.168266
Si Si6 0.468528 0.661928 0.663691
Si Si7 0.589357 0.194203 0.832772
Si Si8 0.942656 0.089826 0.335693
O O1 0.180616 0.487388 0.774814
O O2 0.257927 0.422631 0.766225
O O3 0.201276 0.270158 0.779502
O O4 0.215385 0.401133 0.000000
O O5 0.874843 0.348926 0.227083
O O6 0.897590 0.565851 0.213771
O O7 0.860890 0.470180 0.000000
O O8 0.830869 0.166582 0.208227
O O9 0.821347 0.944681 0.233779
O O10 0.798908 0.048217 0.000000
O O11 0.408764 0.354320 0.760080
O O12 0.381676 0.285890 0.000000
O O13 0.875978 0.782044 0.217568
O O14 0.831508 0.825870 0.000000
O O15 0.459372 0.685706 0.500000
O O16 0.451207 0.767649 0.754217
O O17 0.448305 0.542046 0.710067
O O18 0.516064 0.657825 0.691483
O O19 0.581828 0.199662 0.000000
O O20 0.930259 0.098036 0.500000
#
# Coordination Sequence:
#
# PCOD8224818 Si02
#       8
#     8   8   8   8   8   8   8   8
#     4   8  14  23  36  56  89 127 153 184 234 276
#     4   8  16  29  43  63  98 134 158 189 237 284
#     4   9  16  22  36  62  90 119 153 195 232 268
#     4  10  19  30  46  71  98 125 161 199 232 277
#     4   8  14  23  35  57  87 116 150 188 226 271
#     4   9  18  33  53  73  93 118 154 196 235 286
#     4   9  16  29  48  68  93 126 157 192 238 279
#     4   9  19  35  51  70  97 125 150 188 244 291
#
# _framework density 17.474014
#
# number of rings (size 3 to 8) (size 9 to 14) (size 15 to 20)
#    0.000    3.250    0.000    3.000    1.750    2.000 
#    0.000    2.500    0.000    3.750    0.000    4.375 
#    0.000    0.000    0.000    0.000    0.000    0.000 
#
# Total GULP energy -793224.269129 kJ/mol
# GULP energy per Si atom -12394.129205 kJ/mol
# Density = 1.743424 g / cm^3
# Si number density = 17.474014 Si / 1000 Ang^3
#
#
#
# Elastic Constant Matrix: (Units=GPa)
#
#
# Indices 1 2 3 4 5 6 
#
# 1 81.4761 28.2100 26.5440 0.0000 0.0000 0.0000
# 2 28.2100 82.5024 18.8196 0.0000 0.0000 0.0000
# 3 26.5440 18.8196 23.9863 0.0000 0.0000 0.0000
# 4 0.0000 0.0000 0.0000 13.6770 0.0000 0.0000
# 5 0.0000 0.0000 0.0000 0.0000 2.4066 0.0000
# 6 0.0000 0.0000 0.0000 0.0000 0.0000 26.9195
#
#
#
# Elastic Compliance Matrix: (Units=1/GPa)
#
#
# Indices 1 2 3 4 5 6 
#
# 1 0.019494 -0.002125 -0.019906 0.000000 0.000000 0.000000
# 2 -0.002125 0.014995 -0.009413 0.000000 0.000000 0.000000
# 3 -0.019906 -0.009413 0.071105 0.000000 0.000000 0.000000
# 4 0.000000 0.000000 0.000000 0.073116 0.000000 0.000000
# 5 0.000000 0.000000 0.000000 0.000000 0.415530 0.000000
# 6 0.000000 0.000000 0.000000 0.000000 0.000000 0.037148
#
#
# Mechanical properties :
#
#
# Convention : Reuss Voigt Hill
#
# Bulk Modulus (GPa) = 23.41615 37.23466 30.32541
# Shear Modulus (GPa) = 7.05706 16.22668 11.64187
#
# Velocity S-wave (km/s) = 2.01181 3.05063 2.58396
# Velocity P-wave (km/s) = 4.33891 5.81062 5.12784
#
# Compressibility (1/GPa) = 0.04270556
#
# Stress axis : x y z
#
# Youngs Moduli (GPa) = 51.29672 66.69023 14.06375
#
# Poissons Ratio (x) = 0.14172 0.27995
# Poissons Ratio (y) = 0.10900 0.13239
# Poissons Ratio (z) = 1.02111 0.62777
#
# Static dielectric constant tensor:
#      x y z
#    x 3.320080 0.000000 0.000000 
#    y 0.000000 3.539990 0.000000 
#    z 0.000000 0.000000 2.653520 
# 
# 
# High freq. dielectric constant tensor:
#      x y z
#    x 1.678780 0.000000 0.000000 
#    y 0.000000 1.680530 0.000000 
#    z 0.000000 0.000000 1.611730 
# 
# From -- ./inp_files/16061.got.cif
#   From: 2010.03.12/outbox.cif.g09.slc.cpg/sg55_9_cif.got.tgz:16061.got - 2010.04.16 15:19:21.
