data_PCOD8224756
_publ_section_title
;
Structure prediction by ZEFSAII (Michael W. Deem and Ramdas Pophale) SiO2 
 PCOD8224756
Probable space group: P B A M
;
_chemical_formula_sum "Si O2"
_cell_formula_units_Z 56
_cell_length_a 17.705718
_cell_length_b 13.695965
_cell_length_c 11.118678
_cell_angle_alpha 90.000000
_cell_angle_beta 90.000000
_cell_angle_gamma 90.000000
_cell_volume 2696.244881
_symmetry_space_group_name_H-M "P B A M"
_symmetry_group_IT_number 55
_symmetry_cell_setting 'orthorhombic'
loop_
_space_group_symop_operation_xyz
x,y,z
-x,-y,z
1/2+x,1/2-y,-z
1/2-x,1/2+y,-z
-x,-y,-z
x,y,-z
1/2-x,1/2+y,z
1/2+x,1/2-y,z
loop_
_atom_site_type_symbol
_atom_site_label
_atom_site_fract_x
_atom_site_fract_y
_atom_site_fract_z
Si Si1 0.033830 0.684208 0.132559
Si Si2 0.131874 0.672718 0.633510
Si Si3 0.840347 0.838635 0.137501
Si Si4 0.764294 0.473614 0.262863
Si Si5 0.136751 0.375183 0.135479
Si Si6 0.502584 0.395265 0.191741
Si Si7 0.867923 0.104466 0.364945
O O1 0.080963 0.648432 0.248603
O O2 0.047801 0.362185 0.154730
O O3 0.030402 0.802235 0.120369
O O4 0.065012 0.648976 0.000000
O O5 0.092500 0.659941 0.500000
O O6 0.202945 0.598629 0.634884
O O7 0.159851 0.783702 0.644952
O O8 0.766292 0.903888 0.156351
O O9 0.820588 0.726215 0.166636
O O10 0.909615 0.873381 0.223127
O O11 0.868932 0.847492 0.000000
O O12 0.833347 0.540363 0.220952
O O13 0.695132 0.539135 0.303390
O O14 0.155491 0.406316 0.000000
O O15 0.500000 0.500000 0.120837
O O16 0.451345 0.409166 0.310012
O O17 0.875334 0.068533 0.500000
#
# Coordination Sequence:
#
# PCOD8224756 Si02
#       7
#     8   8   8   8   8   8   8
#     4   9  20  39  63  86 117 156 198 250 297 348
#     4  10  23  42  62  86 120 155 197 250 297 352
#     4  10  21  36  55  85 123 153 190 244 297 353
#     4  12  21  37  58  86 113 160 199 239 291 357
#     4   9  20  38  58  85 120 154 192 244 299 354
#     4  10  18  36  57  88 113 151 194 246 297 349
#     4  10  22  40  58  83 117 154 200 248 297 354
#
# _framework density 20.769627
#
# number of rings (size 3 to 8) (size 9 to 14) (size 15 to 20)
#    0.000    2.000    1.429    3.000    0.000    3.143 
#    0.000    5.714    0.000    1.714    0.000    0.000 
#    0.000    0.000    0.000    0.000    0.000    0.000 
#
# Total GULP energy -693752.786058 kJ/mol
# GULP energy per Si atom -12388.442608 kJ/mol
# Density = 2.072235 g / cm^3
# Si number density = 20.769627 Si / 1000 Ang^3
#
#
#
# Elastic Constant Matrix: (Units=GPa)
#
#
# Indices 1 2 3 4 5 6 
#
# 1 67.0049 45.2522 43.7226 0.0000 0.0000 0.0000
# 2 45.2522 106.0447 38.0396 0.0000 0.0000 0.0000
# 3 43.7226 38.0396 116.3087 0.0000 0.0000 0.0000
# 4 0.0000 0.0000 0.0000 9.6087 0.0000 0.0000
# 5 0.0000 0.0000 0.0000 0.0000 22.7926 0.0000
# 6 0.0000 0.0000 0.0000 0.0000 0.0000 29.4500
#
#
#
# Elastic Compliance Matrix: (Units=1/GPa)
#
#
# Indices 1 2 3 4 5 6 
#
# 1 0.024793 -0.008199 -0.006639 0.000000 0.000000 0.000000
# 2 -0.008199 0.013394 -0.001299 0.000000 0.000000 0.000000
# 3 -0.006639 -0.001299 0.011518 0.000000 0.000000 0.000000
# 4 0.000000 0.000000 0.000000 0.104072 0.000000 0.000000
# 5 0.000000 0.000000 0.000000 0.000000 0.043874 0.000000
# 6 0.000000 0.000000 0.000000 0.000000 0.000000 0.033956
#
#
# Mechanical properties :
#
#
# Convention : Reuss Voigt Hill
#
# Bulk Modulus (GPa) = 57.36039 60.37632 58.86835
# Shear Modulus (GPa) = 18.53973 23.19320 20.86646
#
# Velocity S-wave (km/s) = 2.99094 3.34531 3.17308
# Velocity P-wave (km/s) = 6.29325 6.63733 6.46758
#
# Compressibility (1/GPa) = 0.01743363
#
# Stress axis : x y z
#
# Youngs Moduli (GPa) = 40.33357 74.65811 86.81882
#
# Poissons Ratio (x) = 0.61209 0.57638
# Poissons Ratio (y) = 0.33068 0.11276
# Poissons Ratio (z) = 0.26777 0.09696
#
# Static dielectric constant tensor:
#      x y z
#    x 3.601130 0.000000 0.000000 
#    y 0.000000 4.007750 0.000000 
#    z 0.000000 0.000000 3.637830 
# 
# 
# High freq. dielectric constant tensor:
#      x y z
#    x 1.798450 0.000000 0.000000 
#    y 0.000000 1.833430 0.000000 
#    z 0.000000 0.000000 1.793290 
# 
# From -- ./inp_files/15328.got.cif
#   From: 2010.03.12/outbox.cif.g09.slc.cpg/sg55_8_cif.got.tgz:15328.got - 2010.04.16 15:19:21.
