data_PCOD8224311
_publ_section_title
;
Structure prediction by ZEFSAII (Michael W. Deem and Ramdas Pophale) SiO2 
 PCOD8224311
Probable space group: P B A M
;
_chemical_formula_sum "Si O2"
_cell_formula_units_Z 48
_cell_length_a 10.122793
_cell_length_b 23.982821
_cell_length_c 12.689658
_cell_angle_alpha 90.000000
_cell_angle_beta 90.000000
_cell_angle_gamma 90.000000
_cell_volume 3080.708024
_symmetry_space_group_name_H-M "P B A M"
_symmetry_group_IT_number 55
_symmetry_cell_setting 'orthorhombic'
loop_
_space_group_symop_operation_xyz
x,y,z
-x,-y,z
1/2+x,1/2-y,-z
1/2-x,1/2+y,-z
-x,-y,-z
x,y,-z
1/2-x,1/2+y,z
1/2+x,1/2-y,z
loop_
_atom_site_type_symbol
_atom_site_label
_atom_site_fract_x
_atom_site_fract_y
_atom_site_fract_z
Si Si1 0.706771 0.358502 0.879978
Si Si2 0.388765 0.737583 0.261556
Si Si3 0.122139 0.724163 0.376600
Si Si4 0.393257 0.951793 0.121378
Si Si5 0.015967 0.655456 0.205986
Si Si6 0.141986 0.018666 0.874757
O O1 0.619782 0.316153 0.812035
O O2 0.863259 0.345385 0.876926
O O3 0.679168 0.419968 0.832977
O O4 0.658669 0.353808 0.000000
O O5 0.257395 0.747562 0.328953
O O6 0.509302 0.730590 0.345185
O O7 0.418459 0.791571 0.186638
O O8 0.134692 0.715440 0.500000
O O9 0.081976 0.664414 0.322676
O O10 0.431678 0.900782 0.197268
O O11 0.252531 0.974525 0.162251
O O12 0.500000 0.000000 0.132674
O O13 0.386296 0.931256 0.000000
O O14 0.141178 0.020213 0.000000
O O15 0.000000 0.000000 0.829327
#
# Coordination Sequence:
#
# PCOD8224311 Si02
#       6
#     8   8   8   8   8   8
#     4  10  18  32  48  70 112 141 161 206 252 298
#     4   9  20  32  51  78  97 131 170 203 258 314
#     4   9  18  35  54  73  99 127 166 219 262 302
#     4  10  17  29  51  71  95 136 175 203 240 296
#     4   9  19  31  49  76  98 127 175 207 248 305
#     4   9  18  30  46  69  96 135 177 206 238 282
#
# _framework density 15.580835
#
# number of rings (size 3 to 8) (size 9 to 14) (size 15 to 20)
#    1.000    1.667    1.667    1.000    0.000    2.667 
#    0.000    0.000    0.000    0.500    0.000    0.000 
#    0.000    6.000    0.000    0.000    0.000    0.000 
#
# Total GULP energy -594746.752442 kJ/mol
# GULP energy per Si atom -12390.557343 kJ/mol
# Density = 1.554537 g / cm^3
# Si number density = 15.580835 Si / 1000 Ang^3
#
#
#
# Elastic Constant Matrix: (Units=GPa)
#
#
# Indices 1 2 3 4 5 6 
#
# 1 119.3541 45.7957 32.9216 0.0000 0.0000 0.0000
# 2 45.7957 104.0401 38.7385 0.0000 0.0000 0.0000
# 3 32.9216 38.7385 56.5536 0.0000 0.0000 0.0000
# 4 0.0000 0.0000 0.0000 10.2399 0.0000 0.0000
# 5 0.0000 0.0000 0.0000 0.0000 16.7795 0.0000
# 6 0.0000 0.0000 0.0000 0.0000 0.0000 28.6813
#
#
#
# Elastic Compliance Matrix: (Units=1/GPa)
#
#
# Indices 1 2 3 4 5 6 
#
# 1 0.010728 -0.003217 -0.004041 0.000000 0.000000 0.000000
# 2 -0.003217 0.013867 -0.007626 0.000000 0.000000 0.000000
# 3 -0.004041 -0.007626 0.025258 0.000000 0.000000 0.000000
# 4 0.000000 0.000000 0.000000 0.097657 0.000000 0.000000
# 5 0.000000 0.000000 0.000000 0.000000 0.059596 0.000000
# 6 0.000000 0.000000 0.000000 0.000000 0.000000 0.034866
#
#
# Mechanical properties :
#
#
# Convention : Reuss Voigt Hill
#
# Bulk Modulus (GPa) = 49.78938 57.20659 53.49799
# Shear Modulus (GPa) = 17.95743 21.97295 19.96519
#
# Velocity S-wave (km/s) = 3.39858 3.75941 3.58354
# Velocity P-wave (km/s) = 6.88661 7.45922 7.17862
#
# Compressibility (1/GPa) = 0.02008460
#
# Stress axis : x y z
#
# Youngs Moduli (GPa) = 93.21786 72.11172 39.59066
#
# Poissons Ratio (x) = 0.23201 0.15999
# Poissons Ratio (y) = 0.29991 0.30192
# Poissons Ratio (z) = 0.37669 0.54993
#
# Static dielectric constant tensor:
#      x y z
#    x 3.157390 0.000000 0.000000 
#    y 0.000000 2.905260 0.000000 
#    z 0.000000 0.000000 2.622310 
# 
# 
# High freq. dielectric constant tensor:
#      x y z
#    x 1.612590 0.000000 0.000000 
#    y 0.000000 1.588370 0.000000 
#    z 0.000000 0.000000 1.556680 
# 
# From -- ./inp_files/13287.got.cif
#   From: 2010.03.12/outbox.cif.g09.slc.cpg/sg55_7_cif.got.tgz:13287.got - 2010.04.16 15:19:21.
