data_PCOD8224578
_publ_section_title
;
Structure prediction by ZEFSAII (Michael W. Deem and Ramdas Pophale) SiO2 
 PCOD8224578
Probable space group: P B A M
;
_chemical_formula_sum "Si O2"
_cell_formula_units_Z 64
_cell_length_a 15.352264
_cell_length_b 25.195105
_cell_length_c 8.687345
_cell_angle_alpha 90.000000
_cell_angle_beta 90.000000
_cell_angle_gamma 90.000000
_cell_volume 3360.281582
_symmetry_space_group_name_H-M "P B A M"
_symmetry_group_IT_number 55
_symmetry_cell_setting 'orthorhombic'
loop_
_space_group_symop_operation_xyz
x,y,z
-x,-y,z
1/2+x,1/2-y,-z
1/2-x,1/2+y,-z
-x,-y,-z
x,y,-z
1/2-x,1/2+y,z
1/2+x,1/2-y,z
loop_
_atom_site_type_symbol
_atom_site_label
_atom_site_fract_x
_atom_site_fract_y
_atom_site_fract_z
Si Si1 0.775203 0.759851 0.181231
Si Si2 0.677721 0.552816 0.816808
Si Si3 0.819814 0.362398 0.818374
Si Si4 0.004963 0.334127 0.182522
Si Si5 0.966281 0.781118 0.182394
Si Si6 0.196314 0.355576 0.816626
Si Si7 0.679359 0.439506 0.680797
Si Si8 0.001397 0.104172 0.817366
O O1 0.701268 0.801490 0.230510
O O2 0.866447 0.784077 0.238473
O O3 0.761984 0.699972 0.246237
O O4 0.777953 0.753796 0.000000
O O5 0.747285 0.595651 0.752752
O O6 0.702722 0.497794 0.739671
O O7 0.581243 0.570129 0.762787
O O8 0.682283 0.547333 0.000000
O O9 0.921520 0.370021 0.770997
O O10 0.760499 0.402825 0.726026
O O11 0.803888 0.371177 0.000000
O O12 0.992763 0.273736 0.247486
O O13 0.095606 0.359922 0.242020
O O14 0.009925 0.329706 0.000000
O O15 0.012089 0.835085 0.242891
O O16 0.972977 0.780585 0.000000
O O17 0.199365 0.356803 0.000000
O O18 0.668492 0.439527 0.500000
O O19 0.589266 0.420691 0.753079
O O20 0.009825 0.103281 0.000000
#
# Coordination Sequence:
#
# PCOD8224578 Si02
#       8
#     8   8   8   8   8   8   8   8
#     4   8  13  23  45  77 111 137 159 202 258 311
#     4  10  21  35  56  80 106 139 180 225 268 317
#     4  10  18  31  55  83 108 139 177 216 262 314
#     4   8  15  26  48  83 118 140 163 208 265 318
#     4   8  13  24  44  78 115 136 157 199 254 312
#     4   8  15  29  48  81 116 137 165 215 270 315
#     4  12  25  39  53  71 104 145 186 228 269 313
#     4  10  19  33  55  83 109 138 174 216 266 323
#
# _framework density 19.046022000000001
#
# number of rings (size 3 to 8) (size 9 to 14) (size 15 to 20)
#    0.000    2.750    1.250    3.000    1.750    2.000 
#    0.000    0.625    0.000    6.000    0.000    0.000 
#    0.000    0.000    0.000    0.000    0.000    0.000 
#
# Total GULP energy -792952.930959 kJ/mol
# GULP energy per Si atom -12389.889546 kJ/mol
# Density = 1.900267 g / cm^3
# Si number density = 19.046022 Si / 1000 Ang^3
#
#
#
# Elastic Constant Matrix: (Units=GPa)
#
#
# Indices 1 2 3 4 5 6 
#
# 1 120.1431 71.0813 16.8640 0.0000 0.0000 0.0000
# 2 71.0813 118.8766 13.6611 0.0000 0.0000 0.0000
# 3 16.8640 13.6611 15.0995 0.0000 0.0000 0.0000
# 4 0.0000 0.0000 0.0000 -4.5485 0.0000 0.0000
# 5 0.0000 0.0000 0.0000 0.0000 3.6149 0.0000
# 6 0.0000 0.0000 0.0000 0.0000 0.0000 26.7270
#
#
#
# Elastic Compliance Matrix: (Units=1/GPa)
#
#
# Indices 1 2 3 4 5 6 
#
# 1 0.013879 -0.007274 -0.008920 0.000000 0.000000 0.000000
# 2 -0.007274 0.013200 -0.003819 0.000000 0.000000 0.000000
# 3 -0.008920 -0.003819 0.079645 0.000000 0.000000 0.000000
# 4 0.000000 0.000000 0.000000 -0.219851 0.000000 0.000000
# 5 0.000000 0.000000 0.000000 0.000000 0.276629 0.000000
# 6 0.000000 0.000000 0.000000 0.000000 0.000000 0.037415
#
#
# Mechanical properties :
#
#
# Convention : Reuss Voigt Hill
#
# Bulk Modulus (GPa) = 14.99280 50.81467 32.90374
# Shear Modulus (GPa) = 18.99870 15.32619 17.16245
#
# Velocity S-wave (km/s) = 3.16177 2.83979 3.00510
# Velocity P-wave (km/s) = 4.60631 6.12294 5.41795
#
# Compressibility (1/GPa) = 0.06669867
#
# Stress axis : x y z
#
# Youngs Moduli (GPa) = 72.05197 75.75635 12.55572
#
# Poissons Ratio (x) = 0.55103 0.11200
# Poissons Ratio (y) = 0.52408 0.04795
# Poissons Ratio (z) = 0.64270 0.28932
#
# Static dielectric constant tensor:
#      x y z
#    x 3.733980 0.000000 0.000000 
#    y 0.000000 3.783490 0.000000 
#    z 0.000000 0.000000 2.853170 
# 
# 
# High freq. dielectric constant tensor:
#      x y z
#    x 1.744990 0.000000 0.000000 
#    y 0.000000 1.744160 0.000000 
#    z 0.000000 0.000000 1.671180 
# 
# From -- ./inp_files/6572.got.cif
#   From: 2010.03.12/outbox.cif.g09.slc.cpg/sg55_4_cif.got.tgz:6572.got - 2010.04.16 15:19:21.
