data_PCOD8224587
_publ_section_title
;
Structure prediction by ZEFSAII (Michael W. Deem and Ramdas Pophale) SiO2 
 PCOD8224587
Probable space group: P B A M
;
_chemical_formula_sum "Si O2"
_cell_formula_units_Z 52
_cell_length_a 7.267862
_cell_length_b 24.619088
_cell_length_c 13.302422
_cell_angle_alpha 90.000000
_cell_angle_beta 90.000000
_cell_angle_gamma 90.000000
_cell_volume 2380.177548
_symmetry_space_group_name_H-M "P B A M"
_symmetry_group_IT_number 55
_symmetry_cell_setting 'orthorhombic'
loop_
_space_group_symop_operation_xyz
x,y,z
-x,-y,z
1/2+x,1/2-y,-z
1/2-x,1/2+y,-z
-x,-y,-z
x,y,-z
1/2-x,1/2+y,z
1/2+x,1/2-y,z
loop_
_atom_site_type_symbol
_atom_site_label
_atom_site_fract_x
_atom_site_fract_y
_atom_site_fract_z
Si Si1 0.692331 0.164541 0.500000
Si Si2 0.786788 0.292423 0.109818
Si Si3 0.872700 0.612910 0.703652
Si Si4 0.778182 0.844032 0.693989
Si Si5 0.127367 0.046728 0.610626
Si Si6 0.209798 0.715780 0.500000
Si Si7 0.704305 0.172588 0.890362
Si Si8 0.500000 0.000000 0.659475
O O1 0.731947 0.126688 0.401777
O O2 0.818306 0.218947 0.500000
O O3 0.484730 0.186075 0.500000
O O4 0.661586 0.318168 0.198981
O O5 0.811249 0.228505 0.130018
O O6 0.986636 0.318102 0.108445
O O7 0.690866 0.301903 0.000000
O O8 0.061305 0.645825 0.699084
O O9 0.905963 0.548629 0.722803
O O10 0.749149 0.632095 0.798411
O O11 0.888047 0.900461 0.680617
O O12 0.819648 0.803450 0.600563
O O13 0.052298 0.061648 0.500000
O O14 0.338516 0.027611 0.594861
O O15 0.000000 0.000000 0.659747
O O16 0.761789 0.148372 0.000000
#
# Coordination Sequence:
#
# PCOD8224587 Si02
#       8
#     4   8   8   8   8   4   8   4
#     4  10  20  31  46  70 103 127 164 198 250 312
#     4   9  17  30  51  73  97 133 168 205 258 309
#     4   9  19  32  50  73  95 135 170 206 254 312
#     4   9  17  32  51  67 102 135 160 206 261 305
#     4  10  20  35  54  79 104 136 182 219 256 312
#     4  10  18  32  45  68 100 133 154 199 257 304
#     4   9  17  32  50  73 101 129 169 211 251 310
#     4  10  21  36  57  72 106 142 177 219 268 306
#
# _framework density 21.847109
#
# number of rings (size 3 to 8) (size 9 to 14) (size 15 to 20)
#    0.000    2.615    0.769    1.154    4.308    0.000 
#    5.538    0.385    0.000    1.385    0.000    0.000 
#    0.000    0.000    0.000    0.000    0.000    0.000 
#
# Total GULP energy -644375.010428 kJ/mol
# GULP energy per Si atom -12391.827124 kJ/mol
# Density = 2.179738 g / cm^3
# Si number density = 21.847109 Si / 1000 Ang^3
#
#
#
# Elastic Constant Matrix: (Units=GPa)
#
#
# Indices 1 2 3 4 5 6 
#
# 1 19.9317 -2.8412 3.7051 0.0000 0.0000 0.0000
# 2 -2.8412 99.3765 66.6713 0.0000 0.0000 0.0000
# 3 3.7051 66.6713 181.1682 0.0000 0.0000 0.0000
# 4 0.0000 0.0000 0.0000 16.2994 0.0000 0.0000
# 5 0.0000 0.0000 0.0000 0.0000 8.1251 0.0000
# 6 0.0000 0.0000 0.0000 0.0000 0.0000 23.3147
#
#
#
# Elastic Compliance Matrix: (Units=1/GPa)
#
#
# Indices 1 2 3 4 5 6 
#
# 1 0.050969 0.002864 -0.002096 0.000000 0.000000 0.000000
# 2 0.002864 0.013523 -0.005035 0.000000 0.000000 0.000000
# 3 -0.002096 -0.005035 0.007416 0.000000 0.000000 0.000000
# 4 0.000000 0.000000 0.000000 0.061352 0.000000 0.000000
# 5 0.000000 0.000000 0.000000 0.000000 0.123076 0.000000
# 6 0.000000 0.000000 0.000000 0.000000 0.000000 0.042891
#
#
# Mechanical properties :
#
#
# Convention : Reuss Voigt Hill
#
# Bulk Modulus (GPa) = 15.77984 48.39411 32.08698
# Shear Modulus (GPa) = 15.20284 25.07723 20.14004
#
# Velocity S-wave (km/s) = 2.64081 3.39167 3.03951
# Velocity P-wave (km/s) = 4.06657 6.12677 5.19972
#
# Compressibility (1/GPa) = 0.06337199
#
# Stress axis : x y z
#
# Youngs Moduli (GPa) = 19.61970 73.95058 134.85256
#
# Poissons Ratio (x) = -0.21176 0.28268
# Poissons Ratio (y) = -0.05618 0.67898
# Poissons Ratio (z) = 0.04113 0.37234
#
# Static dielectric constant tensor:
#      x y z
#    x 3.626790 0.000000 0.000000 
#    y 0.000000 3.928870 0.000000 
#    z 0.000000 0.000000 4.427310 
# 
# 
# High freq. dielectric constant tensor:
#      x y z
#    x 1.846180 0.000000 0.000000 
#    y 0.000000 1.842670 0.000000 
#    z 0.000000 0.000000 1.847920 
# 
# From -- ./inp_files/17593.got.cif
#   From: 2010.03.12/outbox.cif.g09.slc.cpg/sg55_9_cif.got.tgz:17593.got - 2010.04.16 15:19:21.
