data_PCOD8224834
_publ_section_title
;
Structure prediction by ZEFSAII (Michael W. Deem and Ramdas Pophale) SiO2 
 PCOD8224834
Probable space group: P B A M
;
_chemical_formula_sum "Si O2"
_cell_formula_units_Z 44
_cell_length_a 4.996150
_cell_length_b 17.836718
_cell_length_c 27.274171
_cell_angle_alpha 90.000000
_cell_angle_beta 90.000000
_cell_angle_gamma 90.000000
_cell_volume 2430.535530
_symmetry_space_group_name_H-M "P B A M"
_symmetry_group_IT_number 55
_symmetry_cell_setting 'orthorhombic'
loop_
_space_group_symop_operation_xyz
x,y,z
-x,-y,z
1/2+x,1/2-y,-z
1/2-x,1/2+y,-z
-x,-y,-z
x,y,-z
1/2-x,1/2+y,z
1/2+x,1/2-y,z
loop_
_atom_site_type_symbol
_atom_site_label
_atom_site_fract_x
_atom_site_fract_y
_atom_site_fract_z
Si Si1 0.978802 0.086320 0.744090
Si Si2 0.033046 0.702392 0.000000
Si Si3 0.426425 0.801321 0.104986
Si Si4 0.466304 0.299230 0.447681
Si Si5 0.521206 0.913732 0.808021
Si Si6 0.071405 0.198330 0.656603
O O1 0.187857 0.105589 0.786994
O O2 0.687873 0.105639 0.765128
O O3 0.030025 0.135218 0.696596
O O4 0.000000 0.000000 0.727996
O O5 0.962246 0.659857 0.949060
O O6 0.847154 0.777485 0.000000
O O7 0.631610 0.732497 0.111441
O O8 0.470189 0.865456 0.144205
O O9 0.516946 0.343089 0.500000
O O10 0.657727 0.225998 0.446711
O O11 0.532799 0.342775 0.396922
O O12 0.500000 0.000000 0.824023
O O13 0.865802 0.267230 0.662399
#
# Coordination Sequence:
#
# PCOD8224834 Si02
#       6
#     8   4   8   8   8   8
#     4  10  21  35  48  65  96 130 153 185 237 282
#     4   8  16  30  47  70  97 120 146 184 232 276
#     4  10  19  32  52  74  95 122 155 191 229 271
#     4   8  14  25  41  63  90 116 143 182 231 271
#     4  10  21  35  49  68  95 126 157 189 230 277
#     4  10  19  30  48  72  93 117 156 198 226 265
#
# _framework density 18.103005
#
# number of rings (size 3 to 8) (size 9 to 14) (size 15 to 20)
#    0.000    2.545    0.000    2.182    0.000    4.364 
#    0.000    0.455    0.000    0.545    0.000   11.455 
#    0.000   18.909    0.000    0.000    0.000    2.909 
#
# Total GULP energy -545179.730727 kJ/mol
# GULP energy per Si atom -12390.448426 kJ/mol
# Density = 1.806180 g / cm^3
# Si number density = 18.103005 Si / 1000 Ang^3
#
#
#
# Elastic Constant Matrix: (Units=GPa)
#
#
# Indices 1 2 3 4 5 6 
#
# 1 63.0892 7.6193 -4.7829 0.0000 0.0000 0.0000
# 2 7.6193 44.3671 62.1727 0.0000 0.0000 0.0000
# 3 -4.7829 62.1727 150.3766 0.0000 0.0000 0.0000
# 4 0.0000 0.0000 0.0000 -6.4467 0.0000 0.0000
# 5 0.0000 0.0000 0.0000 0.0000 8.9187 0.0000
# 6 0.0000 0.0000 0.0000 0.0000 0.0000 15.7640
#
#
#
# Elastic Compliance Matrix: (Units=1/GPa)
#
#
# Indices 1 2 3 4 5 6 
#
# 1 0.017241 -0.008866 0.004214 0.000000 0.000000 0.000000
# 2 -0.008866 0.058144 -0.024321 0.000000 0.000000 0.000000
# 3 0.004214 -0.024321 0.016840 0.000000 0.000000 0.000000
# 4 0.000000 0.000000 0.000000 -0.155119 0.000000 0.000000
# 5 0.000000 0.000000 0.000000 0.000000 0.112124 0.000000
# 6 0.000000 0.000000 0.000000 0.000000 0.000000 0.063436
#
#
# Mechanical properties :
#
#
# Convention : Reuss Voigt Hill
#
# Bulk Modulus (GPa) = 29.17357 43.09458 36.13408
# Shear Modulus (GPa) = 27.46682 16.50212 21.98447
#
# Velocity S-wave (km/s) = 3.89942 3.02249 3.48862
# Velocity P-wave (km/s) = 6.03525 6.00313 6.01921
#
# Compressibility (1/GPa) = 0.03427761
#
# Stress axis : x y z
#
# Youngs Moduli (GPa) = 58.00209 17.19868 59.38377
#
# Poissons Ratio (x) = 0.15248 -0.25024
# Poissons Ratio (y) = 0.51424 1.44430
# Poissons Ratio (z) = -0.24442 0.41830
#
# Static dielectric constant tensor:
#      x y z
#    x 3.648130 0.000000 0.000000 
#    y 0.000000 2.780240 0.000000 
#    z 0.000000 0.000000 3.756190 
# 
# 
# High freq. dielectric constant tensor:
#      x y z
#    x 1.728790 0.000000 0.000000 
#    y 0.000000 1.628930 0.000000 
#    z 0.000000 0.000000 1.727550 
# 
# From -- ./inp_files/23296.got.cif
#   From: 2010.03.12/outbox.cif.g09.slc.cpg/sg55_12_cif.got.tgz:23296.got - 2010.04.16 15:19:21.
