data_PCOD8224138
_publ_section_title
;
Structure prediction by ZEFSAII (Michael W. Deem and Ramdas Pophale) SiO2 
 PCOD8224138
Probable space group: P C C A
;
_chemical_formula_sum "Si O2"
_cell_formula_units_Z 48
_cell_length_a 15.784109
_cell_length_b 9.262418
_cell_length_c 14.853525
_cell_angle_alpha 90.000000
_cell_angle_beta 90.000000
_cell_angle_gamma 90.000000
_cell_volume 2171.570729
_symmetry_space_group_name_H-M "P C C A"
_symmetry_group_IT_number 54
_symmetry_cell_setting 'orthorhombic'
loop_
_space_group_symop_operation_xyz
x,y,z
1/2-x,-y,z
1/2+x,-y,1/2-z
-x,y,1/2-z
-x,-y,-z
1/2+x,y,-z
1/2-x,y,1/2+z
x,-y,1/2+z
loop_
_atom_site_type_symbol
_atom_site_label
_atom_site_fract_x
_atom_site_fract_y
_atom_site_fract_z
Si Si1 0.247585 0.670120 0.295856
Si Si2 0.562505 0.759134 0.680012
Si Si3 0.315243 0.780767 0.482267
Si Si4 0.409336 0.932616 0.996914
Si Si5 0.664807 0.297072 0.888278
Si Si6 0.058809 0.571208 0.071502
O O1 0.250000 0.500000 0.312092
O O2 0.149489 0.706947 0.273938
O O3 0.292487 0.749832 0.378889
O O4 0.300583 0.727541 0.211141
O O5 0.500000 0.845883 0.750000
O O6 0.596472 0.848622 0.596404
O O7 0.501651 0.626155 0.651420
O O8 0.237435 0.720302 0.538318
O O9 0.398681 0.702299 0.518033
O O10 0.333181 0.951014 0.496657
O O11 0.402732 0.826112 0.083491
O O12 0.500000 0.000000 0.000000
O O13 0.627373 0.458309 0.891051
O O14 0.000000 0.500000 0.000000
#
# Coordination Sequence:
#
# PCOD8224138 Si02
#       6
#     8   8   8   8   8   8
#     4  12  26  45  74 112 141 188 248 307 368 436
#     4  12  25  45  71 106 144 189 241 298 366 434
#     4  12  24  46  71 102 149 187 241 299 365 442
#     4  12  26  48  69 102 148 195 238 298 368 442
#     4  12  25  46  74 107 143 191 243 306 367 429
#     4  12  22  44  75 104 143 190 234 300 367 426
#
# _framework density 22.103815999999998
#
# number of rings (size 3 to 8) (size 9 to 14) (size 15 to 20)
#    0.000    0.000    5.000    6.000    0.000    1.333 
#    3.000    3.333    0.000    0.000    0.000    0.000 
#    0.000    0.000    0.000    0.000    0.000    0.000 
#
# Total GULP energy -595129.919538 kJ/mol
# GULP energy per Si atom -12398.539990 kJ/mol
# Density = 2.205351 g / cm^3
# Si number density = 22.103816 Si / 1000 Ang^3
#
#
#
# Elastic Constant Matrix: (Units=GPa)
#
#
# Indices 1 2 3 4 5 6 
#
# 1 106.5239 28.8439 28.0683 0.0000 0.0000 0.0000
# 2 28.8439 106.9815 26.7833 0.0000 0.0000 0.0000
# 3 28.0683 26.7833 125.5597 0.0000 0.0000 0.0000
# 4 0.0000 0.0000 0.0000 17.0223 0.0000 0.0000
# 5 0.0000 0.0000 0.0000 0.0000 53.0423 0.0000
# 6 0.0000 0.0000 0.0000 0.0000 0.0000 38.8053
#
#
#
# Elastic Compliance Matrix: (Units=1/GPa)
#
#
# Indices 1 2 3 4 5 6 
#
# 1 0.010516 -0.002374 -0.001845 0.000000 0.000000 0.000000
# 2 -0.002374 0.010410 -0.001690 0.000000 0.000000 0.000000
# 3 -0.001845 -0.001690 0.008737 0.000000 0.000000 0.000000
# 4 0.000000 0.000000 0.000000 0.058746 0.000000 0.000000
# 5 0.000000 0.000000 0.000000 0.000000 0.018853 0.000000
# 6 0.000000 0.000000 0.000000 0.000000 0.000000 0.025770
#
#
# Mechanical properties :
#
#
# Convention : Reuss Voigt Hill
#
# Bulk Modulus (GPa) = 56.03004 56.27289 56.15147
# Shear Modulus (GPa) = 33.15681 38.79860 35.97770
#
# Velocity S-wave (km/s) = 3.87725 4.19416 4.03882
# Velocity P-wave (km/s) = 6.74149 6.99774 6.87081
#
# Compressibility (1/GPa) = 0.01784757
#
# Stress axis : x y z
#
# Youngs Moduli (GPa) = 95.09050 96.05703 114.45321
#
# Poissons Ratio (x) = 0.22800 0.21112
# Poissons Ratio (y) = 0.22570 0.19343
# Poissons Ratio (z) = 0.17540 0.16234
#
# Static dielectric constant tensor:
#      x y z
#    x 4.077900 0.000000 0.000000 
#    y 0.000000 13.079050 0.000000 
#    z 0.000000 0.000000 4.413600 
# 
# 
# High freq. dielectric constant tensor:
#      x y z
#    x 1.898470 0.000000 0.000000 
#    y 0.000000 1.867090 0.000000 
#    z 0.000000 0.000000 1.876950 
# 
# From -- ./inp_files/14161.got.cif
#   From: 2010.03.12/outbox.cif.g09.slc.cpg/sg54_8_cif.got.tgz:14161.got - 2010.04.16 15:00:50.
