data_PCOD8224197
_publ_section_title
;
Structure prediction by ZEFSAII (Michael W. Deem and Ramdas Pophale) SiO2 
 PCOD8224197
Probable space group: P C C A
;
_chemical_formula_sum "Si O2"
_cell_formula_units_Z 40
_cell_length_a 22.308274
_cell_length_b 6.582758
_cell_length_c 11.562640
_cell_angle_alpha 90.000000
_cell_angle_beta 90.000000
_cell_angle_gamma 90.000000
_cell_volume 1697.973327
_symmetry_space_group_name_H-M "P C C A"
_symmetry_group_IT_number 54
_symmetry_cell_setting 'orthorhombic'
loop_
_space_group_symop_operation_xyz
x,y,z
1/2-x,-y,z
1/2+x,-y,1/2-z
-x,y,1/2-z
-x,-y,-z
1/2+x,y,-z
1/2-x,y,1/2+z
x,-y,1/2+z
loop_
_atom_site_type_symbol
_atom_site_label
_atom_site_fract_x
_atom_site_fract_y
_atom_site_fract_z
Si Si1 0.887811 0.646592 0.855138
Si Si2 0.000000 0.448090 0.750000
Si Si3 0.651465 0.010428 0.691409
Si Si4 0.250000 0.000000 0.994172
Si Si5 0.955785 0.848418 0.063466
Si Si6 0.707920 0.330765 0.341288
O O1 0.941646 0.585564 0.769028
O O2 0.846693 0.806066 0.783079
O O3 0.848935 0.451525 0.895854
O O4 0.911742 0.746687 0.971635
O O5 0.993821 0.318031 0.632700
O O6 0.690109 0.045276 0.577239
O O7 0.582812 0.971433 0.657415
O O8 0.681626 0.812671 0.744525
O O9 0.250631 0.794810 0.070778
O O10 0.000000 0.000000 0.000000
O O11 0.750000 0.500000 0.281512
#
# Coordination Sequence:
#
# PCOD8224197 Si02
#       6
#     8   4   8   4   8   8
#     4  12  27  46  76 107 153 195 255 304 374 460
#     4  12  26  48  74 114 152 200 248 312 382 446
#     4  12  26  49  72 109 153 200 244 321 378 441
#     4  12  28  44  78 106 148 196 254 316 378 442
#     4  12  26  46  77 111 154 200 250 311 375 449
#     4  12  26  48  72 108 145 193 255 307 377 448
#
# _framework density 23.557494999999999
#
# number of rings (size 3 to 8) (size 9 to 14) (size 15 to 20)
#    0.000    0.000    2.000    8.400    5.600    4.000 
#    0.000    0.000    0.000    0.000    0.000    0.000 
#    0.000    0.000    0.000    0.000    0.000    0.000 
#
# Total GULP energy -496044.726460 kJ/mol
# GULP energy per Si atom -12401.118161 kJ/mol
# Density = 2.350388 g / cm^3
# Si number density = 23.557495 Si / 1000 Ang^3
#
#
#
# Elastic Constant Matrix: (Units=GPa)
#
#
# Indices 1 2 3 4 5 6 
#
# 1 99.1358 49.8375 32.0375 0.0000 0.0000 0.0000
# 2 49.8375 139.0817 57.9508 0.0000 0.0000 0.0000
# 3 32.0375 57.9508 112.6127 0.0000 0.0000 0.0000
# 4 0.0000 0.0000 0.0000 -38.2151 0.0000 0.0000
# 5 0.0000 0.0000 0.0000 0.0000 60.5460 0.0000
# 6 0.0000 0.0000 0.0000 0.0000 0.0000 59.6299
#
#
#
# Elastic Compliance Matrix: (Units=1/GPa)
#
#
# Indices 1 2 3 4 5 6 
#
# 1 0.012525 -0.003823 -0.001596 0.000000 0.000000 0.000000
# 2 -0.003823 0.010319 -0.004223 0.000000 0.000000 0.000000
# 3 -0.001596 -0.004223 0.011507 0.000000 0.000000 0.000000
# 4 0.000000 0.000000 0.000000 -0.026168 0.000000 0.000000
# 5 0.000000 0.000000 0.000000 0.000000 0.016516 0.000000
# 6 0.000000 0.000000 0.000000 0.000000 0.000000 0.016770
#
#
# Mechanical properties :
#
#
# Convention : Reuss Voigt Hill
#
# Bulk Modulus (GPa) = 66.36631 70.05354 68.20992
# Shear Modulus (GPa) = 76.01523 30.45911 53.23717
#
# Velocity S-wave (km/s) = 5.68665 3.59969 4.75898
# Velocity P-wave (km/s) = 8.44693 6.86140 7.69511
#
# Compressibility (1/GPa) = 0.01506789
#
# Stress axis : x y z
#
# Youngs Moduli (GPa) = 79.84118 96.90433 86.90325
#
# Poissons Ratio (x) = 0.37048 0.13868
# Poissons Ratio (y) = 0.30524 0.36697
# Poissons Ratio (z) = 0.12741 0.40920
#
# Static dielectric constant tensor:
#      x y z
#    x 4.577770 0.000000 0.000000 
#    y 0.000000 4.171310 0.000000 
#    z 0.000000 0.000000 4.144950 
# 
# 
# High freq. dielectric constant tensor:
#      x y z
#    x 1.958590 0.000000 0.000000 
#    y 0.000000 1.946200 0.000000 
#    z 0.000000 0.000000 1.927540 
# 
# From -- ./inp_files/10189.got.cif
#   From: 2010.03.12/outbox.cif.g09.slc.cpg/sg54_6_cif.got.tgz:10189.got - 2010.04.16 15:00:50.
