data_PCOD8224722
_publ_section_title
;
Structure prediction by ZEFSAII (Michael W. Deem and Ramdas Pophale) SiO2 
 PCOD8224722
Probable space group: P B A M
;
_chemical_formula_sum "Si O2"
_cell_formula_units_Z 48
_cell_length_a 14.614800
_cell_length_b 9.050344
_cell_length_c 18.207493
_cell_angle_alpha 90.000000
_cell_angle_beta 90.000000
_cell_angle_gamma 90.000000
_cell_volume 2408.286300
_symmetry_space_group_name_H-M "P B A M"
_symmetry_group_IT_number 55
_symmetry_cell_setting 'orthorhombic'
loop_
_space_group_symop_operation_xyz
x,y,z
-x,-y,z
1/2+x,1/2-y,-z
1/2-x,1/2+y,-z
-x,-y,-z
x,y,-z
1/2-x,1/2+y,z
1/2+x,1/2-y,z
loop_
_atom_site_type_symbol
_atom_site_label
_atom_site_fract_x
_atom_site_fract_y
_atom_site_fract_z
Si Si1 0.527644 0.169547 0.917855
Si Si2 0.687859 0.114394 0.185752
Si Si3 0.038466 0.660219 0.668735
Si Si4 0.868738 0.277574 0.183933
Si Si5 0.792201 0.437282 0.415885
Si Si6 0.655111 0.231298 0.348102
O O1 0.621775 0.191947 0.873596
O O2 0.444615 0.253291 0.877928
O O3 0.500000 0.000000 0.919898
O O4 0.540421 0.233072 0.000000
O O5 0.792534 0.154251 0.168498
O O6 0.663248 0.177113 0.265086
O O7 0.677650 0.938611 0.181963
O O8 0.084027 0.744403 0.736982
O O9 0.112698 0.642868 0.604521
O O10 0.000000 0.500000 0.695449
O O11 0.953255 0.754506 0.636615
O O12 0.768446 0.404724 0.500000
O O13 0.709611 0.381892 0.363490
O O14 0.801449 0.611505 0.403213
#
# Coordination Sequence:
#
# PCOD8224722 Si02
#       6
#     8   8   8   8   8   8
#     4   9  19  35  58  86 116 150 189 231 276 329
#     4  11  19  34  61  84 111 151 191 230 272 338
#     4  10  18  34  59  79 104 144 191 222 264 333
#     4  11  19  35  59  85 113 145 190 233 275 329
#     4  11  23  36  56  84 113 143 184 236 284 327
#     4  11  20  37  59  80 110 149 187 230 277 334
#
# _framework density 19.931186
#
# number of rings (size 3 to 8) (size 9 to 14) (size 15 to 20)
#    0.000    1.500    6.667    1.000    0.000    4.333 
#    0.000    1.667    0.000    3.000    0.000    0.000 
#    0.000    0.000    0.000    0.000    0.000    0.000 
#
# Total GULP energy -595239.741028 kJ/mol
# GULP energy per Si atom -12400.827938 kJ/mol
# Density = 1.988582 g / cm^3
# Si number density = 19.931186 Si / 1000 Ang^3
#
#
#
# Elastic Constant Matrix: (Units=GPa)
#
#
# Indices 1 2 3 4 5 6 
#
# 1 133.4414 33.1033 30.0122 0.0000 0.0000 0.0000
# 2 33.1033 32.8288 15.0390 0.0000 0.0000 0.0000
# 3 30.0122 15.0390 111.7315 0.0000 0.0000 0.0000
# 4 0.0000 0.0000 0.0000 13.4483 0.0000 0.0000
# 5 0.0000 0.0000 0.0000 0.0000 27.3668 0.0000
# 6 0.0000 0.0000 0.0000 0.0000 0.0000 33.4952
#
#
#
# Elastic Compliance Matrix: (Units=1/GPa)
#
#
# Indices 1 2 3 4 5 6 
#
# 1 0.010208 -0.009631 -0.001446 0.000000 0.000000 0.000000
# 2 -0.009631 0.041550 -0.003005 0.000000 0.000000 0.000000
# 3 -0.001446 -0.003005 0.009743 0.000000 0.000000 0.000000
# 4 0.000000 0.000000 0.000000 0.074359 0.000000 0.000000
# 5 0.000000 0.000000 0.000000 0.000000 0.036541 0.000000
# 6 0.000000 0.000000 0.000000 0.000000 0.000000 0.029855
#
#
# Mechanical properties :
#
#
# Convention : Reuss Voigt Hill
#
# Bulk Modulus (GPa) = 29.99771 48.25675 39.12723
# Shear Modulus (GPa) = 20.70114 28.18522 24.44318
#
# Velocity S-wave (km/s) = 3.22628 3.76457 3.50577
# Velocity P-wave (km/s) = 5.38162 6.56964 6.00508
#
# Compressibility (1/GPa) = 0.03333587
#
# Stress axis : x y z
#
# Youngs Moduli (GPa) = 97.95862 24.06748 102.63895
#
# Poissons Ratio (x) = 0.23181 0.14838
# Poissons Ratio (y) = 0.94349 0.30848
# Poissons Ratio (z) = 0.14162 0.07233
#
# Static dielectric constant tensor:
#      x y z
#    x 4.074180 0.000000 0.000000 
#    y 0.000000 3.257310 0.000000 
#    z 0.000000 0.000000 3.635730 
# 
# 
# High freq. dielectric constant tensor:
#      x y z
#    x 1.795130 0.000000 0.000000 
#    y 0.000000 1.732110 0.000000 
#    z 0.000000 0.000000 1.773320 
# 
# From -- ./inp_files/21488.got.cif
#   From: 2010.03.12/outbox.cif.g09.slc.cpg/sg55_11_cif.got.tgz:21488.got - 2010.04.16 15:19:21.
