data_PCOD8224649
_publ_section_title
;
Structure prediction by ZEFSAII (Michael W. Deem and Ramdas Pophale) SiO2 
 PCOD8224649
Probable space group: P B A M
;
_chemical_formula_sum "Si O2"
_cell_formula_units_Z 48
_cell_length_a 20.220525
_cell_length_b 14.255499
_cell_length_c 8.801879
_cell_angle_alpha 90.000000
_cell_angle_beta 90.000000
_cell_angle_gamma 90.000000
_cell_volume 2537.173959
_symmetry_space_group_name_H-M "P B A M"
_symmetry_group_IT_number 55
_symmetry_cell_setting 'orthorhombic'
loop_
_space_group_symop_operation_xyz
x,y,z
-x,-y,z
1/2+x,1/2-y,-z
1/2-x,1/2+y,-z
-x,-y,-z
x,y,-z
1/2-x,1/2+y,z
1/2+x,1/2-y,z
loop_
_atom_site_type_symbol
_atom_site_label
_atom_site_fract_x
_atom_site_fract_y
_atom_site_fract_z
Si Si1 0.065445 0.053621 0.678351
Si Si2 0.934614 0.551492 0.181238
Si Si3 0.687728 0.938790 0.172229
Si Si4 0.607507 0.254207 0.180373
Si Si5 0.241934 0.751241 0.181665
Si Si6 0.680792 0.557855 0.172584
O O1 0.063623 0.069725 0.500000
O O2 0.069787 0.155552 0.754986
O O3 0.127223 0.988659 0.719636
O O4 0.000000 0.000000 0.736025
O O5 0.872509 0.494093 0.251842
O O6 0.931033 0.660056 0.234323
O O7 0.000000 0.500000 0.243290
O O8 0.931536 0.549872 0.000000
O O9 0.703573 0.838869 0.250017
O O10 0.752863 0.999530 0.178212
O O11 0.666269 0.918885 0.000000
O O12 0.682731 0.248025 0.243038
O O13 0.607778 0.263591 0.000000
O O14 0.199376 0.839854 0.237005
O O15 0.245767 0.749621 0.000000
O O16 0.653465 0.561900 0.000000
#
# Coordination Sequence:
#
# PCOD8224649 Si02
#       6
#     8   8   8   8   8   8
#     4  11  25  41  54  74 110 149 184 230 283 326
#     4   9  17  28  47  81 118 142 165 213 273 324
#     4   9  15  26  47  76 111 141 169 211 264 314
#     4  10  18  33  58  83 107 141 183 222 269 328
#     4   9  16  27  51  85 112 137 173 221 268 310
#     4  10  18  32  57  83 106 138 182 226 267 320
#
# _framework density 18.918688
#
# number of rings (size 3 to 8) (size 9 to 14) (size 15 to 20)
#    0.000    2.333    3.333    0.500    0.000    2.667 
#    0.000    4.167    0.000    0.500    0.000    0.000 
#    0.000    0.000    0.000    0.000    0.000    0.000 
#
# Total GULP energy -594986.951345 kJ/mol
# GULP energy per Si atom -12395.561486 kJ/mol
# Density = 1.887563 g / cm^3
# Si number density = 18.918688 Si / 1000 Ang^3
#
#
#
# Elastic Constant Matrix: (Units=GPa)
#
#
# Indices 1 2 3 4 5 6 
#
# 1 116.0793 74.0373 19.3165 0.0000 0.0000 0.0000
# 2 74.0373 197.9029 22.0583 0.0000 0.0000 0.0000
# 3 19.3165 22.0583 19.0234 0.0000 0.0000 0.0000
# 4 0.0000 0.0000 0.0000 8.0989 0.0000 0.0000
# 5 0.0000 0.0000 0.0000 0.0000 12.7499 0.0000
# 6 0.0000 0.0000 0.0000 0.0000 0.0000 35.5185
#
#
#
# Elastic Compliance Matrix: (Units=1/GPa)
#
#
# Indices 1 2 3 4 5 6 
#
# 1 0.012347 -0.003700 -0.008247 0.000000 0.000000 0.000000
# 2 -0.003700 0.006912 -0.004257 0.000000 0.000000 0.000000
# 3 -0.008247 -0.004257 0.065878 0.000000 0.000000 0.000000
# 4 0.000000 0.000000 0.000000 0.123473 0.000000 0.000000
# 5 0.000000 0.000000 0.000000 0.000000 0.078432 0.000000
# 6 0.000000 0.000000 0.000000 0.000000 0.000000 0.028154
#
#
# Mechanical properties :
#
#
# Convention : Reuss Voigt Hill
#
# Bulk Modulus (GPa) = 18.96540 62.64775 40.80658
# Shear Modulus (GPa) = 13.69186 25.77971 19.73579
#
# Velocity S-wave (km/s) = 2.69313 3.69543 3.23335
# Velocity P-wave (km/s) = 4.44039 7.16898 5.96286
#
# Compressibility (1/GPa) = 0.05272760
#
# Stress axis : x y z
#
# Youngs Moduli (GPa) = 80.99100 144.68240 15.17962
#
# Poissons Ratio (x) = 0.53531 0.12519
# Poissons Ratio (y) = 0.29966 0.06463
# Poissons Ratio (z) = 0.66794 0.61598
#
# Static dielectric constant tensor:
#      x y z
#    x 3.043930 0.000000 0.000000 
#    y 0.000000 3.681830 0.000000 
#    z 0.000000 0.000000 2.878010 
# 
# 
# High freq. dielectric constant tensor:
#      x y z
#    x 1.734990 0.000000 0.000000 
#    y 0.000000 1.759610 0.000000 
#    z 0.000000 0.000000 1.667040 
# 
# From -- ./inp_files/7440.got.cif
#   From: 2010.03.12/outbox.cif.g09.slc.cpg/sg55_4_cif.got.tgz:7440.got - 2010.04.16 15:19:21.
