data_PCOD8224444
_publ_section_title
;
Structure prediction by ZEFSAII (Michael W. Deem and Ramdas Pophale) SiO2 
 PCOD8224444
Probable space group: P B A M
;
_chemical_formula_sum "Si O2"
_cell_formula_units_Z 64
_cell_length_a 23.383424
_cell_length_b 18.902765
_cell_length_c 9.044014
_cell_angle_alpha 90.000000
_cell_angle_beta 90.000000
_cell_angle_gamma 90.000000
_cell_volume 3997.557007
_symmetry_space_group_name_H-M "P B A M"
_symmetry_group_IT_number 55
_symmetry_cell_setting 'orthorhombic'
loop_
_space_group_symop_operation_xyz
x,y,z
-x,-y,z
1/2+x,1/2-y,-z
1/2-x,1/2+y,-z
-x,-y,-z
x,y,-z
1/2-x,1/2+y,z
1/2+x,1/2-y,z
loop_
_atom_site_type_symbol
_atom_site_label
_atom_site_fract_x
_atom_site_fract_y
_atom_site_fract_z
Si Si1 0.159130 0.760058 0.825196
Si Si2 0.221537 0.639198 0.673468
Si Si3 0.833164 0.771377 0.672447
Si Si4 0.243320 0.002037 0.826476
Si Si5 0.729908 0.155149 0.828883
Si Si6 0.064964 0.846775 0.327195
Si Si7 0.937175 0.862262 0.324727
Si Si8 0.877224 0.003979 0.672196
O O1 0.171877 0.684367 0.751482
O O2 0.208481 0.815282 0.776481
O O3 0.099301 0.788140 0.763512
O O4 0.155081 0.750932 0.000000
O O5 0.209172 0.635638 0.500000
O O6 0.283118 0.673027 0.709352
O O7 0.220180 0.560916 0.741323
O O8 0.837415 0.757304 0.500000
O O9 0.821273 0.695749 0.746725
O O10 0.892082 0.804116 0.735577
O O11 0.178981 0.998466 0.770055
O O12 0.274160 0.927577 0.792274
O O13 0.242452 0.018673 0.000000
O O14 0.722153 0.171074 0.000000
O O15 0.068268 0.828027 0.500000
O O16 0.000251 0.844753 0.264990
O O17 0.089452 0.924215 0.296328
O O18 0.937969 0.860311 0.500000
O O19 0.918323 0.940564 0.274968
O O20 0.859927 0.995787 0.500000
#
# Coordination Sequence:
#
# PCOD8224444 Si02
#       8
#     8   8   8   8   8   8   8   8
#     4  10  19  33  48  67  97 129 160 199 242 284
#     4  10  19  32  50  72  94 121 161 202 240 288
#     4   9  17  30  48  68  92 121 157 201 240 277
#     4  11  20  31  47  70  98 130 158 193 244 290
#     4   9  19  32  46  65  94 126 157 193 237 288
#     4  10  19  30  49  70  94 131 170 203 237 278
#     4   9  17  31  47  69  97 127 165 206 241 275
#     4  10  18  30  46  67  96 132 170 202 230 273
#
# _framework density 16.009778000000001
#
# number of rings (size 3 to 8) (size 9 to 14) (size 15 to 20)
#    0.000    2.250    2.500    1.500    0.000    3.500 
#    0.000    1.250    0.000    1.500    0.000    0.875 
#    0.000    7.000    0.000    0.000    0.000    0.000 
#
# Total GULP energy -793668.294454 kJ/mol
# GULP energy per Si atom -12401.067101 kJ/mol
# Density = 1.597334 g / cm^3
# Si number density = 16.009778 Si / 1000 Ang^3
#
#
#
# Elastic Constant Matrix: (Units=GPa)
#
#
# Indices 1 2 3 4 5 6 
#
# 1 79.2205 54.9834 23.6065 0.0000 0.0000 0.0000
# 2 54.9834 108.9372 44.1417 0.0000 0.0000 0.0000
# 3 23.6065 44.1417 48.4826 0.0000 0.0000 0.0000
# 4 0.0000 0.0000 0.0000 27.1821 0.0000 0.0000
# 5 0.0000 0.0000 0.0000 0.0000 16.2338 0.0000
# 6 0.0000 0.0000 0.0000 0.0000 0.0000 19.1240
#
#
#
# Elastic Compliance Matrix: (Units=1/GPa)
#
#
# Indices 1 2 3 4 5 6 
#
# 1 0.019451 -0.009476 -0.000844 0.000000 0.000000 0.000000
# 2 -0.009476 0.019162 -0.012833 0.000000 0.000000 0.000000
# 3 -0.000844 -0.012833 0.032720 0.000000 0.000000 0.000000
# 4 0.000000 0.000000 0.000000 0.036789 0.000000 0.000000
# 5 0.000000 0.000000 0.000000 0.000000 0.061600 0.000000
# 6 0.000000 0.000000 0.000000 0.000000 0.000000 0.052290
#
#
# Mechanical properties :
#
#
# Convention : Reuss Voigt Hill
#
# Bulk Modulus (GPa) = 39.95252 53.56707 46.75980
# Shear Modulus (GPa) = 18.07278 20.10190 19.08734
#
# Velocity S-wave (km/s) = 3.36349 3.54729 3.45661
# Velocity P-wave (km/s) = 6.33193 7.09291 6.72319
#
# Compressibility (1/GPa) = 0.02502971
#
# Stress axis : x y z
#
# Youngs Moduli (GPa) = 51.41141 52.18670 30.56199
#
# Poissons Ratio (x) = 0.49450 0.02578
# Poissons Ratio (y) = 0.48715 0.39219
# Poissons Ratio (z) = 0.04337 0.66969
#
# Static dielectric constant tensor:
#      x y z
#    x 3.026910 0.000000 0.000000 
#    y 0.000000 3.157150 0.000000 
#    z 0.000000 0.000000 2.942880 
# 
# 
# High freq. dielectric constant tensor:
#      x y z
#    x 1.590480 0.000000 0.000000 
#    y 0.000000 1.613160 0.000000 
#    z 0.000000 0.000000 1.609750 
# 
# From -- ./inp_files/8083.got.cif
#   From: 2010.03.12/outbox.cif.g09.slc.cpg/sg55_5_cif.got.tgz:8083.got - 2010.04.16 15:19:21.
