data_PCOD8224296
_publ_section_title
;
Structure prediction by ZEFSAII (Michael W. Deem and Ramdas Pophale) SiO2 
 PCOD8224296
Probable space group: P B A M
;
_chemical_formula_sum "Si O2"
_cell_formula_units_Z 40
_cell_length_a 5.222560
_cell_length_b 26.373786
_cell_length_c 16.743521
_cell_angle_alpha 90.000000
_cell_angle_beta 90.000000
_cell_angle_gamma 90.000000
_cell_volume 2306.230478
_symmetry_space_group_name_H-M "P B A M"
_symmetry_group_IT_number 55
_symmetry_cell_setting 'orthorhombic'
loop_
_space_group_symop_operation_xyz
x,y,z
-x,-y,z
1/2+x,1/2-y,-z
1/2-x,1/2+y,-z
-x,-y,-z
x,y,-z
1/2-x,1/2+y,z
1/2+x,1/2-y,z
loop_
_atom_site_type_symbol
_atom_site_label
_atom_site_fract_x
_atom_site_fract_y
_atom_site_fract_z
Si Si1 0.217686 0.943093 0.838303
Si Si2 0.577441 0.556231 0.654220
Si Si3 0.280490 0.055992 0.906476
Si Si4 0.993125 0.278051 0.594966
Si Si5 0.923763 0.392450 0.592518
O O1 0.168741 0.941731 0.744953
O O2 0.483045 0.915308 0.862631
O O3 0.984091 0.915289 0.885056
O O4 0.248733 0.000360 0.869104
O O5 0.500000 0.500000 0.627228
O O6 0.324667 0.590016 0.642002
O O7 0.822557 0.573433 0.602852
O O8 0.331884 0.052973 0.000000
O O9 0.994077 0.274961 0.500000
O O10 0.246698 0.251346 0.629789
O O11 0.990032 0.336184 0.623214
O O12 0.844208 0.392884 0.500000
#
# Coordination Sequence:
#
# PCOD8224296 Si02
#       5
#     8   8   8   8   8
#     4  10  18  29  43  64  88 123 164 200 229 287
#     4  12  23  35  50  64 100 144 174 206 233 279
#     4  10  17  28  47  67  85 112 169 217 233 269
#     4   9  17  33  56  75  91 109 141 207 278 318
#     4  11  24  37  51  73  93 123 178 218 248 293
#
# _framework density 17.344321999999998
#
# number of rings (size 3 to 8) (size 9 to 14) (size 15 to 20)
#    0.000    1.600    2.000    6.600    2.800    5.600 
#    0.000    0.000    0.000    0.000    0.000    0.000 
#    0.000    0.000    0.000    0.000    0.000  412.000 
#
# Total GULP energy -495744.789656 kJ/mol
# GULP energy per Si atom -12393.619741 kJ/mol
# Density = 1.730485 g / cm^3
# Si number density = 17.344322 Si / 1000 Ang^3
#
#
#
# Elastic Constant Matrix: (Units=GPa)
#
#
# Indices 1 2 3 4 5 6 
#
# 1 175.9828 37.0176 22.4493 0.0000 0.0000 0.0000
# 2 37.0176 64.1767 30.4603 0.0000 0.0000 0.0000
# 3 22.4493 30.4603 44.9955 0.0000 0.0000 0.0000
# 4 0.0000 0.0000 0.0000 0.5128 0.0000 0.0000
# 5 0.0000 0.0000 0.0000 0.0000 33.3772 0.0000
# 6 0.0000 0.0000 0.0000 0.0000 0.0000 20.0371
#
#
#
# Elastic Compliance Matrix: (Units=1/GPa)
#
#
# Indices 1 2 3 4 5 6 
#
# 1 0.006500 -0.003256 -0.001039 0.000000 0.000000 0.000000
# 2 -0.003256 0.024590 -0.015022 0.000000 0.000000 0.000000
# 3 -0.001039 -0.015022 0.032912 0.000000 0.000000 0.000000
# 4 0.000000 0.000000 0.000000 1.949890 0.000000 0.000000
# 5 0.000000 0.000000 0.000000 0.000000 0.029961 0.000000
# 6 0.000000 0.000000 0.000000 0.000000 0.000000 0.049907
#
#
# Mechanical properties :
#
#
# Convention : Reuss Voigt Hill
#
# Bulk Modulus (GPa) = 39.41925 51.66770 45.54347
# Shear Modulus (GPa) = 2.33552 23.80062 13.06807
#
# Velocity S-wave (km/s) = 1.16167 3.70840 2.74788
# Velocity P-wave (km/s) = 4.95743 6.94193 6.03185
#
# Compressibility (1/GPa) = 0.02536832
#
# Stress axis : x y z
#
# Youngs Moduli (GPa) = 153.85110 40.66684 30.38414
#
# Poissons Ratio (x) = 0.13242 0.03156
# Poissons Ratio (y) = 0.50097 0.45643
# Poissons Ratio (z) = 0.15979 0.61090
#
# Static dielectric constant tensor:
#      x y z
#    x 1.295790 0.000000 0.000000 
#    y 0.000000 2.895970 0.000000 
#    z 0.000000 0.000000 3.050220 
# 
# 
# High freq. dielectric constant tensor:
#      x y z
#    x 1.714280 0.000000 0.000000 
#    y 0.000000 1.607050 0.000000 
#    z 0.000000 0.000000 1.649750 
# 
# From -- ./inp_files/16551.got.cif
#   From: 2010.03.12/outbox.cif.g09.slc.cpg/sg55_9_cif.got.tgz:16551.got - 2010.04.16 15:19:21.
