data_PCOD8224901
_publ_section_title
;
Structure prediction by ZEFSAII (Michael W. Deem and Ramdas Pophale) SiO2 
 PCOD8224901
Probable space group: P B A M
;
_chemical_formula_sum "Si O2"
_cell_formula_units_Z 56
_cell_length_a 18.164884
_cell_length_b 18.854202
_cell_length_c 9.233904
_cell_angle_alpha 90.000000
_cell_angle_beta 90.000000
_cell_angle_gamma 90.000000
_cell_volume 3162.467999
_symmetry_space_group_name_H-M "P B A M"
_symmetry_group_IT_number 55
_symmetry_cell_setting 'orthorhombic'
loop_
_space_group_symop_operation_xyz
x,y,z
-x,-y,z
1/2+x,1/2-y,-z
1/2-x,1/2+y,-z
-x,-y,-z
x,y,-z
1/2-x,1/2+y,z
1/2+x,1/2-y,z
loop_
_atom_site_type_symbol
_atom_site_label
_atom_site_fract_x
_atom_site_fract_y
_atom_site_fract_z
Si Si1 0.497117 0.791303 0.331296
Si Si2 0.623429 0.390047 0.670886
Si Si3 0.646852 0.258619 0.832139
Si Si4 0.972908 0.576729 0.830916
Si Si5 0.959725 0.141251 0.667708
Si Si6 0.328990 0.452970 0.670632
Si Si7 0.194980 0.391128 0.835595
O O1 0.483230 0.805690 0.500000
O O2 0.423231 0.766051 0.256662
O O3 0.521995 0.864489 0.254613
O O4 0.554345 0.725884 0.309036
O O5 0.628740 0.374608 0.500000
O O6 0.673502 0.331923 0.756939
O O7 0.539156 0.383739 0.728575
O O8 0.654147 0.466458 0.713091
O O9 0.705527 0.194295 0.818470
O O10 0.626741 0.271465 0.000000
O O11 0.887266 0.585321 0.791089
O O12 0.000000 0.500000 0.779633
O O13 0.986977 0.589036 0.000000
O O14 0.960882 0.121270 0.500000
O O15 0.892990 0.097067 0.739516
O O16 0.324445 0.442724 0.500000
O O17 0.250556 0.432160 0.733553
O O18 0.210627 0.414104 0.000000
#
# Coordination Sequence:
#
# PCOD8224901 Si02
#       7
#     8   8   8   8   8   8   8
#     4   9  16  28  49  74  96 118 151 197 240 280
#     4   9  17  30  50  74  96 123 163 203 235 274
#     4   9  17  31  50  68  90 123 159 194 235 284
#     4   9  18  34  54  72  93 125 163 203 248 294
#     4   8  15  29  48  70  97 128 159 192 234 282
#     4  10  19  31  49  72 100 132 160 192 239 291
#     4   9  19  34  49  68  95 126 160 197 240 289
#
# _framework density 17.707689999999999
#
# number of rings (size 3 to 8) (size 9 to 14) (size 15 to 20)
#    0.000    3.000    0.000    3.000    0.000    5.429 
#    0.000    5.000    0.000   11.143    0.000    0.000 
#    0.000    0.000    0.000    0.000    0.000    0.000 
#
# Total GULP energy -693939.564751 kJ/mol
# GULP energy per Si atom -12391.777942 kJ/mol
# Density = 1.766739 g / cm^3
# Si number density = 17.707690 Si / 1000 Ang^3
#
#
#
# Elastic Constant Matrix: (Units=GPa)
#
#
# Indices 1 2 3 4 5 6 
#
# 1 54.4159 54.5063 22.5326 0.0000 0.0000 0.0000
# 2 54.5063 172.1141 65.9631 0.0000 0.0000 0.0000
# 3 22.5326 65.9631 58.5548 0.0000 0.0000 0.0000
# 4 0.0000 0.0000 0.0000 29.8860 0.0000 0.0000
# 5 0.0000 0.0000 0.0000 0.0000 17.1715 0.0000
# 6 0.0000 0.0000 0.0000 0.0000 0.0000 20.3427
#
#
#
# Elastic Compliance Matrix: (Units=1/GPa)
#
#
# Indices 1 2 3 4 5 6 
#
# 1 0.026974 -0.008032 -0.001332 0.000000 0.000000 0.000000
# 2 -0.008032 0.012616 -0.011121 0.000000 0.000000 0.000000
# 3 -0.001332 -0.011121 0.030119 0.000000 0.000000 0.000000
# 4 0.000000 0.000000 0.000000 0.033461 0.000000 0.000000
# 5 0.000000 0.000000 0.000000 0.000000 0.058236 0.000000
# 6 0.000000 0.000000 0.000000 0.000000 0.000000 0.049158
#
#
# Mechanical properties :
#
#
# Convention : Reuss Voigt Hill
#
# Bulk Modulus (GPa) = 34.79653 63.45433 49.12543
# Shear Modulus (GPa) = 19.14887 22.95223 21.05055
#
# Velocity S-wave (km/s) = 3.29201 3.60415 3.45161
# Velocity P-wave (km/s) = 5.84320 7.29602 6.60965
#
# Compressibility (1/GPa) = 0.02873850
#
# Stress axis : x y z
#
# Youngs Moduli (GPa) = 37.07335 79.26489 33.20168
#
# Poissons Ratio (x) = 0.63663 0.04422
# Poissons Ratio (y) = 0.29776 0.36925
# Poissons Ratio (z) = 0.04938 0.88153
#
# Static dielectric constant tensor:
#      x y z
#    x 2.987830 0.000000 0.000000 
#    y 0.000000 3.979960 0.000000 
#    z 0.000000 0.000000 3.249910 
# 
# 
# High freq. dielectric constant tensor:
#      x y z
#    x 1.641000 0.000000 0.000000 
#    y 0.000000 1.704170 0.000000 
#    z 0.000000 0.000000 1.672830 
# 
# From -- ./inp_files/8908.got.cif
#   From: 2010.03.12/outbox.cif.g09.slc.cpg/sg55_5_cif.got.tgz:8908.got - 2010.04.16 15:19:21.
