data_PCOD8224763
_publ_section_title
;
Structure prediction by ZEFSAII (Michael W. Deem and Ramdas Pophale) SiO2 
 PCOD8224763
Probable space group: P B A M
;
_chemical_formula_sum "Si O2"
_cell_formula_units_Z 64
_cell_length_a 26.493700
_cell_length_b 18.226481
_cell_length_c 9.264228
_cell_angle_alpha 90.000000
_cell_angle_beta 90.000000
_cell_angle_gamma 90.000000
_cell_volume 4473.574522
_symmetry_space_group_name_H-M "P B A M"
_symmetry_group_IT_number 55
_symmetry_cell_setting 'orthorhombic'
loop_
_space_group_symop_operation_xyz
x,y,z
-x,-y,z
1/2+x,1/2-y,-z
1/2-x,1/2+y,-z
-x,-y,-z
x,y,-z
1/2-x,1/2+y,z
1/2+x,1/2-y,z
loop_
_atom_site_type_symbol
_atom_site_label
_atom_site_fract_x
_atom_site_fract_y
_atom_site_fract_z
Si Si1 0.800698 0.189051 0.839185
Si Si2 0.756540 0.418609 0.169481
Si Si3 0.552939 0.915905 0.170789
Si Si4 0.940111 0.581314 0.829198
Si Si5 0.147264 0.670596 0.171991
Si Si6 0.301944 0.721265 0.841098
Si Si7 0.648831 0.159024 0.331460
Si Si8 0.750920 0.569596 0.669039
O O1 0.843804 0.244882 0.778142
O O2 0.750637 0.236899 0.848037
O O3 0.793632 0.120985 0.731708
O O4 0.814274 0.159758 0.000000
O O5 0.808816 0.383744 0.227644
O O6 0.710132 0.362909 0.201165
O O7 0.745776 0.491383 0.257843
O O8 0.760206 0.437242 0.000000
O O9 0.496466 0.892517 0.215888
O O10 0.593666 0.858205 0.234020
O O11 0.566650 0.997637 0.224696
O O12 0.556021 0.917828 0.000000
O O13 0.901189 0.632163 0.746707
O O14 0.931117 0.588532 0.000000
O O15 0.148688 0.669748 0.000000
O O16 0.338738 0.759170 0.725442
O O17 0.327398 0.724565 0.000000
O O18 0.638481 0.164149 0.500000
O O19 0.694497 0.103857 0.294505
O O20 0.742195 0.561941 0.500000
#
# Coordination Sequence:
#
# PCOD8224763 Si02
#       8
#     8   8   8   8   8   8   8   8
#     4   8  14  25  40  55  72  98 129 159 190 223
#     4   9  16  26  42  61  78  99 129 162 193 229
#     4   8  14  24  39  60  80  99 129 166 200 229
#     4   9  16  26  41  58  77 103 133 165 197 228
#     4   8  13  23  40  59  77  98 128 164 195 224
#     4   8  15  27  41  57  75  97 128 162 193 226
#     4  10  19  28  38  54  78 108 137 162 191 226
#     4  10  19  27  36  54  80 106 130 158 191 227
#
# _framework density 14.306232
#
# number of rings (size 3 to 8) (size 9 to 14) (size 15 to 20)
#    0.000    3.250    0.000    3.750    0.000    3.000 
#    0.000    3.125    0.000    2.250    0.000    0.000 
#    0.000    1.000    0.000   11.500    0.000    3.250 
#
# Total GULP energy -793153.169340 kJ/mol
# GULP energy per Si atom -12393.018271 kJ/mol
# Density = 1.427367 g / cm^3
# Si number density = 14.306232 Si / 1000 Ang^3
#
#
#
# Elastic Constant Matrix: (Units=GPa)
#
#
# Indices 1 2 3 4 5 6 
#
# 1 82.4007 53.0336 35.8785 0.0000 0.0000 0.0000
# 2 53.0336 104.6800 49.3810 0.0000 0.0000 0.0000
# 3 35.8785 49.3810 57.3211 0.0000 0.0000 0.0000
# 4 0.0000 0.0000 0.0000 11.7904 0.0000 0.0000
# 5 0.0000 0.0000 0.0000 0.0000 11.6461 0.0000
# 6 0.0000 0.0000 0.0000 0.0000 0.0000 25.8502
#
#
#
# Elastic Compliance Matrix: (Units=1/GPa)
#
#
# Indices 1 2 3 4 5 6 
#
# 1 0.019206 -0.006839 -0.006130 0.000000 0.000000 0.000000
# 2 -0.006839 0.018528 -0.011681 0.000000 0.000000 0.000000
# 3 -0.006130 -0.011681 0.031346 0.000000 0.000000 0.000000
# 4 0.000000 0.000000 0.000000 0.084815 0.000000 0.000000
# 5 0.000000 0.000000 0.000000 0.000000 0.085866 0.000000
# 6 0.000000 0.000000 0.000000 0.000000 0.000000 0.038684
#
#
# Mechanical properties :
#
#
# Convention : Reuss Voigt Hill
#
# Bulk Modulus (GPa) = 50.55604 57.88756 54.22180
# Shear Modulus (GPa) = 14.95492 16.93125 15.94309
#
# Velocity S-wave (km/s) = 3.23668 3.44392 3.34191
# Velocity P-wave (km/s) = 7.02733 7.50767 7.27147
#
# Compressibility (1/GPa) = 0.01978003
#
# Stress axis : x y z
#
# Youngs Moduli (GPa) = 52.06592 53.97301 31.90235
#
# Poissons Ratio (x) = 0.36910 0.19558
# Poissons Ratio (y) = 0.35605 0.37265
# Poissons Ratio (z) = 0.31919 0.63046
#
# Static dielectric constant tensor:
#      x y z
#    x 2.837580 0.000000 0.000000 
#    y 0.000000 2.896360 0.000000 
#    z 0.000000 0.000000 2.632540 
# 
# 
# High freq. dielectric constant tensor:
#      x y z
#    x 1.517130 0.000000 0.000000 
#    y 0.000000 1.537330 0.000000 
#    z 0.000000 0.000000 1.528350 
# 
# From -- ./inp_files/8229.got.cif
#   From: 2010.03.12/outbox.cif.g09.slc.cpg/sg55_5_cif.got.tgz:8229.got - 2010.04.16 15:19:21.
