data_PCOD8224952
_publ_section_title
;
Structure prediction by ZEFSAII (Michael W. Deem and Ramdas Pophale) SiO2 
 PCOD8224952
Probable space group: P B A M
;
_chemical_formula_sum "Si O2"
_cell_formula_units_Z 56
_cell_length_a 13.496456
_cell_length_b 24.237322
_cell_length_c 9.122532
_cell_angle_alpha 90.000000
_cell_angle_beta 90.000000
_cell_angle_gamma 90.000000
_cell_volume 2984.143966
_symmetry_space_group_name_H-M "P B A M"
_symmetry_group_IT_number 55
_symmetry_cell_setting 'orthorhombic'
loop_
_space_group_symop_operation_xyz
x,y,z
-x,-y,z
1/2+x,1/2-y,-z
1/2-x,1/2+y,-z
-x,-y,-z
x,y,-z
1/2-x,1/2+y,z
1/2+x,1/2-y,z
loop_
_atom_site_type_symbol
_atom_site_label
_atom_site_fract_x
_atom_site_fract_y
_atom_site_fract_z
Si Si1 0.112210 0.125321 0.328977
Si Si2 0.305517 0.057637 0.328519
Si Si3 0.591427 0.845367 0.171154
Si Si4 0.725938 0.053624 0.827611
Si Si5 0.955707 0.058200 0.829473
Si Si6 0.131493 0.334359 0.172713
Si Si7 0.218220 0.221192 0.827945
O O1 0.099931 0.135692 0.500000
O O2 0.195129 0.079281 0.294319
O O3 0.140797 0.182537 0.254429
O O4 0.008267 0.106086 0.262414
O O5 0.326112 0.052851 0.500000
O O6 0.384840 0.099511 0.260619
O O7 0.320641 0.998375 0.255139
O O8 0.482708 0.824768 0.218412
O O9 0.669014 0.796490 0.209301
O O10 0.596221 0.860520 0.000000
O O11 0.840937 0.059858 0.790207
O O12 0.671930 0.107972 0.763689
O O13 0.708582 0.044944 0.000000
O O14 0.976171 0.069117 0.000000
O O15 0.000000 0.000000 0.779266
O O16 0.198488 0.283343 0.229463
O O17 0.142509 0.337787 0.000000
O O18 0.196404 0.215968 0.000000
#
# Coordination Sequence:
#
# PCOD8224952 Si02
#       7
#     8   8   8   8   8   8   8
#     4  10  20  33  52  77 106 142 178 215 261 314
#     4  10  20  34  52  76 106 140 178 216 260 314
#     4   9  18  34  57  79 102 135 173 213 259 314
#     4  10  20  34  53  77 109 141 176 222 268 317
#     4  10  19  31  51  80 109 139 175 218 268 317
#     4   9  19  35  55  81 106 134 173 219 267 310
#     4   9  18  34  56  78 102 133 174 218 258 310
#
# _framework density 18.76585
#
# number of rings (size 3 to 8) (size 9 to 14) (size 15 to 20)
#    0.000    2.429    1.429    0.857    0.000    3.714 
#    0.000    9.286    0.000    3.429    0.000    0.000 
#    0.000    0.000    0.000    0.000    0.000    0.000 
#
# Total GULP energy -694489.071708 kJ/mol
# GULP energy per Si atom -12401.590566 kJ/mol
# Density = 1.872314 g / cm^3
# Si number density = 18.765850 Si / 1000 Ang^3
#
#
#
# Elastic Constant Matrix: (Units=GPa)
#
#
# Indices 1 2 3 4 5 6 
#
# 1 103.1665 71.3226 32.0853 0.0000 0.0000 0.0000
# 2 71.3226 166.1180 46.0262 0.0000 0.0000 0.0000
# 3 32.0853 46.0262 47.5211 0.0000 0.0000 0.0000
# 4 0.0000 0.0000 0.0000 4.4462 0.0000 0.0000
# 5 0.0000 0.0000 0.0000 0.0000 11.1611 0.0000
# 6 0.0000 0.0000 0.0000 0.0000 0.0000 28.7970
#
#
#
# Elastic Compliance Matrix: (Units=1/GPa)
#
#
# Indices 1 2 3 4 5 6 
#
# 1 0.014668 -0.004857 -0.005199 0.000000 0.000000 0.000000
# 2 -0.004857 0.009836 -0.006247 0.000000 0.000000 0.000000
# 3 -0.005199 -0.006247 0.030604 0.000000 0.000000 0.000000
# 4 0.000000 0.000000 0.000000 0.224910 0.000000 0.000000
# 5 0.000000 0.000000 0.000000 0.000000 0.089597 0.000000
# 6 0.000000 0.000000 0.000000 0.000000 0.000000 0.034726
#
#
# Mechanical properties :
#
#
# Convention : Reuss Voigt Hill
#
# Bulk Modulus (GPa) = 44.44183 68.40822 56.42502
# Shear Modulus (GPa) = 11.24989 20.03896 15.64442
#
# Velocity S-wave (km/s) = 2.45110 3.27133 2.89046
# Velocity P-wave (km/s) = 5.63420 7.12752 6.42440
#
# Compressibility (1/GPa) = 0.02250132
#
# Stress axis : x y z
#
# Youngs Moduli (GPa) = 68.17585 101.66563 32.67502
#
# Poissons Ratio (x) = 0.49380 0.16988
# Poissons Ratio (y) = 0.33114 0.20413
# Poissons Ratio (z) = 0.35446 0.63514
#
# Static dielectric constant tensor:
#      x y z
#    x 3.438890 0.000000 0.000000 
#    y 0.000000 3.551460 0.000000 
#    z 0.000000 0.000000 3.207910 
# 
# 
# High freq. dielectric constant tensor:
#      x y z
#    x 1.726510 0.000000 0.000000 
#    y 0.000000 1.730450 0.000000 
#    z 0.000000 0.000000 1.706540 
# 
# From -- ./inp_files/6086.got.cif
#   From: 2010.03.12/outbox.cif.g09.slc.cpg/sg55_4_cif.got.tgz:6086.got - 2010.04.16 15:19:21.
