data_PCOD8224600
_publ_section_title
;
Structure prediction by ZEFSAII (Michael W. Deem and Ramdas Pophale) SiO2 
 PCOD8224600
Probable space group: P B A M
;
_chemical_formula_sum "Si O2"
_cell_formula_units_Z 56
_cell_length_a 18.725253
_cell_length_b 8.753372
_cell_length_c 17.914773
_cell_angle_alpha 90.000000
_cell_angle_beta 90.000000
_cell_angle_gamma 90.000000
_cell_volume 2936.394414
_symmetry_space_group_name_H-M "P B A M"
_symmetry_group_IT_number 55
_symmetry_cell_setting 'orthorhombic'
loop_
_space_group_symop_operation_xyz
x,y,z
-x,-y,z
1/2+x,1/2-y,-z
1/2-x,1/2+y,-z
-x,-y,-z
x,y,-z
1/2-x,1/2+y,z
1/2+x,1/2-y,z
loop_
_atom_site_type_symbol
_atom_site_label
_atom_site_fract_x
_atom_site_fract_y
_atom_site_fract_z
Si Si1 0.458906 0.858006 0.694239
Si Si2 0.316360 0.829172 0.239165
Si Si3 0.949449 0.141916 0.787767
Si Si4 0.786003 0.791189 0.914436
Si Si5 0.822353 0.012263 0.296454
Si Si6 0.648046 0.619548 0.916902
Si Si7 0.573863 0.411079 0.413910
O O1 0.388065 0.915431 0.736451
O O2 0.509716 0.789106 0.758433
O O3 0.437519 0.749231 0.626585
O O4 0.500000 0.000000 0.657716
O O5 0.313993 0.829303 0.148377
O O6 0.319534 0.653401 0.261312
O O7 0.254577 0.910376 0.287666
O O8 0.926339 0.150645 0.874077
O O9 0.874083 0.124717 0.747505
O O10 0.000000 0.000000 0.770311
O O11 0.700092 0.767009 0.909807
O O12 0.809246 0.963784 0.892468
O O13 0.810734 0.748993 0.000000
O O14 0.856894 0.999647 0.379808
O O15 0.621255 0.595475 0.000000
O O16 0.500000 0.500000 0.401845
O O17 0.590995 0.382646 0.500000
#
# Coordination Sequence:
#
# PCOD8224600 Si02
#       7
#     8   8   8   8   8   8   8
#     4  11  24  38  60  90 121 154 201 250 298 356
#     4  11  21  36  57  87 113 157 198 248 296 349
#     4  12  19  38  58  80 122 154 200 249 296 362
#     4  10  18  32  51  81 115 153 203 250 299 353
#     4  11  21  36  60  88 116 150 200 241 295 351
#     4  10  21  33  54  83 117 157 199 254 305 353
#     4  10  20  40  66  90 120 158 190 229 299 367
#
# _framework density 19.071007999999999
#
# number of rings (size 3 to 8) (size 9 to 14) (size 15 to 20)
#    0.000    1.286    7.143    0.000    2.000    1.714 
#    0.000    3.571    0.000    0.857    0.000    0.000 
#    0.000    0.000    0.000    0.000    0.000    0.000 
#
# Total GULP energy -693796.490290 kJ/mol
# GULP energy per Si atom -12389.223041 kJ/mol
# Density = 1.902760 g / cm^3
# Si number density = 19.071008 Si / 1000 Ang^3
#
#
#
# Elastic Constant Matrix: (Units=GPa)
#
#
# Indices 1 2 3 4 5 6 
#
# 1 112.9613 42.5340 46.1986 0.0000 0.0000 0.0000
# 2 42.5340 45.8009 32.3029 0.0000 0.0000 0.0000
# 3 46.1986 32.3029 118.5982 0.0000 0.0000 0.0000
# 4 0.0000 0.0000 0.0000 11.2187 0.0000 0.0000
# 5 0.0000 0.0000 0.0000 0.0000 40.5721 0.0000
# 6 0.0000 0.0000 0.0000 0.0000 0.0000 34.3441
#
#
#
# Elastic Compliance Matrix: (Units=1/GPa)
#
#
# Indices 1 2 3 4 5 6 
#
# 1 0.014140 -0.011445 -0.002391 0.000000 0.000000 0.000000
# 2 -0.011445 0.036289 -0.005426 0.000000 0.000000 0.000000
# 3 -0.002391 -0.005426 0.010841 0.000000 0.000000 0.000000
# 4 0.000000 0.000000 0.000000 0.089137 0.000000 0.000000
# 5 0.000000 0.000000 0.000000 0.000000 0.024648 0.000000
# 6 0.000000 0.000000 0.000000 0.000000 0.000000 0.029117
#
#
# Mechanical properties :
#
#
# Convention : Reuss Voigt Hill
#
# Bulk Modulus (GPa) = 43.96251 57.71459 50.83855
# Shear Modulus (GPa) = 19.97784 27.64862 23.81323
#
# Velocity S-wave (km/s) = 3.24010 3.81172 3.53747
# Velocity P-wave (km/s) = 6.09095 7.04989 6.58789
#
# Compressibility (1/GPa) = 0.02274665
#
# Stress axis : x y z
#
# Youngs Moduli (GPa) = 70.72228 27.55639 92.24291
#
# Poissons Ratio (x) = 0.31539 0.22052
# Poissons Ratio (y) = 0.80943 0.50050
# Poissons Ratio (z) = 0.16907 0.14952
#
# Static dielectric constant tensor:
#      x y z
#    x 3.520220 0.000000 0.000000 
#    y 0.000000 3.511770 0.000000 
#    z 0.000000 0.000000 3.710220 
# 
# 
# High freq. dielectric constant tensor:
#      x y z
#    x 1.740260 0.000000 0.000000 
#    y 0.000000 1.726460 0.000000 
#    z 0.000000 0.000000 1.739970 
# 
# From -- ./inp_files/23058.got.cif
#   From: 2010.03.12/outbox.cif.g09.slc.cpg/sg55_12_cif.got.tgz:23058.got - 2010.04.16 15:19:21.
