data_PCOD8224978
_publ_section_title
;
Structure prediction by ZEFSAII (Michael W. Deem and Ramdas Pophale) SiO2 
 PCOD8224978
Probable space group: P B A M
;
_chemical_formula_sum "Si O2"
_cell_formula_units_Z 56
_cell_length_a 13.688386
_cell_length_b 28.744002
_cell_length_c 8.910874
_cell_angle_alpha 90.000000
_cell_angle_beta 90.000000
_cell_angle_gamma 90.000000
_cell_volume 3506.063525
_symmetry_space_group_name_H-M "P B A M"
_symmetry_group_IT_number 55
_symmetry_cell_setting 'orthorhombic'
loop_
_space_group_symop_operation_xyz
x,y,z
-x,-y,z
1/2+x,1/2-y,-z
1/2-x,1/2+y,-z
-x,-y,-z
x,y,-z
1/2-x,1/2+y,z
1/2+x,1/2-y,z
loop_
_atom_site_type_symbol
_atom_site_label
_atom_site_fract_x
_atom_site_fract_y
_atom_site_fract_z
Si Si1 0.404241 0.095770 0.675221
Si Si2 0.385173 0.734275 0.826312
Si Si3 0.800187 0.323310 0.828878
Si Si4 0.384703 0.004698 0.164960
Si Si5 0.886913 0.597509 0.822155
Si Si6 0.217480 0.318491 0.676681
Si Si7 0.394856 0.273738 0.827000
O O1 0.425015 0.096062 0.500000
O O2 0.325974 0.135126 0.717099
O O3 0.357488 0.045891 0.720644
O O4 0.504824 0.106555 0.759650
O O5 0.311067 0.692009 0.795102
O O6 0.357873 0.778833 0.727869
O O7 0.492986 0.716743 0.783537
O O8 0.379523 0.749931 0.000000
O O9 0.872006 0.280242 0.796435
O O10 0.811684 0.340460 0.000000
O O11 0.500000 0.000000 0.152198
O O12 0.346892 0.954175 0.220527
O O13 0.341683 0.016750 0.000000
O O14 0.810531 0.632914 0.751545
O O15 0.892512 0.603976 0.000000
O O16 0.211734 0.323815 0.500000
O O17 0.327810 0.306413 0.724749
O O18 0.372631 0.285840 0.000000
#
# Coordination Sequence:
#
# PCOD8224978 Si02
#       7
#     8   8   8   8   8   8   8
#     4  11  20  28  43  68  96 122 148 184 229 272
#     4   9  18  33  51  67  87 121 159 191 220 256
#     4   9  17  29  46  67  91 121 155 186 218 263
#     4   8  16  30  46  63  85 117 152 184 221 265
#     4  10  19  32  48  64  88 122 156 187 219 263
#     4  11  21  30  45  70  96 120 147 183 228 272
#     4   9  18  33  50  66  87 118 155 190 222 259
#
# _framework density 15.972329
#
# number of rings (size 3 to 8) (size 9 to 14) (size 15 to 20)
#    0.000    2.429    0.000    5.571    0.000    7.143 
#    0.000    0.000    0.000    0.000    0.000    1.000 
#    0.000    8.000    0.000    0.000    0.000    0.000 
#
# Total GULP energy -694367.265527 kJ/mol
# GULP energy per Si atom -12399.415456 kJ/mol
# Density = 1.593598 g / cm^3
# Si number density = 15.972329 Si / 1000 Ang^3
#
#
#
# Elastic Constant Matrix: (Units=GPa)
#
#
# Indices 1 2 3 4 5 6 
#
# 1 89.0682 46.2548 38.5564 0.0000 0.0000 0.0000
# 2 46.2548 109.1276 57.9798 0.0000 0.0000 0.0000
# 3 38.5564 57.9798 100.7378 0.0000 0.0000 0.0000
# 4 0.0000 0.0000 0.0000 14.7781 0.0000 0.0000
# 5 0.0000 0.0000 0.0000 0.0000 16.1324 0.0000
# 6 0.0000 0.0000 0.0000 0.0000 0.0000 19.6564
#
#
#
# Elastic Compliance Matrix: (Units=1/GPa)
#
#
# Indices 1 2 3 4 5 6 
#
# 1 0.015000 -0.004765 -0.002999 0.000000 0.000000 0.000000
# 2 -0.004765 0.014713 -0.006645 0.000000 0.000000 0.000000
# 3 -0.002999 -0.006645 0.014899 0.000000 0.000000 0.000000
# 4 0.000000 0.000000 0.000000 0.067668 0.000000 0.000000
# 5 0.000000 0.000000 0.000000 0.000000 0.061987 0.000000
# 6 0.000000 0.000000 0.000000 0.000000 0.000000 0.050874
#
#
# Mechanical properties :
#
#
# Convention : Reuss Voigt Hill
#
# Bulk Modulus (GPa) = 63.30723 64.94618 64.12670
# Shear Modulus (GPa) = 19.28847 20.52290 19.90568
#
# Velocity S-wave (km/s) = 3.47885 3.58844 3.53407
# Velocity P-wave (km/s) = 7.47383 7.61047 7.54246
#
# Compressibility (1/GPa) = 0.01579598
#
# Stress axis : x y z
#
# Youngs Moduli (GPa) = 66.66749 67.96485 67.11894
#
# Poissons Ratio (x) = 0.32382 0.20127
# Poissons Ratio (y) = 0.31764 0.44599
# Poissons Ratio (z) = 0.19992 0.45161
#
# Static dielectric constant tensor:
#      x y z
#    x 2.884040 0.000000 0.000000 
#    y 0.000000 3.194530 0.000000 
#    z 0.000000 0.000000 2.996680 
# 
# 
# High freq. dielectric constant tensor:
#      x y z
#    x 1.583980 0.000000 0.000000 
#    y 0.000000 1.609320 0.000000 
#    z 0.000000 0.000000 1.615370 
# 
# From -- ./inp_files/6854.got.cif
#   From: 2010.03.12/outbox.cif.g09.slc.cpg/sg55_4_cif.got.tgz:6854.got - 2010.04.16 15:19:21.
