data_PCOD8224416
_publ_section_title
;
Structure prediction by ZEFSAII (Michael W. Deem and Ramdas Pophale) SiO2 
 PCOD8224416
Probable space group: P B A M
;
_chemical_formula_sum "Si O2"
_cell_formula_units_Z 52
_cell_length_a 25.654246
_cell_length_b 8.831499
_cell_length_c 12.426503
_cell_angle_alpha 90.000000
_cell_angle_beta 90.000000
_cell_angle_gamma 90.000000
_cell_volume 2815.416218
_symmetry_space_group_name_H-M "P B A M"
_symmetry_group_IT_number 55
_symmetry_cell_setting 'orthorhombic'
loop_
_space_group_symop_operation_xyz
x,y,z
-x,-y,z
1/2+x,1/2-y,-z
1/2-x,1/2+y,-z
-x,-y,-z
x,y,-z
1/2-x,1/2+y,z
1/2+x,1/2-y,z
loop_
_atom_site_type_symbol
_atom_site_label
_atom_site_fract_x
_atom_site_fract_y
_atom_site_fract_z
Si Si1 0.887692 0.663210 0.000000
Si Si2 0.999998 0.831955 0.232603
Si Si3 0.303616 0.674376 0.373168
Si Si4 0.387694 0.163213 0.000000
Si Si5 0.892027 0.681141 0.233664
Si Si6 0.696381 0.674379 0.626832
Si Si7 0.000002 0.255697 0.000000
Si Si8 0.107970 0.681141 0.233664
O O1 0.859667 0.499997 0.000000
O O2 0.874467 0.745429 0.114086
O O3 0.949971 0.636003 0.000000
O O4 0.948340 0.742934 0.270532
O O5 0.999997 0.851431 0.104088
O O6 0.051656 0.742925 0.270528
O O7 0.000000 0.000000 0.284136
O O8 0.310506 0.691557 0.500000
O O9 0.350688 0.763527 0.319638
O O10 0.249998 0.749993 0.334215
O O11 0.303920 0.499998 0.336981
O O12 0.449974 0.136010 0.000000
O O13 0.374470 0.245431 0.885913
O O14 0.894606 0.500000 0.230143
O O15 0.689491 0.691557 0.500000
O O16 0.649306 0.763522 0.680360
#
# Coordination Sequence:
#
# PCOD8224416 Si02
#       8
#     4   8   8   4   8   8   4   8
#     4   8  15  27  46  73 105 139 171 207 250 298
#     4  10  18  29  47  74 108 142 175 211 254 302
#     4  10  21  38  59  80 101 129 169 216 262 308
#     4   8  15  27  46  73 105 139 171 207 250 298
#     4  10  19  33  53  78 108 140 175 212 254 304
#     4  10  21  38  59  80 101 129 169 216 262 308
#     4   8  14  24  42  68  99 138 179 212 243 292
#     4  10  19  33  53  78 108 140 175 212 254 304
#
# _framework density 18.469739000000001
#
# number of rings (size 3 to 8) (size 9 to 14) (size 15 to 20)
#    0.000    2.462    0.000    2.769    0.000    5.538 
#    0.000    3.846    0.000    4.615    0.000    0.000 
#    0.000    0.000    0.000    0.000    0.000    0.000 
#
# Total GULP energy -644288.638523 kJ/mol
# GULP energy per Si atom -12390.166125 kJ/mol
# Density = 1.842770 g / cm^3
# Si number density = 18.469739 Si / 1000 Ang^3
#
#
#
# Elastic Constant Matrix: (Units=GPa)
#
#
# Indices 1 2 3 4 5 6 
#
# 1 128.6479 50.9423 41.8606 0.0000 0.0000 0.0000
# 2 50.9423 109.5570 27.8081 0.0000 0.0000 0.0000
# 3 41.8606 27.8081 37.4934 0.0000 0.0000 0.0000
# 4 0.0000 0.0000 0.0000 20.0641 0.0000 0.0000
# 5 0.0000 0.0000 0.0000 0.0000 33.6027 0.0000
# 6 0.0000 0.0000 0.0000 0.0000 0.0000 33.0706
#
#
#
# Elastic Compliance Matrix: (Units=1/GPa)
#
#
# Indices 1 2 3 4 5 6 
#
# 1 0.012910 -0.002888 -0.012272 0.000000 0.000000 0.000000
# 2 -0.002888 0.011891 -0.005595 0.000000 0.000000 0.000000
# 3 -0.012272 -0.005595 0.044522 0.000000 0.000000 0.000000
# 4 0.000000 0.000000 0.000000 0.049840 0.000000 0.000000
# 5 0.000000 0.000000 0.000000 0.000000 0.029759 0.000000
# 6 0.000000 0.000000 0.000000 0.000000 0.000000 0.030238
#
#
# Mechanical properties :
#
#
# Convention : Reuss Voigt Hill
#
# Bulk Modulus (GPa) = 35.95344 57.43558 46.69451
# Shear Modulus (GPa) = 21.74484 27.68663 24.71573
#
# Velocity S-wave (km/s) = 3.43494 3.87593 3.66208
# Velocity P-wave (km/s) = 5.93634 7.15507 6.57401
#
# Compressibility (1/GPa) = 0.02781375
#
# Stress axis : x y z
#
# Youngs Moduli (GPa) = 77.46059 84.10004 22.46101
#
# Poissons Ratio (x) = 0.24289 0.27563
# Poissons Ratio (y) = 0.22371 0.12566
# Poissons Ratio (z) = 0.95056 0.47050
#
# Static dielectric constant tensor:
#      x y z
#    x 3.289530 0.000000 0.000000 
#    y 0.000000 3.306630 0.000000 
#    z 0.000000 0.000000 3.393490 
# 
# 
# High freq. dielectric constant tensor:
#      x y z
#    x 1.704190 0.000000 0.000000 
#    y 0.000000 1.714800 0.000000 
#    z 0.000000 0.000000 1.702940 
# 
# From -- ./inp_files/15988.got.cif
#   From: 2010.03.12/outbox.cif.g09.slc.cpg/sg55_8_cif.got.tgz:15988.got - 2010.04.16 15:19:21.
