data_PCOD8224199
_publ_section_title
;
Structure prediction by ZEFSAII (Michael W. Deem and Ramdas Pophale) SiO2 
 PCOD8224199
Probable space group: P C C A
;
_chemical_formula_sum "Si O2"
_cell_formula_units_Z 32
_cell_length_a 17.853888
_cell_length_b 6.367688
_cell_length_c 11.647241
_cell_angle_alpha 90.000000
_cell_angle_beta 90.000000
_cell_angle_gamma 90.000000
_cell_volume 1324.151399
_symmetry_space_group_name_H-M "P C C A"
_symmetry_group_IT_number 54
_symmetry_cell_setting 'orthorhombic'
loop_
_space_group_symop_operation_xyz
x,y,z
1/2-x,-y,z
1/2+x,-y,1/2-z
-x,y,1/2-z
-x,-y,-z
1/2+x,y,-z
1/2-x,y,1/2+z
x,-y,1/2+z
loop_
_atom_site_type_symbol
_atom_site_label
_atom_site_fract_x
_atom_site_fract_y
_atom_site_fract_z
Si Si1 0.873131 0.458762 0.116767
Si Si2 0.250000 0.500000 0.203648
Si Si3 0.574268 0.900097 0.945903
Si Si4 0.796566 0.188012 0.469267
Si Si5 0.000000 0.339529 0.750000
O O1 0.823103 0.420717 0.228900
O O2 0.955866 0.523273 0.156550
O O3 0.884599 0.259430 0.034539
O O4 0.825229 0.642820 0.059106
O O5 0.238919 0.703650 0.121212
O O6 0.558032 0.796525 0.823177
O O7 0.629166 0.089908 0.912766
O O8 0.500000 0.000000 0.000000
O O9 0.750000 0.000000 0.530779
#
# Coordination Sequence:
#
# PCOD8224199 Si02
#       5
#     8   4   8   8   4
#     4  12  27  49  73 114 156 199 260 326 384 475
#     4  12  28  46  80 106 150 204 256 330 394 454
#     4  12  28  47  76 115 157 203 263 322 389 479
#     4  12  26  49  75 109 153 199 262 321 391 469
#     4  12  26  46  78 112 154 210 248 320 398 458
#
# _framework density 24.166419999999999
#
# number of rings (size 3 to 8) (size 9 to 14) (size 15 to 20)
#    0.000    0.000    2.500    7.500    7.000    5.000 
#    0.000    0.000    0.000    0.000    0.000    0.000 
#    0.000    0.000    0.000    0.000    0.000    0.000 
#
# Total GULP energy -396593.884812 kJ/mol
# GULP energy per Si atom -12393.558900 kJ/mol
# Density = 2.411142 g / cm^3
# Si number density = 24.166420 Si / 1000 Ang^3
#
#
#
# Elastic Constant Matrix: (Units=GPa)
#
#
# Indices 1 2 3 4 5 6 
#
# 1 102.0066 44.4944 30.4704 0.0000 0.0000 0.0000
# 2 44.4944 126.3497 52.7913 0.0000 0.0000 0.0000
# 3 30.4704 52.7913 108.1263 0.0000 0.0000 0.0000
# 4 0.0000 0.0000 0.0000 14.3268 0.0000 0.0000
# 5 0.0000 0.0000 0.0000 0.0000 61.1118 0.0000
# 6 0.0000 0.0000 0.0000 0.0000 0.0000 67.8683
#
#
#
# Elastic Compliance Matrix: (Units=1/GPa)
#
#
# Indices 1 2 3 4 5 6 
#
# 1 0.011807 -0.003477 -0.001630 0.000000 0.000000 0.000000
# 2 -0.003477 0.010967 -0.004375 0.000000 0.000000 0.000000
# 3 -0.001630 -0.004375 0.011843 0.000000 0.000000 0.000000
# 4 0.000000 0.000000 0.000000 0.069799 0.000000 0.000000
# 5 0.000000 0.000000 0.000000 0.000000 0.016363 0.000000
# 6 0.000000 0.000000 0.000000 0.000000 0.000000 0.014734
#
#
# Mechanical properties :
#
#
# Convention : Reuss Voigt Hill
#
# Bulk Modulus (GPa) = 63.87832 65.77719 64.82775
# Shear Modulus (GPa) = 31.30985 42.57649 36.94317
#
# Velocity S-wave (km/s) = 3.60334 4.20194 3.91410
# Velocity P-wave (km/s) = 6.61832 7.12876 6.87828
#
# Compressibility (1/GPa) = 0.01565476
#
# Stress axis : x y z
#
# Youngs Moduli (GPa) = 84.69806 91.18523 84.43452
#
# Poissons Ratio (x) = 0.31704 0.13760
# Poissons Ratio (y) = 0.29448 0.36936
# Poissons Ratio (z) = 0.13803 0.39889
#
# Static dielectric constant tensor:
#      x y z
#    x 4.719600 0.000000 0.000000 
#    y 0.000000 4.551890 0.000000 
#    z 0.000000 0.000000 4.307190 
# 
# 
# High freq. dielectric constant tensor:
#      x y z
#    x 1.988160 0.000000 0.000000 
#    y 0.000000 1.967880 0.000000 
#    z 0.000000 0.000000 1.953670 
# 
# From -- ./inp_files/9279.got.cif
#   From: 2010.03.12/outbox.cif.g09.slc.cpg/sg54_5_cif.got.tgz:9279.got - 2010.04.16 15:00:50.
