data_PCOD8224089
_publ_section_title
;
Structure prediction by ZEFSAII (Michael W. Deem and Ramdas Pophale) SiO2 
 PCOD8224089
Probable space group: P C C A
;
_chemical_formula_sum "Si O2"
_cell_formula_units_Z 24
_cell_length_a 7.545702
_cell_length_b 8.382918
_cell_length_c 16.854088
_cell_angle_alpha 90.000000
_cell_angle_beta 90.000000
_cell_angle_gamma 90.000000
_cell_volume 1066.105355
_symmetry_space_group_name_H-M "P C C A"
_symmetry_group_IT_number 54
_symmetry_cell_setting 'orthorhombic'
loop_
_space_group_symop_operation_xyz
x,y,z
1/2-x,-y,z
1/2+x,-y,1/2-z
-x,y,1/2-z
-x,-y,-z
1/2+x,y,-z
1/2-x,y,1/2+z
x,-y,1/2+z
loop_
_atom_site_type_symbol
_atom_site_label
_atom_site_fract_x
_atom_site_fract_y
_atom_site_fract_z
Si Si1 0.772941 0.319169 0.936269
Si Si2 0.442281 0.167614 0.337955
Si Si3 0.910084 0.827972 0.594167
O O1 0.750000 0.500000 0.965939
O O2 0.589308 0.270155 0.894859
O O3 0.929371 0.305542 0.871458
O O4 0.817536 0.205100 0.009658
O O5 0.500000 0.119575 0.250000
O O6 0.236390 0.224402 0.339489
O O7 0.456572 0.014324 0.395873
#
# Coordination Sequence:
#
# PCOD8224089 Si02
#       3
#     8   8   8
#     4  12  25  45  72 105 139 184 232 289 350 416
#     4  11  27  45  67 106 138 184 236 290 353 407
#     4  11  25  43  76  96 139 183 238 289 333 420
#
# _framework density 22.511845999999998
#
# number of rings (size 3 to 8) (size 9 to 14) (size 15 to 20)
#    0.000    0.667    3.333    3.000   14.000    0.000 
#    6.000    0.000    0.000    0.000    0.000    0.000 
#    0.000    0.000    0.000    0.000    0.000    0.000 
#
# Total GULP energy -297584.373316 kJ/mol
# GULP energy per Si atom -12399.348888 kJ/mol
# Density = 2.246061 g / cm^3
# Si number density = 22.511846 Si / 1000 Ang^3
#
#
#
# Elastic Constant Matrix: (Units=GPa)
#
#
# Indices 1 2 3 4 5 6 
#
# 1 163.8077 20.8288 31.0298 0.0000 0.0000 0.0000
# 2 20.8288 85.9623 50.8830 0.0000 0.0000 0.0000
# 3 31.0298 50.8830 102.4250 0.0000 0.0000 0.0000
# 4 0.0000 0.0000 0.0000 8.6129 0.0000 0.0000
# 5 0.0000 0.0000 0.0000 0.0000 34.5777 0.0000
# 6 0.0000 0.0000 0.0000 0.0000 0.0000 21.8017
#
#
#
# Elastic Compliance Matrix: (Units=1/GPa)
#
#
# Indices 1 2 3 4 5 6 
#
# 1 0.006497 -0.000580 -0.001680 0.000000 0.000000 0.000000
# 2 -0.000580 0.016530 -0.008036 0.000000 0.000000 0.000000
# 3 -0.001680 -0.008036 0.014265 0.000000 0.000000 0.000000
# 4 0.000000 0.000000 0.000000 0.116105 0.000000 0.000000
# 5 0.000000 0.000000 0.000000 0.000000 0.028920 0.000000
# 6 0.000000 0.000000 0.000000 0.000000 0.000000 0.045868
#
#
# Mechanical properties :
#
#
# Convention : Reuss Voigt Hill
#
# Bulk Modulus (GPa) = 59.88315 61.96424 60.92370
# Shear Modulus (GPa) = 19.65842 29.62868 24.64355
#
# Velocity S-wave (km/s) = 2.95828 3.63180 3.31220
# Velocity P-wave (km/s) = 6.19089 6.72098 6.46137
#
# Compressibility (1/GPa) = 0.01669919
#
# Stress axis : x y z
#
# Youngs Moduli (GPa) = 153.92422 60.49470 70.10340
#
# Poissons Ratio (x) = 0.03506 0.11779
# Poissons Ratio (y) = 0.08921 0.56338
# Poissons Ratio (z) = 0.25863 0.48616
#
# Static dielectric constant tensor:
#      x y z
#    x 4.802220 0.000000 0.000000 
#    y 0.000000 3.828400 0.000000 
#    z 0.000000 0.000000 3.758510 
# 
# 
# High freq. dielectric constant tensor:
#      x y z
#    x 1.922300 0.000000 0.000000 
#    y 0.000000 1.865890 0.000000 
#    z 0.000000 0.000000 1.864220 
# 
# From -- ./inp_files/11114.got.cif
#   From: 2010.03.12/outbox.cif.g09.slc.cpg/sg54_6_cif.got.tgz:11114.got - 2010.04.16 15:00:50.
