data_PCOD8224775
_publ_section_title
;
Structure prediction by ZEFSAII (Michael W. Deem and Ramdas Pophale) SiO2 
 PCOD8224775
Probable space group: P B A M
;
_chemical_formula_sum "Si O2"
_cell_formula_units_Z 56
_cell_length_a 26.418899
_cell_length_b 5.135178
_cell_length_c 24.623834
_cell_angle_alpha 90.000000
_cell_angle_beta 90.000000
_cell_angle_gamma 90.000000
_cell_volume 3340.610881
_symmetry_space_group_name_H-M "P B A M"
_symmetry_group_IT_number 55
_symmetry_cell_setting 'orthorhombic'
loop_
_space_group_symop_operation_xyz
x,y,z
-x,-y,z
1/2+x,1/2-y,-z
1/2-x,1/2+y,-z
-x,-y,-z
x,y,-z
1/2-x,1/2+y,z
1/2+x,1/2-y,z
loop_
_atom_site_type_symbol
_atom_site_label
_atom_site_fract_x
_atom_site_fract_y
_atom_site_fract_z
Si Si1 0.782107 0.039750 0.437748
Si Si2 0.443527 0.983142 0.627748
Si Si3 0.382222 0.484979 0.243673
Si Si4 0.443232 0.987466 0.243299
Si Si5 0.116888 0.981207 0.627476
Si Si6 0.282470 0.555916 0.942069
Si Si7 0.784303 0.033311 0.825914
O O1 0.800077 0.017395 0.500000
O O2 0.739816 0.823963 0.424848
O O3 0.828802 0.986332 0.398954
O O4 0.409611 0.219897 0.605836
O O5 0.500000 0.000000 0.603190
O O6 0.446493 0.998351 0.692226
O O7 0.418508 0.716631 0.608006
O O8 0.415895 0.726280 0.223559
O O9 0.375907 0.482283 0.308139
O O10 0.326303 0.503643 0.219650
O O11 0.410500 0.229251 0.221674
O O12 0.500000 0.000000 0.218916
O O13 0.235282 0.355382 0.941166
O O14 0.311812 0.496930 0.885571
O O15 0.312428 0.511573 0.000000
O O16 0.740885 0.815951 0.818923
#
# Coordination Sequence:
#
# PCOD8224775 Si02
#       7
#     8   8   8   8   8   8   8
#     4  10  21  36  52  68  87 116 154 189 215 244
#     4   9  17  30  49  71  92 115 142 174 219 269
#     4  10  19  29  44  68  92 116 146 176 218 268
#     4   9  17  30  46  64  88 116 148 185 217 251
#     4  10  19  31  49  69  90 117 146 180 218 259
#     4   8  14  25  40  56  77 111 150 179 206 245
#     4  10  19  29  41  61  93 124 144 173 215 258
#
# _framework density 16.763401999999999
#
# number of rings (size 3 to 8) (size 9 to 14) (size 15 to 20)
#    0.000    2.571    0.000    2.571    0.000    4.571 
#    0.000    0.000    0.000    2.571    0.000    0.000 
#    0.000    3.429    0.000    0.000    0.000    0.000 
#
# Total GULP energy -694080.156794 kJ/mol
# GULP energy per Si atom -12394.288514 kJ/mol
# Density = 1.672525 g / cm^3
# Si number density = 16.763402 Si / 1000 Ang^3
#
#
#
# Elastic Constant Matrix: (Units=GPa)
#
#
# Indices 1 2 3 4 5 6 
#
# 1 82.3802 18.0050 37.7374 0.0000 0.0000 0.0000
# 2 18.0050 88.4342 24.7890 0.0000 0.0000 0.0000
# 3 37.7374 24.7890 41.3219 0.0000 0.0000 0.0000
# 4 0.0000 0.0000 0.0000 11.8488 0.0000 0.0000
# 5 0.0000 0.0000 0.0000 0.0000 -0.5594 0.0000
# 6 0.0000 0.0000 0.0000 0.0000 0.0000 24.6713
#
#
#
# Elastic Compliance Matrix: (Units=1/GPa)
#
#
# Indices 1 2 3 4 5 6 
#
# 1 0.020998 0.001323 -0.019970 0.000000 0.000000 0.000000
# 2 0.001323 0.013677 -0.009413 0.000000 0.000000 0.000000
# 3 -0.019970 -0.009413 0.048084 0.000000 0.000000 0.000000
# 4 0.000000 0.000000 0.000000 0.084397 0.000000 0.000000
# 5 0.000000 0.000000 0.000000 0.000000 -1.787559 0.000000
# 6 0.000000 0.000000 0.000000 0.000000 0.000000 0.040533
#
#
# Mechanical properties :
#
#
# Convention : Reuss Voigt Hill
#
# Bulk Modulus (GPa) = 37.53829 41.46659 39.50244
# Shear Modulus (GPa) = -3.30061 15.96579 6.33259
#
# Velocity S-wave (km/s) = -1.40471 3.08948 1.94572
# Velocity P-wave (km/s) = 4.45092 6.12508 5.35384
#
# Compressibility (1/GPa) = 0.02663947
#
# Stress axis : x y z
#
# Youngs Moduli (GPa) = 47.62443 73.11507 20.79677
#
# Poissons Ratio (x) = -0.09670 0.41530
# Poissons Ratio (y) = -0.06299 0.19576
# Poissons Ratio (z) = 0.95104 0.68822
#
# Static dielectric constant tensor:
#      x y z
#    x 2.962190 0.000000 0.000000 
#    y 0.000000 3.479190 0.000000 
#    z 0.000000 0.000000 3.063240 
# 
# 
# High freq. dielectric constant tensor:
#      x y z
#    x 1.621310 0.000000 0.000000 
#    y 0.000000 1.673470 0.000000 
#    z 0.000000 0.000000 1.614580 
# 
# From -- ./inp_files/22392.got.cif
#   From: 2010.03.12/outbox.cif.g09.slc.cpg/sg55_12_cif.got.tgz:22392.got - 2010.04.16 15:19:21.
