data_PCOD8224352
_publ_section_title
;
Structure prediction by ZEFSAII (Michael W. Deem and Ramdas Pophale) SiO2 
 PCOD8224352
Probable space group: P B A M
;
_chemical_formula_sum "Si O2"
_cell_formula_units_Z 56
_cell_length_a 22.272667
_cell_length_b 17.625213
_cell_length_c 9.019916
_cell_angle_alpha 90.000000
_cell_angle_beta 90.000000
_cell_angle_gamma 90.000000
_cell_volume 3540.862734
_symmetry_space_group_name_H-M "P B A M"
_symmetry_group_IT_number 55
_symmetry_cell_setting 'orthorhombic'
loop_
_space_group_symop_operation_xyz
x,y,z
-x,-y,z
1/2+x,1/2-y,-z
1/2-x,1/2+y,-z
-x,-y,-z
x,y,-z
1/2-x,1/2+y,z
1/2+x,1/2-y,z
loop_
_atom_site_type_symbol
_atom_site_label
_atom_site_fract_x
_atom_site_fract_y
_atom_site_fract_z
Si Si1 0.217005 0.564020 0.333338
Si Si2 0.647809 0.378999 0.329589
Si Si3 0.430543 0.496725 0.173870
Si Si4 0.186282 0.260279 0.830208
Si Si5 0.304014 0.225661 0.668179
Si Si6 0.149176 0.880864 0.670065
Si Si7 0.227517 0.418587 0.171734
O O1 0.209652 0.533168 0.500000
O O2 0.285424 0.589678 0.303067
O O3 0.174434 0.638468 0.307545
O O4 0.197091 0.497896 0.220780
O O5 0.629085 0.379187 0.500000
O O6 0.601363 0.430208 0.241397
O O7 0.643083 0.292187 0.269736
O O8 0.500000 0.500000 0.215898
O O9 0.404510 0.418575 0.239366
O O10 0.419406 0.496804 0.000000
O O11 0.255373 0.244193 0.792342
O O12 0.178881 0.350976 0.801642
O O13 0.173918 0.239039 0.000000
O O14 0.276208 0.231115 0.500000
O O15 0.356533 0.288780 0.684124
O O16 0.144552 0.907646 0.500000
O O17 0.213323 0.908696 0.729267
O O18 0.246488 0.421744 0.000000
#
# Coordination Sequence:
#
# PCOD8224352 Si02
#       7
#     8   8   8   8   8   8   8
#     4   9  16  26  41  62  87 115 145 178 214 255
#     4  10  19  31  46  62  82 113 148 183 222 259
#     4  11  23  35  47  64  86 114 149 188 226 264
#     4   9  17  27  40  60  85 114 145 177 214 256
#     4   8  16  28  41  59  83 112 147 179 212 258
#     4  10  18  30  46  61  82 114 148 185 223 257
#     4  10  18  26  40  63  90 119 148 177 212 257
#
# _framework density 15.815355
#
# number of rings (size 3 to 8) (size 9 to 14) (size 15 to 20)
#    0.000    2.429    1.429    3.000    0.000    5.714 
#    0.000    0.000    0.000    0.000    0.000    0.000 
#    0.000    1.143    0.000   12.857    0.000    5.714 
#
# Total GULP energy -693987.632945 kJ/mol
# GULP energy per Si atom -12392.636303 kJ/mol
# Density = 1.577936 g / cm^3
# Si number density = 15.815355 Si / 1000 Ang^3
#
#
#
# Elastic Constant Matrix: (Units=GPa)
#
#
# Indices 1 2 3 4 5 6 
#
# 1 42.8911 37.2069 29.1083 0.0000 0.0000 0.0000
# 2 37.2069 141.2571 55.2860 0.0000 0.0000 0.0000
# 3 29.1083 55.2860 74.9344 0.0000 0.0000 0.0000
# 4 0.0000 0.0000 0.0000 28.9116 0.0000 0.0000
# 5 0.0000 0.0000 0.0000 0.0000 12.8241 0.0000
# 6 0.0000 0.0000 0.0000 0.0000 0.0000 12.0852
#
#
#
# Elastic Compliance Matrix: (Units=1/GPa)
#
#
# Indices 1 2 3 4 5 6 
#
# 1 0.034340 -0.005377 -0.009372 0.000000 0.000000 0.000000
# 2 -0.005377 0.010795 -0.005876 0.000000 0.000000 0.000000
# 3 -0.009372 -0.005876 0.021321 0.000000 0.000000 0.000000
# 4 0.000000 0.000000 0.000000 0.034588 0.000000 0.000000
# 5 0.000000 0.000000 0.000000 0.000000 0.077978 0.000000
# 6 0.000000 0.000000 0.000000 0.000000 0.000000 0.082746
#
#
# Mechanical properties :
#
#
# Convention : Reuss Voigt Hill
#
# Bulk Modulus (GPa) = 39.67369 55.80944 47.74157
# Shear Modulus (GPa) = 16.05545 19.92961 17.99253
#
# Velocity S-wave (km/s) = 3.18965 3.55370 3.37658
# Velocity P-wave (km/s) = 6.22135 7.22517 6.74197
#
# Compressibility (1/GPa) = 0.02520562
#
# Stress axis : x y z
#
# Youngs Moduli (GPa) = 29.12089 92.63242 46.90213
#
# Poissons Ratio (x) = 0.49807 0.43958
# Poissons Ratio (y) = 0.15658 0.27560
# Poissons Ratio (z) = 0.27293 0.54432
#
# Static dielectric constant tensor:
#      x y z
#    x 2.455920 0.000000 0.000000 
#    y 0.000000 3.563210 0.000000 
#    z 0.000000 0.000000 3.120710 
# 
# 
# High freq. dielectric constant tensor:
#      x y z
#    x 1.522680 0.000000 0.000000 
#    y 0.000000 1.629180 0.000000 
#    z 0.000000 0.000000 1.624860 
# 
# From -- ./inp_files/7871.got.cif
#   From: 2010.03.12/outbox.cif.g09.slc.cpg/sg55_4_cif.got.tgz:7871.got - 2010.04.16 15:19:21.
