data_PCOD8224827
_publ_section_title
;
Structure prediction by ZEFSAII (Michael W. Deem and Ramdas Pophale) SiO2 
 PCOD8224827
Probable space group: P B A M
;
_chemical_formula_sum "Si O2"
_cell_formula_units_Z 64
_cell_length_a 18.842868
_cell_length_b 21.481911
_cell_length_c 9.312691
_cell_angle_alpha 90.000000
_cell_angle_beta 90.000000
_cell_angle_gamma 90.000000
_cell_volume 3769.598638
_symmetry_space_group_name_H-M "P B A M"
_symmetry_group_IT_number 55
_symmetry_cell_setting 'orthorhombic'
loop_
_space_group_symop_operation_xyz
x,y,z
-x,-y,z
1/2+x,1/2-y,-z
1/2-x,1/2+y,-z
-x,-y,-z
x,y,-z
1/2-x,1/2+y,z
1/2+x,1/2-y,z
loop_
_atom_site_type_symbol
_atom_site_label
_atom_site_fract_x
_atom_site_fract_y
_atom_site_fract_z
Si Si1 0.884858 0.257545 0.165020
Si Si2 0.035032 0.562130 0.335057
Si Si3 0.488779 0.806993 0.337951
Si Si4 0.326783 0.595851 0.831652
Si Si5 0.920593 0.020091 0.832435
Si Si6 0.831481 0.387635 0.834352
Si Si7 0.919540 0.813347 0.338312
Si Si8 0.079500 0.855735 0.667605
O O1 0.827630 0.312588 0.188042
O O2 0.869449 0.197180 0.263066
O O3 0.958566 0.288063 0.212206
O O4 0.889556 0.236172 0.000000
O O5 0.054867 0.549701 0.500000
O O6 0.108408 0.578423 0.257503
O O7 0.000000 0.500000 0.267465
O O8 0.977131 0.618632 0.321410
O O9 0.519983 0.793487 0.500000
O O10 0.419486 0.762615 0.319978
O O11 0.368799 0.534845 0.781404
O O12 0.245154 0.587101 0.785111
O O13 0.360399 0.657500 0.762787
O O14 0.333604 0.606105 0.000000
O O15 0.899524 0.079693 0.740363
O O16 0.911687 0.035672 0.000000
O O17 0.000000 0.000000 0.795364
O O18 0.847416 0.403192 0.000000
O O19 0.900224 0.832460 0.500000
O O20 0.997792 0.839018 0.298632
O O21 0.095604 0.859951 0.500000
#
# Coordination Sequence:
#
# PCOD8224827 Si02
#       8
#     8   8   8   8   8   8   8   8
#     4   9  16  28  48  70  91 119 157 197 241 291
#     4   9  17  31  54  79 100 129 165 205 250 299
#     4   8  15  28  45  70  99 121 150 195 244 288
#     4  10  20  33  49  69  98 132 167 207 248 296
#     4  10  19  31  48  72  99 134 174 207 243 289
#     4   9  19  34  51  73  99 129 163 207 255 299
#     4   9  17  28  44  68  95 126 158 197 245 288
#     4  10  19  30  47  71  99 126 159 205 247 284
#
# _framework density 16.977934999999999
#
# number of rings (size 3 to 8) (size 9 to 14) (size 15 to 20)
#    0.000    2.750    1.250    1.500    0.000    4.000 
#    0.000    0.000    2.750    0.000    0.000    0.000 
#    0.000    0.000    0.000    0.000    0.000    0.000 
#
# Total GULP energy -793134.859448 kJ/mol
# GULP energy per Si atom -12392.732179 kJ/mol
# Density = 1.693929 g / cm^3
# Si number density = 16.977935 Si / 1000 Ang^3
#
#
#
# Elastic Constant Matrix: (Units=GPa)
#
#
# Indices 1 2 3 4 5 6 
#
# 1 78.4209 58.2978 36.9500 0.0000 0.0000 0.0000
# 2 58.2978 145.4559 53.3743 0.0000 0.0000 0.0000
# 3 36.9500 53.3743 64.2099 0.0000 0.0000 0.0000
# 4 0.0000 0.0000 0.0000 26.8075 0.0000 0.0000
# 5 0.0000 0.0000 0.0000 0.0000 17.8595 0.0000
# 6 0.0000 0.0000 0.0000 0.0000 0.0000 23.0714
#
#
#
# Elastic Compliance Matrix: (Units=1/GPa)
#
#
# Indices 1 2 3 4 5 6 
#
# 1 0.020149 -0.005498 -0.007025 0.000000 0.000000 0.000000
# 2 -0.005498 0.011392 -0.006306 0.000000 0.000000 0.000000
# 3 -0.007025 -0.006306 0.024858 0.000000 0.000000 0.000000
# 4 0.000000 0.000000 0.000000 0.037303 0.000000 0.000000
# 5 0.000000 0.000000 0.000000 0.000000 0.055993 0.000000
# 6 0.000000 0.000000 0.000000 0.000000 0.000000 0.043344
#
#
# Mechanical properties :
#
#
# Convention : Reuss Voigt Hill
#
# Bulk Modulus (GPa) = 53.35574 65.03676 59.19625
# Shear Modulus (GPa) = 21.10211 22.84531 21.97371
#
# Velocity S-wave (km/s) = 3.52932 3.67221 3.60147
# Velocity P-wave (km/s) = 6.93563 7.50799 7.22748
#
# Compressibility (1/GPa) = 0.01874213
#
# Stress axis : x y z
#
# Youngs Moduli (GPa) = 49.63141 87.77756 40.22804
#
# Poissons Ratio (x) = 0.48258 0.28259
# Poissons Ratio (y) = 0.27286 0.25369
# Poissons Ratio (z) = 0.34864 0.55354
#
# Static dielectric constant tensor:
#      x y z
#    x 2.875400 0.000000 0.000000 
#    y 0.000000 3.507520 0.000000 
#    z 0.000000 0.000000 3.168420 
# 
# 
# High freq. dielectric constant tensor:
#      x y z
#    x 1.607130 0.000000 0.000000 
#    y 0.000000 1.664920 0.000000 
#    z 0.000000 0.000000 1.659120 
# 
# From -- ./inp_files/9192.got.cif
#   From: 2010.03.12/outbox.cif.g09.slc.cpg/sg55_5_cif.got.tgz:9192.got - 2010.04.16 15:19:21.
