data_PCOD8224310
_publ_section_title
;
Structure prediction by ZEFSAII (Michael W. Deem and Ramdas Pophale) SiO2 
 PCOD8224310
Probable space group: P B A M
;
_chemical_formula_sum "Si O2"
_cell_formula_units_Z 56
_cell_length_a 19.253733
_cell_length_b 19.421314
_cell_length_c 9.000628
_cell_angle_alpha 90.000000
_cell_angle_beta 90.000000
_cell_angle_gamma 90.000000
_cell_volume 3365.629978
_symmetry_space_group_name_H-M "P B A M"
_symmetry_group_IT_number 55
_symmetry_cell_setting 'orthorhombic'
loop_
_space_group_symop_operation_xyz
x,y,z
-x,-y,z
1/2+x,1/2-y,-z
1/2-x,1/2+y,-z
-x,-y,-z
x,y,-z
1/2-x,1/2+y,z
1/2+x,1/2-y,z
loop_
_atom_site_type_symbol
_atom_site_label
_atom_site_fract_x
_atom_site_fract_y
_atom_site_fract_z
Si Si1 0.123762 0.762560 0.675942
Si Si2 0.849331 0.735733 0.675934
Si Si3 0.797201 0.980696 0.323267
Si Si4 0.520142 0.291710 0.824698
Si Si5 0.059141 0.054583 0.826360
Si Si6 0.237967 0.870369 0.324369
Si Si7 0.235582 0.658211 0.324633
O O1 0.109983 0.764822 0.500000
O O2 0.172179 0.825731 0.729634
O O3 0.162532 0.691613 0.725813
O O4 0.052508 0.765926 0.762480
O O5 0.862245 0.739096 0.500000
O O6 0.922160 0.740337 0.759627
O O7 0.810778 0.664660 0.723198
O O8 0.801211 0.798244 0.734652
O O9 0.802384 0.982612 0.500000
O O10 0.873318 0.966770 0.263068
O O11 0.744045 0.920578 0.270372
O O12 0.767704 0.052579 0.258402
O O13 0.534042 0.370129 0.773921
O O14 0.519257 0.285159 0.000000
O O15 0.076778 0.053693 0.000000
O O16 0.000000 0.000000 0.785437
O O17 0.235205 0.872490 0.500000
O O18 0.238778 0.664218 0.500000
#
# Coordination Sequence:
#
# PCOD8224310 Si02
#       7
#     8   8   8   8   8   8   8
#     4   9  17  31  48  67  93 125 155 189 236 283
#     4   9  16  31  50  68  92 124 155 190 239 282
#     4  10  17  29  50  74  94 118 155 196 232 277
#     4  11  21  31  45  69  96 124 161 198 228 272
#     4  10  21  33  43  63 101 136 155 182 231 284
#     4   8  16  29  49  74  96 117 153 198 234 277
#     4   8  15  28  48  70  91 117 155 195 232 276
#
# _framework density 16.638788000000002
#
# number of rings (size 3 to 8) (size 9 to 14) (size 15 to 20)
#    0.000    2.714    1.429    3.000    0.000    0.857 
#    0.000    4.286    0.000    0.857    0.000    6.000 
#    0.000    0.000    0.000    0.000    0.000    0.000 
#
# Total GULP energy -694143.697342 kJ/mol
# GULP energy per Si atom -12395.423167 kJ/mol
# Density = 1.660092 g / cm^3
# Si number density = 16.638788 Si / 1000 Ang^3
#
#
#
# Elastic Constant Matrix: (Units=GPa)
#
#
# Indices 1 2 3 4 5 6 
#
# 1 132.4326 94.2239 35.0258 0.0000 0.0000 0.0000
# 2 94.2239 136.5429 32.8658 0.0000 0.0000 0.0000
# 3 35.0258 32.8658 32.7090 0.0000 0.0000 0.0000
# 4 0.0000 0.0000 0.0000 14.8377 0.0000 0.0000
# 5 0.0000 0.0000 0.0000 0.0000 -5.5298 0.0000
# 6 0.0000 0.0000 0.0000 0.0000 0.0000 26.5654
#
#
#
# Elastic Compliance Matrix: (Units=1/GPa)
#
#
# Indices 1 2 3 4 5 6 
#
# 1 0.016323 -0.009308 -0.008126 0.000000 0.000000 0.000000
# 2 -0.009308 0.014968 -0.005072 0.000000 0.000000 0.000000
# 3 -0.008126 -0.005072 0.044371 0.000000 0.000000 0.000000
# 4 0.000000 0.000000 0.000000 0.067396 0.000000 0.000000
# 5 0.000000 0.000000 0.000000 0.000000 -0.180840 0.000000
# 6 0.000000 0.000000 0.000000 0.000000 0.000000 0.037643
#
#
# Mechanical properties :
#
#
# Convention : Reuss Voigt Hill
#
# Bulk Modulus (GPa) = 32.62802 69.54616 51.08709
# Shear Modulus (GPa) = 90.76093 16.47926 53.62009
#
# Velocity S-wave (km/s) = 7.39366 3.15050 5.68295
# Velocity P-wave (km/s) = 9.61980 7.42445 8.59253
#
# Compressibility (1/GPa) = 0.03064851
#
# Stress axis : x y z
#
# Youngs Moduli (GPa) = 61.26496 66.81134 22.53710
#
# Poissons Ratio (x) = 0.62186 0.18315
# Poissons Ratio (y) = 0.57023 0.11432
# Poissons Ratio (z) = 0.49787 0.33889
#
# Static dielectric constant tensor:
#      x y z
#    x 3.081870 0.000000 0.000000 
#    y 0.000000 3.720320 0.000000 
#    z 0.000000 0.000000 2.808270 
# 
# 
# High freq. dielectric constant tensor:
#      x y z
#    x 1.635110 0.000000 0.000000 
#    y 0.000000 1.640560 0.000000 
#    z 0.000000 0.000000 1.611990 
# 
# From -- ./inp_files/7803.got.cif
#   From: 2010.03.12/outbox.cif.g09.slc.cpg/sg55_4_cif.got.tgz:7803.got - 2010.04.16 15:19:21.
