data_PCOD8224349
_publ_section_title
;
Structure prediction by ZEFSAII (Michael W. Deem and Ramdas Pophale) SiO2 
 PCOD8224349
Probable space group: P B A M
;
_chemical_formula_sum "Si O2"
_cell_formula_units_Z 64
_cell_length_a 26.452891
_cell_length_b 18.429496
_cell_length_c 8.994244
_cell_angle_alpha 90.000000
_cell_angle_beta 90.000000
_cell_angle_gamma 90.000000
_cell_volume 4384.814912
_symmetry_space_group_name_H-M "P B A M"
_symmetry_group_IT_number 55
_symmetry_cell_setting 'orthorhombic'
loop_
_space_group_symop_operation_xyz
x,y,z
-x,-y,z
1/2+x,1/2-y,-z
1/2-x,1/2+y,-z
-x,-y,-z
x,y,-z
1/2-x,1/2+y,z
1/2+x,1/2-y,z
loop_
_atom_site_type_symbol
_atom_site_label
_atom_site_fract_x
_atom_site_fract_y
_atom_site_fract_z
Si Si1 0.746116 0.423439 0.823391
Si Si2 0.151634 0.839499 0.325991
Si Si3 0.052672 0.924605 0.322525
Si Si4 0.649221 0.339028 0.175963
Si Si5 0.199172 0.301247 0.165715
Si Si6 0.249892 0.423929 0.324664
Si Si7 0.196976 0.714565 0.163843
Si Si8 0.549898 0.420947 0.177661
O O1 0.692013 0.394168 0.762272
O O2 0.759470 0.498406 0.746390
O O3 0.790409 0.366455 0.777652
O O4 0.744526 0.434130 0.000000
O O5 0.156106 0.833628 0.500000
O O6 0.097905 0.871365 0.276517
O O7 0.196308 0.892239 0.267406
O O8 0.156903 0.757623 0.264883
O O9 0.047550 0.933735 0.500000
O O10 0.001538 0.891402 0.252302
O O11 0.063806 0.001634 0.247232
O O12 0.657749 0.255886 0.231590
O O13 0.593921 0.365421 0.224534
O O14 0.655537 0.337970 0.000000
O O15 0.204624 0.370641 0.272683
O O16 0.250950 0.257536 0.158552
O O17 0.184284 0.328171 0.000000
O O18 0.248211 0.431439 0.500000
O O19 0.173018 0.710099 0.000000
O O20 0.544012 0.427997 0.000000
#
# Coordination Sequence:
#
# PCOD8224349 Si02
#       8
#     8   8   8   8   8   8   8   8
#     4   9  16  27  41  58  79 105 132 159 193 235
#     4   9  18  29  40  54  77 107 136 162 194 230
#     4  10  19  30  40  54  79 109 135 162 196 235
#     4   8  15  27  43  59  76 100 134 167 196 230
#     4   8  14  27  42  55  74 102 129 158 195 233
#     4  10  18  26  37  58  82 104 132 164 191 224
#     4   8  15  26  41  58  75  97 130 164 193 227
#     4  10  18  28  42  60  78 100 133 172 201 224
#
# _framework density 14.595827
#
# number of rings (size 3 to 8) (size 9 to 14) (size 15 to 20)
#    0.000    3.000    0.000    4.125    0.000    2.000 
#    0.000    3.750    0.000    0.000    0.000    0.000 
#    0.000    1.000    0.000   11.250    0.000    5.625 
#
# Total GULP energy -793168.132897 kJ/mol
# GULP energy per Si atom -12393.252077 kJ/mol
# Density = 1.456261 g / cm^3
# Si number density = 14.595827 Si / 1000 Ang^3
#
#
#
# Elastic Constant Matrix: (Units=GPa)
#
#
# Indices 1 2 3 4 5 6 
#
# 1 86.7352 61.0445 32.4195 0.0000 0.0000 0.0000
# 2 61.0445 119.2136 39.4198 0.0000 0.0000 0.0000
# 3 32.4195 39.4198 46.9475 0.0000 0.0000 0.0000
# 4 0.0000 0.0000 0.0000 14.8167 0.0000 0.0000
# 5 0.0000 0.0000 0.0000 0.0000 17.7312 0.0000
# 6 0.0000 0.0000 0.0000 0.0000 0.0000 27.1242
#
#
#
# Elastic Compliance Matrix: (Units=1/GPa)
#
#
# Indices 1 2 3 4 5 6 
#
# 1 0.019584 -0.007692 -0.007065 0.000000 0.000000 0.000000
# 2 -0.007692 0.014634 -0.006976 0.000000 0.000000 0.000000
# 3 -0.007065 -0.006976 0.032036 0.000000 0.000000 0.000000
# 4 0.000000 0.000000 0.000000 0.067491 0.000000 0.000000
# 5 0.000000 0.000000 0.000000 0.000000 0.056398 0.000000
# 6 0.000000 0.000000 0.000000 0.000000 0.000000 0.036867
#
#
# Mechanical properties :
#
#
# Convention : Reuss Voigt Hill
#
# Bulk Modulus (GPa) = 43.88149 57.62931 50.75540
# Shear Modulus (GPa) = 17.98103 19.93525 18.95814
#
# Velocity S-wave (km/s) = 3.51369 3.69971 3.60790
# Velocity P-wave (km/s) = 6.82576 7.60392 7.22532
#
# Compressibility (1/GPa) = 0.02278865
#
# Stress axis : x y z
#
# Youngs Moduli (GPa) = 51.06317 68.33596 31.21472
#
# Poissons Ratio (x) = 0.52563 0.22053
# Poissons Ratio (y) = 0.39277 0.21774
# Poissons Ratio (z) = 0.36076 0.47668
#
# Static dielectric constant tensor:
#      x y z
#    x 2.843580 0.000000 0.000000 
#    y 0.000000 2.945100 0.000000 
#    z 0.000000 0.000000 2.811840 
# 
# 
# High freq. dielectric constant tensor:
#      x y z
#    x 1.526540 0.000000 0.000000 
#    y 0.000000 1.548990 0.000000 
#    z 0.000000 0.000000 1.554910 
# 
# From -- ./inp_files/10310.got.cif
#   From: 2010.03.12/outbox.cif.g09.slc.cpg/sg55_6_cif.got.tgz:10310.got - 2010.04.16 15:19:21.
