data_PCOD8224304
_publ_section_title
;
Structure prediction by ZEFSAII (Michael W. Deem and Ramdas Pophale) SiO2 
 PCOD8224304
Probable space group: P B A M
;
_chemical_formula_sum "Si O2"
_cell_formula_units_Z 56
_cell_length_a 26.706587
_cell_length_b 10.019524
_cell_length_c 12.377726
_cell_angle_alpha 90.000000
_cell_angle_beta 90.000000
_cell_angle_gamma 90.000000
_cell_volume 3312.122149
_symmetry_space_group_name_H-M "P B A M"
_symmetry_group_IT_number 55
_symmetry_cell_setting 'orthorhombic'
loop_
_space_group_symop_operation_xyz
x,y,z
-x,-y,z
1/2+x,1/2-y,-z
1/2-x,1/2+y,-z
-x,-y,-z
x,y,-z
1/2-x,1/2+y,z
1/2+x,1/2-y,z
loop_
_atom_site_type_symbol
_atom_site_label
_atom_site_fract_x
_atom_site_fract_y
_atom_site_fract_z
Si Si1 0.332363 0.565454 0.377486
Si Si2 0.199366 0.783173 0.875242
Si Si3 0.348439 0.008785 0.377592
Si Si4 0.757654 0.475842 0.226371
Si Si5 0.914448 0.732063 0.373635
Si Si6 0.876754 0.203200 0.691731
Si Si7 0.015767 0.847762 0.375118
O O1 0.319105 0.606942 0.500000
O O2 0.283203 0.586066 0.306531
O O3 0.374906 0.661069 0.326265
O O4 0.351551 0.413951 0.377309
O O5 0.225173 0.640995 0.853773
O O6 0.146911 0.795077 0.811421
O O7 0.237008 0.901265 0.842547
O O8 0.185822 0.796058 0.000000
O O9 0.331517 0.976016 0.500000
O O10 0.303481 0.970525 0.298233
O O11 0.364443 0.161217 0.370169
O O12 0.396316 0.917279 0.346407
O O13 0.918176 0.762099 0.500000
O O14 0.970416 0.756459 0.328356
O O15 0.936321 0.183359 0.699166
O O16 0.029080 0.815010 0.500000
O O17 0.000000 0.000000 0.362562
#
# Coordination Sequence:
#
# PCOD8224304 Si02
#       7
#     8   8   8   8   8   8   8
#     4  10  17  29  47  73 103 133 163 191 228 294
#     4  10  21  37  53  71  94 124 168 216 251 286
#     4  10  19  31  44  72 111 135 157 193 238 296
#     4  10  20  32  52  75  97 132 164 196 249 293
#     4   9  18  28  44  68 101 137 163 190 227 275
#     4  10  20  31  49  72  94 130 171 201 246 290
#     4  10  17  29  49  73  98 130 166 197 232 287
#
# _framework density 16.907589000000002
#
# number of rings (size 3 to 8) (size 9 to 14) (size 15 to 20)
#    0.000    2.143    1.429    3.000    0.000    0.571 
#    0.000    6.429    0.000    0.429    0.000    9.000 
#    0.000    0.000    0.000    0.000    0.000    0.000 
#
# Total GULP energy -694419.080181 kJ/mol
# GULP energy per Si atom -12400.340718 kJ/mol
# Density = 1.686911 g / cm^3
# Si number density = 16.907589 Si / 1000 Ang^3
#
#
#
# Elastic Constant Matrix: (Units=GPa)
#
#
# Indices 1 2 3 4 5 6 
#
# 1 118.3387 30.3885 43.0014 0.0000 0.0000 0.0000
# 2 30.3885 86.5161 27.6174 0.0000 0.0000 0.0000
# 3 43.0014 27.6174 83.1623 0.0000 0.0000 0.0000
# 4 0.0000 0.0000 0.0000 12.7126 0.0000 0.0000
# 5 0.0000 0.0000 0.0000 0.0000 14.4540 0.0000
# 6 0.0000 0.0000 0.0000 0.0000 0.0000 30.8637
#
#
#
# Elastic Compliance Matrix: (Units=1/GPa)
#
#
# Indices 1 2 3 4 5 6 
#
# 1 0.010782 -0.002245 -0.004829 0.000000 0.000000 0.000000
# 2 -0.002245 0.013397 -0.003288 0.000000 0.000000 0.000000
# 3 -0.004829 -0.003288 0.015614 0.000000 0.000000 0.000000
# 4 0.000000 0.000000 0.000000 0.078662 0.000000 0.000000
# 5 0.000000 0.000000 0.000000 0.000000 0.069185 0.000000
# 6 0.000000 0.000000 0.000000 0.000000 0.000000 0.032400
#
#
# Mechanical properties :
#
#
# Convention : Reuss Voigt Hill
#
# Bulk Modulus (GPa) = 52.44676 54.44797 53.44736
# Shear Modulus (GPa) = 20.23303 24.07340 22.15321
#
# Velocity S-wave (km/s) = 3.46306 3.77745 3.62367
# Velocity P-wave (km/s) = 6.86130 7.16231 7.01342
#
# Compressibility (1/GPa) = 0.01906696
#
# Stress axis : x y z
#
# Youngs Moduli (GPa) = 92.74887 74.64472 64.04639
#
# Poissons Ratio (x) = 0.16761 0.30930
# Poissons Ratio (y) = 0.20826 0.21058
# Poissons Ratio (z) = 0.44792 0.24542
#
# Static dielectric constant tensor:
#      x y z
#    x 3.345630 0.000000 0.000000 
#    y 0.000000 3.229290 0.000000 
#    z 0.000000 0.000000 2.798200 
# 
# 
# High freq. dielectric constant tensor:
#      x y z
#    x 1.657810 0.000000 0.000000 
#    y 0.000000 1.666500 0.000000 
#    z 0.000000 0.000000 1.605530 
# 
# From -- ./inp_files/15710.got.cif
#   From: 2010.03.12/outbox.cif.g09.slc.cpg/sg55_8_cif.got.tgz:15710.got - 2010.04.16 15:19:21.
