data_PCOD8224370
_publ_section_title
;
Structure prediction by ZEFSAII (Michael W. Deem and Ramdas Pophale) SiO2 
 PCOD8224370
Probable space group: P B A M
;
_chemical_formula_sum "Si O2"
_cell_formula_units_Z 56
_cell_length_a 21.195505
_cell_length_b 18.544158
_cell_length_c 8.658061
_cell_angle_alpha 90.000000
_cell_angle_beta 90.000000
_cell_angle_gamma 90.000000
_cell_volume 3403.075063
_symmetry_space_group_name_H-M "P B A M"
_symmetry_group_IT_number 55
_symmetry_cell_setting 'orthorhombic'
loop_
_space_group_symop_operation_xyz
x,y,z
-x,-y,z
1/2+x,1/2-y,-z
1/2-x,1/2+y,-z
-x,-y,-z
x,y,-z
1/2-x,1/2+y,z
1/2+x,1/2-y,z
loop_
_atom_site_type_symbol
_atom_site_label
_atom_site_fract_x
_atom_site_fract_y
_atom_site_fract_z
Si Si1 0.497102 0.918616 0.183975
Si Si2 0.377564 0.155882 0.182849
Si Si3 0.196322 0.222463 0.320759
Si Si4 0.241905 0.580797 0.321870
Si Si5 0.629579 0.157581 0.182716
Si Si6 0.249626 0.919465 0.319022
Si Si7 0.314498 0.296132 0.820550
O O1 0.556906 0.874289 0.250515
O O2 0.433721 0.880533 0.244093
O O3 0.500000 0.000000 0.248929
O O4 0.498686 0.919810 0.000000
O O5 0.320498 0.104746 0.233071
O O6 0.368302 0.239622 0.237356
O O7 0.378376 0.154132 0.000000
O O8 0.209379 0.241185 0.500000
O O9 0.199092 0.135997 0.294097
O O10 0.132616 0.262539 0.263270
O O11 0.248774 0.256586 0.210421
O O12 0.222691 0.580208 0.500000
O O13 0.263746 0.501704 0.267618
O O14 0.688440 0.108006 0.230757
O O15 0.628144 0.167081 0.000000
O O16 0.261566 0.912478 0.500000
O O17 0.187754 0.872123 0.271666
O O18 0.322205 0.313905 0.000000
#
# Coordination Sequence:
#
# PCOD8224370 Si02
#       7
#     8   8   8   8   8   8   8
#     4   9  17  28  42  61  85 113 141 167 198 236
#     4   9  17  29  44  61  83 112 142 171 201 239
#     4   9  16  28  43  58  81 109 136 168 208 247
#     4   9  18  29  42  62  85 110 137 169 209 249
#     4  10  18  28  43  62  84 111 143 171 198 240
#     4  10  18  28  42  61  86 111 136 168 209 249
#     4   9  16  26  41  61  82 105 137 171 204 243
#
# _framework density 16.455705999999999
#
# number of rings (size 3 to 8) (size 9 to 14) (size 15 to 20)
#    0.000    2.714    0.000    4.286    0.000    3.429 
#    0.000    1.429    0.000    3.857    0.000    1.000 
#    0.000    8.000    0.000    0.000    0.000    0.000 
#
# Total GULP energy -693814.891482 kJ/mol
# GULP energy per Si atom -12389.551634 kJ/mol
# Density = 1.641825 g / cm^3
# Si number density = 16.455706 Si / 1000 Ang^3
#
#
#
# Elastic Constant Matrix: (Units=GPa)
#
#
# Indices 1 2 3 4 5 6 
#
# 1 80.5929 70.2701 14.9135 0.0000 0.0000 0.0000
# 2 70.2701 168.3239 27.5344 0.0000 0.0000 0.0000
# 3 14.9135 27.5344 27.8700 0.0000 0.0000 0.0000
# 4 0.0000 0.0000 0.0000 22.1588 0.0000 0.0000
# 5 0.0000 0.0000 0.0000 0.0000 5.6280 0.0000
# 6 0.0000 0.0000 0.0000 0.0000 0.0000 28.7773
#
#
#
# Elastic Compliance Matrix: (Units=1/GPa)
#
#
# Indices 1 2 3 4 5 6 
#
# 1 0.019702 -0.007753 -0.002883 0.000000 0.000000 0.000000
# 2 -0.007753 0.010137 -0.005866 0.000000 0.000000 0.000000
# 3 -0.002883 -0.005866 0.043219 0.000000 0.000000 0.000000
# 4 0.000000 0.000000 0.000000 0.045129 0.000000 0.000000
# 5 0.000000 0.000000 0.000000 0.000000 0.177683 0.000000
# 6 0.000000 0.000000 0.000000 0.000000 0.000000 0.034750
#
#
# Mechanical properties :
#
#
# Convention : Reuss Voigt Hill
#
# Bulk Modulus (GPa) = 24.96653 55.80253 40.38453
# Shear Modulus (GPa) = 13.26344 22.25072 17.75708
#
# Velocity S-wave (km/s) = 2.84211 3.68116 3.28850
# Velocity P-wave (km/s) = 5.09657 7.21473 6.24609
#
# Compressibility (1/GPa) = 0.04005362
#
# Stress axis : x y z
#
# Youngs Moduli (GPa) = 50.75702 98.64521 23.13785
#
# Poissons Ratio (x) = 0.76483 0.06670
# Poissons Ratio (y) = 0.39354 0.13574
# Poissons Ratio (z) = 0.14631 0.57869
#
# Static dielectric constant tensor:
#      x y z
#    x 3.085550 0.000000 0.000000 
#    y 0.000000 3.750080 0.000000 
#    z 0.000000 0.000000 2.996690 
# 
# 
# High freq. dielectric constant tensor:
#      x y z
#    x 1.586940 0.000000 0.000000 
#    y 0.000000 1.644820 0.000000 
#    z 0.000000 0.000000 1.629400 
# 
# From -- ./inp_files/9837.got.cif
#   From: 2010.03.12/outbox.cif.g09.slc.cpg/sg55_5_cif.got.tgz:9837.got - 2010.04.16 15:19:21.
