data_PCOD8224861
_publ_section_title
;
Structure prediction by ZEFSAII (Michael W. Deem and Ramdas Pophale) SiO2 
 PCOD8224861
Probable space group: P B A M
;
_chemical_formula_sum "Si O2"
_cell_formula_units_Z 32
_cell_length_a 35.511921
_cell_length_b 6.473673
_cell_length_c 5.208884
_cell_angle_alpha 90.000000
_cell_angle_beta 90.000000
_cell_angle_gamma 90.000000
_cell_volume 1197.483699
_symmetry_space_group_name_H-M "P B A M"
_symmetry_group_IT_number 55
_symmetry_cell_setting 'orthorhombic'
loop_
_space_group_symop_operation_xyz
x,y,z
-x,-y,z
1/2+x,1/2-y,-z
1/2-x,1/2+y,-z
-x,-y,-z
x,y,-z
1/2-x,1/2+y,z
1/2+x,1/2-y,z
loop_
_atom_site_type_symbol
_atom_site_label
_atom_site_fract_x
_atom_site_fract_y
_atom_site_fract_z
Si Si1 0.282002 0.429006 0.000000
Si Si2 0.304139 0.969828 0.000000
Si Si3 0.321233 0.505871 0.500000
Si Si4 0.052153 0.178787 0.000000
Si Si5 0.530065 0.797233 0.000000
Si Si6 0.426510 0.143519 0.500000
Si Si7 0.904272 0.881808 0.500000
Si Si8 0.843990 0.474030 0.500000
O O1 0.237827 0.375594 0.000000
O O2 0.295469 0.557089 0.250332
O O3 0.303566 0.215886 0.000000
O O4 0.326622 0.906060 0.744579
O O5 0.358848 0.649125 0.500000
O O6 0.333334 0.266757 0.500000
O O7 0.076966 0.223013 0.251214
O O8 0.015481 0.331648 0.000000
O O9 0.037372 0.946063 0.000000
O O10 0.548779 0.901453 0.248905
O O11 0.411862 0.375861 0.500000
O O12 0.389493 0.995148 0.500000
#
# Coordination Sequence:
#
# PCOD8224861 Si02
#       8
#     4   4   4   4   4   4   4   4
#     4  10  19  31  46  64  85 109 141 177 213 252
#     4  10  19  31  46  64  85 109 141 177 213 252
#     4   9  17  28  42  59  79 106 141 177 208 247
#     4   9  15  21  30  46  69  98 133 169 200 233
#     4   9  15  21  30  46  69  98 133 169 200 233
#     4   9  15  23  34  48  69  98 133 169 200 233
#     4   9  15  23  34  48  69  98 133 169 200 233
#     4   9  17  28  42  59  79 106 141 177 208 247
#
# _framework density 26.722702999999999
#
# number of rings (size 3 to 8) (size 9 to 14) (size 15 to 20)
#    0.000    2.750    0.000    3.000    0.000    9.000 
#    0.000    0.000    0.000    0.000    0.000    0.000 
#    0.000    0.000    0.000    0.000    0.000   87.500 
#
# Total GULP energy -397031.158234 kJ/mol
# GULP energy per Si atom -12407.223695 kJ/mol
# Density = 2.666188 g / cm^3
# Si number density = 26.722703 Si / 1000 Ang^3
#
#
#
# Elastic Constant Matrix: (Units=GPa)
#
#
# Indices 1 2 3 4 5 6 
#
# 1 252.3234 38.4465 146.0320 0.0000 0.0000 0.0000
# 2 38.4465 63.3751 8.2589 0.0000 0.0000 0.0000
# 3 146.0320 8.2589 303.0416 0.0000 0.0000 0.0000
# 4 0.0000 0.0000 0.0000 -62.9829 0.0000 0.0000
# 5 0.0000 0.0000 0.0000 0.0000 53.0508 0.0000
# 6 0.0000 0.0000 0.0000 0.0000 0.0000 58.3455
#
#
#
# Elastic Compliance Matrix: (Units=1/GPa)
#
#
# Indices 1 2 3 4 5 6 
#
# 1 0.006130 -0.003346 -0.002863 0.000000 0.000000 0.000000
# 2 -0.003346 0.017661 0.001131 0.000000 0.000000 0.000000
# 3 -0.002863 0.001131 0.004649 0.000000 0.000000 0.000000
# 4 0.000000 0.000000 0.000000 -0.015877 0.000000 0.000000
# 5 0.000000 0.000000 0.000000 0.000000 0.018850 0.000000
# 6 0.000000 0.000000 0.000000 0.000000 0.000000 0.017139
#
#
# Mechanical properties :
#
#
# Convention : Reuss Voigt Hill
#
# Bulk Modulus (GPa) = 54.69014 111.57942 83.13478
# Shear Modulus (GPa) = 77.15948 38.08286 57.62117
#
# Velocity S-wave (km/s) = 5.37929 3.77916 4.64860
# Velocity P-wave (km/s) = 7.68717 7.80307 7.74534
#
# Compressibility (1/GPa) = 0.01828483
#
# Stress axis : x y z
#
# Youngs Moduli (GPa) = 163.14090 56.62109 215.12196
#
# Poissons Ratio (x) = 0.18943 0.61582
# Poissons Ratio (y) = 0.54579 -0.24327
# Poissons Ratio (z) = 0.46701 -0.06403
#
# Static dielectric constant tensor:
#      x y z
#    x 4.801020 0.000000 0.000000 
#    y 0.000000 4.797230 0.000000 
#    z 0.000000 0.000000 4.978530 
# 
# 
# High freq. dielectric constant tensor:
#      x y z
#    x 2.078840 0.000000 0.000000 
#    y 0.000000 2.137580 0.000000 
#    z 0.000000 0.000000 2.074050 
# 
# From -- ./inp_files/287.got.cif
#   From: 2010.03.12/outbox.cif.g09.slc.cpg/sg55_1_cif.got.tgz:287.got - 2010.04.16 15:19:21.
