data_PCOD8224124
_publ_section_title
;
Structure prediction by ZEFSAII (Michael W. Deem and Ramdas Pophale) SiO2 
 PCOD8224124
Probable space group: P C C A
;
_chemical_formula_sum "Si O2"
_cell_formula_units_Z 40
_cell_length_a 9.342436
_cell_length_b 19.892481
_cell_length_c 9.324527
_cell_angle_alpha 90.000000
_cell_angle_beta 90.000000
_cell_angle_gamma 90.000000
_cell_volume 1732.909546
_symmetry_space_group_name_H-M "P C C A"
_symmetry_group_IT_number 54
_symmetry_cell_setting 'orthorhombic'
loop_
_space_group_symop_operation_xyz
x,y,z
1/2-x,-y,z
1/2+x,-y,1/2-z
-x,y,1/2-z
-x,-y,-z
1/2+x,y,-z
1/2-x,y,1/2+z
x,-y,1/2+z
loop_
_atom_site_type_symbol
_atom_site_label
_atom_site_fract_x
_atom_site_fract_y
_atom_site_fract_z
Si Si1 0.839742 0.248113 0.771409
Si Si2 0.432678 0.570965 0.040818
Si Si3 0.513728 0.066902 0.588901
Si Si4 0.267023 0.157786 0.484900
Si Si5 0.202519 0.618371 0.818565
O O1 0.809284 0.218318 0.928660
O O2 0.819802 0.186678 0.664675
O O3 0.727150 0.307683 0.744251
O O4 0.000000 0.276498 0.750000
O O5 0.565976 0.621101 0.073450
O O6 0.332549 0.568647 0.183866
O O7 0.500000 0.500000 0.000000
O O8 0.342702 0.594014 0.903140
O O9 0.500000 0.042247 0.750000
O O10 0.401560 0.127048 0.566928
O O11 0.667153 0.095523 0.549537
O O12 0.500000 0.000000 0.500000
#
# Coordination Sequence:
#
# PCOD8224124 Si02
#       5
#     8   8   8   8   8
#     4  12  27  48  78 108 152 195 259 314 384 463
#     4  11  27  51  77 110 156 201 261 316 391 466
#     4  12  28  46  74 109 152 196 255 316 379 456
#     4  12  26  48  75 109 146 201 251 314 385 451
#     4  11  28  49  77 115 151 203 256 323 389 460
#
# _framework density 23.082564999999999
#
# number of rings (size 3 to 8) (size 9 to 14) (size 15 to 20)
#    0.000    0.400    4.000    2.400    8.400   11.200 
#    0.000    0.000    0.000    0.000    0.000    0.000 
#    0.000    0.000    0.000    0.000    0.000    0.000 
#
# Total GULP energy -496140.935869 kJ/mol
# GULP energy per Si atom -12403.523397 kJ/mol
# Density = 2.303003 g / cm^3
# Si number density = 23.082565 Si / 1000 Ang^3
#
#
#
# Elastic Constant Matrix: (Units=GPa)
#
#
# Indices 1 2 3 4 5 6 
#
# 1 96.6082 45.8384 29.7152 0.0000 0.0000 0.0000
# 2 45.8384 115.1187 48.4399 0.0000 0.0000 0.0000
# 3 29.7152 48.4399 114.6970 0.0000 0.0000 0.0000
# 4 0.0000 0.0000 0.0000 53.2036 0.0000 0.0000
# 5 0.0000 0.0000 0.0000 0.0000 50.8216 0.0000
# 6 0.0000 0.0000 0.0000 0.0000 0.0000 15.4262
#
#
#
# Elastic Compliance Matrix: (Units=1/GPa)
#
#
# Indices 1 2 3 4 5 6 
#
# 1 0.012953 -0.004555 -0.001432 0.000000 0.000000 0.000000
# 2 -0.004555 0.012166 -0.003958 0.000000 0.000000 0.000000
# 3 -0.001432 -0.003958 0.010761 0.000000 0.000000 0.000000
# 4 0.000000 0.000000 0.000000 0.018796 0.000000 0.000000
# 5 0.000000 0.000000 0.000000 0.000000 0.019677 0.000000
# 6 0.000000 0.000000 0.000000 0.000000 0.000000 0.064825
#
#
# Mechanical properties :
#
#
# Convention : Reuss Voigt Hill
#
# Bulk Modulus (GPa) = 62.53946 63.82343 63.18144
# Shear Modulus (GPa) = 30.41421 37.38563 33.89992
#
# Velocity S-wave (km/s) = 3.63385 4.02885 3.83644
# Velocity P-wave (km/s) = 6.69023 7.02512 6.85972
#
# Compressibility (1/GPa) = 0.01598991
#
# Stress axis : x y z
#
# Youngs Moduli (GPa) = 77.20323 82.19739 92.92671
#
# Poissons Ratio (x) = 0.37441 0.13307
# Poissons Ratio (y) = 0.35166 0.36779
# Poissons Ratio (z) = 0.11056 0.32533
#
# Static dielectric constant tensor:
#      x y z
#    x 4.515230 0.000000 0.000000 
#    y 0.000000 3.975040 0.000000 
#    z 0.000000 0.000000 4.289120 
# 
# 
# High freq. dielectric constant tensor:
#      x y z
#    x 1.928390 0.000000 0.000000 
#    y 0.000000 1.911760 0.000000 
#    z 0.000000 0.000000 1.926980 
# 
# From -- ./inp_files/2541.got.cif
#   From: 2010.03.12/outbox.cif.g09.slc.cpg/sg54_2_cif.got.tgz:2541.got - 2010.04.16 15:00:50.
