data_PCOD8224302
_publ_section_title
;
Structure prediction by ZEFSAII (Michael W. Deem and Ramdas Pophale) SiO2 
 PCOD8224302
Probable space group: P B A M
;
_chemical_formula_sum "Si O2"
_cell_formula_units_Z 56
_cell_length_a 24.575924
_cell_length_b 14.423920
_cell_length_c 9.269178
_cell_angle_alpha 90.000000
_cell_angle_beta 90.000000
_cell_angle_gamma 90.000000
_cell_volume 3285.748985
_symmetry_space_group_name_H-M "P B A M"
_symmetry_group_IT_number 55
_symmetry_cell_setting 'orthorhombic'
loop_
_space_group_symop_operation_xyz
x,y,z
-x,-y,z
1/2+x,1/2-y,-z
1/2-x,1/2+y,-z
-x,-y,-z
x,y,-z
1/2-x,1/2+y,z
1/2+x,1/2-y,z
loop_
_atom_site_type_symbol
_atom_site_label
_atom_site_fract_x
_atom_site_fract_y
_atom_site_fract_z
Si Si1 0.791839 0.267551 0.827606
Si Si2 0.214853 0.527218 0.164360
Si Si3 0.181080 0.332345 0.827611
Si Si4 0.611626 0.305606 0.668726
Si Si5 0.003162 0.893615 0.669300
Si Si6 0.394145 0.348435 0.835138
Si Si7 0.837695 0.961533 0.839946
O O1 0.795730 0.372418 0.762527
O O2 0.735863 0.220239 0.773967
O O3 0.844892 0.212941 0.770333
O O4 0.790913 0.266889 0.000000
O O5 0.182029 0.439432 0.228781
O O6 0.277667 0.497479 0.177535
O O7 0.197013 0.538452 0.000000
O O8 0.127859 0.287484 0.754147
O O9 0.176142 0.327655 0.000000
O O10 0.618348 0.288400 0.500000
O O11 0.551136 0.337709 0.710074
O O12 0.652847 0.385748 0.717800
O O13 0.014259 0.894419 0.500000
O O14 0.051227 0.835043 0.743629
O O15 0.000000 0.000000 0.726069
O O16 0.379884 0.456071 0.821951
O O17 0.405597 0.319853 0.000000
O O18 0.843573 0.915785 0.000000
#
# Coordination Sequence:
#
# PCOD8224302 Si02
#       7
#     8   8   8   8   8   8   8
#     4   9  16  28  49  77 106 130 158 200 248 295
#     4   9  16  28  50  77 104 134 161 193 244 301
#     4  10  18  31  53  76 100 132 166 199 246 298
#     4  11  22  34  48  70 102 136 169 204 247 294
#     4  10  21  36  50  67  98 138 168 200 255 305
#     4  10  19  30  50  79 104 128 167 209 242 289
#     4  10  17  28  50  77 103 132 164 198 240 296
#
# _framework density 17.043299000000001
#
# number of rings (size 3 to 8) (size 9 to 14) (size 15 to 20)
#    0.000    2.143    4.286    0.429    0.000    1.429 
#    0.000    1.429    0.000    0.857    0.000    6.000 
#    0.000    0.000    0.000    0.000    0.000    0.000 
#
# Total GULP energy -694111.950293 kJ/mol
# GULP energy per Si atom -12394.856255 kJ/mol
# Density = 1.700451 g / cm^3
# Si number density = 17.043299 Si / 1000 Ang^3
#
#
#
# Elastic Constant Matrix: (Units=GPa)
#
#
# Indices 1 2 3 4 5 6 
#
# 1 80.5613 35.2651 27.1176 0.0000 0.0000 0.0000
# 2 35.2651 83.3345 20.0761 0.0000 0.0000 0.0000
# 3 27.1176 20.0761 29.3266 0.0000 0.0000 0.0000
# 4 0.0000 0.0000 0.0000 15.4176 0.0000 0.0000
# 5 0.0000 0.0000 0.0000 0.0000 14.8671 0.0000
# 6 0.0000 0.0000 0.0000 0.0000 0.0000 28.1335
#
#
#
# Elastic Compliance Matrix: (Units=1/GPa)
#
#
# Indices 1 2 3 4 5 6 
#
# 1 0.019426 -0.004662 -0.014771 0.000000 0.000000 0.000000
# 2 -0.004662 0.015489 -0.006292 0.000000 0.000000 0.000000
# 3 -0.014771 -0.006292 0.052065 0.000000 0.000000 0.000000
# 4 0.000000 0.000000 0.000000 0.064861 0.000000 0.000000
# 5 0.000000 0.000000 0.000000 0.000000 0.067263 0.000000
# 6 0.000000 0.000000 0.000000 0.000000 0.000000 0.035545
#
#
# Mechanical properties :
#
#
# Convention : Reuss Voigt Hill
#
# Bulk Modulus (GPa) = 28.14642 39.79334 33.96988
# Shear Modulus (GPa) = 15.72622 19.06789 17.39706
#
# Velocity S-wave (km/s) = 3.04093 3.34846 3.19839
# Velocity P-wave (km/s) = 5.37403 6.19263 5.79779
#
# Compressibility (1/GPa) = 0.03552850
#
# Stress axis : x y z
#
# Youngs Moduli (GPa) = 51.47807 64.56400 19.20689
#
# Poissons Ratio (x) = 0.30100 0.28371
# Poissons Ratio (y) = 0.23999 0.12085
# Poissons Ratio (z) = 0.76039 0.40624
#
# Static dielectric constant tensor:
#      x y z
#    x 3.122010 0.000000 0.000000 
#    y 0.000000 3.351340 0.000000 
#    z 0.000000 0.000000 2.862380 
# 
# 
# High freq. dielectric constant tensor:
#      x y z
#    x 1.646290 0.000000 0.000000 
#    y 0.000000 1.654030 0.000000 
#    z 0.000000 0.000000 1.620640 
# 
# From -- ./inp_files/8669.got.cif
#   From: 2010.03.12/outbox.cif.g09.slc.cpg/sg55_5_cif.got.tgz:8669.got - 2010.04.16 15:19:21.
