data_PCOD8224318
_publ_section_title
;
Structure prediction by ZEFSAII (Michael W. Deem and Ramdas Pophale) SiO2 
 PCOD8224318
Probable space group: P B A M
;
_chemical_formula_sum "Si O2"
_cell_formula_units_Z 64
_cell_length_a 22.965736
_cell_length_b 19.082741
_cell_length_c 8.860898
_cell_angle_alpha 90.000000
_cell_angle_beta 90.000000
_cell_angle_gamma 90.000000
_cell_volume 3883.281389
_symmetry_space_group_name_H-M "P B A M"
_symmetry_group_IT_number 55
_symmetry_cell_setting 'orthorhombic'
loop_
_space_group_symop_operation_xyz
x,y,z
-x,-y,z
1/2+x,1/2-y,-z
1/2-x,1/2+y,-z
-x,-y,-z
x,y,-z
1/2-x,1/2+y,z
1/2+x,1/2-y,z
loop_
_atom_site_type_symbol
_atom_site_label
_atom_site_fract_x
_atom_site_fract_y
_atom_site_fract_z
Si Si1 0.722083 0.637377 0.821999
Si Si2 0.264923 0.654410 0.324493
Si Si3 0.933995 0.634669 0.823230
Si Si4 0.341388 0.244281 0.676445
Si Si5 0.384231 0.999954 0.674040
Si Si6 0.831597 0.711989 0.323586
Si Si7 0.247866 0.001446 0.323547
Si Si8 0.944652 0.355020 0.674253
O O1 0.666800 0.682295 0.763666
O O2 0.781977 0.665282 0.751843
O O3 0.713348 0.557426 0.769371
O O4 0.726043 0.641625 0.000000
O O5 0.252500 0.643232 0.500000
O O6 0.206794 0.690294 0.257433
O O7 0.320045 0.705213 0.293927
O O8 0.275035 0.576516 0.258910
O O9 0.918319 0.556315 0.773432
O O10 0.893850 0.692686 0.743646
O O11 0.000008 0.651681 0.780711
O O12 0.925359 0.641619 0.000000
O O13 0.329741 0.257819 0.500000
O O14 0.405227 0.213328 0.705526
O O15 0.396685 0.982415 0.500000
O O16 0.316327 0.996435 0.710334
O O17 0.407818 0.076340 0.716860
O O18 0.830576 0.694305 0.500000
O O19 0.234448 0.991473 0.500000
O O20 0.964316 0.357988 0.500000
#
# Coordination Sequence:
#
# PCOD8224318 Si02
#       8
#     8   8   8   8   8   8   8   8
#     4  11  21  31  46  73 104 131 159 196 245 299
#     4   8  15  29  52  76  93 116 160 209 249 284
#     4  12  24  34  46  69 103 137 169 204 246 294
#     4   9  17  33  53  72  93 125 166 208 245 286
#     4  10  19  32  51  71  96 133 173 208 238 281
#     4  10  19  34  53  70  92 127 169 211 246 285
#     4  10  17  30  52  75  98 129 163 200 244 292
#     4  10  20  35  54  73  94 129 178 214 243 285
#
# _framework density 16.480906999999998
#
# number of rings (size 3 to 8) (size 9 to 14) (size 15 to 20)
#    0.000    2.000    2.500    3.750    0.000    2.500 
#    0.000    3.125    0.000    0.000    0.000    0.875 
#    0.000    7.000    0.000    0.000    0.000    0.000 
#
# Total GULP energy -793578.612664 kJ/mol
# GULP energy per Si atom -12399.665823 kJ/mol
# Density = 1.644340 g / cm^3
# Si number density = 16.480907 Si / 1000 Ang^3
#
#
#
# Elastic Constant Matrix: (Units=GPa)
#
#
# Indices 1 2 3 4 5 6 
#
# 1 46.6423 30.1835 28.4773 0.0000 0.0000 0.0000
# 2 30.1835 108.5906 42.4228 0.0000 0.0000 0.0000
# 3 28.4773 42.4228 84.3374 0.0000 0.0000 0.0000
# 4 0.0000 0.0000 0.0000 2.7654 0.0000 0.0000
# 5 0.0000 0.0000 0.0000 0.0000 16.8318 0.0000
# 6 0.0000 0.0000 0.0000 0.0000 0.0000 23.4089
#
#
#
# Elastic Compliance Matrix: (Units=1/GPa)
#
#
# Indices 1 2 3 4 5 6 
#
# 1 0.029288 -0.005323 -0.007212 0.000000 0.000000 0.000000
# 2 -0.005323 0.012429 -0.004454 0.000000 0.000000 0.000000
# 3 -0.007212 -0.004454 0.016533 0.000000 0.000000 0.000000
# 4 0.000000 0.000000 0.000000 0.361607 0.000000 0.000000
# 5 0.000000 0.000000 0.000000 0.000000 0.059411 0.000000
# 6 0.000000 0.000000 0.000000 0.000000 0.000000 0.042719
#
#
# Mechanical properties :
#
#
# Convention : Reuss Voigt Hill
#
# Bulk Modulus (GPa) = 41.20196 49.08193 45.14194
# Shear Modulus (GPa) = 8.86439 17.83368 13.34903
#
# Velocity S-wave (km/s) = 2.32169 3.29307 2.84908
# Velocity P-wave (km/s) = 5.67812 6.65619 6.18651
#
# Compressibility (1/GPa) = 0.02427069
#
# Stress axis : x y z
#
# Youngs Moduli (GPa) = 34.14408 80.45882 60.48609
#
# Poissons Ratio (x) = 0.42831 0.43620
# Poissons Ratio (y) = 0.18176 0.26942
# Poissons Ratio (z) = 0.24623 0.35839
#
# Static dielectric constant tensor:
#      x y z
#    x 2.924830 0.000000 0.000000 
#    y 0.000000 3.356000 0.000000 
#    z 0.000000 0.000000 2.960030 
# 
# 
# High freq. dielectric constant tensor:
#      x y z
#    x 1.605190 0.000000 0.000000 
#    y 0.000000 1.636980 0.000000 
#    z 0.000000 0.000000 1.622320 
# 
# From -- ./inp_files/9869.got.cif
#   From: 2010.03.12/outbox.cif.g09.slc.cpg/sg55_5_cif.got.tgz:9869.got - 2010.04.16 15:19:21.
