data_PCOD8224887
_publ_section_title
;
Structure prediction by ZEFSAII (Michael W. Deem and Ramdas Pophale) SiO2 
 PCOD8224887
Probable space group: P B A M
;
_chemical_formula_sum "Si O2"
_cell_formula_units_Z 48
_cell_length_a 18.410521
_cell_length_b 16.357161
_cell_length_c 9.234904
_cell_angle_alpha 90.000000
_cell_angle_beta 90.000000
_cell_angle_gamma 90.000000
_cell_volume 2781.034601
_symmetry_space_group_name_H-M "P B A M"
_symmetry_group_IT_number 55
_symmetry_cell_setting 'orthorhombic'
loop_
_space_group_symop_operation_xyz
x,y,z
-x,-y,z
1/2+x,1/2-y,-z
1/2-x,1/2+y,-z
-x,-y,-z
x,y,-z
1/2-x,1/2+y,z
1/2+x,1/2-y,z
loop_
_atom_site_type_symbol
_atom_site_label
_atom_site_fract_x
_atom_site_fract_y
_atom_site_fract_z
Si Si1 0.827214 0.661618 0.834543
Si Si2 0.702560 0.919485 0.337009
Si Si3 0.418403 0.519886 0.329214
Si Si4 0.669755 0.345994 0.830589
Si Si5 0.209415 0.913758 0.341232
Si Si6 0.083376 0.494137 0.170735
O O1 0.856614 0.752730 0.807143
O O2 0.748641 0.651817 0.759507
O O3 0.886806 0.595482 0.781440
O O4 0.810017 0.645276 0.000000
O O5 0.688329 0.885975 0.500000
O O6 0.752149 0.856588 0.246543
O O7 0.744287 0.004155 0.344814
O O8 0.626477 0.934138 0.254359
O O9 0.500000 0.500000 0.284406
O O10 0.409654 0.538909 0.500000
O O11 0.392439 0.598609 0.240349
O O12 0.370783 0.439876 0.286292
O O13 0.677972 0.367667 0.000000
O O14 0.204289 0.874087 0.500000
O O15 0.000000 0.500000 0.218808
O O16 0.092556 0.508842 0.000000
#
# Coordination Sequence:
#
# PCOD8224887 Si02
#       6
#     8   8   8   8   8   8
#     4   9  18  31  47  69  95 123 157 198 240 283
#     4   9  17  30  48  69  92 120 157 195 231 277
#     4   9  18  33  51  71  97 127 158 193 237 288
#     4  10  19  31  48  70  95 123 159 200 240 282
#     4   8  15  28  47  68  88 116 153 189 226 274
#     4   9  17  31  51  72  97 129 160 193 238 287
#
# _framework density 17.259763
#
# number of rings (size 3 to 8) (size 9 to 14) (size 15 to 20)
#    0.000    3.000    0.000    2.000    0.000    6.000 
#    0.000    1.667    0.000    6.000    0.000    0.000 
#    0.000    0.000    0.000    0.000    0.000    0.000 
#
# Total GULP energy -594965.031608 kJ/mol
# GULP energy per Si atom -12395.104825 kJ/mol
# Density = 1.722048 g / cm^3
# Si number density = 17.259763 Si / 1000 Ang^3
#
#
#
# Elastic Constant Matrix: (Units=GPa)
#
#
# Indices 1 2 3 4 5 6 
#
# 1 143.7796 44.6961 52.1641 0.0000 0.0000 0.0000
# 2 44.6961 71.5513 40.9546 0.0000 0.0000 0.0000
# 3 52.1641 40.9546 78.3986 0.0000 0.0000 0.0000
# 4 0.0000 0.0000 0.0000 20.0037 0.0000 0.0000
# 5 0.0000 0.0000 0.0000 0.0000 26.7912 0.0000
# 6 0.0000 0.0000 0.0000 0.0000 0.0000 17.9325
#
#
#
# Elastic Compliance Matrix: (Units=1/GPa)
#
#
# Indices 1 2 3 4 5 6 
#
# 1 0.009708 -0.003377 -0.004696 0.000000 0.000000 0.000000
# 2 -0.003377 0.021112 -0.008782 0.000000 0.000000 0.000000
# 3 -0.004696 -0.008782 0.020467 0.000000 0.000000 0.000000
# 4 0.000000 0.000000 0.000000 0.049991 0.000000 0.000000
# 5 0.000000 0.000000 0.000000 0.000000 0.037326 0.000000
# 6 0.000000 0.000000 0.000000 0.000000 0.000000 0.055765
#
#
# Mechanical properties :
#
#
# Convention : Reuss Voigt Hill
#
# Bulk Modulus (GPa) = 56.88628 63.26213 60.07420
# Shear Modulus (GPa) = 21.37326 23.33979 22.35653
#
# Velocity S-wave (km/s) = 3.52281 3.68131 3.60293
# Velocity P-wave (km/s) = 7.04112 7.40283 7.22424
#
# Compressibility (1/GPa) = 0.01757893
#
# Stress axis : x y z
#
# Youngs Moduli (GPa) = 103.00285 47.36658 48.85869
#
# Poissons Ratio (x) = 0.15995 0.22942
# Poissons Ratio (y) = 0.34783 0.42907
# Poissons Ratio (z) = 0.48367 0.41596
#
# Static dielectric constant tensor:
#      x y z
#    x 3.341360 0.000000 0.000000 
#    y 0.000000 3.055190 0.000000 
#    z 0.000000 0.000000 3.369430 
# 
# 
# High freq. dielectric constant tensor:
#      x y z
#    x 1.657360 0.000000 0.000000 
#    y 0.000000 1.642510 0.000000 
#    z 0.000000 0.000000 1.670530 
# 
# From -- ./inp_files/7544.got.cif
#   From: 2010.03.12/outbox.cif.g09.slc.cpg/sg55_4_cif.got.tgz:7544.got - 2010.04.16 15:19:21.
