data_PCOD8224017
_publ_section_title
;
Structure prediction by ZEFSAII (Michael W. Deem and Ramdas Pophale) SiO2 
 PCOD8224017
Probable space group: P C C A
;
_chemical_formula_sum "Si O2"
_cell_formula_units_Z 56
_cell_length_a 13.253787
_cell_length_b 13.927145
_cell_length_c 14.202410
_cell_angle_alpha 90.000000
_cell_angle_beta 90.000000
_cell_angle_gamma 90.000000
_cell_volume 2621.586125
_symmetry_space_group_name_H-M "P C C A"
_symmetry_group_IT_number 54
_symmetry_cell_setting 'orthorhombic'
loop_
_space_group_symop_operation_xyz
x,y,z
1/2-x,-y,z
1/2+x,-y,1/2-z
-x,y,1/2-z
-x,-y,-z
1/2+x,y,-z
1/2-x,y,1/2+z
x,-y,1/2+z
loop_
_atom_site_type_symbol
_atom_site_label
_atom_site_fract_x
_atom_site_fract_y
_atom_site_fract_z
Si Si1 0.506174 0.612138 0.485600
Si Si2 0.394223 0.728642 0.628033
Si Si3 0.699062 0.278917 0.990054
Si Si4 0.478592 0.939659 0.641161
Si Si5 0.399545 0.434829 0.812055
Si Si6 0.650571 0.939036 0.492552
Si Si7 0.309639 0.360927 0.309267
O O1 0.500000 0.500000 0.500000
O O2 0.486537 0.669311 0.582870
O O3 0.614759 0.648418 0.449048
O O4 0.423912 0.630422 0.403652
O O5 0.301065 0.697337 0.563902
O O6 0.420758 0.839931 0.625295
O O7 0.376307 0.698089 0.735224
O O8 0.673387 0.169719 0.966581
O O9 0.710600 0.293429 0.101616
O O10 0.500000 0.960828 0.750000
O O11 0.583916 0.943188 0.586543
O O12 0.406155 0.021147 0.599488
O O13 0.500000 0.436257 0.750000
O O14 0.300228 0.387805 0.764045
O O15 0.370371 0.543951 0.841160
O O16 0.750000 0.000000 0.514479
#
# Coordination Sequence:
#
# PCOD8224017 Si02
#       7
#     8   8   8   8   8   8   8
#     4  12  24  40  70  97 139 188 228 288 347 408
#     4  12  25  43  70 100 135 183 238 283 350 424
#     4  12  24  45  70 102 137 180 236 287 353 423
#     4  11  25  47  74 105 137 181 237 288 361 436
#     4  11  23  44  62  99 145 187 235 288 349 411
#     4  11  24  46  73 104 140 178 229 298 357 422
#     4  11  25  42  67 101 139 187 240 287 343 431
#
# _framework density 21.361115999999999
#
# number of rings (size 3 to 8) (size 9 to 14) (size 15 to 20)
#    0.000    0.571    5.714    2.571    0.000    2.286 
#    2.571    0.714    0.000    0.000    0.000    0.000 
#    0.000    0.000    0.000    0.000    0.000    0.000 
#
# Total GULP energy -694437.098478 kJ/mol
# GULP energy per Si atom -12400.662473 kJ/mol
# Density = 2.131250 g / cm^3
# Si number density = 21.361116 Si / 1000 Ang^3
#
#
#
# Elastic Constant Matrix: (Units=GPa)
#
#
# Indices 1 2 3 4 5 6 
#
# 1 104.1275 21.0975 20.7170 0.0000 0.0000 0.0000
# 2 21.0975 104.8680 14.3970 0.0000 0.0000 0.0000
# 3 20.7170 14.3970 112.1230 0.0000 0.0000 0.0000
# 4 0.0000 0.0000 0.0000 31.5474 0.0000 0.0000
# 5 0.0000 0.0000 0.0000 0.0000 35.9034 0.0000
# 6 0.0000 0.0000 0.0000 0.0000 0.0000 37.2556
#
#
#
# Elastic Compliance Matrix: (Units=1/GPa)
#
#
# Indices 1 2 3 4 5 6 
#
# 1 0.010309 -0.001845 -0.001668 0.000000 0.000000 0.000000
# 2 -0.001845 0.010037 -0.000948 0.000000 0.000000 0.000000
# 3 -0.001668 -0.000948 0.009349 0.000000 0.000000 0.000000
# 4 0.000000 0.000000 0.000000 0.031698 0.000000 0.000000
# 5 0.000000 0.000000 0.000000 0.000000 0.027853 0.000000
# 6 0.000000 0.000000 0.000000 0.000000 0.000000 0.026842
#
#
# Mechanical properties :
#
#
# Convention : Reuss Voigt Hill
#
# Bulk Modulus (GPa) = 48.13868 48.17128 48.15498
# Shear Modulus (GPa) = 37.89782 38.60175 38.24979
#
# Velocity S-wave (km/s) = 4.21664 4.25562 4.23617
# Velocity P-wave (km/s) = 6.80377 6.83717 6.82049
#
# Compressibility (1/GPa) = 0.02077332
#
# Stress axis : x y z
#
# Youngs Moduli (GPa) = 96.99991 99.63012 106.96704
#
# Poissons Ratio (x) = 0.18382 0.17841
# Poissons Ratio (y) = 0.17897 0.10139
# Poissons Ratio (z) = 0.16179 0.09444
#
# Static dielectric constant tensor:
#      x y z
#    x 4.226220 0.000000 0.000000 
#    y 0.000000 3.786200 0.000000 
#    z 0.000000 0.000000 3.958830 
# 
# 
# High freq. dielectric constant tensor:
#      x y z
#    x 1.865740 0.000000 0.000000 
#    y 0.000000 1.833480 0.000000 
#    z 0.000000 0.000000 1.836530 
# 
# From -- ./inp_files/12707.got.cif
#   From: 2010.03.12/outbox.cif.g09.slc.cpg/sg54_7_cif.got.tgz:12707.got - 2010.04.16 15:00:50.
