data_PCOD8224657
_publ_section_title
;
Structure prediction by ZEFSAII (Michael W. Deem and Ramdas Pophale) SiO2 
 PCOD8224657
Probable space group: P B A M
;
_chemical_formula_sum "Si O2"
_cell_formula_units_Z 64
_cell_length_a 20.753252
_cell_length_b 19.521406
_cell_length_c 9.026104
_cell_angle_alpha 90.000000
_cell_angle_beta 90.000000
_cell_angle_gamma 90.000000
_cell_volume 3656.769506
_symmetry_space_group_name_H-M "P B A M"
_symmetry_group_IT_number 55
_symmetry_cell_setting 'orthorhombic'
loop_
_space_group_symop_operation_xyz
x,y,z
-x,-y,z
1/2+x,1/2-y,-z
1/2-x,1/2+y,-z
-x,-y,-z
x,y,-z
1/2-x,1/2+y,z
1/2+x,1/2-y,z
loop_
_atom_site_type_symbol
_atom_site_label
_atom_site_fract_x
_atom_site_fract_y
_atom_site_fract_z
Si Si1 0.315823 0.217155 0.671381
Si Si2 0.377119 0.579375 0.826939
Si Si3 0.066540 0.787347 0.827998
Si Si4 0.063311 0.203075 0.323765
Si Si5 0.743769 0.922629 0.670994
Si Si6 0.632213 0.574173 0.169021
Si Si7 0.236028 0.426203 0.326578
Si Si8 0.184273 0.287880 0.675149
O O1 0.328779 0.236057 0.500000
O O2 0.374090 0.242518 0.771166
O O3 0.310526 0.134957 0.693259
O O4 0.249319 0.250481 0.729355
O O5 0.426957 0.626589 0.738400
O O6 0.304825 0.594200 0.772335
O O7 0.396621 0.500606 0.792938
O O8 0.381892 0.596643 0.000000
O O9 0.078725 0.868219 0.801082
O O10 0.003111 0.766052 0.737842
O O11 0.056078 0.771090 0.000000
O O12 0.060787 0.201193 0.500000
O O13 0.120943 0.251015 0.260292
O O14 0.767413 0.923680 0.500000
O O15 0.713889 0.996812 0.717368
O O16 0.693659 0.591453 0.267001
O O17 0.656018 0.575416 0.000000
O O18 0.242201 0.418353 0.500000
O O19 0.186142 0.367616 0.270543
O O20 0.180251 0.281503 0.500000
#
# Coordination Sequence:
#
# PCOD8224657 Si02
#       8
#     8   8   8   8   8   8   8   8
#     4  10  18  33  54  78 104 133 167 211 258 299
#     4  10  19  32  50  73 103 138 171 205 248 300
#     4  11  23  37  51  74 104 137 176 214 254 306
#     4  11  22  37  53  73 103 139 174 214 260 304
#     4   9  17  30  51  78 106 132 166 208 252 300
#     4   9  19  33  48  70 104 138 167 204 250 297
#     4   9  16  29  52  78 101 130 167 208 249 300
#     4   9  17  31  53  78 103 129 167 213 256 298
#
# _framework density 17.501787
#
# number of rings (size 3 to 8) (size 9 to 14) (size 15 to 20)
#    0.000    2.250    2.500    1.125    0.000    2.000 
#    0.000    3.750    0.000    0.750    0.000    5.250 
#    0.000    0.000    0.000    0.000    0.000    0.000 
#
# Total GULP energy -793426.017575 kJ/mol
# GULP energy per Si atom -12397.281525 kJ/mol
# Density = 1.746195 g / cm^3
# Si number density = 17.501787 Si / 1000 Ang^3
#
#
#
# Elastic Constant Matrix: (Units=GPa)
#
#
# Indices 1 2 3 4 5 6 
#
# 1 106.6364 56.4191 37.7295 0.0000 0.0000 0.0000
# 2 56.4191 101.4541 32.8131 0.0000 0.0000 0.0000
# 3 37.7295 32.8131 57.9279 0.0000 0.0000 0.0000
# 4 0.0000 0.0000 0.0000 21.0488 0.0000 0.0000
# 5 0.0000 0.0000 0.0000 0.0000 16.1627 0.0000
# 6 0.0000 0.0000 0.0000 0.0000 0.0000 22.3343
#
#
#
# Elastic Compliance Matrix: (Units=1/GPa)
#
#
# Indices 1 2 3 4 5 6 
#
# 1 0.014872 -0.006290 -0.006124 0.000000 0.000000 0.000000
# 2 -0.006290 0.014728 -0.004246 0.000000 0.000000 0.000000
# 3 -0.006124 -0.004246 0.023656 0.000000 0.000000 0.000000
# 4 0.000000 0.000000 0.000000 0.047509 0.000000 0.000000
# 5 0.000000 0.000000 0.000000 0.000000 0.061871 0.000000
# 6 0.000000 0.000000 0.000000 0.000000 0.000000 0.044774
#
#
# Mechanical properties :
#
#
# Convention : Reuss Voigt Hill
#
# Bulk Modulus (GPa) = 50.15650 57.77131 53.96391
# Shear Modulus (GPa) = 20.21232 21.17962 20.69597
#
# Velocity S-wave (km/s) = 3.40203 3.48248 3.44249
# Velocity P-wave (km/s) = 6.64469 7.01788 6.83383
#
# Compressibility (1/GPa) = 0.01993759
#
# Stress axis : x y z
#
# Youngs Moduli (GPa) = 67.23977 67.89911 42.27218
#
# Poissons Ratio (x) = 0.42708 0.25886
# Poissons Ratio (y) = 0.42293 0.17948
# Poissons Ratio (z) = 0.41175 0.28828
#
# Static dielectric constant tensor:
#      x y z
#    x 3.046530 0.000000 0.000000 
#    y 0.000000 3.672100 0.000000 
#    z 0.000000 0.000000 3.166090 
# 
# 
# High freq. dielectric constant tensor:
#      x y z
#    x 1.645830 0.000000 0.000000 
#    y 0.000000 1.685500 0.000000 
#    z 0.000000 0.000000 1.668230 
# 
# From -- ./inp_files/8014.got.cif
#   From: 2010.03.12/outbox.cif.g09.slc.cpg/sg55_5_cif.got.tgz:8014.got - 2010.04.16 15:19:21.
