data_PCOD8224804
_publ_section_title
;
Structure prediction by ZEFSAII (Michael W. Deem and Ramdas Pophale) SiO2 
 PCOD8224804
Probable space group: P B A M
;
_chemical_formula_sum "Si O2"
_cell_formula_units_Z 64
_cell_length_a 21.069120
_cell_length_b 18.585719
_cell_length_c 9.807857
_cell_angle_alpha 90.000000
_cell_angle_beta 90.000000
_cell_angle_gamma 90.000000
_cell_volume 3840.607172
_symmetry_space_group_name_H-M "P B A M"
_symmetry_group_IT_number 55
_symmetry_cell_setting 'orthorhombic'
loop_
_space_group_symop_operation_xyz
x,y,z
-x,-y,z
1/2+x,1/2-y,-z
1/2-x,1/2+y,-z
-x,-y,-z
x,y,-z
1/2-x,1/2+y,z
1/2+x,1/2-y,z
loop_
_atom_site_type_symbol
_atom_site_label
_atom_site_fract_x
_atom_site_fract_y
_atom_site_fract_z
Si Si1 0.399730 0.671643 0.343391
Si Si2 0.689492 0.415887 0.840424
Si Si3 0.230601 0.371090 0.850514
Si Si4 0.176596 0.530570 0.151292
Si Si5 0.928782 0.518125 0.659401
Si Si6 0.979414 0.080809 0.657544
Si Si7 0.362878 0.428570 0.158044
Si Si8 0.372002 0.830606 0.654510
O O1 0.383549 0.651836 0.500000
O O2 0.341424 0.646785 0.249498
O O3 0.464240 0.633482 0.297008
O O4 0.411022 0.757080 0.325572
O O5 0.765029 0.417183 0.807056
O O6 0.656388 0.490828 0.798564
O O7 0.678734 0.400185 0.000000
O O8 0.205161 0.451577 0.852190
O O9 0.304935 0.373779 0.813943
O O10 0.192222 0.324324 0.741973
O O11 0.221027 0.336219 0.000000
O O12 0.119001 0.534596 0.259015
O O13 0.151201 0.550939 0.000000
O O14 0.918697 0.502690 0.500000
O O15 0.915800 0.601714 0.697316
O O16 0.000000 0.500000 0.705398
O O17 0.960933 0.091655 0.500000
O O18 0.919604 0.100664 0.749727
O O19 0.000000 0.000000 0.688419
O O20 0.383061 0.426971 0.000000
O O21 0.349314 0.840631 0.500000
#
# Coordination Sequence:
#
# PCOD8224804 Si02
#       8
#     8   8   8   8   8   8   8   8
#     4  10  20  32  46  66  95 128 161 198 238 281
#     4   9  17  29  46  69  94 122 155 192 236 279
#     4   8  15  29  48  69  91 115 147 190 235 278
#     4   8  15  28  46  70  95 116 145 187 234 279
#     4   9  17  30  50  74  95 120 157 197 238 285
#     4  10  19  30  44  67  97 130 166 198 230 273
#     4   9  17  29  47  70  94 120 155 198 236 272
#     4   9  18  32  49  69  93 121 156 197 240 285
#
# _framework density 16.664031999999999
#
# number of rings (size 3 to 8) (size 9 to 14) (size 15 to 20)
#    0.000    3.000    1.250    1.500    0.000    2.500 
#    0.000    2.500    2.750    0.000    0.000    0.000 
#    0.000    0.000    0.000    0.000    0.000    0.000 
#
# Total GULP energy -793403.724448 kJ/mol
# GULP energy per Si atom -12396.933194 kJ/mol
# Density = 1.662610 g / cm^3
# Si number density = 16.664032 Si / 1000 Ang^3
#
#
#
# Elastic Constant Matrix: (Units=GPa)
#
#
# Indices 1 2 3 4 5 6 
#
# 1 131.5397 39.4396 71.8105 0.0000 0.0000 0.0000
# 2 39.4396 57.1146 32.0443 0.0000 0.0000 0.0000
# 3 71.8105 32.0443 74.7929 0.0000 0.0000 0.0000
# 4 0.0000 0.0000 0.0000 17.8721 0.0000 0.0000
# 5 0.0000 0.0000 0.0000 0.0000 35.1087 0.0000
# 6 0.0000 0.0000 0.0000 0.0000 0.0000 21.5469
#
#
#
# Elastic Compliance Matrix: (Units=1/GPa)
#
#
# Indices 1 2 3 4 5 6 
#
# 1 0.016431 -0.003285 -0.014369 0.000000 0.000000 0.000000
# 2 -0.003285 0.023706 -0.007003 0.000000 0.000000 0.000000
# 3 -0.014369 -0.007003 0.030166 0.000000 0.000000 0.000000
# 4 0.000000 0.000000 0.000000 0.055953 0.000000 0.000000
# 5 0.000000 0.000000 0.000000 0.000000 0.028483 0.000000
# 6 0.000000 0.000000 0.000000 0.000000 0.000000 0.046410
#
#
# Mechanical properties :
#
#
# Convention : Reuss Voigt Hill
#
# Bulk Modulus (GPa) = 47.63973 61.11511 54.37742
# Shear Modulus (GPa) = 19.42049 22.91573 21.16811
#
# Velocity S-wave (km/s) = 3.41752 3.71234 3.56798
# Velocity P-wave (km/s) = 6.65004 7.42494 7.04815
#
# Compressibility (1/GPa) = 0.02099088
#
# Stress axis : x y z
#
# Youngs Moduli (GPa) = 60.85878 42.18373 33.14936
#
# Poissons Ratio (x) = 0.13856 0.47632
# Poissons Ratio (y) = 0.19991 0.23214
# Poissons Ratio (z) = 0.87448 0.29540
#
# Static dielectric constant tensor:
#      x y z
#    x 3.177180 0.000000 0.000000 
#    y 0.000000 2.886320 0.000000 
#    z 0.000000 0.000000 3.242350 
# 
# 
# High freq. dielectric constant tensor:
#      x y z
#    x 1.636810 0.000000 0.000000 
#    y 0.000000 1.609260 0.000000 
#    z 0.000000 0.000000 1.644690 
# 
# From -- ./inp_files/9159.got.cif
#   From: 2010.03.12/outbox.cif.g09.slc.cpg/sg55_5_cif.got.tgz:9159.got - 2010.04.16 15:19:21.
