data_PCOD8224389
_publ_section_title
;
Structure prediction by ZEFSAII (Michael W. Deem and Ramdas Pophale) SiO2 
 PCOD8224389
Probable space group: P B A M
;
_chemical_formula_sum "Si O2"
_cell_formula_units_Z 56
_cell_length_a 21.033536
_cell_length_b 18.277093
_cell_length_c 8.908214
_cell_angle_alpha 90.000000
_cell_angle_beta 90.000000
_cell_angle_gamma 90.000000
_cell_volume 3424.601577
_symmetry_space_group_name_H-M "P B A M"
_symmetry_group_IT_number 55
_symmetry_cell_setting 'orthorhombic'
loop_
_space_group_symop_operation_xyz
x,y,z
-x,-y,z
1/2+x,1/2-y,-z
1/2-x,1/2+y,-z
-x,-y,-z
x,y,-z
1/2-x,1/2+y,z
1/2+x,1/2-y,z
loop_
_atom_site_type_symbol
_atom_site_label
_atom_site_fract_x
_atom_site_fract_y
_atom_site_fract_z
Si Si1 0.129842 0.654260 0.678059
Si Si2 0.746356 0.926595 0.821215
Si Si3 0.318049 0.711354 0.834636
Si Si4 0.501825 0.081940 0.321979
Si Si5 0.183261 0.789591 0.831272
Si Si6 0.373405 0.840109 0.676075
Si Si7 0.756000 0.080928 0.677759
O O1 0.139111 0.657722 0.500000
O O2 0.180957 0.597983 0.744307
O O3 0.134940 0.735557 0.746203
O O4 0.061061 0.624903 0.725988
O O5 0.803810 0.870929 0.776805
O O6 0.767281 0.004578 0.759581
O O7 0.736279 0.927543 0.000000
O O8 0.250783 0.751137 0.838025
O O9 0.366539 0.756207 0.730752
O O10 0.348376 0.709362 0.000000
O O11 0.508067 0.077735 0.500000
O O12 0.563204 0.123818 0.254337
O O13 0.500000 0.000000 0.254938
O O14 0.189282 0.864602 0.737504
O O15 0.158492 0.805807 0.000000
O O16 0.378703 0.836074 0.500000
O O17 0.313352 0.889144 0.724897
O O18 0.762367 0.071838 0.500000
#
# Coordination Sequence:
#
# PCOD8224389 Si02
#       7
#     8   8   8   8   8   8   8
#     4  10  18  29  46  65  88 120 157 189 215 257
#     4  10  19  30  44  64  92 121 147 181 230 273
#     4   8  16  29  43  60  84 115 146 178 218 264
#     4   9  17  29  44  64  91 121 151 184 221 255
#     4   9  17  30  45  62  89 119 146 181 227 271
#     4   9  17  29  45  64  87 117 150 183 219 259
#     4  10  18  28  46  70  91 114 149 187 223 267
#
# _framework density 16.352267000000001
#
# number of rings (size 3 to 8) (size 9 to 14) (size 15 to 20)
#    0.000    2.714    0.000    3.429    0.000    6.857 
#    0.000    1.429    0.000    3.000    0.000    1.000 
#    0.000    8.000    0.000    0.000    0.000    0.000 
#
# Total GULP energy -694216.990760 kJ/mol
# GULP energy per Si atom -12396.731978 kJ/mol
# Density = 1.631505 g / cm^3
# Si number density = 16.352267 Si / 1000 Ang^3
#
#
#
# Elastic Constant Matrix: (Units=GPa)
#
#
# Indices 1 2 3 4 5 6 
#
# 1 74.8026 64.6873 29.6470 0.0000 0.0000 0.0000
# 2 64.6873 147.8740 44.7505 0.0000 0.0000 0.0000
# 3 29.6470 44.7505 56.0778 0.0000 0.0000 0.0000
# 4 0.0000 0.0000 0.0000 30.2381 0.0000 0.0000
# 5 0.0000 0.0000 0.0000 0.0000 11.8978 0.0000
# 6 0.0000 0.0000 0.0000 0.0000 0.0000 24.9041
#
#
#
# Elastic Compliance Matrix: (Units=1/GPa)
#
#
# Indices 1 2 3 4 5 6 
#
# 1 0.022665 -0.008291 -0.005366 0.000000 0.000000 0.000000
# 2 -0.008291 0.011948 -0.005152 0.000000 0.000000 0.000000
# 3 -0.005366 -0.005152 0.024781 0.000000 0.000000 0.000000
# 4 0.000000 0.000000 0.000000 0.033071 0.000000 0.000000
# 5 0.000000 0.000000 0.000000 0.000000 0.084049 0.000000
# 6 0.000000 0.000000 0.000000 0.000000 0.000000 0.040154
#
#
# Mechanical properties :
#
#
# Convention : Reuss Voigt Hill
#
# Bulk Modulus (GPa) = 45.92169 61.88046 53.90107
# Shear Modulus (GPa) = 19.11718 22.71929 20.91824
#
# Velocity S-wave (km/s) = 3.42290 3.73146 3.58051
# Velocity P-wave (km/s) = 6.61554 7.51594 7.08007
#
# Compressibility (1/GPa) = 0.02177620
#
# Stress axis : x y z
#
# Youngs Moduli (GPa) = 44.12074 83.69338 40.35420
#
# Poissons Ratio (x) = 0.69389 0.21655
# Poissons Ratio (y) = 0.36580 0.20789
# Poissons Ratio (z) = 0.23677 0.43117
#
# Static dielectric constant tensor:
#      x y z
#    x 2.932110 0.000000 0.000000 
#    y 0.000000 3.336620 0.000000 
#    z 0.000000 0.000000 3.085180 
# 
# 
# High freq. dielectric constant tensor:
#      x y z
#    x 1.587960 0.000000 0.000000 
#    y 0.000000 1.635350 0.000000 
#    z 0.000000 0.000000 1.628140 
# 
# From -- ./inp_files/7867.got.cif
#   From: 2010.03.12/outbox.cif.g09.slc.cpg/sg55_4_cif.got.tgz:7867.got - 2010.04.16 15:19:21.
