data_PCOD8224602
_publ_section_title
;
Structure prediction by ZEFSAII (Michael W. Deem and Ramdas Pophale) SiO2 
 PCOD8224602
Probable space group: P B A M
;
_chemical_formula_sum "Si O2"
_cell_formula_units_Z 64
_cell_length_a 19.485771
_cell_length_b 20.872240
_cell_length_c 9.019375
_cell_angle_alpha 90.000000
_cell_angle_beta 90.000000
_cell_angle_gamma 90.000000
_cell_volume 3668.285239
_symmetry_space_group_name_H-M "P B A M"
_symmetry_group_IT_number 55
_symmetry_cell_setting 'orthorhombic'
loop_
_space_group_symop_operation_xyz
x,y,z
-x,-y,z
1/2+x,1/2-y,-z
1/2-x,1/2+y,-z
-x,-y,-z
x,y,-z
1/2-x,1/2+y,z
1/2+x,1/2-y,z
loop_
_atom_site_type_symbol
_atom_site_label
_atom_site_fract_x
_atom_site_fract_y
_atom_site_fract_z
Si Si1 0.925605 0.232381 0.330138
Si Si2 0.069645 0.620355 0.325395
Si Si3 0.079195 0.240058 0.673068
Si Si4 0.206924 0.191787 0.174203
Si Si5 0.068335 0.374963 0.824480
Si Si6 0.201302 0.572185 0.173081
Si Si7 0.796875 0.186519 0.175228
Si Si8 0.290101 0.930166 0.173310
O O1 0.904097 0.225154 0.500000
O O2 0.918611 0.306008 0.279330
O O3 0.874250 0.189115 0.235342
O O4 0.003797 0.209104 0.303276
O O5 0.061873 0.612351 0.500000
O O6 0.132193 0.578744 0.266361
O O7 0.999630 0.595744 0.249981
O O8 0.090829 0.255306 0.500000
O O9 0.136003 0.191157 0.734666
O O10 0.086116 0.304640 0.766072
O O11 0.244147 0.125913 0.218521
O O12 0.253866 0.251233 0.226380
O O13 0.190993 0.195397 0.000000
O O14 0.131439 0.420063 0.775284
O O15 0.057889 0.371946 0.000000
O O16 0.233148 0.502487 0.212518
O O17 0.182250 0.577353 0.000000
O O18 0.761102 0.122750 0.243778
O O19 0.801719 0.184454 0.000000
O O20 0.287299 0.917369 0.000000
#
# Coordination Sequence:
#
# PCOD8224602 Si02
#       8
#     8   8   8   8   8   8   8   8
#     4   9  19  33  49  74 103 131 164 204 252 301
#     4  10  20  33  48  73 107 138 172 212 251 298
#     4  10  20  33  51  77 107 135 166 209 261 304
#     4  10  19  32  53  79 100 127 174 214 247 298
#     4  10  18  32  52  73 102 139 176 210 248 301
#     4  10  20  35  53  73 100 137 173 208 254 305
#     4  10  18  32  53  78 100 126 168 214 252 293
#     4   9  19  34  51  73 103 133 166 211 258 301
#
# _framework density 17.446843000000001
#
# number of rings (size 3 to 8) (size 9 to 14) (size 15 to 20)
#    0.000    2.250    2.500    1.875    0.000    4.000 
#    0.000    4.375    0.000    0.750    0.000    5.250 
#    0.000    0.000    0.000    0.000    0.000    0.000 
#
# Total GULP energy -793571.278756 kJ/mol
# GULP energy per Si atom -12399.551231 kJ/mol
# Density = 1.740713 g / cm^3
# Si number density = 17.446843 Si / 1000 Ang^3
#
#
#
# Elastic Constant Matrix: (Units=GPa)
#
#
# Indices 1 2 3 4 5 6 
#
# 1 111.6516 57.5995 36.4741 0.0000 0.0000 0.0000
# 2 57.5995 102.1513 28.0351 0.0000 0.0000 0.0000
# 3 36.4741 28.0351 49.6705 0.0000 0.0000 0.0000
# 4 0.0000 0.0000 0.0000 12.5790 0.0000 0.0000
# 5 0.0000 0.0000 0.0000 0.0000 26.3407 0.0000
# 6 0.0000 0.0000 0.0000 0.0000 0.0000 24.8655
#
#
#
# Elastic Compliance Matrix: (Units=1/GPa)
#
#
# Indices 1 2 3 4 5 6 
#
# 1 0.014493 -0.006214 -0.007135 0.000000 0.000000 0.000000
# 2 -0.006214 0.014248 -0.003479 0.000000 0.000000 0.000000
# 3 -0.007135 -0.003479 0.027336 0.000000 0.000000 0.000000
# 4 0.000000 0.000000 0.000000 0.079498 0.000000 0.000000
# 5 0.000000 0.000000 0.000000 0.000000 0.037964 0.000000
# 6 0.000000 0.000000 0.000000 0.000000 0.000000 0.040216
#
#
# Mechanical properties :
#
#
# Convention : Reuss Voigt Hill
#
# Bulk Modulus (GPa) = 44.60157 56.41011 50.50584
# Shear Modulus (GPa) = 19.61672 22.18135 20.89903
#
# Velocity S-wave (km/s) = 3.35680 3.56949 3.46478
# Velocity P-wave (km/s) = 6.37526 7.02788 6.70951
#
# Compressibility (1/GPa) = 0.02242074
#
# Stress axis : x y z
#
# Youngs Moduli (GPa) = 68.99868 70.18561 36.58194
#
# Poissons Ratio (x) = 0.43612 0.26102
# Poissons Ratio (y) = 0.42875 0.12726
# Poissons Ratio (z) = 0.49233 0.24417
#
# Static dielectric constant tensor:
#      x y z
#    x 3.355340 0.000000 0.000000 
#    y 0.000000 3.145080 0.000000 
#    z 0.000000 0.000000 3.103930 
# 
# 
# High freq. dielectric constant tensor:
#      x y z
#    x 1.676730 0.000000 0.000000 
#    y 0.000000 1.650050 0.000000 
#    z 0.000000 0.000000 1.665620 
# 
# From -- ./inp_files/9117.got.cif
#   From: 2010.03.12/outbox.cif.g09.slc.cpg/sg55_5_cif.got.tgz:9117.got - 2010.04.16 15:19:21.
