data_PCOD8224183
_publ_section_title
;
Structure prediction by ZEFSAII (Michael W. Deem and Ramdas Pophale) SiO2 
 PCOD8224183
Probable space group: P C C A
;
_chemical_formula_sum "Si O2"
_cell_formula_units_Z 24
_cell_length_a 23.786331
_cell_length_b 4.945225
_cell_length_c 8.769575
_cell_angle_alpha 90.000000
_cell_angle_beta 90.000000
_cell_angle_gamma 90.000000
_cell_volume 1031.554222
_symmetry_space_group_name_H-M "P C C A"
_symmetry_group_IT_number 54
_symmetry_cell_setting 'orthorhombic'
loop_
_space_group_symop_operation_xyz
x,y,z
1/2-x,-y,z
1/2+x,-y,1/2-z
-x,y,1/2-z
-x,-y,-z
1/2+x,y,-z
1/2-x,y,1/2+z
x,-y,1/2+z
loop_
_atom_site_type_symbol
_atom_site_label
_atom_site_fract_x
_atom_site_fract_y
_atom_site_fract_z
Si Si1 0.975692 0.754275 0.914678
Si Si2 0.347203 0.810667 0.033457
Si Si3 0.308022 0.653881 0.356912
O O1 0.909794 0.822165 0.902596
O O2 0.000000 0.733836 0.750000
O O3 0.000000 0.500000 0.000000
O O4 0.000000 0.000000 0.000000
O O5 0.308887 0.729052 0.178908
O O6 0.352372 0.577203 0.904242
O O7 0.320423 0.081708 0.960638
O O8 0.250000 0.500000 0.398572
#
# Coordination Sequence:
#
# PCOD8224183 Si02
#       3
#     8   8   8
#     4  12  25  44  71 106 143 185 232 287 352 425
#     4  12  25  47  72 104 142 185 234 292 352 422
#     4  12  27  47  72 102 139 186 237 293 355 419
#
# _framework density 23.265861999999998
#
# number of rings (size 3 to 8) (size 9 to 14) (size 15 to 20)
#    0.000    0.000    0.000   11.000    0.000    2.667 
#    0.000    1.667    0.000    0.000    0.000    0.000 
#    0.000    0.000    0.000    0.000    0.000    0.000 
#
# Total GULP energy -297369.117751 kJ/mol
# GULP energy per Si atom -12390.379906 kJ/mol
# Density = 2.321291 g / cm^3
# Si number density = 23.265862 Si / 1000 Ang^3
#
#
#
# Elastic Constant Matrix: (Units=GPa)
#
#
# Indices 1 2 3 4 5 6 
#
# 1 106.8921 54.6167 48.6934 0.0000 0.0000 0.0000
# 2 54.6167 222.3256 85.7434 0.0000 0.0000 0.0000
# 3 48.6934 85.7434 147.5848 0.0000 0.0000 0.0000
# 4 0.0000 0.0000 0.0000 52.8422 0.0000 0.0000
# 5 0.0000 0.0000 0.0000 0.0000 36.7788 0.0000
# 6 0.0000 0.0000 0.0000 0.0000 0.0000 47.3753
#
#
#
# Elastic Compliance Matrix: (Units=1/GPa)
#
#
# Indices 1 2 3 4 5 6 
#
# 1 0.011520 -0.001758 -0.002779 0.000000 0.000000 0.000000
# 2 -0.001758 0.006065 -0.002944 0.000000 0.000000 0.000000
# 3 -0.002779 -0.002944 0.009403 0.000000 0.000000 0.000000
# 4 0.000000 0.000000 0.000000 0.018924 0.000000 0.000000
# 5 0.000000 0.000000 0.000000 0.000000 0.027190 0.000000
# 6 0.000000 0.000000 0.000000 0.000000 0.000000 0.021108
#
#
# Mechanical properties :
#
#
# Convention : Reuss Voigt Hill
#
# Bulk Modulus (GPa) = 83.15590 94.98995 89.07292
# Shear Modulus (GPa) = 44.17743 46.58253 45.37998
#
# Velocity S-wave (km/s) = 4.36226 4.47943 4.42123
# Velocity P-wave (km/s) = 7.82251 8.22620 8.02689
#
# Compressibility (1/GPa) = 0.01202561
#
# Stress axis : x y z
#
# Youngs Moduli (GPa) = 86.80870 164.87951 106.34966
#
# Poissons Ratio (x) = 0.28986 0.29558
# Poissons Ratio (y) = 0.15261 0.31305
# Poissons Ratio (z) = 0.24127 0.48534
#
# Static dielectric constant tensor:
#      x y z
#    x 8.013370 0.000000 0.000000 
#    y 0.000000 4.603520 0.000000 
#    z 0.000000 0.000000 4.733490 
# 
# 
# High freq. dielectric constant tensor:
#      x y z
#    x 1.933360 0.000000 0.000000 
#    y 0.000000 1.946690 0.000000 
#    z 0.000000 0.000000 1.940660 
# 
# From -- ./inp_files/4914.got.cif
#   From: 2010.03.12/outbox.cif.g09.slc.cpg/sg54_3_cif.got.tgz:4914.got - 2010.04.16 15:00:50.
