data_PCOD8224693
_publ_section_title
;
Structure prediction by ZEFSAII (Michael W. Deem and Ramdas Pophale) SiO2 
 PCOD8224693
Probable space group: P B A M
;
_chemical_formula_sum "Si O2"
_cell_formula_units_Z 56
_cell_length_a 15.063646
_cell_length_b 8.596289
_cell_length_c 19.250822
_cell_angle_alpha 90.000000
_cell_angle_beta 90.000000
_cell_angle_gamma 90.000000
_cell_volume 2492.816939
_symmetry_space_group_name_H-M "P B A M"
_symmetry_group_IT_number 55
_symmetry_cell_setting 'orthorhombic'
loop_
_space_group_symop_operation_xyz
x,y,z
-x,-y,z
1/2+x,1/2-y,-z
1/2-x,1/2+y,-z
-x,-y,-z
x,y,-z
1/2-x,1/2+y,z
1/2+x,1/2-y,z
loop_
_atom_site_type_symbol
_atom_site_label
_atom_site_fract_x
_atom_site_fract_y
_atom_site_fract_z
Si Si1 0.693378 0.840258 0.919873
Si Si2 0.876281 0.147949 0.724337
Si Si3 0.125635 0.832574 0.425885
Si Si4 0.307008 0.697432 0.722637
Si Si5 0.468025 0.330419 0.864919
Si Si6 0.703447 0.336151 0.426521
Si Si7 0.142208 0.335054 0.140741
O O1 0.621264 0.705156 0.907607
O O2 0.788756 0.781733 0.895375
O O3 0.664680 0.988166 0.875147
O O4 0.698119 0.888081 0.000000
O O5 0.926657 0.161389 0.648137
O O6 0.799262 0.277790 0.730806
O O7 0.950842 0.176700 0.781987
O O8 0.830286 0.981551 0.738468
O O9 0.069379 0.835225 0.500000
O O10 0.190023 0.684267 0.426698
O O11 0.191231 0.979569 0.423734
O O12 0.337293 0.741472 0.643442
O O13 0.357418 0.808865 0.776333
O O14 0.500000 0.500000 0.887682
O O15 0.543476 0.205775 0.885777
O O16 0.662837 0.270471 0.500000
#
# Coordination Sequence:
#
# PCOD8224693 Si02
#       7
#     8   8   8   8   8   8   8
#     4  12  28  49  73 100 130 164 207 261 323 394
#     4  10  19  34  57  91 126 169 221 270 320 380
#     4   8  14  25  45  75 118 163 209 264 318 370
#     4  10  18  33  59  86 126 170 214 265 317 373
#     4  12  25  43  68  98 132 171 212 264 315 381
#     4   8  14  24  43  77 116 159 209 259 310 364
#     4  12  24  44  70  98 131 168 212 262 322 383
#
# _framework density 22.464547
#
# number of rings (size 3 to 8) (size 9 to 14) (size 15 to 20)
#    0.000    1.714    2.857    2.571    0.000    2.000 
#    0.000    0.000    0.000    1.286    0.000    0.000 
#    0.000    2.286    0.000    0.000    0.000    0.000 
#
# Total GULP energy -693763.430366 kJ/mol
# GULP energy per Si atom -12388.632685 kJ/mol
# Density = 2.241342 g / cm^3
# Si number density = 22.464547 Si / 1000 Ang^3
#
#
#
# Elastic Constant Matrix: (Units=GPa)
#
#
# Indices 1 2 3 4 5 6 
#
# 1 68.9243 23.6709 26.6512 0.0000 0.0000 0.0000
# 2 23.6709 75.6197 28.2568 0.0000 0.0000 0.0000
# 3 26.6512 28.2568 121.2696 0.0000 0.0000 0.0000
# 4 0.0000 0.0000 0.0000 25.6414 0.0000 0.0000
# 5 0.0000 0.0000 0.0000 0.0000 6.2547 0.0000
# 6 0.0000 0.0000 0.0000 0.0000 0.0000 28.9928
#
#
#
# Elastic Compliance Matrix: (Units=1/GPa)
#
#
# Indices 1 2 3 4 5 6 
#
# 1 0.017050 -0.004312 -0.002742 0.000000 0.000000 0.000000
# 2 -0.004312 0.015576 -0.002682 0.000000 0.000000 0.000000
# 3 -0.002742 -0.002682 0.009474 0.000000 0.000000 0.000000
# 4 0.000000 0.000000 0.000000 0.038999 0.000000 0.000000
# 5 0.000000 0.000000 0.000000 0.000000 0.159879 0.000000
# 6 0.000000 0.000000 0.000000 0.000000 0.000000 0.034491
#
#
# Mechanical properties :
#
#
# Convention : Reuss Voigt Hill
#
# Bulk Modulus (GPa) = 44.19475 46.99683 45.59579
# Shear Modulus (GPa) = 16.52977 24.66009 20.59493
#
# Velocity S-wave (km/s) = 2.71554 3.31680 3.03111
# Velocity P-wave (km/s) = 5.43581 5.96943 5.70886
#
# Compressibility (1/GPa) = 0.02262712
#
# Stress axis : x y z
#
# Youngs Moduli (GPa) = 58.65088 64.20128 105.55671
#
# Poissons Ratio (x) = 0.27686 0.28946
# Poissons Ratio (y) = 0.25293 0.28306
# Poissons Ratio (z) = 0.16083 0.17216
#
# Static dielectric constant tensor:
#      x y z
#    x 3.671670 0.000000 0.000000 
#    y 0.000000 3.959520 0.000000 
#    z 0.000000 0.000000 4.671690 
# 
# 
# High freq. dielectric constant tensor:
#      x y z
#    x 1.841880 0.000000 0.000000 
#    y 0.000000 1.874260 0.000000 
#    z 0.000000 0.000000 1.911430 
# 
# From -- ./inp_files/22956.got.cif
#   From: 2010.03.12/outbox.cif.g09.slc.cpg/sg55_12_cif.got.tgz:22956.got - 2010.04.16 15:19:21.
