data_PCOD8224494
_publ_section_title
;
Structure prediction by ZEFSAII (Michael W. Deem and Ramdas Pophale) SiO2 
 PCOD8224494
Probable space group: P B A M
;
_chemical_formula_sum "Si O2"
_cell_formula_units_Z 56
_cell_length_a 15.745772
_cell_length_b 21.508944
_cell_length_c 9.039022
_cell_angle_alpha 90.000000
_cell_angle_beta 90.000000
_cell_angle_gamma 90.000000
_cell_volume 3061.290127
_symmetry_space_group_name_H-M "P B A M"
_symmetry_group_IT_number 55
_symmetry_cell_setting 'orthorhombic'
loop_
_space_group_symop_operation_xyz
x,y,z
-x,-y,z
1/2+x,1/2-y,-z
1/2-x,1/2+y,-z
-x,-y,-z
x,y,-z
1/2-x,1/2+y,z
1/2+x,1/2-y,z
loop_
_atom_site_type_symbol
_atom_site_label
_atom_site_fract_x
_atom_site_fract_y
_atom_site_fract_z
Si Si1 0.572051 0.779028 0.173840
Si Si2 0.062947 0.050936 0.674179
Si Si3 0.269899 0.547600 0.168446
Si Si4 0.868942 0.514126 0.335503
Si Si5 0.935729 0.808637 0.676031
Si Si6 0.011040 0.603662 0.664674
Si Si7 0.240189 0.190541 0.171297
O O1 0.514525 0.730326 0.262016
O O2 0.538372 0.847501 0.212011
O O3 0.672642 0.773344 0.217709
O O4 0.560725 0.768124 0.000000
O O5 0.056953 0.049760 0.500000
O O6 0.154546 0.029323 0.724359
O O7 0.045175 0.121056 0.730237
O O8 0.000000 0.000000 0.744653
O O9 0.198867 0.497076 0.207115
O O10 0.239852 0.617968 0.201110
O O11 0.298151 0.539546 0.000000
O O12 0.827739 0.516575 0.500000
O O13 0.932030 0.456704 0.329209
O O14 0.915466 0.579553 0.302285
O O15 0.932372 0.802138 0.500000
O O16 0.842903 0.786914 0.737266
O O17 0.015526 0.634026 0.500000
O O18 0.219410 0.202553 0.000000
#
# Coordination Sequence:
#
# PCOD8224494 Si02
#       7
#     8   8   8   8   8   8   8
#     4  11  21  35  55  79 110 146 178 218 272 323
#     4   9  19  37  58  78 101 132 173 220 270 317
#     4  10  18  30  51  79 107 136 178 218 258 317
#     4   9  17  30  48  74 106 139 174 214 257 298
#     4  10  21  36  57  83 106 136 180 226 269 319
#     4   9  18  31  49  74 106 141 177 213 251 302
#     4   9  19  35  53  76 105 141 181 221 266 319
#
# _framework density 18.292940000000002
#
# number of rings (size 3 to 8) (size 9 to 14) (size 15 to 20)
#    0.000    2.429    1.429    2.143    0.000    3.143 
#    0.000    2.857    0.000    5.143    0.000    0.000 
#    0.000    0.000    0.000    0.000    0.000    0.000 
#
# Total GULP energy -694016.015731 kJ/mol
# GULP energy per Si atom -12393.143138 kJ/mol
# Density = 1.825130 g / cm^3
# Si number density = 18.292940 Si / 1000 Ang^3
#
#
#
# Elastic Constant Matrix: (Units=GPa)
#
#
# Indices 1 2 3 4 5 6 
#
# 1 121.3477 54.5083 35.1124 0.0000 0.0000 0.0000
# 2 54.5083 55.7975 29.4068 0.0000 0.0000 0.0000
# 3 35.1124 29.4068 37.4636 0.0000 0.0000 0.0000
# 4 0.0000 0.0000 0.0000 24.3525 0.0000 0.0000
# 5 0.0000 0.0000 0.0000 0.0000 27.5233 0.0000
# 6 0.0000 0.0000 0.0000 0.0000 0.0000 32.9354
#
#
#
# Elastic Compliance Matrix: (Units=1/GPa)
#
#
# Indices 1 2 3 4 5 6 
#
# 1 0.015096 -0.012435 -0.004388 0.000000 0.000000 0.000000
# 2 -0.012435 0.040809 -0.020379 0.000000 0.000000 0.000000
# 3 -0.004388 -0.020379 0.046802 0.000000 0.000000 0.000000
# 4 0.000000 0.000000 0.000000 0.041064 0.000000 0.000000
# 5 0.000000 0.000000 0.000000 0.000000 0.036333 0.000000
# 6 0.000000 0.000000 0.000000 0.000000 0.000000 0.030362
#
#
# Mechanical properties :
#
#
# Convention : Reuss Voigt Hill
#
# Bulk Modulus (GPa) = 35.33093 50.29596 42.81344
# Shear Modulus (GPa) = 16.98924 23.33433 20.16179
#
# Velocity S-wave (km/s) = 3.05082 3.57542 3.32348
# Velocity P-wave (km/s) = 5.63612 6.67827 6.17920
#
# Compressibility (1/GPa) = 0.02830381
#
# Stress axis : x y z
#
# Youngs Moduli (GPa) = 66.24274 24.50414 21.36673
#
# Poissons Ratio (x) = 0.30470 0.09376
# Poissons Ratio (y) = 0.82370 0.43543
# Poissons Ratio (z) = 0.29069 0.49937
#
# Static dielectric constant tensor:
#      x y z
#    x 3.647970 0.000000 0.000000 
#    y 0.000000 3.427780 0.000000 
#    z 0.000000 0.000000 3.347900 
# 
# 
# High freq. dielectric constant tensor:
#      x y z
#    x 1.710110 0.000000 0.000000 
#    y 0.000000 1.683460 0.000000 
#    z 0.000000 0.000000 1.708590 
# 
# From -- ./inp_files/6079.got.cif
#   From: 2010.03.12/outbox.cif.g09.slc.cpg/sg55_4_cif.got.tgz:6079.got - 2010.04.16 15:19:21.
