data_PCOD8224776
_publ_section_title
;
Structure prediction by ZEFSAII (Michael W. Deem and Ramdas Pophale) SiO2 
 PCOD8224776
Probable space group: P B A M
;
_chemical_formula_sum "Si O2"
_cell_formula_units_Z 64
_cell_length_a 17.977500
_cell_length_b 22.013236
_cell_length_c 8.897718
_cell_angle_alpha 90.000000
_cell_angle_beta 90.000000
_cell_angle_gamma 90.000000
_cell_volume 3521.209171
_symmetry_space_group_name_H-M "P B A M"
_symmetry_group_IT_number 55
_symmetry_cell_setting 'orthorhombic'
loop_
_space_group_symop_operation_xyz
x,y,z
-x,-y,z
1/2+x,1/2-y,-z
1/2-x,1/2+y,-z
-x,-y,-z
x,y,-z
1/2-x,1/2+y,z
1/2+x,1/2-y,z
loop_
_atom_site_type_symbol
_atom_site_label
_atom_site_fract_x
_atom_site_fract_y
_atom_site_fract_z
Si Si1 0.071738 0.779256 0.822379
Si Si2 0.580507 0.977819 0.173985
Si Si3 0.718568 0.387492 0.323132
Si Si4 0.472142 0.435528 0.337275
Si Si5 0.272291 0.981020 0.677743
Si Si6 0.135362 0.653304 0.174430
Si Si7 0.929256 0.847744 0.824347
Si Si8 0.836609 0.104239 0.821731
O O1 0.091694 0.712352 0.763961
O O2 0.134948 0.828367 0.770170
O O3 0.987760 0.795762 0.766384
O O4 0.069695 0.781628 0.000000
O O5 0.642315 0.011758 0.272505
O O6 0.583550 0.905282 0.199039
O O7 0.500000 0.000000 0.229050
O O8 0.594199 0.994482 0.000000
O O9 0.711661 0.385350 0.500000
O O10 0.726313 0.458220 0.270598
O O11 0.790493 0.350876 0.271074
O O12 0.649694 0.349306 0.257608
O O13 0.500000 0.500000 0.383357
O O14 0.467074 0.400025 0.500000
O O15 0.529423 0.409569 0.216093
O O16 0.393358 0.442428 0.255259
O O17 0.268648 0.972761 0.500000
O O18 0.242291 0.918961 0.756168
O O19 0.157290 0.660923 0.000000
O O20 0.913584 0.842391 0.000000
O O21 0.835132 0.098247 0.000000
#
# Coordination Sequence:
#
# PCOD8224776 Si02
#       8
#     8   8   8   8   8   8   8   8
#     4   8  17  33  51  72  97 129 169 208 245 291
#     4   9  18  33  55  81 102 123 160 210 259 305
#     4  10  20  33  49  73 102 129 164 209 253 299
#     4  10  19  29  42  64  96 130 161 196 241 289
#     4  10  20  33  50  73 103 136 166 202 253 306
#     4   9  17  34  57  74  95 130 167 204 251 304
#     4  10  19  31  48  70  96 128 168 208 245 292
#     4  10  19  31  48  70  97 128 166 206 240 287
#
# _framework density 18.175574999999998
#
# number of rings (size 3 to 8) (size 9 to 14) (size 15 to 20)
#    0.000    2.500    0.000    3.375    0.000    5.750 
#    0.000    5.000    0.000    4.500    0.000    0.000 
#    0.000    0.000    0.000    0.000    0.000    0.000 
#
# Total GULP energy -792938.868670 kJ/mol
# GULP energy per Si atom -12389.669823 kJ/mol
# Density = 1.813421 g / cm^3
# Si number density = 18.175575 Si / 1000 Ang^3
#
#
#
# Elastic Constant Matrix: (Units=GPa)
#
#
# Indices 1 2 3 4 5 6 
#
# 1 125.5085 61.4953 36.0058 0.0000 0.0000 0.0000
# 2 61.4953 86.6135 24.7322 0.0000 0.0000 0.0000
# 3 36.0058 24.7322 60.7913 0.0000 0.0000 0.0000
# 4 0.0000 0.0000 0.0000 15.5808 0.0000 0.0000
# 5 0.0000 0.0000 0.0000 0.0000 31.2300 0.0000
# 6 0.0000 0.0000 0.0000 0.0000 0.0000 24.6592
#
#
#
# Elastic Compliance Matrix: (Units=1/GPa)
#
#
# Indices 1 2 3 4 5 6 
#
# 1 0.013243 -0.008104 -0.004546 0.000000 0.000000 0.000000
# 2 -0.008104 0.018022 -0.002532 0.000000 0.000000 0.000000
# 3 -0.004546 -0.002532 0.020173 0.000000 0.000000 0.000000
# 4 0.000000 0.000000 0.000000 0.064182 0.000000 0.000000
# 5 0.000000 0.000000 0.000000 0.000000 0.032020 0.000000
# 6 0.000000 0.000000 0.000000 0.000000 0.000000 0.040553
#
#
# Mechanical properties :
#
#
# Convention : Reuss Voigt Hill
#
# Bulk Modulus (GPa) = 47.45555 57.48666 52.47111
# Shear Modulus (GPa) = 22.16489 24.33934 23.25211
#
# Velocity S-wave (km/s) = 3.49590 3.66337 3.58062
# Velocity P-wave (km/s) = 6.51624 7.04208 6.78426
#
# Compressibility (1/GPa) = 0.02107235
#
# Stress axis : x y z
#
# Youngs Moduli (GPa) = 75.51423 55.48642 49.57192
#
# Poissons Ratio (x) = 0.44966 0.22537
# Poissons Ratio (y) = 0.61196 0.12553
# Poissons Ratio (z) = 0.34331 0.14051
#
# Static dielectric constant tensor:
#      x y z
#    x 3.294070 0.000000 0.000000 
#    y 0.000000 3.324030 0.000000 
#    z 0.000000 0.000000 3.282190 
# 
# 
# High freq. dielectric constant tensor:
#      x y z
#    x 1.700890 0.000000 0.000000 
#    y 0.000000 1.681420 0.000000 
#    z 0.000000 0.000000 1.704180 
# 
# From -- ./inp_files/8215.got.cif
#   From: 2010.03.12/outbox.cif.g09.slc.cpg/sg55_5_cif.got.tgz:8215.got - 2010.04.16 15:19:21.
