data_PCOD8224859
_publ_section_title
;
Structure prediction by ZEFSAII (Michael W. Deem and Ramdas Pophale) SiO2 
 PCOD8224859
Probable space group: P B A M
;
_chemical_formula_sum "Si O2"
_cell_formula_units_Z 64
_cell_length_a 19.808782
_cell_length_b 22.567783
_cell_length_c 9.020716
_cell_angle_alpha 90.000000
_cell_angle_beta 90.000000
_cell_angle_gamma 90.000000
_cell_volume 4032.623530
_symmetry_space_group_name_H-M "P B A M"
_symmetry_group_IT_number 55
_symmetry_cell_setting 'orthorhombic'
loop_
_space_group_symop_operation_xyz
x,y,z
-x,-y,z
1/2+x,1/2-y,-z
1/2-x,1/2+y,-z
-x,-y,-z
x,y,-z
1/2-x,1/2+y,z
1/2+x,1/2-y,z
loop_
_atom_site_type_symbol
_atom_site_label
_atom_site_fract_x
_atom_site_fract_y
_atom_site_fract_z
Si Si1 0.853048 0.756145 0.333841
Si Si2 0.195518 0.929904 0.328277
Si Si3 0.181915 0.065158 0.325171
Si Si4 0.277454 0.837188 0.166208
Si Si5 0.071291 0.143601 0.823592
Si Si6 0.779054 0.336095 0.336336
Si Si7 0.067208 0.850474 0.673067
Si Si8 0.646592 0.744642 0.834280
O O1 0.880973 0.745559 0.500000
O O2 0.838633 0.692781 0.257262
O O3 0.908042 0.792021 0.239013
O O4 0.784677 0.792954 0.340374
O O5 0.213877 0.924388 0.500000
O O6 0.256386 0.899282 0.239582
O O7 0.124311 0.899076 0.294207
O O8 0.190869 0.997591 0.276539
O O9 0.165725 0.072109 0.500000
O O10 0.120226 0.091965 0.233257
O O11 0.251623 0.099553 0.285011
O O12 0.213929 0.793809 0.166283
O O13 0.302756 0.849409 0.000000
O O14 0.997129 0.127900 0.765014
O O15 0.072692 0.145467 0.000000
O O16 0.811402 0.339948 0.500000
O O17 0.835935 0.310462 0.226226
O O18 0.049689 0.845965 0.500000
O O19 0.091115 0.785984 0.729751
O O20 0.617242 0.750711 0.000000
#
# Coordination Sequence:
#
# PCOD8224859 Si02
#       8
#     8   8   8   8   8   8   8   8
#     4   9  16  28  45  62  81 107 140 175 214 260
#     4   9  18  31  46  62  83 116 154 186 213 249
#     4   9  18  32  46  61  84 116 153 185 213 251
#     4   9  16  26  42  64  87 108 134 174 222 263
#     4  11  21  31  43  61  86 114 146 183 222 258
#     4   8  14  25  42  61  80 104 135 173 215 256
#     4  10  19  31  45  60  82 114 150 182 214 253
#     4   9  16  26  41  61  83 105 133 172 217 260
#
# _framework density 15.870561
#
# number of rings (size 3 to 8) (size 9 to 14) (size 15 to 20)
#    0.000    2.750    0.000    3.375    0.000    7.500 
#    0.000    2.500    0.000    0.000    0.000    0.000 
#    0.000    1.000    0.000   10.750    0.000    5.500 
#
# Total GULP energy -793460.075669 kJ/mol
# GULP energy per Si atom -12397.813682 kJ/mol
# Density = 1.583444 g / cm^3
# Si number density = 15.870561 Si / 1000 Ang^3
#
#
#
# Elastic Constant Matrix: (Units=GPa)
#
#
# Indices 1 2 3 4 5 6 
#
# 1 21.2872 46.4791 25.6549 0.0000 0.0000 0.0000
# 2 46.4791 113.3067 59.4642 0.0000 0.0000 0.0000
# 3 25.6549 59.4642 108.0413 0.0000 0.0000 0.0000
# 4 0.0000 0.0000 0.0000 18.7186 0.0000 0.0000
# 5 0.0000 0.0000 0.0000 0.0000 21.3564 0.0000
# 6 0.0000 0.0000 0.0000 0.0000 0.0000 12.9012
#
#
#
# Elastic Compliance Matrix: (Units=1/GPa)
#
#
# Indices 1 2 3 4 5 6 
#
# 1 0.454444 -0.182497 -0.007466 0.000000 0.000000 0.000000
# 2 -0.182497 0.085698 -0.003832 0.000000 0.000000 0.000000
# 3 -0.007466 -0.003832 0.013138 0.000000 0.000000 0.000000
# 4 0.000000 0.000000 0.000000 0.053423 0.000000 0.000000
# 5 0.000000 0.000000 0.000000 0.000000 0.046824 0.000000
# 6 0.000000 0.000000 0.000000 0.000000 0.000000 0.077512
#
#
# Mechanical properties :
#
#
# Convention : Reuss Voigt Hill
#
# Bulk Modulus (GPa) = 6.03542 56.20354 31.11948
# Shear Modulus (GPa) = 4.25945 17.99769 11.12857
#
# Velocity S-wave (km/s) = 1.64003 3.37119 2.65091
# Velocity P-wave (km/s) = 2.71982 7.11645 5.38708
#
# Compressibility (1/GPa) = 0.16568862
#
# Stress axis : x y z
#
# Youngs Moduli (GPa) = 2.20049 11.66885 76.11659
#
# Poissons Ratio (x) = 2.12953 0.56830
# Poissons Ratio (y) = 0.40158 0.29169
# Poissons Ratio (z) = 0.01643 0.04472
#
# Static dielectric constant tensor:
#      x y z
#    x 2.741180 0.000000 0.000000 
#    y 0.000000 3.042230 0.000000 
#    z 0.000000 0.000000 3.185380 
# 
# 
# High freq. dielectric constant tensor:
#      x y z
#    x 1.566980 0.000000 0.000000 
#    y 0.000000 1.591690 0.000000 
#    z 0.000000 0.000000 1.622390 
# 
# From -- ./inp_files/6690.got.cif
#   From: 2010.03.12/outbox.cif.g09.slc.cpg/sg55_4_cif.got.tgz:6690.got - 2010.04.16 15:19:21.
