data_PCOD8224635
_publ_section_title
;
Structure prediction by ZEFSAII (Michael W. Deem and Ramdas Pophale) SiO2 
 PCOD8224635
Probable space group: P B A M
;
_chemical_formula_sum "Si O2"
_cell_formula_units_Z 48
_cell_length_a 17.647995
_cell_length_b 8.232713
_cell_length_c 15.691792
_cell_angle_alpha 90.000000
_cell_angle_beta 90.000000
_cell_angle_gamma 90.000000
_cell_volume 2279.874235
_symmetry_space_group_name_H-M "P B A M"
_symmetry_group_IT_number 55
_symmetry_cell_setting 'orthorhombic'
loop_
_space_group_symop_operation_xyz
x,y,z
-x,-y,z
1/2+x,1/2-y,-z
1/2-x,1/2+y,-z
-x,-y,-z
x,y,-z
1/2-x,1/2+y,z
1/2+x,1/2-y,z
loop_
_atom_site_type_symbol
_atom_site_label
_atom_site_fract_x
_atom_site_fract_y
_atom_site_fract_z
Si Si1 0.812420 0.614626 0.500000
Si Si2 0.310238 0.730148 0.325629
Si Si3 0.807678 0.586718 0.000000
Si Si4 0.606083 0.137056 0.165044
Si Si5 0.145218 0.858610 0.323754
Si Si6 0.854991 0.214473 0.000000
Si Si7 0.441151 0.234917 0.164836
Si Si8 0.646752 0.737909 0.500000
O O1 0.843625 0.700999 0.585337
O O2 0.721946 0.626095 0.500000
O O3 0.835562 0.427851 0.500000
O O4 0.347406 0.829714 0.249747
O O5 0.219456 0.744588 0.318200
O O6 0.329475 0.542961 0.318230
O O7 0.841894 0.674975 0.083166
O O8 0.717189 0.597327 0.000000
O O9 0.827643 0.398804 0.000000
O O10 0.531901 0.250597 0.159932
O O11 0.582741 0.950917 0.166457
O O12 0.086290 0.824840 0.249352
O O13 0.102949 0.813912 0.413462
O O14 0.905146 0.176557 0.916906
#
# Coordination Sequence:
#
# PCOD8224635 Si02
#       8
#     4   8   4   8   8   4   8   4
#     4  10  18  32  55  82 111 144 185 231 279 327
#     4  11  21  35  56  83 114 147 187 232 278 329
#     4  10  21  37  59  85 111 144 185 230 276 326
#     4  10  21  38  58  81 112 149 187 228 278 333
#     4  11  21  35  56  83 114 147 187 232 278 329
#     4  10  21  37  59  85 111 144 185 230 276 326
#     4  10  21  38  58  81 112 149 187 228 278 333
#     4  10  18  32  55  82 111 144 185 231 279 327
#
# _framework density 21.053792000000001
#
# number of rings (size 3 to 8) (size 9 to 14) (size 15 to 20)
#    0.000    1.667    0.000    8.000    0.000    6.667 
#    0.000    0.833    0.000    8.000    0.000    0.000 
#    0.000    0.000    0.000    0.000    0.000    0.000 
#
# Total GULP energy -595285.854358 kJ/mol
# GULP energy per Si atom -12401.788632 kJ/mol
# Density = 2.100587 g / cm^3
# Si number density = 21.053792 Si / 1000 Ang^3
#
#
#
# Elastic Constant Matrix: (Units=GPa)
#
#
# Indices 1 2 3 4 5 6 
#
# 1 44.6166 -17.1281 28.7572 0.0000 0.0000 0.0000
# 2 -17.1281 26.3442 -2.4548 0.0000 0.0000 0.0000
# 3 28.7572 -2.4548 181.2700 0.0000 0.0000 0.0000
# 4 0.0000 0.0000 0.0000 24.9411 0.0000 0.0000
# 5 0.0000 0.0000 0.0000 0.0000 6.0231 0.0000
# 6 0.0000 0.0000 0.0000 0.0000 0.0000 22.1128
#
#
#
# Elastic Compliance Matrix: (Units=1/GPa)
#
#
# Indices 1 2 3 4 5 6 
#
# 1 0.034007 0.021635 -0.005102 0.000000 0.000000 0.000000
# 2 0.021635 0.051771 -0.002731 0.000000 0.000000 0.000000
# 3 -0.005102 -0.002731 0.006289 0.000000 0.000000 0.000000
# 4 0.000000 0.000000 0.000000 0.040094 0.000000 0.000000
# 5 0.000000 0.000000 0.000000 0.000000 0.166029 0.000000
# 6 0.000000 0.000000 0.000000 0.000000 0.000000 0.045223
#
#
# Mechanical properties :
#
#
# Convention : Reuss Voigt Hill
#
# Bulk Modulus (GPa) = 8.35628 30.06438 19.21033
# Shear Modulus (GPa) = 14.05681 26.81917 20.43799
#
# Velocity S-wave (km/s) = 2.58672 3.57296 3.11907
# Velocity P-wave (km/s) = 3.59153 5.59752 4.70273
#
# Compressibility (1/GPa) = 0.11967045
#
# Stress axis : x y z
#
# Youngs Moduli (GPa) = 29.40559 19.31591 159.00669
#
# Poissons Ratio (x) = -0.41790 0.81125
# Poissons Ratio (y) = -0.63619 0.43427
# Poissons Ratio (z) = 0.15003 0.05275
#
# Static dielectric constant tensor:
#      x y z
#    x 3.757980 0.000000 0.000000 
#    y 0.000000 3.628760 0.000000 
#    z 0.000000 0.000000 4.428400 
# 
# 
# High freq. dielectric constant tensor:
#      x y z
#    x 1.794480 0.000000 0.000000 
#    y 0.000000 1.824540 0.000000 
#    z 0.000000 0.000000 1.852180 
# 
# From -- ./inp_files/19418.got.cif
#   From: 2010.03.12/outbox.cif.g09.slc.cpg/sg55_10_cif.got.tgz:19418.got - 2010.04.16 15:19:21.
