data_PCOD8224210
_publ_section_title
;
Structure prediction by ZEFSAII (Michael W. Deem and Ramdas Pophale) SiO2 
 PCOD8224210
Probable space group: P C C A
;
_chemical_formula_sum "Si O2"
_cell_formula_units_Z 24
_cell_length_a 8.772756
_cell_length_b 5.077947
_cell_length_c 20.495927
_cell_angle_alpha 90.000000
_cell_angle_beta 90.000000
_cell_angle_gamma 90.000000
_cell_volume 913.044153
_symmetry_space_group_name_H-M "P C C A"
_symmetry_group_IT_number 54
_symmetry_cell_setting 'orthorhombic'
loop_
_space_group_symop_operation_xyz
x,y,z
1/2-x,-y,z
1/2+x,-y,1/2-z
-x,y,1/2-z
-x,-y,-z
1/2+x,y,-z
1/2-x,y,1/2+z
x,-y,1/2+z
loop_
_atom_site_type_symbol
_atom_site_label
_atom_site_fract_x
_atom_site_fract_y
_atom_site_fract_z
Si Si1 0.000000 0.851976 0.250000
Si Si2 0.250000 0.500000 0.307025
Si Si3 0.489193 0.171457 0.876096
Si Si4 0.250000 0.500000 0.055355
Si Si5 0.250000 0.000000 0.467133
O O1 0.146112 0.673181 0.260416
O O2 0.947910 0.023242 0.312336
O O3 0.161004 0.322363 0.356670
O O4 0.612340 0.385039 0.900525
O O5 0.412187 0.964764 0.927789
O O6 0.205948 0.748537 0.011307
#
# Coordination Sequence:
#
# PCOD8224210 Si02
#       5
#     4   4   8   4   4
#     4  12  28  52  84 126 170 232 284 378 450 522
#     4  12  27  51  84 120 176 218 288 358 454 530
#     4  12  28  53  85 128 176 224 299 369 441 532
#     4  12  31  51  90 130 174 238 292 352 444 526
#     4  12  26  56  88 124 178 238 292 360 430 532
#
# _framework density 26.285691
#
# number of rings (size 3 to 8) (size 9 to 14) (size 15 to 20)
#    0.000    0.000    3.333    4.000    4.667    8.000 
#    0.000    0.000    0.000    0.000    0.000    0.000 
#    0.000    0.000    0.000    0.000    0.000    0.000 
#
# Total GULP energy -297365.919492 kJ/mol
# GULP energy per Si atom -12390.246645 kJ/mol
# Density = 2.622586 g / cm^3
# Si number density = 26.285691 Si / 1000 Ang^3
#
#
#
# Elastic Constant Matrix: (Units=GPa)
#
#
# Indices 1 2 3 4 5 6 
#
# 1 175.3486 69.1581 79.3604 0.0000 0.0000 0.0000
# 2 69.1581 152.8118 75.9082 0.0000 0.0000 0.0000
# 3 79.3604 75.9082 159.7066 0.0000 0.0000 0.0000
# 4 0.0000 0.0000 0.0000 60.0030 0.0000 0.0000
# 5 0.0000 0.0000 0.0000 0.0000 52.7249 0.0000
# 6 0.0000 0.0000 0.0000 0.0000 0.0000 74.0941
#
#
#
# Elastic Compliance Matrix: (Units=1/GPa)
#
#
# Indices 1 2 3 4 5 6 
#
# 1 0.007846 -0.002113 -0.002895 0.000000 0.000000 0.000000
# 2 -0.002113 0.009136 -0.003292 0.000000 0.000000 0.000000
# 3 -0.002895 -0.003292 0.009265 0.000000 0.000000 0.000000
# 4 0.000000 0.000000 0.000000 0.016666 0.000000 0.000000
# 5 0.000000 0.000000 0.000000 0.000000 0.018966 0.000000
# 6 0.000000 0.000000 0.000000 0.000000 0.000000 0.013496
#
#
# Mechanical properties :
#
#
# Convention : Reuss Voigt Hill
#
# Bulk Modulus (GPa) = 103.66009 104.08003 103.87006
# Shear Modulus (GPa) = 52.52617 54.92711 53.72664
#
# Velocity S-wave (km/s) = 4.47506 4.57620 4.52591
# Velocity P-wave (km/s) = 8.13776 8.22215 8.18006
#
# Compressibility (1/GPa) = 0.00964691
#
# Stress axis : x y z
#
# Youngs Moduli (GPa) = 127.44650 109.46080 107.93803
#
# Poissons Ratio (x) = 0.23131 0.31244
# Poissons Ratio (y) = 0.26932 0.35534
# Poissons Ratio (z) = 0.36891 0.36036
#
# Static dielectric constant tensor:
#      x y z
#    x 4.653050 0.000000 0.000000 
#    y 0.000000 4.852210 0.000000 
#    z 0.000000 0.000000 8.910300 
# 
# 
# High freq. dielectric constant tensor:
#      x y z
#    x 2.064600 0.000000 0.000000 
#    y 0.000000 2.065560 0.000000 
#    z 0.000000 0.000000 2.075730 
# 
# From -- ./inp_files/23114.got.cif
#   From: 2010.03.12/outbox.cif.g09.slc.cpg/sg54_12_cif.got.tgz:23114.got - 2010.04.16 15:00:50.
