data_PCOD8224706
_publ_section_title
;
Structure prediction by ZEFSAII (Michael W. Deem and Ramdas Pophale) SiO2 
 PCOD8224706
Probable space group: P B A M
;
_chemical_formula_sum "Si O2"
_cell_formula_units_Z 40
_cell_length_a 16.247262
_cell_length_b 9.781444
_cell_length_c 14.381822
_cell_angle_alpha 90.000000
_cell_angle_beta 90.000000
_cell_angle_gamma 90.000000
_cell_volume 2285.583363
_symmetry_space_group_name_H-M "P B A M"
_symmetry_group_IT_number 55
_symmetry_cell_setting 'orthorhombic'
loop_
_space_group_symop_operation_xyz
x,y,z
-x,-y,z
1/2+x,1/2-y,-z
1/2-x,1/2+y,-z
-x,-y,-z
x,y,-z
1/2-x,1/2+y,z
1/2+x,1/2-y,z
loop_
_atom_site_type_symbol
_atom_site_label
_atom_site_fract_x
_atom_site_fract_y
_atom_site_fract_z
Si Si1 0.412764 0.071156 0.606950
Si Si2 0.574114 0.096554 0.894443
Si Si3 0.470564 0.355498 0.894665
Si Si4 0.157381 0.762836 0.252075
Si Si5 0.205320 0.474731 0.254432
O O1 0.392595 0.100415 0.500000
O O2 0.403786 0.216211 0.663125
O O3 0.347700 0.963296 0.650313
O O4 0.500000 0.000000 0.620473
O O5 0.547431 0.253692 0.890918
O O6 0.500000 0.000000 0.855671
O O7 0.655301 0.086395 0.832349
O O8 0.595277 0.051057 0.000000
O O9 0.500000 0.500000 0.851884
O O10 0.395021 0.292616 0.838948
O O11 0.439241 0.376474 0.000000
O O12 0.220122 0.636233 0.232056
O O13 0.209596 0.897961 0.274569
#
# Coordination Sequence:
#
# PCOD8224706 Si02
#       5
#     8   8   8   8   8
#     4   9  19  38  62  82 105 142 187 230 280 340
#     4  10  18  34  57  76 105 150 191 225 267 322
#     4  10  21  35  54  79 109 147 188 229 268 316
#     4  10  22  36  54  83 114 144 185 226 281 334
#     4  10  21  35  53  83 110 144 179 227 281 331
#
# _framework density 17.501000999999999
#
# number of rings (size 3 to 8) (size 9 to 14) (size 15 to 20)
#    1.200    1.000    2.000    1.800    2.800    1.600 
#    0.000    0.000    0.000    0.600    0.000    0.000 
#    0.000    0.000    0.000    0.000    0.000    0.000 
#
# Total GULP energy -495647.012879 kJ/mol
# GULP energy per Si atom -12391.175322 kJ/mol
# Density = 1.746117 g / cm^3
# Si number density = 17.501001 Si / 1000 Ang^3
#
#
#
# Elastic Constant Matrix: (Units=GPa)
#
#
# Indices 1 2 3 4 5 6 
#
# 1 47.7674 19.8398 36.4286 0.0000 0.0000 0.0000
# 2 19.8398 98.5869 32.2688 0.0000 0.0000 0.0000
# 3 36.4286 32.2688 96.6586 0.0000 0.0000 0.0000
# 4 0.0000 0.0000 0.0000 16.2977 0.0000 0.0000
# 5 0.0000 0.0000 0.0000 0.0000 13.2284 0.0000
# 6 0.0000 0.0000 0.0000 0.0000 0.0000 40.3389
#
#
#
# Elastic Compliance Matrix: (Units=1/GPa)
#
#
# Indices 1 2 3 4 5 6 
#
# 1 0.029970 -0.002621 -0.010420 0.000000 0.000000 0.000000
# 2 -0.002621 0.011617 -0.002891 0.000000 0.000000 0.000000
# 3 -0.010420 -0.002891 0.015238 0.000000 0.000000 0.000000
# 4 0.000000 0.000000 0.000000 0.061358 0.000000 0.000000
# 5 0.000000 0.000000 0.000000 0.000000 0.075595 0.000000
# 6 0.000000 0.000000 0.000000 0.000000 0.000000 0.024790
#
#
# Mechanical properties :
#
#
# Convention : Reuss Voigt Hill
#
# Bulk Modulus (GPa) = 40.06089 46.67636 43.36863
# Shear Modulus (GPa) = 19.32358 24.27137 21.79748
#
# Velocity S-wave (km/s) = 3.32647 3.72809 3.53299
# Velocity P-wave (km/s) = 6.13956 6.72757 6.44028
#
# Compressibility (1/GPa) = 0.02496200
#
# Stress axis : x y z
#
# Youngs Moduli (GPa) = 33.36678 86.08208 65.62608
#
# Poissons Ratio (x) = 0.22558 0.68384
# Poissons Ratio (y) = 0.08744 0.18970
# Poissons Ratio (z) = 0.34769 0.24883
#
# Static dielectric constant tensor:
#      x y z
#    x 2.964370 0.000000 0.000000 
#    y 0.000000 3.316870 0.000000 
#    z 0.000000 0.000000 3.217800 
# 
# 
# High freq. dielectric constant tensor:
#      x y z
#    x 1.652680 0.000000 0.000000 
#    y 0.000000 1.675600 0.000000 
#    z 0.000000 0.000000 1.671650 
# 
# From -- ./inp_files/19239.got.cif
#   From: 2010.03.12/outbox.cif.g09.slc.cpg/sg55_10_cif.got.tgz:19239.got - 2010.04.16 15:19:21.
