data_PCOD8224566
_publ_section_title
;
Structure prediction by ZEFSAII (Michael W. Deem and Ramdas Pophale) SiO2 
 PCOD8224566
Probable space group: P B A M
;
_chemical_formula_sum "Si O2"
_cell_formula_units_Z 40
_cell_length_a 9.220104
_cell_length_b 25.741799
_cell_length_c 8.929196
_cell_angle_alpha 90.000000
_cell_angle_beta 90.000000
_cell_angle_gamma 90.000000
_cell_volume 2119.273808
_symmetry_space_group_name_H-M "P B A M"
_symmetry_group_IT_number 55
_symmetry_cell_setting 'orthorhombic'
loop_
_space_group_symop_operation_xyz
x,y,z
-x,-y,z
1/2+x,1/2-y,-z
1/2-x,1/2+y,-z
-x,-y,-z
x,y,-z
1/2-x,1/2+y,z
1/2+x,1/2-y,z
loop_
_atom_site_type_symbol
_atom_site_label
_atom_site_fract_x
_atom_site_fract_y
_atom_site_fract_z
Si Si1 0.136456 0.192951 0.821779
Si Si2 0.309395 0.292852 0.822658
Si Si3 0.309630 0.103493 0.677529
Si Si4 0.830376 0.510204 0.664724
Si Si5 0.880212 0.611056 0.823232
O O1 0.237204 0.239863 0.763295
O O2 0.186755 0.140055 0.744913
O O3 0.973902 0.204371 0.765392
O O4 0.144123 0.186464 0.000000
O O5 0.219706 0.342229 0.763410
O O6 0.305048 0.292718 0.000000
O O7 0.321972 0.110043 0.500000
O O8 0.464306 0.117826 0.747554
O O9 0.260937 0.044382 0.719452
O O10 0.770675 0.525663 0.500000
O O11 0.800004 0.557146 0.779147
O O12 0.000000 0.500000 0.653145
O O13 0.902354 0.612722 0.000000
#
# Coordination Sequence:
#
# PCOD8224566 Si02
#       5
#     8   8   8   8   8
#     4  10  19  35  56  75  99 132 169 208 254 305
#     4   9  19  34  54  79 103 129 165 212 260 303
#     4  10  20  34  51  75 106 137 171 210 252 297
#     4   8  16  31  49  71 103 138 170 208 250 293
#     4  10  18  31  54  81 105 133 171 210 252 303
#
# _framework density 18.874392
#
# number of rings (size 3 to 8) (size 9 to 14) (size 15 to 20)
#    0.000    2.600    0.000    3.600    0.000    7.600 
#    0.000    8.000    0.000    6.000    0.000    0.000 
#    0.000    0.000    0.000    0.000    0.000    0.000 
#
# Total GULP energy -495897.877330 kJ/mol
# GULP energy per Si atom -12397.446933 kJ/mol
# Density = 1.883143 g / cm^3
# Si number density = 18.874392 Si / 1000 Ang^3
#
#
#
# Elastic Constant Matrix: (Units=GPa)
#
#
# Indices 1 2 3 4 5 6 
#
# 1 69.7611 17.4231 17.9342 0.0000 0.0000 0.0000
# 2 17.4231 88.0836 22.3793 0.0000 0.0000 0.0000
# 3 17.9342 22.3793 52.6272 0.0000 0.0000 0.0000
# 4 0.0000 0.0000 0.0000 12.9813 0.0000 0.0000
# 5 0.0000 0.0000 0.0000 0.0000 6.5614 0.0000
# 6 0.0000 0.0000 0.0000 0.0000 0.0000 33.7318
#
#
#
# Elastic Compliance Matrix: (Units=1/GPa)
#
#
# Indices 1 2 3 4 5 6 
#
# 1 0.016018 -0.001997 -0.004609 0.000000 0.000000 0.000000
# 2 -0.001997 0.012977 -0.004838 0.000000 0.000000 0.000000
# 3 -0.004609 -0.004838 0.022630 0.000000 0.000000 0.000000
# 4 0.000000 0.000000 0.000000 0.077034 0.000000 0.000000
# 5 0.000000 0.000000 0.000000 0.000000 0.152407 0.000000
# 6 0.000000 0.000000 0.000000 0.000000 0.000000 0.029646
#
#
# Mechanical properties :
#
#
# Convention : Reuss Voigt Hill
#
# Bulk Modulus (GPa) = 34.79941 36.21612 35.50777
# Shear Modulus (GPa) = 14.56964 20.83724 17.70344
#
# Velocity S-wave (km/s) = 2.78137 3.32625 3.06594
# Velocity P-wave (km/s) = 5.36583 5.82937 5.60239
#
# Compressibility (1/GPa) = 0.02873612
#
# Stress axis : x y z
#
# Youngs Moduli (GPa) = 62.42795 77.05909 44.19002
#
# Poissons Ratio (x) = 0.15392 0.20369
# Poissons Ratio (y) = 0.12469 0.21378
# Poissons Ratio (z) = 0.28775 0.37279
#
# Static dielectric constant tensor:
#      x y z
#    x 3.326810 0.000000 0.000000 
#    y 0.000000 3.980650 0.000000 
#    z 0.000000 0.000000 3.259890 
# 
# 
# High freq. dielectric constant tensor:
#      x y z
#    x 1.709980 0.000000 0.000000 
#    y 0.000000 1.752830 0.000000 
#    z 0.000000 0.000000 1.712660 
# 
# From -- ./inp_files/2317.got.cif
#   From: 2010.03.12/outbox.cif.g09.slc.cpg/sg55_2_cif.got.tgz:2317.got - 2010.04.16 15:19:21.
