data_PCOD8224051
_publ_section_title
;
Structure prediction by ZEFSAII (Michael W. Deem and Ramdas Pophale) SiO2 
 PCOD8224051
Probable space group: P C C A
;
_chemical_formula_sum "Si O2"
_cell_formula_units_Z 48
_cell_length_a 17.232326
_cell_length_b 14.724795
_cell_length_c 8.593033
_cell_angle_alpha 90.000000
_cell_angle_beta 90.000000
_cell_angle_gamma 90.000000
_cell_volume 2180.417399
_symmetry_space_group_name_H-M "P C C A"
_symmetry_group_IT_number 54
_symmetry_cell_setting 'orthorhombic'
loop_
_space_group_symop_operation_xyz
x,y,z
1/2-x,-y,z
1/2+x,-y,1/2-z
-x,y,1/2-z
-x,-y,-z
1/2+x,y,-z
1/2-x,y,1/2+z
x,-y,1/2+z
loop_
_atom_site_type_symbol
_atom_site_label
_atom_site_fract_x
_atom_site_fract_y
_atom_site_fract_z
Si Si1 0.330744 0.221669 0.845827
Si Si2 0.913878 0.895123 0.183722
Si Si3 0.581545 0.389980 0.576195
Si Si4 0.401995 0.434534 0.590077
Si Si5 0.164390 0.738607 0.481999
Si Si6 0.836797 0.961571 0.488291
O O1 0.392028 0.285326 0.941971
O O2 0.338306 0.228148 0.660386
O O3 0.246596 0.248633 0.903888
O O4 0.348146 0.118251 0.886892
O O5 0.898324 0.793396 0.121464
O O6 0.852767 0.923201 0.316709
O O7 0.000000 0.902575 0.250000
O O8 0.898918 0.961632 0.036954
O O9 0.489689 0.398589 0.577174
O O10 0.623686 0.423954 0.732888
O O11 0.612115 0.459459 0.445449
O O12 0.353643 0.368882 0.475904
O O13 0.750000 0.000000 0.491562
#
# Coordination Sequence:
#
# PCOD8224051 Si02
#       6
#     8   8   8   8   8   8
#     4  11  24  42  69  94 133 175 222 274 331 401
#     4  12  27  45  67 100 132 174 224 281 340 409
#     4   9  20  40  65  94 128 177 214 266 328 392
#     4   9  20  40  64  95 133 169 217 268 327 393
#     4  11  24  43  64 100 132 171 221 274 332 394
#     4  12  25  45  69  96 133 177 222 276 337 404
#
# _framework density 22.014135
#
# number of rings (size 3 to 8) (size 9 to 14) (size 15 to 20)
#    0.000    1.333    1.667    3.000    2.333    3.333 
#    6.000    3.333    0.000    0.000    0.000    0.000 
#    0.000    0.000    0.000    0.000    0.000    0.000 
#
# Total GULP energy -595116.190341 kJ/mol
# GULP energy per Si atom -12398.253965 kJ/mol
# Density = 2.196403 g / cm^3
# Si number density = 22.014135 Si / 1000 Ang^3
#
#
#
# Elastic Constant Matrix: (Units=GPa)
#
#
# Indices 1 2 3 4 5 6 
#
# 1 73.4371 29.3744 12.8920 0.0000 0.0000 0.0000
# 2 29.3744 69.2390 16.1970 0.0000 0.0000 0.0000
# 3 12.8920 16.1970 73.0107 0.0000 0.0000 0.0000
# 4 0.0000 0.0000 0.0000 36.9842 0.0000 0.0000
# 5 0.0000 0.0000 0.0000 0.0000 24.0630 0.0000
# 6 0.0000 0.0000 0.0000 0.0000 0.0000 38.2461
#
#
#
# Elastic Compliance Matrix: (Units=1/GPa)
#
#
# Indices 1 2 3 4 5 6 
#
# 1 0.016542 -0.006681 -0.001439 0.000000 0.000000 0.000000
# 2 -0.006681 0.017932 -0.002798 0.000000 0.000000 0.000000
# 3 -0.001439 -0.002798 0.014571 0.000000 0.000000 0.000000
# 4 0.000000 0.000000 0.000000 0.027039 0.000000 0.000000
# 5 0.000000 0.000000 0.000000 0.000000 0.041558 0.000000
# 6 0.000000 0.000000 0.000000 0.000000 0.000000 0.026146
#
#
# Mechanical properties :
#
#
# Convention : Reuss Voigt Hill
#
# Bulk Modulus (GPa) = 36.75302 36.95707 36.85505
# Shear Modulus (GPa) = 28.62137 30.34022 29.48080
#
# Velocity S-wave (km/s) = 3.60965 3.71646 3.66345
# Velocity P-wave (km/s) = 5.83988 5.93636 5.88832
#
# Compressibility (1/GPa) = 0.02720865
#
# Stress axis : x y z
#
# Youngs Moduli (GPa) = 60.45147 55.76653 68.62735
#
# Poissons Ratio (x) = 0.37260 0.09874
# Poissons Ratio (y) = 0.40390 0.19204
# Poissons Ratio (z) = 0.08697 0.15605
#
# Static dielectric constant tensor:
#      x y z
#    x 3.776220 0.000000 0.000000 
#    y 0.000000 4.333550 0.000000 
#    z 0.000000 0.000000 4.164550 
# 
# 
# High freq. dielectric constant tensor:
#      x y z
#    x 1.853250 0.000000 0.000000 
#    y 0.000000 1.879380 0.000000 
#    z 0.000000 0.000000 1.871750 
# 
# From -- ./inp_files/4214.got.cif
#   From: 2010.03.12/outbox.cif.g09.slc.cpg/sg54_3_cif.got.tgz:4214.got - 2010.04.16 15:00:50.
