data_PCOD8224708
_publ_section_title
;
Structure prediction by ZEFSAII (Michael W. Deem and Ramdas Pophale) SiO2 
 PCOD8224708
Probable space group: P B A M
;
_chemical_formula_sum "Si O2"
_cell_formula_units_Z 64
_cell_length_a 14.426258
_cell_length_b 25.367362
_cell_length_c 8.961143
_cell_angle_alpha 90.000000
_cell_angle_beta 90.000000
_cell_angle_gamma 90.000000
_cell_volume 3279.385024
_symmetry_space_group_name_H-M "P B A M"
_symmetry_group_IT_number 55
_symmetry_cell_setting 'orthorhombic'
loop_
_space_group_symop_operation_xyz
x,y,z
-x,-y,z
1/2+x,1/2-y,-z
1/2-x,1/2+y,-z
-x,-y,-z
x,y,-z
1/2-x,1/2+y,z
1/2+x,1/2-y,z
loop_
_atom_site_type_symbol
_atom_site_label
_atom_site_fract_x
_atom_site_fract_y
_atom_site_fract_z
Si Si1 0.751029 0.924963 0.822434
Si Si2 0.953588 0.447286 0.822478
Si Si3 0.045778 0.256122 0.323951
Si Si4 0.141606 0.768771 0.175121
Si Si5 0.603447 0.511104 0.821753
Si Si6 0.804468 0.116626 0.174759
Si Si7 0.099235 0.361013 0.825391
Si Si8 0.691890 0.309790 0.825800
O O1 0.650153 0.940963 0.758301
O O2 0.775136 0.866506 0.766038
O O3 0.828059 0.965582 0.761723
O O4 0.747395 0.926226 0.000000
O O5 0.000000 0.500000 0.755819
O O6 0.014929 0.397590 0.772059
O O7 0.951724 0.450683 0.000000
O O8 0.044921 0.254592 0.500000
O O9 0.099032 0.307731 0.267960
O O10 0.098481 0.204784 0.261746
O O11 0.941983 0.257486 0.263178
O O12 0.158983 0.827683 0.238717
O O13 0.230844 0.733583 0.209080
O O14 0.118636 0.768593 0.000000
O O15 0.500000 0.500000 0.761560
O O16 0.638773 0.567329 0.756898
O O17 0.604739 0.511714 0.000000
O O18 0.695492 0.108899 0.208509
O O19 0.821675 0.117788 0.000000
O O20 0.092080 0.346365 0.000000
O O21 0.667789 0.312276 0.000000
#
# Coordination Sequence:
#
# PCOD8224708 Si02
#       8
#     8   8   8   8   8   8   8   8
#     4   9  17  28  45  75 111 143 178 221 274 332
#     4   9  16  27  50  83 115 142 171 223 285 334
#     4  12  25  37  53  80 113 148 187 232 286 337
#     4  10  20  36  58  82 108 142 188 231 279 337
#     4   9  17  27  42  73 114 146 172 217 278 329
#     4   9  17  30  51  78 107 140 178 223 272 327
#     4  10  18  34  57  81 110 144 185 228 277 336
#     4  10  20  37  59  82 109 146 189 232 277 329
#
# _framework density 19.515855999999999
#
# number of rings (size 3 to 8) (size 9 to 14) (size 15 to 20)
#    0.000    2.250    1.250    2.625    1.750    5.500 
#    0.000    0.000    0.000    0.375    0.000    4.375 
#    0.000    0.000    0.000    0.000    0.000    0.000 
#
# Total GULP energy -793632.176201 kJ/mol
# GULP energy per Si atom -12400.502753 kJ/mol
# Density = 1.947144 g / cm^3
# Si number density = 19.515856 Si / 1000 Ang^3
#
#
#
# Elastic Constant Matrix: (Units=GPa)
#
#
# Indices 1 2 3 4 5 6 
#
# 1 119.7415 49.2157 21.8068 0.0000 0.0000 0.0000
# 2 49.2157 140.4858 15.3907 0.0000 0.0000 0.0000
# 3 21.8068 15.3907 35.1165 0.0000 0.0000 0.0000
# 4 0.0000 0.0000 0.0000 3.4450 0.0000 0.0000
# 5 0.0000 0.0000 0.0000 0.0000 4.3380 0.0000
# 6 0.0000 0.0000 0.0000 0.0000 0.0000 39.6362
#
#
#
# Elastic Compliance Matrix: (Units=1/GPa)
#
#
# Indices 1 2 3 4 5 6 
#
# 1 0.010589 -0.003140 -0.005199 0.000000 0.000000 0.000000
# 2 -0.003140 0.008408 -0.001735 0.000000 0.000000 0.000000
# 3 -0.005199 -0.001735 0.032466 0.000000 0.000000 0.000000
# 4 0.000000 0.000000 0.000000 0.290275 0.000000 0.000000
# 5 0.000000 0.000000 0.000000 0.000000 0.230519 0.000000
# 6 0.000000 0.000000 0.000000 0.000000 0.000000 0.025229
#
#
# Mechanical properties :
#
#
# Convention : Reuss Voigt Hill
#
# Bulk Modulus (GPa) = 31.93473 52.01893 41.97683
# Shear Modulus (GPa) = 7.96086 23.41256 15.68671
#
# Velocity S-wave (km/s) = 2.02189 3.46738 2.83820
# Velocity P-wave (km/s) = 4.67437 6.53780 5.68298
#
# Compressibility (1/GPa) = 0.03131387
#
# Stress axis : x y z
#
# Youngs Moduli (GPa) = 94.43987 118.93081 30.80153
#
# Poissons Ratio (x) = 0.37343 0.16015
# Poissons Ratio (y) = 0.29653 0.05345
# Poissons Ratio (z) = 0.49102 0.20638
#
# Static dielectric constant tensor:
#      x y z
#    x 3.739780 0.000000 0.000000 
#    y 0.000000 3.822600 0.000000 
#    z 0.000000 0.000000 2.851210 
# 
# 
# High freq. dielectric constant tensor:
#      x y z
#    x 1.776570 0.000000 0.000000 
#    y 0.000000 1.775070 0.000000 
#    z 0.000000 0.000000 1.681990 
# 
# From -- ./inp_files/6653.got.cif
#   From: 2010.03.12/outbox.cif.g09.slc.cpg/sg55_4_cif.got.tgz:6653.got - 2010.04.16 15:19:21.
