data_PCOD8224098
_publ_section_title
;
Structure prediction by ZEFSAII (Michael W. Deem and Ramdas Pophale) SiO2 
 PCOD8224098
Probable space group: P C C A
;
_chemical_formula_sum "Si O2"
_cell_formula_units_Z 40
_cell_length_a 13.681727
_cell_length_b 11.943970
_cell_length_c 10.922343
_cell_angle_alpha 90.000000
_cell_angle_beta 90.000000
_cell_angle_gamma 90.000000
_cell_volume 1784.865254
_symmetry_space_group_name_H-M "P C C A"
_symmetry_group_IT_number 54
_symmetry_cell_setting 'orthorhombic'
loop_
_space_group_symop_operation_xyz
x,y,z
1/2-x,-y,z
1/2+x,-y,1/2-z
-x,y,1/2-z
-x,-y,-z
1/2+x,y,-z
1/2-x,y,1/2+z
x,-y,1/2+z
loop_
_atom_site_type_symbol
_atom_site_label
_atom_site_fract_x
_atom_site_fract_y
_atom_site_fract_z
Si Si1 0.868260 0.216732 0.478570
Si Si2 0.993010 0.411379 0.109887
Si Si3 0.162329 0.237677 0.433798
Si Si4 0.460226 0.141795 0.132639
Si Si5 0.346002 0.062706 0.734059
O O1 0.780044 0.252436 0.570329
O O2 0.815273 0.145388 0.374377
O O3 0.921156 0.322660 0.417199
O O4 0.946035 0.134179 0.543170
O O5 0.886496 0.354280 0.104615
O O6 0.000000 0.460154 0.250000
O O7 0.000000 0.500000 0.000000
O O8 0.128885 0.207457 0.571631
O O9 0.119130 0.138172 0.348464
O O10 0.500000 0.212438 0.250000
O O11 0.429225 0.020767 0.185748
O O12 0.250000 0.000000 0.780810
#
# Coordination Sequence:
#
# PCOD8224098 Si02
#       5
#     8   8   8   8   8
#     4  11  25  46  69 105 143 190 242 301 370 450
#     4  11  26  52  79 104 141 193 256 327 386 438
#     4  11  26  47  68 106 148 189 248 301 363 456
#     4  11  26  37  65 102 144 196 236 286 354 444
#     4  12  24  40  67 103 154 194 232 284 360 444
#
# _framework density 22.410654000000001
#
# number of rings (size 3 to 8) (size 9 to 14) (size 15 to 20)
#    0.000    0.800    4.000    1.800   11.200    4.000 
#    0.000    2.000    0.000    0.000    0.000    0.000 
#    0.000    0.000    0.000    0.000    0.000    0.000 
#
# Total GULP energy -495715.161149 kJ/mol
# GULP energy per Si atom -12392.879029 kJ/mol
# Density = 2.235965 g / cm^3
# Si number density = 22.410654 Si / 1000 Ang^3
#
#
#
# Elastic Constant Matrix: (Units=GPa)
#
#
# Indices 1 2 3 4 5 6 
#
# 1 135.2457 39.4837 35.5655 0.0000 0.0000 0.0000
# 2 39.4837 92.1602 54.3828 0.0000 0.0000 0.0000
# 3 35.5655 54.3828 148.4144 0.0000 0.0000 0.0000
# 4 0.0000 0.0000 0.0000 41.7397 0.0000 0.0000
# 5 0.0000 0.0000 0.0000 0.0000 31.2837 0.0000
# 6 0.0000 0.0000 0.0000 0.0000 0.0000 25.2090
#
#
#
# Elastic Compliance Matrix: (Units=1/GPa)
#
#
# Indices 1 2 3 4 5 6 
#
# 1 0.008544 -0.003129 -0.000901 0.000000 0.000000 0.000000
# 2 -0.003129 0.014990 -0.004743 0.000000 0.000000 0.000000
# 3 -0.000901 -0.004743 0.008692 0.000000 0.000000 0.000000
# 4 0.000000 0.000000 0.000000 0.023958 0.000000 0.000000
# 5 0.000000 0.000000 0.000000 0.000000 0.031965 0.000000
# 6 0.000000 0.000000 0.000000 0.000000 0.000000 0.039668
#
#
# Mechanical properties :
#
#
# Convention : Reuss Voigt Hill
#
# Bulk Modulus (GPa) = 68.11837 70.52048 69.31942
# Shear Modulus (GPa) = 33.27632 36.07236 34.67434
#
# Velocity S-wave (km/s) = 3.85755 4.01634 3.93775
# Velocity P-wave (km/s) = 7.09242 7.28311 7.18840
#
# Compressibility (1/GPa) = 0.01468033
#
# Stress axis : x y z
#
# Youngs Moduli (GPa) = 117.03631 66.71151 115.05208
#
# Poissons Ratio (x) = 0.20874 0.10366
# Poissons Ratio (y) = 0.36620 0.54568
# Poissons Ratio (z) = 0.10545 0.31640
#
# Static dielectric constant tensor:
#      x y z
#    x 3.956450 0.000000 0.000000 
#    y 0.000000 3.728870 0.000000 
#    z 0.000000 0.000000 4.412000 
# 
# 
# High freq. dielectric constant tensor:
#      x y z
#    x 1.896420 0.000000 0.000000 
#    y 0.000000 1.843080 0.000000 
#    z 0.000000 0.000000 1.903050 
# 
# From -- ./inp_files/8213.got.cif
#   From: 2010.03.12/outbox.cif.g09.slc.cpg/sg54_5_cif.got.tgz:8213.got - 2010.04.16 15:00:50.
