data_PCOD8224685
_publ_section_title
;
Structure prediction by ZEFSAII (Michael W. Deem and Ramdas Pophale) SiO2 
 PCOD8224685
Probable space group: P B A M
;
_chemical_formula_sum "Si O2"
_cell_formula_units_Z 48
_cell_length_a 18.134442
_cell_length_b 9.224159
_cell_length_c 13.971182
_cell_angle_alpha 90.000000
_cell_angle_beta 90.000000
_cell_angle_gamma 90.000000
_cell_volume 2337.029139
_symmetry_space_group_name_H-M "P B A M"
_symmetry_group_IT_number 55
_symmetry_cell_setting 'orthorhombic'
loop_
_space_group_symop_operation_xyz
x,y,z
-x,-y,z
1/2+x,1/2-y,-z
1/2-x,1/2+y,-z
-x,-y,-z
x,y,-z
1/2-x,1/2+y,z
1/2+x,1/2-y,z
loop_
_atom_site_type_symbol
_atom_site_label
_atom_site_fract_x
_atom_site_fract_y
_atom_site_fract_z
Si Si1 0.706202 0.518245 0.607336
Si Si2 0.759138 0.391503 0.205762
Si Si3 0.166056 0.331644 0.110064
Si Si4 0.032181 0.340530 0.233837
Si Si5 0.370538 0.930284 0.395399
Si Si6 0.114576 0.741348 0.306481
O O1 0.695459 0.448172 0.500000
O O2 0.712286 0.404186 0.694849
O O3 0.783587 0.605493 0.608122
O O4 0.637171 0.624058 0.626830
O O5 0.794273 0.544308 0.173253
O O6 0.707178 0.321964 0.125083
O O7 0.825789 0.278779 0.222088
O O8 0.080369 0.307345 0.139431
O O9 0.169082 0.377298 0.000000
O O10 0.087591 0.325037 0.323190
O O11 0.000000 0.500000 0.222412
O O12 0.964379 0.230594 0.254223
O O13 0.402978 0.898930 0.500000
O O14 0.386820 0.098049 0.371460
#
# Coordination Sequence:
#
# PCOD8224685 Si02
#       6
#     8   8   8   8   8   8
#     4  10  19  34  61  89 122 163 201 241 302 369
#     4  11  21  42  62  91 122 155 204 261 302 361
#     4  12  24  42  65  89 116 160 211 261 316 360
#     4  10  19  36  56  87 125 160 196 252 300 360
#     4   9  17  29  50  83 120 156 197 237 286 351
#     4  10  18  33  58  84 126 156 192 240 305 350
#
# _framework density 20.538898
#
# number of rings (size 3 to 8) (size 9 to 14) (size 15 to 20)
#    0.000    1.667    6.667    1.000    0.000    4.667 
#    0.000    1.667    0.000    2.000    0.000    0.000 
#    0.000    0.000    0.000    0.000    0.000    0.000 
#
# Total GULP energy -594874.202834 kJ/mol
# GULP energy per Si atom -12393.212559 kJ/mol
# Density = 2.049215 g / cm^3
# Si number density = 20.538898 Si / 1000 Ang^3
#
#
#
# Elastic Constant Matrix: (Units=GPa)
#
#
# Indices 1 2 3 4 5 6 
#
# 1 100.1212 21.9194 31.8285 0.0000 0.0000 0.0000
# 2 21.9194 25.8912 11.6414 0.0000 0.0000 0.0000
# 3 31.8285 11.6414 122.0288 0.0000 0.0000 0.0000
# 4 0.0000 0.0000 0.0000 22.3484 0.0000 0.0000
# 5 0.0000 0.0000 0.0000 0.0000 21.5762 0.0000
# 6 0.0000 0.0000 0.0000 0.0000 0.0000 27.1897
#
#
#
# Elastic Compliance Matrix: (Units=1/GPa)
#
#
# Indices 1 2 3 4 5 6 
#
# 1 0.012915 -0.009841 -0.002430 0.000000 0.000000 0.000000
# 2 -0.009841 0.047853 -0.001998 0.000000 0.000000 0.000000
# 3 -0.002430 -0.001998 0.009019 0.000000 0.000000 0.000000
# 4 0.000000 0.000000 0.000000 0.044746 0.000000 0.000000
# 5 0.000000 0.000000 0.000000 0.000000 0.046347 0.000000
# 6 0.000000 0.000000 0.000000 0.000000 0.000000 0.036779
#
#
# Mechanical properties :
#
#
# Convention : Reuss Voigt Hill
#
# Bulk Modulus (GPa) = 24.24309 42.09106 33.16707
# Shear Modulus (GPa) = 20.83794 26.39967 23.61880
#
# Velocity S-wave (km/s) = 3.18867 3.58907 3.39478
# Velocity P-wave (km/s) = 5.03845 6.14109 5.61689
#
# Compressibility (1/GPa) = 0.04124886
#
# Stress axis : x y z
#
# Youngs Moduli (GPa) = 77.43047 20.89724 110.87516
#
# Poissons Ratio (x) = 0.20565 0.26939
# Poissons Ratio (y) = 0.76201 0.22156
# Poissons Ratio (z) = 0.18813 0.04176
#
# Static dielectric constant tensor:
#      x y z
#    x 4.017540 0.000000 0.000000 
#    y 0.000000 3.225140 0.000000 
#    z 0.000000 0.000000 3.681150 
# 
# 
# High freq. dielectric constant tensor:
#      x y z
#    x 1.803300 0.000000 0.000000 
#    y 0.000000 1.763030 0.000000 
#    z 0.000000 0.000000 1.794070 
# 
# From -- ./inp_files/19335.got.cif
#   From: 2010.03.12/outbox.cif.g09.slc.cpg/sg55_10_cif.got.tgz:19335.got - 2010.04.16 15:19:21.
