data_PCOD8224166
_publ_section_title
;
Structure prediction by ZEFSAII (Michael W. Deem and Ramdas Pophale) SiO2 
 PCOD8224166
Probable space group: P C C A
;
_chemical_formula_sum "Si O2"
_cell_formula_units_Z 48
_cell_length_a 14.342797
_cell_length_b 17.565286
_cell_length_c 8.296864
_cell_angle_alpha 90.000000
_cell_angle_beta 90.000000
_cell_angle_gamma 90.000000
_cell_volume 2090.273181
_symmetry_space_group_name_H-M "P C C A"
_symmetry_group_IT_number 54
_symmetry_cell_setting 'orthorhombic'
loop_
_space_group_symop_operation_xyz
x,y,z
1/2-x,-y,z
1/2+x,-y,1/2-z
-x,y,1/2-z
-x,-y,-z
1/2+x,y,-z
1/2-x,y,1/2+z
x,-y,1/2+z
loop_
_atom_site_type_symbol
_atom_site_label
_atom_site_fract_x
_atom_site_fract_y
_atom_site_fract_z
Si Si1 0.287644 0.581910 0.603346
Si Si2 0.481005 0.083656 0.437524
Si Si3 0.375032 0.803905 0.402331
Si Si4 0.550140 0.365795 0.582756
Si Si5 0.868815 0.341035 0.584831
Si Si6 0.823913 0.180731 0.468195
O O1 0.250000 0.500000 0.657395
O O2 0.364809 0.575733 0.458657
O O3 0.336076 0.627764 0.745362
O O4 0.198448 0.630703 0.556572
O O5 0.500000 0.090690 0.250000
O O6 0.541284 0.142018 0.544243
O O7 0.372261 0.104208 0.464227
O O8 0.500000 0.000000 0.500000
O O9 0.405563 0.717254 0.419900
O O10 0.348319 0.814440 0.218259
O O11 0.287136 0.823335 0.514801
O O12 0.500000 0.387254 0.750000
O O13 0.472996 0.371361 0.443125
O O14 0.866464 0.249768 0.574758
#
# Coordination Sequence:
#
# PCOD8224166 Si02
#       6
#     8   8   8   8   8   8
#     4  12  28  48  72 107 154 194 252 323 393 458
#     4  12  27  47  75 112 160 205 254 319 384 451
#     4  12  24  45  74 114 152 192 263 316 376 461
#     4  12  24  45  78 109 144 195 256 317 381 464
#     4  12  24  45  76 106 145 196 250 312 380 462
#     4  12  24  44  76 111 148 203 253 318 378 459
#
# _framework density 22.963505999999999
#
# number of rings (size 3 to 8) (size 9 to 14) (size 15 to 20)
#    0.000    0.000    5.000    5.500    2.333    1.333 
#    0.000    5.833    0.000    0.000    0.000    0.000 
#    0.000    0.000    0.000    0.000    0.000    0.000 
#
# Total GULP energy -595398.234833 kJ/mol
# GULP energy per Si atom -12404.129892 kJ/mol
# Density = 2.291124 g / cm^3
# Si number density = 22.963506 Si / 1000 Ang^3
#
#
#
# Elastic Constant Matrix: (Units=GPa)
#
#
# Indices 1 2 3 4 5 6 
#
# 1 70.4659 -11.0571 33.3762 0.0000 0.0000 0.0000
# 2 -11.0571 59.7090 40.3880 0.0000 0.0000 0.0000
# 3 33.3762 40.3880 136.3032 0.0000 0.0000 0.0000
# 4 0.0000 0.0000 0.0000 34.7732 0.0000 0.0000
# 5 0.0000 0.0000 0.0000 0.0000 42.6854 0.0000
# 6 0.0000 0.0000 0.0000 0.0000 0.0000 23.0502
#
#
#
# Elastic Compliance Matrix: (Units=1/GPa)
#
#
# Indices 1 2 3 4 5 6 
#
# 1 0.018831 0.008262 -0.007059 0.000000 0.000000 0.000000
# 2 0.008262 0.024571 -0.009304 0.000000 0.000000 0.000000
# 3 -0.007059 -0.009304 0.011822 0.000000 0.000000 0.000000
# 4 0.000000 0.000000 0.000000 0.028758 0.000000 0.000000
# 5 0.000000 0.000000 0.000000 0.000000 0.023427 0.000000
# 6 0.000000 0.000000 0.000000 0.000000 0.000000 0.043384
#
#
# Mechanical properties :
#
#
# Convention : Reuss Voigt Hill
#
# Bulk Modulus (GPa) = 25.62607 43.54360 34.58484
# Shear Modulus (GPa) = 27.77737 33.68650 30.73193
#
# Velocity S-wave (km/s) = 3.48175 3.83424 3.66224
# Velocity P-wave (km/s) = 5.22945 6.21330 5.74249
#
# Compressibility (1/GPa) = 0.03902275
#
# Stress axis : x y z
#
# Youngs Moduli (GPa) = 53.10272 40.69807 84.58778
#
# Poissons Ratio (x) = -0.33626 0.59714
# Poissons Ratio (y) = -0.43875 0.78699
# Poissons Ratio (z) = 0.37487 0.37865
#
# Static dielectric constant tensor:
#      x y z
#    x 4.821390 0.000000 0.000000 
#    y 0.000000 4.158220 0.000000 
#    z 0.000000 0.000000 4.267080 
# 
# 
# High freq. dielectric constant tensor:
#      x y z
#    x 1.933010 0.000000 0.000000 
#    y 0.000000 1.891110 0.000000 
#    z 0.000000 0.000000 1.923340 
# 
# From -- ./inp_files/3589.got.cif
#   From: 2010.03.12/outbox.cif.g09.slc.cpg/sg54_2_cif.got.tgz:3589.got - 2010.04.16 15:00:50.
