data_PCOD8224427
_publ_section_title
;
Structure prediction by ZEFSAII (Michael W. Deem and Ramdas Pophale) SiO2 
 PCOD8224427
Probable space group: P B A M
;
_chemical_formula_sum "Si O2"
_cell_formula_units_Z 32
_cell_length_a 5.374176
_cell_length_b 12.870595
_cell_length_c 16.656079
_cell_angle_alpha 90.000000
_cell_angle_beta 90.000000
_cell_angle_gamma 90.000000
_cell_volume 1152.081709
_symmetry_space_group_name_H-M "P B A M"
_symmetry_group_IT_number 55
_symmetry_cell_setting 'orthorhombic'
loop_
_space_group_symop_operation_xyz
x,y,z
-x,-y,z
1/2+x,1/2-y,-z
1/2-x,1/2+y,-z
-x,-y,-z
x,y,-z
1/2-x,1/2+y,z
1/2+x,1/2-y,z
loop_
_atom_site_type_symbol
_atom_site_label
_atom_site_fract_x
_atom_site_fract_y
_atom_site_fract_z
Si Si1 0.851933 0.361428 0.157198
Si Si2 0.262940 0.122179 0.341591
Si Si3 0.352275 0.370519 0.907012
Si Si4 0.761572 0.103484 0.407174
O O1 0.785602 0.345746 0.249689
O O2 0.898577 0.249803 0.116105
O O3 0.621804 0.423396 0.114277
O O4 0.119834 0.419054 0.144150
O O5 0.506092 0.166330 0.389499
O O6 0.004848 0.168892 0.378696
O O7 0.250519 0.998680 0.352494
O O8 0.290428 0.383227 0.000000
O O9 0.782887 0.072531 0.500000
#
# Coordination Sequence:
#
# PCOD8224427 Si02
#       4
#     8   8   8   8
#     4  10  18  29  48  75  98 121 154 200 240 272
#     4  10  18  29  48  75  98 121 154 200 240 272
#     4  10  19  33  50  73  96 123 161 198 230 280
#     4  10  19  33  50  73  96 123 161 198 230 280
#
# _framework density 27.775805999999999
#
# number of rings (size 3 to 8) (size 9 to 14) (size 15 to 20)
#    0.000    2.000    0.000    9.000    0.000    0.000 
#    0.000    0.000    0.000    0.000    0.000  238.000 
#    0.000    0.000    0.000    0.000    0.000    0.000 
#
# Total GULP energy -396618.306281 kJ/mol
# GULP energy per Si atom -12394.322071 kJ/mol
# Density = 2.771259 g / cm^3
# Si number density = 27.775806 Si / 1000 Ang^3
#
#
#
# Elastic Constant Matrix: (Units=GPa)
#
#
# Indices 1 2 3 4 5 6 
#
# 1 356.7471 -4.9840 73.1949 0.0000 0.0000 0.0000
# 2 -4.9840 48.3569 -8.9476 0.0000 0.0000 0.0000
# 3 73.1949 -8.9476 149.5930 0.0000 0.0000 0.0000
# 4 0.0000 0.0000 0.0000 18.1603 0.0000 0.0000
# 5 0.0000 0.0000 0.0000 0.0000 56.3078 0.0000
# 6 0.0000 0.0000 0.0000 0.0000 0.0000 61.9427
#
#
#
# Elastic Compliance Matrix: (Units=1/GPa)
#
#
# Indices 1 2 3 4 5 6 
#
# 1 0.003116 0.000039 -0.001522 0.000000 0.000000 0.000000
# 2 0.000039 0.020912 0.001231 0.000000 0.000000 0.000000
# 3 -0.001522 0.001231 0.007503 0.000000 0.000000 0.000000
# 4 0.000000 0.000000 0.000000 0.055065 0.000000 0.000000
# 5 0.000000 0.000000 0.000000 0.000000 0.017760 0.000000
# 6 0.000000 0.000000 0.000000 0.000000 0.000000 0.016144
#
#
# Mechanical properties :
#
#
# Convention : Reuss Voigt Hill
#
# Bulk Modulus (GPa) = 32.22881 74.80261 53.51571
# Shear Modulus (GPa) = 38.06776 60.31109 49.18942
#
# Velocity S-wave (km/s) = 3.70609 4.66483 4.21283
# Velocity P-wave (km/s) = 5.47192 7.48355 6.55536
#
# Compressibility (1/GPa) = 0.03102814
#
# Stress axis : x y z
#
# Youngs Moduli (GPa) = 320.92561 47.82056 133.27475
#
# Poissons Ratio (x) = -0.00189 0.20288
# Poissons Ratio (y) = -0.01267 -0.16412
# Poissons Ratio (z) = 0.48854 -0.05889
#
# Static dielectric constant tensor:
#      x y z
#    x 8.391330 0.000000 0.000000 
#    y 0.000000 4.540600 0.000000 
#    z 0.000000 0.000000 4.428590 
# 
# 
# High freq. dielectric constant tensor:
#      x y z
#    x 2.175770 0.000000 0.000000 
#    y 0.000000 2.131110 0.000000 
#    z 0.000000 0.000000 2.094760 
# 
# From -- ./inp_files/15503.got.cif
#   From: 2010.03.12/outbox.cif.g09.slc.cpg/sg55_8_cif.got.tgz:15503.got - 2010.04.16 15:19:21.
