data_PCOD8224445
_publ_section_title
;
Structure prediction by ZEFSAII (Michael W. Deem and Ramdas Pophale) SiO2 
 PCOD8224445
Probable space group: P B A M
;
_chemical_formula_sum "Si O2"
_cell_formula_units_Z 64
_cell_length_a 21.219735
_cell_length_b 14.753010
_cell_length_c 12.880614
_cell_angle_alpha 90.000000
_cell_angle_beta 90.000000
_cell_angle_gamma 90.000000
_cell_volume 4032.340135
_symmetry_space_group_name_H-M "P B A M"
_symmetry_group_IT_number 55
_symmetry_cell_setting 'orthorhombic'
loop_
_space_group_symop_operation_xyz
x,y,z
-x,-y,z
1/2+x,1/2-y,-z
1/2-x,1/2+y,-z
-x,-y,-z
x,y,-z
1/2-x,1/2+y,z
1/2+x,1/2-y,z
loop_
_atom_site_type_symbol
_atom_site_label
_atom_site_fract_x
_atom_site_fract_y
_atom_site_fract_z
Si Si1 0.004833 0.894545 0.613614
Si Si2 0.900885 0.093923 0.791629
Si Si3 0.766589 0.116055 0.121858
Si Si4 0.545977 0.921353 0.124484
Si Si5 0.316209 0.047879 0.119706
Si Si6 0.990317 0.229173 0.884878
Si Si7 0.407025 0.618674 0.782406
Si Si8 0.713179 0.310255 0.881339
O O1 0.010066 0.846930 0.500000
O O2 0.940070 0.862268 0.670616
O O3 0.067735 0.874053 0.681820
O O4 0.000000 0.000000 0.595833
O O5 0.827399 0.117165 0.802805
O O6 0.935932 0.153853 0.877176
O O7 0.913789 0.987407 0.811235
O O8 0.724373 0.204674 0.137504
O O9 0.724417 0.034403 0.166505
O O10 0.786294 0.103735 0.000000
O O11 0.615203 0.943030 0.171506
O O12 0.524110 0.824418 0.174218
O O13 0.500000 0.000000 0.165021
O O14 0.549135 0.919872 0.000000
O O15 0.280038 0.142040 0.136774
O O16 0.325358 0.024418 0.000000
O O17 0.056688 0.183492 0.861082
O O18 0.994303 0.264376 0.000000
O O19 0.334784 0.649914 0.794767
O O20 0.689497 0.329197 0.000000
#
# Coordination Sequence:
#
# PCOD8224445 Si02
#       8
#     8   8   8   8   8   8   8   8
#     4   8  16  31  50  70  92 117 147 188 243 294
#     4  10  18  30  46  68  93 119 152 190 232 286
#     4  10  19  28  43  63  93 131 159 186 224 271
#     4   9  18  30  42  56  82 123 169 202 221 250
#     4   9  17  29  41  56  81 122 164 190 216 258
#     4  10  19  27  40  62  92 123 153 190 228 265
#     4  10  19  29  45  69  93 119 154 192 232 283
#     4  10  19  29  42  63  95 131 161 188 225 271
#
# _framework density 15.871677
#
# number of rings (size 3 to 8) (size 9 to 14) (size 15 to 20)
#    0.000    2.500    1.250    2.625    1.750    4.000 
#    0.000    0.000    0.000    0.750    0.000    0.000 
#    0.000    8.000    0.000    0.000    0.000    0.000 
#
# Total GULP energy -792866.575408 kJ/mol
# GULP energy per Si atom -12388.540241 kJ/mol
# Density = 1.583555 g / cm^3
# Si number density = 15.871677 Si / 1000 Ang^3
#
#
#
# Elastic Constant Matrix: (Units=GPa)
#
#
# Indices 1 2 3 4 5 6 
#
# 1 102.3313 29.2006 32.0363 0.0000 0.0000 0.0000
# 2 29.2006 78.5565 16.4388 0.0000 0.0000 0.0000
# 3 32.0363 16.4388 58.2468 0.0000 0.0000 0.0000
# 4 0.0000 0.0000 0.0000 6.1736 0.0000 0.0000
# 5 0.0000 0.0000 0.0000 0.0000 5.9229 0.0000
# 6 0.0000 0.0000 0.0000 0.0000 0.0000 22.2488
#
#
#
# Elastic Compliance Matrix: (Units=1/GPa)
#
#
# Indices 1 2 3 4 5 6 
#
# 1 0.012624 -0.003443 -0.005972 0.000000 0.000000 0.000000
# 2 -0.003443 0.014468 -0.002190 0.000000 0.000000 0.000000
# 3 -0.005972 -0.002190 0.021071 0.000000 0.000000 0.000000
# 4 0.000000 0.000000 0.000000 0.161979 0.000000 0.000000
# 5 0.000000 0.000000 0.000000 0.000000 0.168837 0.000000
# 6 0.000000 0.000000 0.000000 0.000000 0.000000 0.044946
#
#
# Mechanical properties :
#
#
# Convention : Reuss Voigt Hill
#
# Bulk Modulus (GPa) = 40.07333 43.83177 41.95255
# Shear Modulus (GPa) = 10.97813 17.63298 14.30556
#
# Velocity S-wave (km/s) = 2.63284 3.33674 3.00547
# Velocity P-wave (km/s) = 5.87755 6.52084 6.20753
#
# Compressibility (1/GPa) = 0.02495425
#
# Stress axis : x y z
#
# Youngs Moduli (GPa) = 79.21309 69.11970 47.45912
#
# Poissons Ratio (x) = 0.23797 0.28341
# Poissons Ratio (y) = 0.27273 0.10391
# Poissons Ratio (z) = 0.47304 0.15134
#
# Static dielectric constant tensor:
#      x y z
#    x 3.149410 0.000000 0.000000 
#    y 0.000000 3.107140 0.000000 
#    z 0.000000 0.000000 2.800850 
# 
# 
# High freq. dielectric constant tensor:
#      x y z
#    x 1.617290 0.000000 0.000000 
#    y 0.000000 1.618010 0.000000 
#    z 0.000000 0.000000 1.539820 
# 
# From -- ./inp_files/19582.got.cif
#   From: 2010.03.12/outbox.cif.g09.slc.cpg/sg55_10_cif.got.tgz:19582.got - 2010.04.16 15:19:21.
