data_PCOD8224591
_publ_section_title
;
Structure prediction by ZEFSAII (Michael W. Deem and Ramdas Pophale) SiO2 
 PCOD8224591
Probable space group: P B A M
;
_chemical_formula_sum "Si O2"
_cell_formula_units_Z 64
_cell_length_a 30.774657
_cell_length_b 10.964754
_cell_length_c 9.363157
_cell_angle_alpha 90.000000
_cell_angle_beta 90.000000
_cell_angle_gamma 90.000000
_cell_volume 3159.471334
_symmetry_space_group_name_H-M "P B A M"
_symmetry_group_IT_number 55
_symmetry_cell_setting 'orthorhombic'
loop_
_space_group_symop_operation_xyz
x,y,z
-x,-y,z
1/2+x,1/2-y,-z
1/2-x,1/2+y,-z
-x,-y,-z
x,y,-z
1/2-x,1/2+y,z
1/2+x,1/2-y,z
loop_
_atom_site_type_symbol
_atom_site_label
_atom_site_fract_x
_atom_site_fract_y
_atom_site_fract_z
Si Si1 0.364084 0.623627 0.168282
Si Si2 0.774348 0.768096 0.830284
Si Si3 0.373179 0.099828 0.165528
Si Si4 0.048727 0.503965 0.659566
Si Si5 0.614233 0.634609 0.835149
Si Si6 0.442948 0.729851 0.660009
Si Si7 0.217526 0.505065 0.170254
Si Si8 0.018164 0.864945 0.162802
O O1 0.322956 0.700569 0.221363
O O2 0.356648 0.481278 0.211929
O O3 0.407352 0.663392 0.246072
O O4 0.371091 0.642053 0.000000
O O5 0.764241 0.628248 0.777026
O O6 0.743623 0.876783 0.767713
O O7 0.770960 0.771354 0.000000
O O8 0.359286 0.240979 0.192745
O O9 0.418660 0.081911 0.244657
O O10 0.332863 0.017774 0.220024
O O11 0.382132 0.073520 0.000000
O O12 0.046400 0.561140 0.500000
O O13 0.069574 0.370734 0.652902
O O14 0.000000 0.500000 0.725278
O O15 0.566152 0.637017 0.766234
O O16 0.603788 0.616374 0.000000
O O17 0.444519 0.674055 0.500000
O O18 0.489618 0.720527 0.735447
O O19 0.220108 0.509630 0.000000
O O20 0.016817 0.814468 0.000000
O O21 0.000000 0.000000 0.168751
#
# Coordination Sequence:
#
# PCOD8224591 Si02
#       8
#     8   8   8   8   8   8   8   8
#     4  10  19  34  54  76 106 143 179 215 268 326
#     4   9  18  30  50  77 107 141 175 215 271 328
#     4  10  20  34  55  81 110 138 181 229 268 319
#     4  10  22  39  55  74 106 145 183 222 270 326
#     4   9  18  31  50  77 105 140 177 220 268 313
#     4  11  22  34  52  77 104 137 178 225 273 316
#     4   9  18  31  49  80 112 139 175 223 274 326
#     4  10  18  32  50  72 104 141 181 220 265 324
#
# _framework density 20.256553
#
# number of rings (size 3 to 8) (size 9 to 14) (size 15 to 20)
#    0.000    2.250    1.250    1.875    1.750    2.500 
#    0.000    0.625    0.000    0.750    0.000    0.000 
#    0.000    0.000    0.000    0.000    0.000    0.000 
#
# Total GULP energy -793064.472411 kJ/mol
# GULP energy per Si atom -12391.632381 kJ/mol
# Density = 2.021045 g / cm^3
# Si number density = 20.256553 Si / 1000 Ang^3
#
#
#
# Elastic Constant Matrix: (Units=GPa)
#
#
# Indices 1 2 3 4 5 6 
#
# 1 83.6351 48.1564 19.8969 0.0000 0.0000 0.0000
# 2 48.1564 123.4200 16.3498 0.0000 0.0000 0.0000
# 3 19.8969 16.3498 41.8805 0.0000 0.0000 0.0000
# 4 0.0000 0.0000 0.0000 10.2807 0.0000 0.0000
# 5 0.0000 0.0000 0.0000 0.0000 5.6584 0.0000
# 6 0.0000 0.0000 0.0000 0.0000 0.0000 35.8322
#
#
#
# Elastic Compliance Matrix: (Units=1/GPa)
#
#
# Indices 1 2 3 4 5 6 
#
# 1 0.016599 -0.005728 -0.005650 0.000000 0.000000 0.000000
# 2 -0.005728 0.010521 -0.001386 0.000000 0.000000 0.000000
# 3 -0.005650 -0.001386 0.027103 0.000000 0.000000 0.000000
# 4 0.000000 0.000000 0.000000 0.097269 0.000000 0.000000
# 5 0.000000 0.000000 0.000000 0.000000 0.176729 0.000000
# 6 0.000000 0.000000 0.000000 0.000000 0.000000 0.027908
#
#
# Mechanical properties :
#
#
# Convention : Reuss Voigt Hill
#
# Bulk Modulus (GPa) = 34.84932 46.41574 40.63253
# Shear Modulus (GPa) = 12.78048 21.32311 17.05179
#
# Velocity S-wave (km/s) = 2.51456 3.24798 2.90451
# Velocity P-wave (km/s) = 5.06675 6.08519 5.59917
#
# Compressibility (1/GPa) = 0.02869496
#
# Stress axis : x y z
#
# Youngs Moduli (GPa) = 60.24438 95.04744 36.89675
#
# Poissons Ratio (x) = 0.54445 0.20846
# Poissons Ratio (y) = 0.34509 0.05114
# Poissons Ratio (z) = 0.34037 0.13173
#
# Static dielectric constant tensor:
#      x y z
#    x 3.680470 0.000000 0.000000 
#    y 0.000000 4.001480 0.000000 
#    z 0.000000 0.000000 3.229030 
# 
# 
# High freq. dielectric constant tensor:
#      x y z
#    x 1.790130 0.000000 0.000000 
#    y 0.000000 1.808320 0.000000 
#    z 0.000000 0.000000 1.727170 
# 
# From -- ./inp_files/10848.got.cif
#   From: 2010.03.12/outbox.cif.g09.slc.cpg/sg55_6_cif.got.tgz:10848.got - 2010.04.16 15:19:21.
