data_PCOD8224909
_publ_section_title
;
Structure prediction by ZEFSAII (Michael W. Deem and Ramdas Pophale) SiO2 
 PCOD8224909
Probable space group: P B A M
;
_chemical_formula_sum "Si O2"
_cell_formula_units_Z 48
_cell_length_a 29.520500
_cell_length_b 10.979956
_cell_length_c 7.747086
_cell_angle_alpha 90.000000
_cell_angle_beta 90.000000
_cell_angle_gamma 90.000000
_cell_volume 2511.092355
_symmetry_space_group_name_H-M "P B A M"
_symmetry_group_IT_number 55
_symmetry_cell_setting 'orthorhombic'
loop_
_space_group_symop_operation_xyz
x,y,z
-x,-y,z
1/2+x,1/2-y,-z
1/2-x,1/2+y,-z
-x,-y,-z
x,y,-z
1/2-x,1/2+y,z
1/2+x,1/2-y,z
loop_
_atom_site_type_symbol
_atom_site_label
_atom_site_fract_x
_atom_site_fract_y
_atom_site_fract_z
Si Si1 0.956258 0.932211 0.794996
Si Si2 0.845210 0.319610 0.190297
Si Si3 0.221110 0.699114 0.500000
Si Si4 0.362279 0.455656 0.198041
Si Si5 0.706777 0.516706 0.500000
Si Si6 0.565897 0.923669 0.306289
Si Si7 0.526316 0.165331 0.802861
O O1 0.957311 0.793931 0.729287
O O2 0.909390 0.990457 0.731453
O O3 0.959274 0.937880 0.000000
O O4 0.000000 0.000000 0.714821
O O5 0.806233 0.337500 0.329515
O O6 0.868307 0.188485 0.208533
O O7 0.885639 0.415828 0.213683
O O8 0.823579 0.337658 0.000000
O O9 0.262700 0.604920 0.500000
O O10 0.231511 0.847279 0.500000
O O11 0.322391 0.496856 0.325665
O O12 0.351427 0.497319 0.000000
O O13 0.570780 0.874322 0.500000
O O14 0.550715 0.064057 0.311890
O O15 0.528227 0.843674 0.208059
O O16 0.541124 0.146141 0.000000
#
# Coordination Sequence:
#
# PCOD8224909 Si02
#       7
#     8   8   4   8   4   8   8
#     4   9  17  32  53  80 112 147 190 230 269 324
#     4  10  19  36  62  84 108 145 188 231 278 338
#     4  10  22  42  62  89 114 142 185 236 290 351
#     4   9  19  37  60  84 114 149 185 228 279 335
#     4  10  22  42  63  86 116 147 185 236 296 346
#     4  11  20  33  49  74 113 150 190 233 275 324
#     4  10  19  31  49  74 110 154 193 228 271 325
#
# _framework density 19.115186999999999
#
# number of rings (size 3 to 8) (size 9 to 14) (size 15 to 20)
#    0.000    2.167    0.833    4.000    0.000    3.333 
#    6.000    0.417    0.000    0.000    0.000    0.000 
#    0.000    0.000    0.000    0.000    0.000    0.000 
#
# Total GULP energy -595018.928255 kJ/mol
# GULP energy per Si atom -12396.227672 kJ/mol
# Density = 1.907168 g / cm^3
# Si number density = 19.115187 Si / 1000 Ang^3
#
#
#
# Elastic Constant Matrix: (Units=GPa)
#
#
# Indices 1 2 3 4 5 6 
#
# 1 111.7151 64.1643 42.9242 0.0000 0.0000 0.0000
# 2 64.1643 87.0197 31.3472 0.0000 0.0000 0.0000
# 3 42.9242 31.3472 100.9353 0.0000 0.0000 0.0000
# 4 0.0000 0.0000 0.0000 16.4737 0.0000 0.0000
# 5 0.0000 0.0000 0.0000 0.0000 21.5178 0.0000
# 6 0.0000 0.0000 0.0000 0.0000 0.0000 34.1552
#
#
#
# Elastic Compliance Matrix: (Units=1/GPa)
#
#
# Indices 1 2 3 4 5 6 
#
# 1 0.016660 -0.010958 -0.003682 0.000000 0.000000 0.000000
# 2 -0.010958 0.020147 -0.001597 0.000000 0.000000 0.000000
# 3 -0.003682 -0.001597 0.011969 0.000000 0.000000 0.000000
# 4 0.000000 0.000000 0.000000 0.060703 0.000000 0.000000
# 5 0.000000 0.000000 0.000000 0.000000 0.046473 0.000000
# 6 0.000000 0.000000 0.000000 0.000000 0.000000 0.029278
#
#
# Mechanical properties :
#
#
# Convention : Reuss Voigt Hill
#
# Bulk Modulus (GPa) = 61.34006 64.06018 62.70012
# Shear Modulus (GPa) = 22.40782 25.17828 23.79305
#
# Velocity S-wave (km/s) = 3.42753 3.63324 3.53189
# Velocity P-wave (km/s) = 6.91544 7.15445 7.03596
#
# Compressibility (1/GPa) = 0.01630256
#
# Stress axis : x y z
#
# Youngs Moduli (GPa) = 60.02539 49.63593 83.54952
#
# Poissons Ratio (x) = 0.54390 0.30760
# Poissons Ratio (y) = 0.65775 0.13342
# Poissons Ratio (z) = 0.22099 0.07927
#
# Static dielectric constant tensor:
#      x y z
#    x 3.266250 0.000000 0.000000 
#    y 0.000000 3.529270 0.000000 
#    z 0.000000 0.000000 3.544670 
# 
# 
# High freq. dielectric constant tensor:
#      x y z
#    x 1.718520 0.000000 0.000000 
#    y 0.000000 1.738450 0.000000 
#    z 0.000000 0.000000 1.751350 
# 
# From -- ./inp_files/9465.got.cif
#   From: 2010.03.12/outbox.cif.g09.slc.cpg/sg55_5_cif.got.tgz:9465.got - 2010.04.16 15:19:21.
