data_PCOD8224512
_publ_section_title
;
Structure prediction by ZEFSAII (Michael W. Deem and Ramdas Pophale) SiO2 
 PCOD8224512
Probable space group: P B A M
;
_chemical_formula_sum "Si O2"
_cell_formula_units_Z 64
_cell_length_a 17.540356
_cell_length_b 13.605201
_cell_length_c 14.070274
_cell_angle_alpha 90.000000
_cell_angle_beta 90.000000
_cell_angle_gamma 90.000000
_cell_volume 3357.731158
_symmetry_space_group_name_H-M "P B A M"
_symmetry_group_IT_number 55
_symmetry_cell_setting 'orthorhombic'
loop_
_space_group_symop_operation_xyz
x,y,z
-x,-y,z
1/2+x,1/2-y,-z
1/2-x,1/2+y,-z
-x,-y,-z
x,y,-z
1/2-x,1/2+y,z
1/2+x,1/2-y,z
loop_
_atom_site_type_symbol
_atom_site_label
_atom_site_fract_x
_atom_site_fract_y
_atom_site_fract_z
Si Si1 0.152267 0.814260 0.110200
Si Si2 0.147516 0.207394 0.221298
Si Si3 0.731826 0.012016 0.395109
Si Si4 0.754776 0.290128 0.608006
Si Si5 0.515135 0.611680 0.778287
Si Si6 0.775899 0.391751 0.109452
Si Si7 0.875080 0.125988 0.393247
Si Si8 0.795026 0.591819 0.199196
O O1 0.066600 0.838191 0.141042
O O2 0.167336 0.698894 0.128740
O O3 0.207502 0.881949 0.173929
O O4 0.164639 0.840802 0.000000
O O5 0.181067 0.222793 0.326499
O O6 0.197084 0.125640 0.165894
O O7 0.152834 0.314707 0.168846
O O8 0.061501 0.173893 0.226036
O O9 0.703760 0.048196 0.500000
O O10 0.711257 0.898842 0.380228
O O11 0.823768 0.026909 0.389042
O O12 0.692879 0.075317 0.312274
O O13 0.729656 0.268387 0.500000
O O14 0.821632 0.216607 0.640319
O O15 0.500000 0.500000 0.808337
O O16 0.552870 0.615798 0.674548
O O17 0.817137 0.491858 0.144175
O O18 0.754312 0.402003 0.000000
O O19 0.905916 0.143875 0.500000
#
# Coordination Sequence:
#
# PCOD8224512 Si02
#       8
#     8   8   8   8   8   8   8   8
#     4  10  22  40  60  83 112 149 192 232 282 346
#     4  11  22  34  56  88 119 143 188 236 282 339
#     4  10  18  30  56  86 108 139 186 234 276 324
#     4  10  19  34  58  83 109 147 192 233 273 321
#     4  12  24  37  55  82 119 154 182 224 288 348
#     4  10  21  39  63  84 108 144 190 242 286 328
#     4  10  20  37  57  80 114 152 189 228 276 334
#     4  11  19  35  60  86 112 143 189 242 282 327
#
# _framework density 19.060487999999999
#
# number of rings (size 3 to 8) (size 9 to 14) (size 15 to 20)
#    0.000    1.500    3.750    2.625    0.000    2.000 
#    0.000    0.625    0.000    1.500    0.000    2.625 
#    0.000    0.000    0.000    0.000    0.000    0.000 
#
# Total GULP energy -793506.005219 kJ/mol
# GULP energy per Si atom -12398.531332 kJ/mol
# Density = 1.901711 g / cm^3
# Si number density = 19.060488 Si / 1000 Ang^3
#
#
#
# Elastic Constant Matrix: (Units=GPa)
#
#
# Indices 1 2 3 4 5 6 
#
# 1 79.0087 31.9953 16.7432 0.0000 0.0000 0.0000
# 2 31.9953 118.8498 25.5469 0.0000 0.0000 0.0000
# 3 16.7432 25.5469 83.7837 0.0000 0.0000 0.0000
# 4 0.0000 0.0000 0.0000 28.1857 0.0000 0.0000
# 5 0.0000 0.0000 0.0000 0.0000 19.1062 0.0000
# 6 0.0000 0.0000 0.0000 0.0000 0.0000 20.5581
#
#
#
# Elastic Compliance Matrix: (Units=1/GPa)
#
#
# Indices 1 2 3 4 5 6 
#
# 1 0.014461 -0.003501 -0.001822 0.000000 0.000000 0.000000
# 2 -0.003501 0.009852 -0.002304 0.000000 0.000000 0.000000
# 3 -0.001822 -0.002304 0.013002 0.000000 0.000000 0.000000
# 4 0.000000 0.000000 0.000000 0.035479 0.000000 0.000000
# 5 0.000000 0.000000 0.000000 0.000000 0.052339 0.000000
# 6 0.000000 0.000000 0.000000 0.000000 0.000000 0.048643
#
#
# Mechanical properties :
#
#
# Convention : Reuss Voigt Hill
#
# Bulk Modulus (GPa) = 45.33223 47.80146 46.56684
# Shear Modulus (GPa) = 25.46025 27.39378 26.42702
#
# Velocity S-wave (km/s) = 3.65877 3.79516 3.72759
# Velocity P-wave (km/s) = 6.45630 6.65865 6.55825
#
# Compressibility (1/GPa) = 0.02205936
#
# Stress axis : x y z
#
# Youngs Moduli (GPa) = 69.15212 101.50365 76.90973
#
# Poissons Ratio (x) = 0.35539 0.14015
# Poissons Ratio (y) = 0.24212 0.17722
# Poissons Ratio (z) = 0.12601 0.23389
#
# Static dielectric constant tensor:
#      x y z
#    x 3.043960 0.000000 0.000000 
#    y 0.000000 3.803500 0.000000 
#    z 0.000000 0.000000 3.707520 
# 
# 
# High freq. dielectric constant tensor:
#      x y z
#    x 1.683400 0.000000 0.000000 
#    y 0.000000 1.762690 0.000000 
#    z 0.000000 0.000000 1.759790 
# 
# From -- ./inp_files/19572.got.cif
#   From: 2010.03.12/outbox.cif.g09.slc.cpg/sg55_10_cif.got.tgz:19572.got - 2010.04.16 15:19:21.
