data_PCOD8224050
_publ_section_title
;
Structure prediction by ZEFSAII (Michael W. Deem and Ramdas Pophale) SiO2 
 PCOD8224050
Probable space group: P C C A
;
_chemical_formula_sum "Si O2"
_cell_formula_units_Z 48
_cell_length_a 23.626993
_cell_length_b 8.466767
_cell_length_c 9.915735
_cell_angle_alpha 90.000000
_cell_angle_beta 90.000000
_cell_angle_gamma 90.000000
_cell_volume 1983.585718
_symmetry_space_group_name_H-M "P C C A"
_symmetry_group_IT_number 54
_symmetry_cell_setting 'orthorhombic'
loop_
_space_group_symop_operation_xyz
x,y,z
1/2-x,-y,z
1/2+x,-y,1/2-z
-x,y,1/2-z
-x,-y,-z
1/2+x,y,-z
1/2-x,y,1/2+z
x,-y,1/2+z
loop_
_atom_site_type_symbol
_atom_site_label
_atom_site_fract_x
_atom_site_fract_y
_atom_site_fract_z
Si Si1 0.256967 0.180042 0.055695
Si Si2 0.446060 0.111068 0.461740
Si Si3 0.380261 0.184880 0.956793
Si Si4 0.712334 0.349410 0.180978
Si Si5 0.560790 0.679027 0.288655
Si Si6 0.584534 0.670797 0.772113
O O1 0.253808 0.273957 0.194592
O O2 0.250000 0.000000 0.096487
O O3 0.314574 0.209702 0.975866
O O4 0.209106 0.238153 0.951622
O O5 0.421756 0.218711 0.582317
O O6 0.454148 0.232734 0.336119
O O7 0.500000 0.000000 0.500000
O O8 0.395243 0.995011 0.417947
O O9 0.396226 0.299126 0.834424
O O10 0.414102 0.224188 0.093552
O O11 0.750000 0.500000 0.139595
O O12 0.647062 0.376287 0.219008
O O13 0.500000 0.748348 0.250000
O O14 0.555510 0.492661 0.317650
#
# Coordination Sequence:
#
# PCOD8224050 Si02
#       6
#     8   8   8   8   8   8
#     4  11  24  42  69 103 139 181 230 286 344 412
#     4  12  26  46  70 100 139 183 233 287 348 409
#     4  11  25  44  69 103 138 182 234 281 346 414
#     4  11  24  44  69 102 141 184 229 288 349 415
#     4  12  26  45  69 100 136 184 229 288 342 412
#     4  11  27  44  70 103 141 181 237 287 344 419
#
# _framework density 24.198599999999999
#
# number of rings (size 3 to 8) (size 9 to 14) (size 15 to 20)
#    0.000    0.667    1.667    5.000    2.333   12.000 
#    0.000    0.000    0.000    0.000    0.000    0.000 
#    0.000    0.000    0.000    0.000    0.000    0.000 
#
# Total GULP energy -595272.092693 kJ/mol
# GULP energy per Si atom -12401.501931 kJ/mol
# Density = 2.414352 g / cm^3
# Si number density = 24.198600 Si / 1000 Ang^3
#
#
#
# Elastic Constant Matrix: (Units=GPa)
#
#
# Indices 1 2 3 4 5 6 
#
# 1 33.7897 17.6358 20.8591 0.0000 0.0000 0.0000
# 2 17.6358 124.7411 23.4566 0.0000 0.0000 0.0000
# 3 20.8591 23.4566 107.6705 0.0000 0.0000 0.0000
# 4 0.0000 0.0000 0.0000 46.6662 0.0000 0.0000
# 5 0.0000 0.0000 0.0000 0.0000 37.3141 0.0000
# 6 0.0000 0.0000 0.0000 0.0000 0.0000 34.6181
#
#
#
# Elastic Compliance Matrix: (Units=1/GPa)
#
#
# Indices 1 2 3 4 5 6 
#
# 1 0.035316 -0.003865 -0.006000 0.000000 0.000000 0.000000
# 2 -0.003865 0.008782 -0.001164 0.000000 0.000000 0.000000
# 3 -0.006000 -0.001164 0.010704 0.000000 0.000000 0.000000
# 4 0.000000 0.000000 0.000000 0.021429 0.000000 0.000000
# 5 0.000000 0.000000 0.000000 0.000000 0.026799 0.000000
# 6 0.000000 0.000000 0.000000 0.000000 0.000000 0.028887
#
#
# Mechanical properties :
#
#
# Convention : Reuss Voigt Hill
#
# Bulk Modulus (GPa) = 30.54054 43.34490 36.94272
# Shear Modulus (GPa) = 30.32351 37.33634 33.82993
#
# Velocity S-wave (km/s) = 3.54377 3.93225 3.74306
# Velocity P-wave (km/s) = 5.42149 6.21030 5.82926
#
# Compressibility (1/GPa) = 0.03274336
#
# Stress axis : x y z
#
# Youngs Moduli (GPa) = 28.31603 113.86979 93.42633
#
# Poissons Ratio (x) = 0.44007 0.56054
# Poissons Ratio (y) = 0.10943 0.10879
# Poissons Ratio (z) = 0.16989 0.13260
#
# Static dielectric constant tensor:
#      x y z
#    x 7.664010 0.000000 0.000000 
#    y 0.000000 4.695640 0.000000 
#    z 0.000000 0.000000 4.337490 
# 
# 
# High freq. dielectric constant tensor:
#      x y z
#    x 1.960160 0.000000 0.000000 
#    y 0.000000 1.973490 0.000000 
#    z 0.000000 0.000000 1.968260 
# 
# From -- ./inp_files/5856.got.cif
#   From: 2010.03.12/outbox.cif.g09.slc.cpg/sg54_3_cif.got.tgz:5856.got - 2010.04.16 15:00:50.
