data_PCOD8224385
_publ_section_title
;
Structure prediction by ZEFSAII (Michael W. Deem and Ramdas Pophale) SiO2 
 PCOD8224385
Probable space group: P B A M
;
_chemical_formula_sum "Si O2"
_cell_formula_units_Z 64
_cell_length_a 18.762429
_cell_length_b 21.446982
_cell_length_c 9.271329
_cell_angle_alpha 90.000000
_cell_angle_beta 90.000000
_cell_angle_gamma 90.000000
_cell_volume 3730.759398
_symmetry_space_group_name_H-M "P B A M"
_symmetry_group_IT_number 55
_symmetry_cell_setting 'orthorhombic'
loop_
_space_group_symop_operation_xyz
x,y,z
-x,-y,z
1/2+x,1/2-y,-z
1/2-x,1/2+y,-z
-x,-y,-z
x,y,-z
1/2-x,1/2+y,z
1/2+x,1/2-y,z
loop_
_atom_site_type_symbol
_atom_site_label
_atom_site_fract_x
_atom_site_fract_y
_atom_site_fract_z
Si Si1 0.371078 0.229221 0.158280
Si Si2 0.327642 0.587837 0.332731
Si Si3 0.420507 0.490558 0.166302
Si Si4 0.979593 0.429981 0.329904
Si Si5 0.967697 0.683954 0.836532
Si Si6 0.430974 0.698037 0.330488
Si Si7 0.327164 0.119288 0.331690
Si Si8 0.564790 0.648491 0.833503
O O1 0.452926 0.209152 0.160870
O O2 0.325803 0.189138 0.269112
O O3 0.371809 0.302283 0.200881
O O4 0.338068 0.218692 0.000000
O O5 0.334591 0.571913 0.500000
O O6 0.365329 0.532735 0.249315
O O7 0.361270 0.655850 0.301171
O O8 0.245254 0.585878 0.281153
O O9 0.500000 0.500000 0.227222
O O10 0.399913 0.418658 0.191460
O O11 0.417635 0.510543 0.000000
O O12 0.989470 0.418663 0.500000
O O13 0.897065 0.419234 0.282290
O O14 0.000000 0.500000 0.285338
O O15 0.032262 0.382585 0.246216
O O16 0.920759 0.735480 0.750631
O O17 0.938289 0.675306 0.000000
O O18 0.442832 0.710803 0.500000
O O19 0.497611 0.658758 0.270207
O O20 0.326880 0.128789 0.500000
O O21 0.538655 0.656144 0.000000
#
# Coordination Sequence:
#
# PCOD8224385 Si02
#       8
#     8   8   8   8   8   8   8   8
#     4   8  15  28  47  69  91 117 151 194 238 282
#     4  10  21  33  47  69  99 133 165 205 249 292
#     4  10  19  31  49  72  99 134 171 203 240 289
#     4   9  17  31  54  79  99 127 165 206 251 299
#     4   9  17  29  47  72  99 122 150 195 245 288
#     4  10  18  28  45  69  95 125 161 199 241 286
#     4   9  18  33  50  70  98 126 161 204 248 298
#     4   9  17  30  47  70  98 124 158 203 244 281
#
# _framework density 17.154682999999999
#
# number of rings (size 3 to 8) (size 9 to 14) (size 15 to 20)
#    0.000    2.750    1.250    1.500    0.000    5.000 
#    0.000    0.000    2.750    0.000    0.000    0.000 
#    0.000    0.000    0.000    0.000    0.000    0.000 
#
# Total GULP energy -793309.480563 kJ/mol
# GULP energy per Si atom -12395.460634 kJ/mol
# Density = 1.711564 g / cm^3
# Si number density = 17.154683 Si / 1000 Ang^3
#
#
#
# Elastic Constant Matrix: (Units=GPa)
#
#
# Indices 1 2 3 4 5 6 
#
# 1 72.6121 50.0983 36.1469 0.0000 0.0000 0.0000
# 2 50.0983 144.0602 52.4068 0.0000 0.0000 0.0000
# 3 36.1469 52.4068 63.2380 0.0000 0.0000 0.0000
# 4 0.0000 0.0000 0.0000 31.2197 0.0000 0.0000
# 5 0.0000 0.0000 0.0000 0.0000 15.5965 0.0000
# 6 0.0000 0.0000 0.0000 0.0000 0.0000 22.0266
#
#
#
# Elastic Compliance Matrix: (Units=1/GPa)
#
#
# Indices 1 2 3 4 5 6 
#
# 1 0.020869 -0.004177 -0.008467 0.000000 0.000000 0.000000
# 2 -0.004177 0.010774 -0.006541 0.000000 0.000000 0.000000
# 3 -0.008467 -0.006541 0.026073 0.000000 0.000000 0.000000
# 4 0.000000 0.000000 0.000000 0.032031 0.000000 0.000000
# 5 0.000000 0.000000 0.000000 0.000000 0.064117 0.000000
# 6 0.000000 0.000000 0.000000 0.000000 0.000000 0.045400
#
#
# Mechanical properties :
#
#
# Convention : Reuss Voigt Hill
#
# Bulk Modulus (GPa) = 51.68952 61.91268 56.80110
# Shear Modulus (GPa) = 20.48498 23.18578 21.83538
#
# Velocity S-wave (km/s) = 3.45937 3.68036 3.57158
# Velocity P-wave (km/s) = 6.79361 7.36405 7.08458
#
# Compressibility (1/GPa) = 0.01934628
#
# Stress axis : x y z
#
# Youngs Moduli (GPa) = 47.91871 92.81965 38.35339
#
# Poissons Ratio (x) = 0.38772 0.32473
# Poissons Ratio (y) = 0.20017 0.25086
# Poissons Ratio (z) = 0.40572 0.60710
#
# Static dielectric constant tensor:
#      x y z
#    x 3.024630 0.000000 0.000000 
#    y 0.000000 3.452800 0.000000 
#    z 0.000000 0.000000 3.278070 
# 
# 
# High freq. dielectric constant tensor:
#      x y z
#    x 1.621320 0.000000 0.000000 
#    y 0.000000 1.669170 0.000000 
#    z 0.000000 0.000000 1.664050 
# 
# From -- ./inp_files/9172.got.cif
#   From: 2010.03.12/outbox.cif.g09.slc.cpg/sg55_5_cif.got.tgz:9172.got - 2010.04.16 15:19:21.
