data_PCOD8224759
_publ_section_title
;
Structure prediction by ZEFSAII (Michael W. Deem and Ramdas Pophale) SiO2 
 PCOD8224759
Probable space group: P B A M
;
_chemical_formula_sum "Si O2"
_cell_formula_units_Z 64
_cell_length_a 21.004481
_cell_length_b 16.824616
_cell_length_c 8.684893
_cell_angle_alpha 90.000000
_cell_angle_beta 90.000000
_cell_angle_gamma 90.000000
_cell_volume 3069.174548
_symmetry_space_group_name_H-M "P B A M"
_symmetry_group_IT_number 55
_symmetry_cell_setting 'orthorhombic'
loop_
_space_group_symop_operation_xyz
x,y,z
-x,-y,z
1/2+x,1/2-y,-z
1/2-x,1/2+y,-z
-x,-y,-z
x,y,-z
1/2-x,1/2+y,z
1/2+x,1/2-y,z
loop_
_atom_site_type_symbol
_atom_site_label
_atom_site_fract_x
_atom_site_fract_y
_atom_site_fract_z
Si Si1 0.636929 0.650898 0.321193
Si Si2 0.403725 0.200526 0.176803
Si Si3 0.325704 0.627495 0.176953
Si Si4 0.146194 0.414064 0.324842
Si Si5 0.309251 0.066950 0.825706
Si Si6 0.981303 0.590696 0.827712
Si Si7 0.731810 0.209887 0.179514
Si Si8 0.426769 0.503531 0.816716
O O1 0.639918 0.631325 0.500000
O O2 0.587920 0.721976 0.283291
O O3 0.703676 0.685771 0.263918
O O4 0.613836 0.571932 0.236332
O O5 0.336028 0.155936 0.204297
O O6 0.458550 0.140666 0.227015
O O7 0.410178 0.227473 0.000000
O O8 0.266670 0.566899 0.197099
O O9 0.304904 0.712367 0.251747
O O10 0.389067 0.583183 0.244966
O O11 0.339865 0.645532 0.000000
O O12 0.164579 0.393353 0.500000
O O13 0.159083 0.506771 0.293680
O O14 0.072988 0.392949 0.296576
O O15 0.186326 0.364691 0.202451
O O16 0.328037 0.041463 0.000000
O O17 0.000000 0.500000 0.826832
O O18 0.959332 0.615637 0.000000
O O19 0.747267 0.223890 0.000000
O O20 0.500000 0.500000 0.753947
O O21 0.427108 0.504018 0.000000
#
# Coordination Sequence:
#
# PCOD8224759 Si02
#       8
#     8   8   8   8   8   8   8   8
#     4  12  25  41  63  95 131 163 203 261 335 391
#     4  10  20  37  64  90 116 160 216 263 304 366
#     4   9  19  37  65  93 115 149 206 270 319 360
#     4  12  25  37  54  89 131 165 198 244 314 376
#     4  10  18  36  62  87 114 157 213 258 303 364
#     4  10  20  38  60  83 114 159 214 254 291 356
#     4  11  22  41  65  89 120 162 214 264 313 372
#     4  10  22  42  68  96 126 167 221 271 315 381
#
# _framework density 20.852511
#
# number of rings (size 3 to 8) (size 9 to 14) (size 15 to 20)
#    0.000    1.500    2.500    3.375    0.000    3.500 
#    0.000    3.750    0.000    0.000    0.000    0.000 
#    0.000    0.000    0.000    0.000    0.000    0.000 
#
# Total GULP energy -793375.740925 kJ/mol
# GULP energy per Si atom -12396.495952 kJ/mol
# Density = 2.080505 g / cm^3
# Si number density = 20.852511 Si / 1000 Ang^3
#
#
#
# Elastic Constant Matrix: (Units=GPa)
#
#
# Indices 1 2 3 4 5 6 
#
# 1 85.8134 33.4797 19.9517 0.0000 0.0000 0.0000
# 2 33.4797 98.2290 15.0116 0.0000 0.0000 0.0000
# 3 19.9517 15.0116 41.5062 0.0000 0.0000 0.0000
# 4 0.0000 0.0000 0.0000 14.6944 0.0000 0.0000
# 5 0.0000 0.0000 0.0000 0.0000 20.3594 0.0000
# 6 0.0000 0.0000 0.0000 0.0000 0.0000 34.6686
#
#
#
# Elastic Compliance Matrix: (Units=1/GPa)
#
#
# Indices 1 2 3 4 5 6 
#
# 1 0.014537 -0.004114 -0.005500 0.000000 0.000000 0.000000
# 2 -0.004114 0.011940 -0.002341 0.000000 0.000000 0.000000
# 3 -0.005500 -0.002341 0.027583 0.000000 0.000000 0.000000
# 4 0.000000 0.000000 0.000000 0.068053 0.000000 0.000000
# 5 0.000000 0.000000 0.000000 0.000000 0.049117 0.000000
# 6 0.000000 0.000000 0.000000 0.000000 0.000000 0.028845
#
#
# Mechanical properties :
#
#
# Convention : Reuss Voigt Hill
#
# Bulk Modulus (GPa) = 33.16667 40.27050 36.71858
# Shear Modulus (GPa) = 21.36430 24.41820 22.89125
#
# Velocity S-wave (km/s) = 3.20432 3.42569 3.31686
# Velocity P-wave (km/s) = 5.44336 5.91618 5.68468
#
# Compressibility (1/GPa) = 0.03015075
#
# Stress axis : x y z
#
# Youngs Moduli (GPa) = 68.78972 83.75018 36.25405
#
# Poissons Ratio (x) = 0.34457 0.19939
# Poissons Ratio (y) = 0.28301 0.08486
# Poissons Ratio (z) = 0.37833 0.19604
#
# Static dielectric constant tensor:
#      x y z
#    x 3.796500 0.000000 0.000000 
#    y 0.000000 3.980670 0.000000 
#    z 0.000000 0.000000 3.451180 
# 
# 
# High freq. dielectric constant tensor:
#      x y z
#    x 1.822640 0.000000 0.000000 
#    y 0.000000 1.823540 0.000000 
#    z 0.000000 0.000000 1.779680 
# 
# From -- ./inp_files/9009.got.cif
#   From: 2010.03.12/outbox.cif.g09.slc.cpg/sg55_5_cif.got.tgz:9009.got - 2010.04.16 15:19:21.
