data_PCOD8224912
_publ_section_title
;
Structure prediction by ZEFSAII (Michael W. Deem and Ramdas Pophale) SiO2 
 PCOD8224912
Probable space group: P B A M
;
_chemical_formula_sum "Si O2"
_cell_formula_units_Z 64
_cell_length_a 16.458443
_cell_length_b 22.691403
_cell_length_c 8.892496
_cell_angle_alpha 90.000000
_cell_angle_beta 90.000000
_cell_angle_gamma 90.000000
_cell_volume 3321.037467
_symmetry_space_group_name_H-M "P B A M"
_symmetry_group_IT_number 55
_symmetry_cell_setting 'orthorhombic'
loop_
_space_group_symop_operation_xyz
x,y,z
-x,-y,z
1/2+x,1/2-y,-z
1/2-x,1/2+y,-z
-x,-y,-z
x,y,-z
1/2-x,1/2+y,z
1/2+x,1/2-y,z
loop_
_atom_site_type_symbol
_atom_site_label
_atom_site_fract_x
_atom_site_fract_y
_atom_site_fract_z
Si Si1 0.573726 0.350802 0.175283
Si Si2 0.003988 0.433810 0.662584
Si Si3 0.387820 0.143301 0.821299
Si Si4 0.058568 0.945762 0.169731
Si Si5 0.777103 0.035074 0.675317
Si Si6 0.148237 0.385230 0.824622
Si Si7 0.766792 0.900521 0.321531
Si Si8 0.539672 0.220338 0.177999
O O1 0.490207 0.385776 0.198211
O O2 0.643958 0.380741 0.271834
O O3 0.555695 0.285528 0.240015
O O4 0.599647 0.350115 0.000000
O O5 0.015879 0.400068 0.500000
O O6 0.921552 0.416179 0.746956
O O7 0.000000 0.500000 0.615679
O O8 0.075729 0.428403 0.782296
O O9 0.296453 0.145848 0.755115
O O10 0.451134 0.194998 0.768382
O O11 0.383056 0.139620 0.000000
O O12 0.129943 0.950867 0.289127
O O13 0.094020 0.947328 0.000000
O O14 0.000000 0.000000 0.197405
O O15 0.761562 0.037897 0.500000
O O16 0.728159 0.089670 0.746388
O O17 0.753736 0.968834 0.732101
O O18 0.115777 0.320733 0.769189
O O19 0.165708 0.384918 0.000000
O O20 0.759086 0.895507 0.500000
O O21 0.536852 0.220853 0.000000
#
# Coordination Sequence:
#
# PCOD8224912 Si02
#       8
#     8   8   8   8   8   8   8   8
#     4  10  20  39  64  83 108 147 189 237 287 339
#     4  10  19  31  49  76 112 148 182 223 280 338
#     4  10  20  35  56  81 110 147 192 235 275 332
#     4  10  20  36  60  88 111 138 186 238 285 338
#     4  11  23  37  56  83 120 155 185 229 290 347
#     4  10  20  35  56  81 111 146 191 235 272 330
#     4  11  23  37  55  84 118 150 187 233 287 343
#     4   8  18  38  60  83 110 146 192 235 282 334
#
# _framework density 19.271086
#
# number of rings (size 3 to 8) (size 9 to 14) (size 15 to 20)
#    0.000    2.000    1.250    3.375    0.000    6.250 
#    2.250    3.750    0.000    0.000    0.000    0.000 
#    0.000    0.000    0.000    0.000    0.000    0.000 
#
# Total GULP energy -793005.116399 kJ/mol
# GULP energy per Si atom -12390.704944 kJ/mol
# Density = 1.922722 g / cm^3
# Si number density = 19.271086 Si / 1000 Ang^3
#
#
#
# Elastic Constant Matrix: (Units=GPa)
#
#
# Indices 1 2 3 4 5 6 
#
# 1 84.8666 40.1472 31.1642 0.0000 0.0000 0.0000
# 2 40.1472 124.5114 35.7934 0.0000 0.0000 0.0000
# 3 31.1642 35.7934 58.2097 0.0000 0.0000 0.0000
# 4 0.0000 0.0000 0.0000 20.2068 0.0000 0.0000
# 5 0.0000 0.0000 0.0000 0.0000 27.8727 0.0000
# 6 0.0000 0.0000 0.0000 0.0000 0.0000 11.1702
#
#
#
# Elastic Compliance Matrix: (Units=1/GPa)
#
#
# Indices 1 2 3 4 5 6 
#
# 1 0.015653 -0.003204 -0.006410 0.000000 0.000000 0.000000
# 2 -0.003204 0.010412 -0.004687 0.000000 0.000000 0.000000
# 3 -0.006410 -0.004687 0.023493 0.000000 0.000000 0.000000
# 4 0.000000 0.000000 0.000000 0.049488 0.000000 0.000000
# 5 0.000000 0.000000 0.000000 0.000000 0.035877 0.000000
# 6 0.000000 0.000000 0.000000 0.000000 0.000000 0.089524
#
#
# Mechanical properties :
#
#
# Convention : Reuss Voigt Hill
#
# Bulk Modulus (GPa) = 47.71977 53.53303 50.62640
# Shear Modulus (GPa) = 19.22823 22.54880 20.88851
#
# Velocity S-wave (km/s) = 3.16219 3.42436 3.29588
# Velocity P-wave (km/s) = 6.17646 6.59350 6.38839
#
# Compressibility (1/GPa) = 0.02095567
#
# Stress axis : x y z
#
# Youngs Moduli (GPa) = 63.88604 96.04363 42.56621
#
# Poissons Ratio (x) = 0.30777 0.27284
# Poissons Ratio (y) = 0.20472 0.19950
# Poissons Ratio (z) = 0.40949 0.45013
#
# Static dielectric constant tensor:
#      x y z
#    x 3.571890 0.000000 0.000000 
#    y 0.000000 3.631610 0.000000 
#    z 0.000000 0.000000 3.427130 
# 
# 
# High freq. dielectric constant tensor:
#      x y z
#    x 1.750800 0.000000 0.000000 
#    y 0.000000 1.738660 0.000000 
#    z 0.000000 0.000000 1.746090 
# 
# From -- ./inp_files/6665.got.cif
#   From: 2010.03.12/outbox.cif.g09.slc.cpg/sg55_4_cif.got.tgz:6665.got - 2010.04.16 15:19:21.
