data_PCOD8224554
_publ_section_title
;
Structure prediction by ZEFSAII (Michael W. Deem and Ramdas Pophale) SiO2 
 PCOD8224554
Probable space group: P B A M
;
_chemical_formula_sum "Si O2"
_cell_formula_units_Z 64
_cell_length_a 20.787517
_cell_length_b 19.261687
_cell_length_c 8.591005
_cell_angle_alpha 90.000000
_cell_angle_beta 90.000000
_cell_angle_gamma 90.000000
_cell_volume 3439.861133
_symmetry_space_group_name_H-M "P B A M"
_symmetry_group_IT_number 55
_symmetry_cell_setting 'orthorhombic'
loop_
_space_group_symop_operation_xyz
x,y,z
-x,-y,z
1/2+x,1/2-y,-z
1/2-x,1/2+y,-z
-x,-y,-z
x,y,-z
1/2-x,1/2+y,z
1/2+x,1/2-y,z
loop_
_atom_site_type_symbol
_atom_site_label
_atom_site_fract_x
_atom_site_fract_y
_atom_site_fract_z
Si Si1 0.133404 0.174497 0.183601
Si Si2 0.435902 0.037865 0.179343
Si Si3 0.314957 0.966168 0.682981
Si Si4 0.136038 0.320582 0.317118
Si Si5 0.501107 0.821590 0.821244
Si Si6 0.006572 0.819170 0.682321
Si Si7 0.061829 0.961958 0.316879
Si Si8 0.187143 0.039487 0.314127
O O1 0.159542 0.250939 0.229835
O O2 0.183620 0.116789 0.243259
O O3 0.064945 0.159826 0.264193
O O4 0.125294 0.170012 0.000000
O O5 0.444942 0.120091 0.204628
O O6 0.500000 0.000000 0.240435
O O7 0.375291 0.014148 0.277355
O O8 0.423826 0.018241 0.000000
O O9 0.308967 0.962024 0.500000
O O10 0.323703 0.887186 0.745504
O O11 0.250820 0.001544 0.751790
O O12 0.145468 0.309443 0.500000
O O13 0.061255 0.336109 0.283440
O O14 0.532383 0.748348 0.772650
O O15 0.478267 0.819377 0.000000
O O16 0.003789 0.803549 0.500000
O O17 0.056733 0.880329 0.721882
O O18 0.061180 0.975010 0.500000
O O19 0.127434 0.993889 0.249392
O O20 0.000000 0.000000 0.241616
O O21 0.187890 0.044838 0.500000
#
# Coordination Sequence:
#
# PCOD8224554 Si02
#       8
#     8   8   8   8   8   8   8   8
#     4  11  21  33  52  80 108 141 180 219 265 321
#     4  10  20  35  55  77 107 146 179 216 269 324
#     4  10  22  36  56  83 109 140 179 229 273 315
#     4  10  19  33  53  79 107 139 178 222 271 320
#     4  10  19  32  51  78 108 141 178 221 270 317
#     4  10  18  31  53  80 107 140 178 224 274 319
#     4   9  16  30  55  80 102 136 175 213 264 323
#     4  10  20  38  57  78 109 141 179 223 271 323
#
# _framework density 18.605402000000002
#
# number of rings (size 3 to 8) (size 9 to 14) (size 15 to 20)
#    0.000    2.000    2.500    3.750    0.000    2.250 
#    0.000    3.125    0.000    3.000    0.000    0.000 
#    0.000    0.000    0.000    0.000    0.000    0.000 
#
# Total GULP energy -793534.842729 kJ/mol
# GULP energy per Si atom -12398.981918 kJ/mol
# Density = 1.856306 g / cm^3
# Si number density = 18.605402 Si / 1000 Ang^3
#
#
#
# Elastic Constant Matrix: (Units=GPa)
#
#
# Indices 1 2 3 4 5 6 
#
# 1 101.0435 69.3080 5.2043 0.0000 0.0000 0.0000
# 2 69.3080 153.9150 27.8113 0.0000 0.0000 0.0000
# 3 5.2043 27.8113 28.4304 0.0000 0.0000 0.0000
# 4 0.0000 0.0000 0.0000 19.0325 0.0000 0.0000
# 5 0.0000 0.0000 0.0000 0.0000 10.5982 0.0000
# 6 0.0000 0.0000 0.0000 0.0000 0.0000 28.7335
#
#
#
# Elastic Compliance Matrix: (Units=1/GPa)
#
#
# Indices 1 2 3 4 5 6 
#
# 1 0.014805 -0.007503 0.004630 0.000000 0.000000 0.000000
# 2 -0.007503 0.011695 -0.010067 0.000000 0.000000 0.000000
# 3 0.004630 -0.010067 0.044174 0.000000 0.000000 0.000000
# 4 0.000000 0.000000 0.000000 0.052542 0.000000 0.000000
# 5 0.000000 0.000000 0.000000 0.000000 0.094356 0.000000
# 6 0.000000 0.000000 0.000000 0.000000 0.000000 0.034803
#
#
# Mechanical properties :
#
#
# Convention : Reuss Voigt Hill
#
# Bulk Modulus (GPa) = 22.32492 54.22622 38.27557
# Shear Modulus (GPa) = 17.05411 23.74385 20.39898
#
# Velocity S-wave (km/s) = 3.03086 3.57624 3.31479
# Velocity P-wave (km/s) = 4.92680 6.80157 5.93863
#
# Compressibility (1/GPa) = 0.04479299
#
# Stress axis : x y z
#
# Youngs Moduli (GPa) = 67.54532 85.50865 22.63800
#
# Poissons Ratio (x) = 0.64159 -0.10481
# Poissons Ratio (y) = 0.50680 0.22789
# Poissons Ratio (z) = -0.31271 0.86078
#
# Static dielectric constant tensor:
#      x y z
#    x 3.294720 0.000000 0.000000 
#    y 0.000000 3.777570 0.000000 
#    z 0.000000 0.000000 3.243600 
# 
# 
# High freq. dielectric constant tensor:
#      x y z
#    x 1.687130 0.000000 0.000000 
#    y 0.000000 1.742640 0.000000 
#    z 0.000000 0.000000 1.709720 
# 
# From -- ./inp_files/9167.got.cif
#   From: 2010.03.12/outbox.cif.g09.slc.cpg/sg55_5_cif.got.tgz:9167.got - 2010.04.16 15:19:21.
