data_PCOD8224875
_publ_section_title
;
Structure prediction by ZEFSAII (Michael W. Deem and Ramdas Pophale) SiO2 
 PCOD8224875
Probable space group: P B A M
;
_chemical_formula_sum "Si O2"
_cell_formula_units_Z 64
_cell_length_a 21.731146
_cell_length_b 18.593625
_cell_length_c 9.226205
_cell_angle_alpha 90.000000
_cell_angle_beta 90.000000
_cell_angle_gamma 90.000000
_cell_volume 3727.947585
_symmetry_space_group_name_H-M "P B A M"
_symmetry_group_IT_number 55
_symmetry_cell_setting 'orthorhombic'
loop_
_space_group_symop_operation_xyz
x,y,z
-x,-y,z
1/2+x,1/2-y,-z
1/2-x,1/2+y,-z
-x,-y,-z
x,y,-z
1/2-x,1/2+y,z
1/2+x,1/2-y,z
loop_
_atom_site_type_symbol
_atom_site_label
_atom_site_fract_x
_atom_site_fract_y
_atom_site_fract_z
Si Si1 0.404021 0.673524 0.333680
Si Si2 0.688562 0.420051 0.826695
Si Si3 0.231473 0.371728 0.840977
Si Si4 0.185661 0.533264 0.157916
Si Si5 0.934645 0.530723 0.826363
Si Si6 0.981387 0.079704 0.670362
Si Si7 0.359272 0.425696 0.170567
Si Si8 0.382455 0.836062 0.667128
O O1 0.390692 0.653117 0.500000
O O2 0.345752 0.648005 0.240227
O O3 0.465787 0.634725 0.278939
O O4 0.413304 0.758381 0.313585
O O5 0.759921 0.420376 0.765688
O O6 0.654219 0.492827 0.776646
O O7 0.689878 0.414836 0.000000
O O8 0.212270 0.453801 0.858705
O O9 0.302635 0.372307 0.788702
O O10 0.187538 0.331969 0.726534
O O11 0.225594 0.334554 0.000000
O O12 0.118440 0.524829 0.233746
O O13 0.174047 0.567460 0.000000
O O14 0.924801 0.608691 0.756068
O O15 0.000000 0.500000 0.776733
O O16 0.929645 0.539053 0.000000
O O17 0.969976 0.083052 0.500000
O O18 0.919007 0.104100 0.748318
O O19 0.000000 0.000000 0.721311
O O20 0.371252 0.424548 0.000000
O O21 0.380028 0.859822 0.500000
#
# Coordination Sequence:
#
# PCOD8224875 Si02
#       8
#     8   8   8   8   8   8   8   8
#     4  10  21  34  46  66  99 135 169 206 245 290
#     4   9  16  27  46  70  94 124 157 197 246 287
#     4   8  15  30  50  70  94 120 151 196 246 293
#     4   7  12  25  45  71  96 114 143 189 238 285
#     4   9  17  32  56  79  99 127 161 203 253 304
#     4  10  19  31  47  68  98 139 176 204 240 291
#     4   9  17  29  48  74  99 121 156 210 251 280
#     4  10  20  33  50  72  99 129 164 208 250 295
#
# _framework density 17.167622999999999
#
# number of rings (size 3 to 8) (size 9 to 14) (size 15 to 20)
#    0.000    3.000    1.250    2.625    0.000    2.500 
#    0.000    5.000    2.750    0.000    0.000    0.000 
#    0.000    0.000    0.000    0.000    0.000    0.000 
#
# Total GULP energy -793024.113216 kJ/mol
# GULP energy per Si atom -12391.001769 kJ/mol
# Density = 1.712855 g / cm^3
# Si number density = 17.167623 Si / 1000 Ang^3
#
#
#
# Elastic Constant Matrix: (Units=GPa)
#
#
# Indices 1 2 3 4 5 6 
#
# 1 164.0910 50.3837 43.1745 0.0000 0.0000 0.0000
# 2 50.3837 60.6040 28.6572 0.0000 0.0000 0.0000
# 3 43.1745 28.6572 45.9972 0.0000 0.0000 0.0000
# 4 0.0000 0.0000 0.0000 20.5243 0.0000 0.0000
# 5 0.0000 0.0000 0.0000 0.0000 20.8324 0.0000
# 6 0.0000 0.0000 0.0000 0.0000 0.0000 22.5128
#
#
#
# Elastic Compliance Matrix: (Units=1/GPa)
#
#
# Indices 1 2 3 4 5 6 
#
# 1 0.009036 -0.004964 -0.005389 0.000000 0.000000 0.000000
# 2 -0.004964 0.026119 -0.011613 0.000000 0.000000 0.000000
# 3 -0.005389 -0.011613 0.034034 0.000000 0.000000 0.000000
# 4 0.000000 0.000000 0.000000 0.048723 0.000000 0.000000
# 5 0.000000 0.000000 0.000000 0.000000 0.048002 0.000000
# 6 0.000000 0.000000 0.000000 0.000000 0.000000 0.044419
#
#
# Mechanical properties :
#
#
# Convention : Reuss Voigt Hill
#
# Bulk Modulus (GPa) = 39.59354 57.23589 48.41472
# Shear Modulus (GPa) = 19.03422 22.67235 20.85329
#
# Velocity S-wave (km/s) = 3.33337 3.63801 3.48902
# Velocity P-wave (km/s) = 6.15858 7.14553 6.67034
#
# Compressibility (1/GPa) = 0.02525664
#
# Stress axis : x y z
#
# Youngs Moduli (GPa) = 110.66416 38.28631 29.38246
#
# Poissons Ratio (x) = 0.19006 0.15834
# Poissons Ratio (y) = 0.54936 0.34122
# Poissons Ratio (z) = 0.59637 0.44462
#
# Static dielectric constant tensor:
#      x y z
#    x 3.593290 0.000000 0.000000 
#    y 0.000000 2.865560 0.000000 
#    z 0.000000 0.000000 3.008500 
# 
# 
# High freq. dielectric constant tensor:
#      x y z
#    x 1.674550 0.000000 0.000000 
#    y 0.000000 1.623040 0.000000 
#    z 0.000000 0.000000 1.643290 
# 
# From -- ./inp_files/9158.got.cif
#   From: 2010.03.12/outbox.cif.g09.slc.cpg/sg55_5_cif.got.tgz:9158.got - 2010.04.16 15:19:21.
