data_PCOD8224744
_publ_section_title
;
Structure prediction by ZEFSAII (Michael W. Deem and Ramdas Pophale) SiO2 
 PCOD8224744
Probable space group: P B A M
;
_chemical_formula_sum "Si O2"
_cell_formula_units_Z 40
_cell_length_a 9.348228
_cell_length_b 14.328494
_cell_length_c 14.301925
_cell_angle_alpha 90.000000
_cell_angle_beta 90.000000
_cell_angle_gamma 90.000000
_cell_volume 1915.686058
_symmetry_space_group_name_H-M "P B A M"
_symmetry_group_IT_number 55
_symmetry_cell_setting 'orthorhombic'
loop_
_space_group_symop_operation_xyz
x,y,z
-x,-y,z
1/2+x,1/2-y,-z
1/2-x,1/2+y,-z
-x,-y,-z
x,y,-z
1/2-x,1/2+y,z
1/2+x,1/2-y,z
loop_
_atom_site_type_symbol
_atom_site_label
_atom_site_fract_x
_atom_site_fract_y
_atom_site_fract_z
Si Si1 0.085602 0.590514 0.395771
Si Si2 0.839685 0.463495 0.104739
Si Si3 0.238272 0.868738 0.217468
Si Si4 0.548729 0.799756 0.218614
Si Si5 0.654836 0.529704 0.395190
O O1 0.028534 0.615082 0.500000
O O2 0.064027 0.678933 0.329103
O O3 0.252470 0.564753 0.398018
O O4 0.000000 0.500000 0.355710
O O5 0.734386 0.537515 0.155114
O O6 0.844073 0.367833 0.162406
O O7 0.000000 0.500000 0.102222
O O8 0.781843 0.445747 0.000000
O O9 0.382241 0.811124 0.192838
O O10 0.100741 0.804625 0.194401
O O11 0.229501 0.895129 0.327137
O O12 0.500000 0.500000 0.356696
O O13 0.644834 0.573076 0.500000
#
# Coordination Sequence:
#
# PCOD8224744 Si02
#       5
#     8   8   8   8   8
#     4  10  18  35  60  81 113 160 201 238 289 351
#     4   9  19  40  64  84 114 154 197 247 305 363
#     4  11  23  37  60  89 122 155 200 244 302 360
#     4  11  22  37  58  89 118 158 198 246 302 360
#     4  10  21  37  59  85 119 161 202 245 292 345
#
# _framework density 20.880247000000001
#
# number of rings (size 3 to 8) (size 9 to 14) (size 15 to 20)
#    0.000    1.800    4.000    0.600    2.800    1.600 
#    0.000    0.000    0.000    4.200    0.000    0.000 
#    0.000    0.000    0.000    0.000    0.000    0.000 
#
# Total GULP energy -495918.827107 kJ/mol
# GULP energy per Si atom -12397.970678 kJ/mol
# Density = 2.083272 g / cm^3
# Si number density = 20.880247 Si / 1000 Ang^3
#
#
#
# Elastic Constant Matrix: (Units=GPa)
#
#
# Indices 1 2 3 4 5 6 
#
# 1 73.5355 9.8205 9.2205 0.0000 0.0000 0.0000
# 2 9.8205 58.3713 30.7031 0.0000 0.0000 0.0000
# 3 9.2205 30.7031 111.7744 0.0000 0.0000 0.0000
# 4 0.0000 0.0000 0.0000 9.6582 0.0000 0.0000
# 5 0.0000 0.0000 0.0000 0.0000 18.5686 0.0000
# 6 0.0000 0.0000 0.0000 0.0000 0.0000 38.7481
#
#
#
# Elastic Compliance Matrix: (Units=1/GPa)
#
#
# Indices 1 2 3 4 5 6 
#
# 1 0.013945 -0.002035 -0.000591 0.000000 0.000000 0.000000
# 2 -0.002035 0.020322 -0.005414 0.000000 0.000000 0.000000
# 3 -0.000591 -0.005414 0.010483 0.000000 0.000000 0.000000
# 4 0.000000 0.000000 0.000000 0.103539 0.000000 0.000000
# 5 0.000000 0.000000 0.000000 0.000000 0.053854 0.000000
# 6 0.000000 0.000000 0.000000 0.000000 0.000000 0.025808
#
#
# Mechanical properties :
#
#
# Convention : Reuss Voigt Hill
#
# Bulk Modulus (GPa) = 34.88211 38.12992 36.50601
# Shear Modulus (GPa) = 19.71705 26.32414 23.02059
#
# Velocity S-wave (km/s) = 3.07627 3.55451 3.32400
# Velocity P-wave (km/s) = 5.41848 5.92849 5.67921
#
# Compressibility (1/GPa) = 0.02866799
#
# Stress axis : x y z
#
# Youngs Moduli (GPa) = 71.71137 49.20771 95.39600
#
# Poissons Ratio (x) = 0.10014 0.05641
# Poissons Ratio (y) = 0.14594 0.51651
# Poissons Ratio (z) = 0.04240 0.26643
#
# Static dielectric constant tensor:
#      x y z
#    x 3.706930 0.000000 0.000000 
#    y 0.000000 3.452430 0.000000 
#    z 0.000000 0.000000 3.930290 
# 
# 
# High freq. dielectric constant tensor:
#      x y z
#    x 1.808500 0.000000 0.000000 
#    y 0.000000 1.782910 0.000000 
#    z 0.000000 0.000000 1.814680 
# 
# From -- ./inp_files/17055.got.cif
#   From: 2010.03.12/outbox.cif.g09.slc.cpg/sg55_9_cif.got.tgz:17055.got - 2010.04.16 15:19:21.
