data_PCOD8224392
_publ_section_title
;
Structure prediction by ZEFSAII (Michael W. Deem and Ramdas Pophale) SiO2 
 PCOD8224392
Probable space group: P B A M
;
_chemical_formula_sum "Si O2"
_cell_formula_units_Z 64
_cell_length_a 16.528781
_cell_length_b 17.905011
_cell_length_c 13.615014
_cell_angle_alpha 90.000000
_cell_angle_beta 90.000000
_cell_angle_gamma 90.000000
_cell_volume 4029.336240
_symmetry_space_group_name_H-M "P B A M"
_symmetry_group_IT_number 55
_symmetry_cell_setting 'orthorhombic'
loop_
_space_group_symop_operation_xyz
x,y,z
-x,-y,z
1/2+x,1/2-y,-z
1/2-x,1/2+y,-z
-x,-y,-z
x,y,-z
1/2-x,1/2+y,z
1/2+x,1/2-y,z
loop_
_atom_site_type_symbol
_atom_site_label
_atom_site_fract_x
_atom_site_fract_y
_atom_site_fract_z
Si Si1 0.068825 0.605502 0.390343
Si Si2 0.086869 0.978001 0.883906
Si Si3 0.748425 0.446370 0.116137
Si Si4 0.178852 0.403677 0.807235
Si Si5 0.364755 0.167214 0.801341
Si Si6 0.668943 0.674423 0.883514
Si Si7 0.612739 0.065126 0.609747
Si Si8 0.012038 0.417743 0.113736
O O1 0.083088 0.637340 0.500000
O O2 0.114309 0.659049 0.313605
O O3 0.105812 0.523526 0.381955
O O4 0.973545 0.603017 0.366347
O O5 0.110347 0.893899 0.853263
O O6 0.156541 0.035724 0.848728
O O7 0.081654 0.982649 0.000000
O O8 0.000000 0.000000 0.836775
O O9 0.804817 0.516359 0.142868
O O10 0.779436 0.372712 0.172669
O O11 0.752890 0.432499 0.000000
O O12 0.240852 0.342269 0.846058
O O13 0.180024 0.407971 0.688126
O O14 0.089210 0.377902 0.837791
O O15 0.362429 0.253985 0.826282
O O16 0.432932 0.130840 0.869080
O O17 0.670087 0.687966 0.000000
O O18 0.641253 0.087655 0.500000
O O19 0.000000 0.500000 0.161696
O O20 0.029576 0.425723 0.000000
#
# Coordination Sequence:
#
# PCOD8224392 Si02
#       8
#     8   8   8   8   8   8   8   8
#     4   9  17  30  49  75 104 132 161 204 257 307
#     4   8  16  34  53  65  85 130 181 209 232 280
#     4  10  18  28  48  70  96 129 164 205 245 296
#     4  11  18  32  48  70 100 135 166 196 251 304
#     4  12  20  32  47  73 106 132 162 203 258 309
#     4  10  22  35  47  69 106 138 165 214 256 289
#     4   9  16  29  50  76 100 127 168 211 249 299
#     4  11  19  27  47  74 101 132 164 196 240 315
#
# _framework density 15.883509
#
# number of rings (size 3 to 8) (size 9 to 14) (size 15 to 20)
#    0.000    2.000    3.750    3.750    0.000    0.000 
#    2.250    0.625    0.000    0.000    0.000    0.000 
#    0.000   13.000    0.000    0.000    0.000    0.000 
#
# Total GULP energy -793476.944327 kJ/mol
# GULP energy per Si atom -12398.077255 kJ/mol
# Density = 1.584736 g / cm^3
# Si number density = 15.883509 Si / 1000 Ang^3
#
#
#
# Elastic Constant Matrix: (Units=GPa)
#
#
# Indices 1 2 3 4 5 6 
#
# 1 95.6171 46.7323 32.8430 0.0000 0.0000 0.0000
# 2 46.7323 84.8406 33.8407 0.0000 0.0000 0.0000
# 3 32.8430 33.8407 96.1948 0.0000 0.0000 0.0000
# 4 0.0000 0.0000 0.0000 20.6259 0.0000 0.0000
# 5 0.0000 0.0000 0.0000 0.0000 19.4368 0.0000
# 6 0.0000 0.0000 0.0000 0.0000 0.0000 20.5723
#
#
#
# Elastic Compliance Matrix: (Units=1/GPa)
#
#
# Indices 1 2 3 4 5 6 
#
# 1 0.014829 -0.007152 -0.002547 0.000000 0.000000 0.000000
# 2 -0.007152 0.017160 -0.003595 0.000000 0.000000 0.000000
# 3 -0.002547 -0.003595 0.012530 0.000000 0.000000 0.000000
# 4 0.000000 0.000000 0.000000 0.048483 0.000000 0.000000
# 5 0.000000 0.000000 0.000000 0.000000 0.051449 0.000000
# 6 0.000000 0.000000 0.000000 0.000000 0.000000 0.048609
#
#
# Mechanical properties :
#
#
# Convention : Reuss Voigt Hill
#
# Bulk Modulus (GPa) = 55.76932 55.94270 55.85601
# Shear Modulus (GPa) = 22.16071 23.00943 22.58507
#
# Velocity S-wave (km/s) = 3.73929 3.81022 3.77493
# Velocity P-wave (km/s) = 7.33695 7.39285 7.36495
#
# Compressibility (1/GPa) = 0.01793101
#
# Stress axis : x y z
#
# Youngs Moduli (GPa) = 67.43664 58.27383 79.80991
#
# Poissons Ratio (x) = 0.41679 0.20326
# Poissons Ratio (y) = 0.48232 0.28692
# Poissons Ratio (z) = 0.17174 0.20949
#
# Static dielectric constant tensor:
#      x y z
#    x 3.158730 0.000000 0.000000 
#    y 0.000000 2.799920 0.000000 
#    z 0.000000 0.000000 3.101360 
# 
# 
# High freq. dielectric constant tensor:
#      x y z
#    x 1.603400 0.000000 0.000000 
#    y 0.000000 1.578340 0.000000 
#    z 0.000000 0.000000 1.603160 
# 
# From -- ./inp_files/19119.got.cif
#   From: 2010.03.12/outbox.cif.g09.slc.cpg/sg55_10_cif.got.tgz:19119.got - 2010.04.16 15:19:21.
