data_PCOD8224241
_publ_section_title
;
Structure prediction by ZEFSAII (Michael W. Deem and Ramdas Pophale) SiO2 
 PCOD8224241
Probable space group: P B A M
;
_chemical_formula_sum "Si O2"
_cell_formula_units_Z 28
_cell_length_a 12.097601
_cell_length_b 5.407051
_cell_length_c 16.322901
_cell_angle_alpha 90.000000
_cell_angle_beta 90.000000
_cell_angle_gamma 90.000000
_cell_volume 1067.719241
_symmetry_space_group_name_H-M "P B A M"
_symmetry_group_IT_number 55
_symmetry_cell_setting 'orthorhombic'
loop_
_space_group_symop_operation_xyz
x,y,z
-x,-y,z
1/2+x,1/2-y,-z
1/2-x,1/2+y,-z
-x,-y,-z
x,y,-z
1/2-x,1/2+y,z
1/2+x,1/2-y,z
loop_
_atom_site_type_symbol
_atom_site_label
_atom_site_fract_x
_atom_site_fract_y
_atom_site_fract_z
Si Si1 0.134954 0.144484 0.406014
Si Si2 0.882214 0.351897 0.658727
Si Si3 0.432729 0.248685 0.000000
Si Si4 0.685875 0.801811 0.829973
O O1 0.153780 0.218868 0.500000
O O2 0.252284 0.099406 0.361404
O O3 0.073238 0.876897 0.397673
O O4 0.066608 0.371356 0.361570
O O5 0.899742 0.278008 0.754203
O O6 0.500000 0.500000 0.000000
O O7 0.362460 0.248112 0.081526
O O8 0.500000 0.000000 0.000000
O O9 0.774855 0.584574 0.821034
#
# Coordination Sequence:
#
# PCOD8224241 Si02
#       4
#     8   8   4   8
#     4  10  16  25  41  72 125 154 171 222 301 341
#     4  10  16  27  44  76 110 149 184 227 278 340
#     4  12  28  46  62  88 122 156 196 248 310 364
#     4  12  21  40  65  90 116 154 203 249 291 356
#
# _framework density 26.224119999999999
#
# number of rings (size 3 to 8) (size 9 to 14) (size 15 to 20)
#    0.000    1.143    5.714    6.857    0.000    0.000 
#    0.000    0.000    0.000    0.000    0.000    0.000 
#    0.000   38.857    0.000    0.000    0.000    0.000 
#
# Total GULP energy -347192.102127 kJ/mol
# GULP energy per Si atom -12399.717933 kJ/mol
# Density = 2.616443 g / cm^3
# Si number density = 26.224120 Si / 1000 Ang^3
#
#
#
# Elastic Constant Matrix: (Units=GPa)
#
#
# Indices 1 2 3 4 5 6 
#
# 1 52.7650 55.8391 16.0810 0.0000 0.0000 0.0000
# 2 55.8391 231.9570 43.0444 0.0000 0.0000 0.0000
# 3 16.0810 43.0444 221.2589 0.0000 0.0000 0.0000
# 4 0.0000 0.0000 0.0000 47.1190 0.0000 0.0000
# 5 0.0000 0.0000 0.0000 0.0000 14.4080 0.0000
# 6 0.0000 0.0000 0.0000 0.0000 0.0000 57.8681
#
#
#
# Elastic Compliance Matrix: (Units=1/GPa)
#
#
# Indices 1 2 3 4 5 6 
#
# 1 0.025530 -0.006019 -0.000685 0.000000 0.000000 0.000000
# 2 -0.006019 0.005892 -0.000709 0.000000 0.000000 0.000000
# 3 -0.000685 -0.000709 0.004707 0.000000 0.000000 0.000000
# 4 0.000000 0.000000 0.000000 0.021223 0.000000 0.000000
# 5 0.000000 0.000000 0.000000 0.000000 0.069406 0.000000
# 6 0.000000 0.000000 0.000000 0.000000 0.000000 0.017281
#
#
# Mechanical properties :
#
#
# Convention : Reuss Voigt Hill
#
# Bulk Modulus (GPa) = 46.93821 81.76778 64.35300
# Shear Modulus (GPa) = 30.12701 49.94680 40.03691
#
# Velocity S-wave (km/s) = 3.39311 4.36892 3.91157
# Velocity P-wave (km/s) = 5.76964 7.52981 6.70771
#
# Compressibility (1/GPa) = 0.02130460
#
# Stress axis : x y z
#
# Youngs Moduli (GPa) = 39.16947 169.73382 212.43941
#
# Poissons Ratio (x) = 1.02160 0.14543
# Poissons Ratio (y) = 0.23575 0.15056
# Poissons Ratio (z) = 0.02682 0.12029
#
# Static dielectric constant tensor:
#      x y z
#    x 4.877240 0.000000 0.000000 
#    y 0.000000 5.817920 0.000000 
#    z 0.000000 0.000000 4.087660 
# 
# 
# High freq. dielectric constant tensor:
#      x y z
#    x 2.075090 0.000000 0.000000 
#    y 0.000000 2.112060 0.000000 
#    z 0.000000 0.000000 2.053570 
# 
# From -- ./inp_files/19157.got.cif
#   From: 2010.03.12/outbox.cif.g09.slc.cpg/sg55_10_cif.got.tgz:19157.got - 2010.04.16 15:19:21.
