data_PCOD8224524
_publ_section_title
;
Structure prediction by ZEFSAII (Michael W. Deem and Ramdas Pophale) SiO2 
 PCOD8224524
Probable space group: P B A M
;
_chemical_formula_sum "Si O2"
_cell_formula_units_Z 64
_cell_length_a 30.219535
_cell_length_b 14.407532
_cell_length_c 8.928053
_cell_angle_alpha 90.000000
_cell_angle_beta 90.000000
_cell_angle_gamma 90.000000
_cell_volume 3887.175331
_symmetry_space_group_name_H-M "P B A M"
_symmetry_group_IT_number 55
_symmetry_cell_setting 'orthorhombic'
loop_
_space_group_symop_operation_xyz
x,y,z
-x,-y,z
1/2+x,1/2-y,-z
1/2-x,1/2+y,-z
-x,-y,-z
x,y,-z
1/2-x,1/2+y,z
1/2+x,1/2-y,z
loop_
_atom_site_type_symbol
_atom_site_label
_atom_site_fract_x
_atom_site_fract_y
_atom_site_fract_z
Si Si1 0.636532 0.813049 0.176263
Si Si2 0.451689 0.102109 0.822468
Si Si3 0.450107 0.891144 0.822556
Si Si4 0.133371 0.327142 0.676331
Si Si5 0.703716 0.662265 0.822203
Si Si6 0.824303 0.481269 0.666728
Si Si7 0.277184 0.522635 0.330842
Si Si8 0.789028 0.781384 0.822413
O O1 0.586753 0.829256 0.241579
O O2 0.660328 0.719590 0.233022
O O3 0.667518 0.898829 0.218721
O O4 0.634201 0.809911 0.000000
O O5 0.500060 0.138107 0.772812
O O6 0.442498 0.997133 0.766746
O O7 0.450402 0.099009 0.000000
O O8 0.416707 0.820913 0.738995
O O9 0.443386 0.881895 0.000000
O O10 0.134460 0.308452 0.500000
O O11 0.149560 0.429052 0.721865
O O12 0.164593 0.253112 0.756396
O O13 0.697249 0.562850 0.745249
O O14 0.748068 0.716714 0.769009
O O15 0.704860 0.649334 0.000000
O O16 0.839389 0.451045 0.500000
O O17 0.773369 0.508540 0.668117
O O18 0.294751 0.538352 0.500000
O O19 0.282743 0.614933 0.235442
O O20 0.791899 0.782929 0.000000
#
# Coordination Sequence:
#
# PCOD8224524 Si02
#       8
#     8   8   8   8   8   8   8   8
#     4  10  18  31  50  72  97 131 169 206 242 287
#     4   8  15  27  47  72  99 128 164 205 250 294
#     4   9  16  29  48  71  97 131 167 204 247 296
#     4  11  21  33  47  71 102 136 171 203 245 298
#     4  10  21  33  49  73  98 127 166 205 243 286
#     4  10  20  30  44  68  99 132 165 201 241 287
#     4  11  22  36  51  68  98 135 167 205 247 289
#     4  11  22  35  52  74  98 129 169 211 246 287
#
# _framework density 16.464397999999999
#
# number of rings (size 3 to 8) (size 9 to 14) (size 15 to 20)
#    0.000    2.000    3.750    1.875    0.000    2.000 
#    0.000    1.875    0.000    0.000    0.000    0.875 
#    0.000    7.000    0.000    0.000    0.000    0.000 
#
# Total GULP energy -793356.745757 kJ/mol
# GULP energy per Si atom -12396.199152 kJ/mol
# Density = 1.642692 g / cm^3
# Si number density = 16.464398 Si / 1000 Ang^3
#
#
#
# Elastic Constant Matrix: (Units=GPa)
#
#
# Indices 1 2 3 4 5 6 
#
# 1 99.8059 34.8871 31.4479 0.0000 0.0000 0.0000
# 2 34.8871 74.8779 30.3692 0.0000 0.0000 0.0000
# 3 31.4479 30.3692 43.7558 0.0000 0.0000 0.0000
# 4 0.0000 0.0000 0.0000 21.5128 0.0000 0.0000
# 5 0.0000 0.0000 0.0000 0.0000 16.1240 0.0000
# 6 0.0000 0.0000 0.0000 0.0000 0.0000 25.0972
#
#
#
# Elastic Compliance Matrix: (Units=1/GPa)
#
#
# Indices 1 2 3 4 5 6 
#
# 1 0.013507 -0.003279 -0.007432 0.000000 0.000000 0.000000
# 2 -0.003279 0.019383 -0.011097 0.000000 0.000000 0.000000
# 3 -0.007432 -0.011097 0.035897 0.000000 0.000000 0.000000
# 4 0.000000 0.000000 0.000000 0.046484 0.000000 0.000000
# 5 0.000000 0.000000 0.000000 0.000000 0.062019 0.000000
# 6 0.000000 0.000000 0.000000 0.000000 0.000000 0.039845
#
#
# Mechanical properties :
#
#
# Convention : Reuss Voigt Hill
#
# Bulk Modulus (GPa) = 39.72550 45.76088 42.74319
# Shear Modulus (GPa) = 18.57749 20.66251 19.62000
#
# Velocity S-wave (km/s) = 3.36273 3.54641 3.45579
# Velocity P-wave (km/s) = 6.26560 6.68009 6.47616
#
# Compressibility (1/GPa) = 0.02517275
#
# Stress axis : x y z
#
# Youngs Moduli (GPa) = 74.03339 51.59049 27.85717
#
# Poissons Ratio (x) = 0.16917 0.20704
# Poissons Ratio (y) = 0.24276 0.30912
# Poissons Ratio (z) = 0.55023 0.57248
#
# Static dielectric constant tensor:
#      x y z
#    x 3.437620 0.000000 0.000000 
#    y 0.000000 2.939700 0.000000 
#    z 0.000000 0.000000 3.002160 
# 
# 
# High freq. dielectric constant tensor:
#      x y z
#    x 1.630790 0.000000 0.000000 
#    y 0.000000 1.605700 0.000000 
#    z 0.000000 0.000000 1.627150 
# 
# From -- ./inp_files/6912.got.cif
#   From: 2010.03.12/outbox.cif.g09.slc.cpg/sg55_4_cif.got.tgz:6912.got - 2010.04.16 15:19:21.
