data_PCOD8224659
_publ_section_title
;
Structure prediction by ZEFSAII (Michael W. Deem and Ramdas Pophale) SiO2 
 PCOD8224659
Probable space group: P B A M
;
_chemical_formula_sum "Si O2"
_cell_formula_units_Z 56
_cell_length_a 20.101989
_cell_length_b 15.127161
_cell_length_c 9.091302
_cell_angle_alpha 90.000000
_cell_angle_beta 90.000000
_cell_angle_gamma 90.000000
_cell_volume 2764.537878
_symmetry_space_group_name_H-M "P B A M"
_symmetry_group_IT_number 55
_symmetry_cell_setting 'orthorhombic'
loop_
_space_group_symop_operation_xyz
x,y,z
-x,-y,z
1/2+x,1/2-y,-z
1/2-x,1/2+y,-z
-x,-y,-z
x,y,-z
1/2-x,1/2+y,z
1/2+x,1/2-y,z
loop_
_atom_site_type_symbol
_atom_site_label
_atom_site_fract_x
_atom_site_fract_y
_atom_site_fract_z
Si Si1 0.363997 0.338456 0.671687
Si Si2 0.139435 0.498295 0.170381
Si Si3 0.579102 0.812666 0.169300
Si Si4 0.069407 0.323105 0.172554
Si Si5 0.278621 0.504900 0.674863
Si Si6 0.991887 0.899730 0.341771
Si Si7 0.867932 0.855191 0.170447
O O1 0.351384 0.324795 0.500000
O O2 0.361052 0.243023 0.751895
O O3 0.314490 0.414638 0.732044
O O4 0.438164 0.365115 0.714856
O O5 0.095034 0.584600 0.190657
O O6 0.096072 0.416467 0.231992
O O7 0.203972 0.504118 0.270743
O O8 0.160304 0.484637 0.000000
O O9 0.504066 0.798405 0.238032
O O10 0.581051 0.784614 0.000000
O O11 0.126157 0.249554 0.208961
O O12 0.057732 0.331436 0.000000
O O13 0.282675 0.509615 0.500000
O O14 0.312683 0.594267 0.735338
O O15 0.970474 0.854810 0.500000
O O16 0.940393 0.891384 0.209563
O O17 0.000000 0.000000 0.380973
O O18 0.852082 0.871341 0.000000
#
# Coordination Sequence:
#
# PCOD8224659 Si02
#       7
#     8   8   8   8   8   8   8
#     4  10  21  36  57  84 117 155 191 232 285 345
#     4  10  22  41  62  83 113 154 197 239 286 340
#     4  10  20  37  63  91 115 145 189 244 296 339
#     4   9  19  37  61  89 117 146 186 238 293 345
#     4  11  24  42  58  80 119 161 196 229 283 349
#     4  10  18  33  54  80 117 156 190 230 287 344
#     4  11  21  34  58  91 120 146 188 238 289 343
#
# _framework density 20.256551000000002
#
# number of rings (size 3 to 8) (size 9 to 14) (size 15 to 20)
#    0.000    1.857    2.857    1.286    0.000    4.857 
#    0.000    6.429    0.000    1.714    0.000    0.000 
#    0.000    0.000    0.000    0.000    0.000    0.000 
#
# Total GULP energy -693970.428233 kJ/mol
# GULP energy per Si atom -12392.329076 kJ/mol
# Density = 2.021045 g / cm^3
# Si number density = 20.256551 Si / 1000 Ang^3
#
#
#
# Elastic Constant Matrix: (Units=GPa)
#
#
# Indices 1 2 3 4 5 6 
#
# 1 79.3013 28.0064 26.6429 0.0000 0.0000 0.0000
# 2 28.0064 106.3600 35.4452 0.0000 0.0000 0.0000
# 3 26.6429 35.4452 55.6785 0.0000 0.0000 0.0000
# 4 0.0000 0.0000 0.0000 19.1681 0.0000 0.0000
# 5 0.0000 0.0000 0.0000 0.0000 30.6600 0.0000
# 6 0.0000 0.0000 0.0000 0.0000 0.0000 18.6208
#
#
#
# Elastic Compliance Matrix: (Units=1/GPa)
#
#
# Indices 1 2 3 4 5 6 
#
# 1 0.015362 -0.002025 -0.006062 0.000000 0.000000 0.000000
# 2 -0.002025 0.012201 -0.006798 0.000000 0.000000 0.000000
# 3 -0.006062 -0.006798 0.025189 0.000000 0.000000 0.000000
# 4 0.000000 0.000000 0.000000 0.052170 0.000000 0.000000
# 5 0.000000 0.000000 0.000000 0.000000 0.032616 0.000000
# 6 0.000000 0.000000 0.000000 0.000000 0.000000 0.053703
#
#
# Mechanical properties :
#
#
# Convention : Reuss Voigt Hill
#
# Bulk Modulus (GPa) = 43.51306 46.83653 45.17479
# Shear Modulus (GPa) = 21.86552 23.77280 22.81916
#
# Velocity S-wave (km/s) = 3.28903 3.42948 3.35999
# Velocity P-wave (km/s) = 5.99594 6.23327 6.11575
#
# Compressibility (1/GPa) = 0.02298161
#
# Stress axis : x y z
#
# Youngs Moduli (GPa) = 65.09643 81.96224 39.70047
#
# Poissons Ratio (x) = 0.16597 0.24066
# Poissons Ratio (y) = 0.13181 0.26989
# Poissons Ratio (z) = 0.39460 0.55719
#
# Static dielectric constant tensor:
#      x y z
#    x 3.553580 0.000000 0.000000 
#    y 0.000000 4.029670 0.000000 
#    z 0.000000 0.000000 3.553280 
# 
# 
# High freq. dielectric constant tensor:
#      x y z
#    x 1.778750 0.000000 0.000000 
#    y 0.000000 1.806210 0.000000 
#    z 0.000000 0.000000 1.772090 
# 
# From -- ./inp_files/8716.got.cif
#   From: 2010.03.12/outbox.cif.g09.slc.cpg/sg55_5_cif.got.tgz:8716.got - 2010.04.16 15:19:21.
