data_PCOD8224233
_publ_section_title
;
Structure prediction by ZEFSAII (Michael W. Deem and Ramdas Pophale) SiO2 
 PCOD8224233
Probable space group: P B A M
;
_chemical_formula_sum "Si O2"
_cell_formula_units_Z 40
_cell_length_a 5.357515
_cell_length_b 15.260917
_cell_length_c 22.079644
_cell_angle_alpha 90.000000
_cell_angle_beta 90.000000
_cell_angle_gamma 90.000000
_cell_volume 1805.244759
_symmetry_space_group_name_H-M "P B A M"
_symmetry_group_IT_number 55
_symmetry_cell_setting 'orthorhombic'
loop_
_space_group_symop_operation_xyz
x,y,z
-x,-y,z
1/2+x,1/2-y,-z
1/2-x,1/2+y,-z
-x,-y,-z
x,y,-z
1/2-x,1/2+y,z
1/2+x,1/2-y,z
loop_
_atom_site_type_symbol
_atom_site_label
_atom_site_fract_x
_atom_site_fract_y
_atom_site_fract_z
Si Si1 0.250108 0.592698 0.262077
Si Si2 0.250144 0.591932 0.120381
Si Si3 0.753903 0.694351 0.432165
Si Si4 0.250141 0.899238 0.312070
Si Si5 0.749863 0.102311 0.070625
O O1 0.250485 0.572197 0.191272
O O2 0.250007 0.502161 0.299034
O O3 0.501664 0.644481 0.281726
O O4 0.998292 0.644453 0.281547
O O5 0.500490 0.644577 0.100793
O O6 0.250005 0.501204 0.083662
O O7 0.999645 0.644554 0.100880
O O8 0.751999 0.654457 0.500000
O O9 0.506483 0.751420 0.421651
O O10 0.750606 0.615352 0.384163
O O11 0.749597 0.122251 0.000000
#
# Coordination Sequence:
#
# PCOD8224233 Si02
#       5
#     8   8   8   8   8
#     4  10  19  30  47  71  96 127 160 188 234 286
#     4  10  16  25  36  53  84 118 157 187 219 269
#     4  10  21  37  55  73  94 123 157 192 234 281
#     4  10  18  32  49  70  95 120 157 195 225 281
#     4  10  16  22  33  51  77 118 167 192 210 251
#
# _framework density 22.157661000000001
#
# number of rings (size 3 to 8) (size 9 to 14) (size 15 to 20)
#    0.000    2.000    0.000   10.200    0.000    0.000 
#    0.000    4.000    0.000    0.000    0.000    0.000 
#    0.000    0.000    0.000    0.000    0.000 1926.000 
#
# Total GULP energy -495633.256492 kJ/mol
# GULP energy per Si atom -12390.831412 kJ/mol
# Density = 2.210723 g / cm^3
# Si number density = 22.157661 Si / 1000 Ang^3
#
#
#
# Elastic Constant Matrix: (Units=GPa)
#
#
# Indices 1 2 3 4 5 6 
#
# 1 343.0306 27.7919 119.6012 0.0000 0.0000 0.0000
# 2 27.7919 22.2199 51.3605 0.0000 0.0000 0.0000
# 3 119.6012 51.3605 230.4710 0.0000 0.0000 0.0000
# 4 0.0000 0.0000 0.0000 -1.8093 0.0000 0.0000
# 5 0.0000 0.0000 0.0000 0.0000 49.1893 0.0000
# 6 0.0000 0.0000 0.0000 0.0000 0.0000 1.7105
#
#
#
# Elastic Compliance Matrix: (Units=1/GPa)
#
#
# Indices 1 2 3 4 5 6 
#
# 1 0.003561 -0.000376 -0.001764 0.000000 0.000000 0.000000
# 2 -0.000376 0.092854 -0.020497 0.000000 0.000000 0.000000
# 3 -0.001764 -0.020497 0.009822 0.000000 0.000000 0.000000
# 4 0.000000 0.000000 0.000000 -0.552687 0.000000 0.000000
# 5 0.000000 0.000000 0.000000 0.000000 0.020330 0.000000
# 6 0.000000 0.000000 0.000000 0.000000 0.000000 0.584625
#
#
# Mechanical properties :
#
#
# Convention : Reuss Voigt Hill
#
# Bulk Modulus (GPa) = 16.40366 110.35874 63.38120
# Shear Modulus (GPa) = 22.31139 36.28262 29.29700
#
# Velocity S-wave (km/s) = 3.17667 4.05096 3.64016
# Velocity P-wave (km/s) = 4.56883 8.47317 6.80694
#
# Compressibility (1/GPa) = 0.06096201
#
# Stress axis : x y z
#
# Youngs Moduli (GPa) = 280.84407 10.76956 101.81079
#
# Poissons Ratio (x) = 0.00405 0.17959
# Poissons Ratio (y) = 0.10569 2.08685
# Poissons Ratio (z) = 0.49539 0.22075
#
# Static dielectric constant tensor:
#      x y z
#    x 6.754970 0.000000 0.000000 
#    y 0.000000 2.969220 0.000000 
#    z 0.000000 0.000000 3.979900 
# 
# 
# High freq. dielectric constant tensor:
#      x y z
#    x 1.928050 0.000000 0.000000 
#    y 0.000000 1.778560 0.000000 
#    z 0.000000 0.000000 1.880770 
# 
# From -- ./inp_files/20343.got.cif
#   From: 2010.03.12/outbox.cif.g09.slc.cpg/sg55_11_cif.got.tgz:20343.got - 2010.04.16 15:19:21.
