data_PCOD8224083
_publ_section_title
;
Structure prediction by ZEFSAII (Michael W. Deem and Ramdas Pophale) SiO2 
 PCOD8224083
Probable space group: P C C A
;
_chemical_formula_sum "Si O2"
_cell_formula_units_Z 28
_cell_length_a 11.361827
_cell_length_b 7.885451
_cell_length_c 13.889661
_cell_angle_alpha 90.000000
_cell_angle_beta 90.000000
_cell_angle_gamma 90.000000
_cell_volume 1244.418205
_symmetry_space_group_name_H-M "P C C A"
_symmetry_group_IT_number 54
_symmetry_cell_setting 'orthorhombic'
loop_
_space_group_symop_operation_xyz
x,y,z
1/2-x,-y,z
1/2+x,-y,1/2-z
-x,y,1/2-z
-x,-y,-z
1/2+x,y,-z
1/2-x,y,1/2+z
x,-y,1/2+z
loop_
_atom_site_type_symbol
_atom_site_label
_atom_site_fract_x
_atom_site_fract_y
_atom_site_fract_z
Si Si1 0.561752 0.903937 0.152996
Si Si2 0.680807 0.240195 0.146695
Si Si3 0.916897 0.645451 0.958646
Si Si4 0.250000 0.500000 0.700560
O O1 0.500000 0.844165 0.250000
O O2 0.694561 0.845487 0.156746
O O3 0.491800 0.816618 0.064615
O O4 0.570053 0.109042 0.149062
O O5 0.671015 0.376280 0.232622
O O6 0.678536 0.323286 0.041448
O O7 0.153852 0.595484 0.636610
O O8 0.000000 0.500000 0.000000
#
# Coordination Sequence:
#
# PCOD8224083 Si02
#       4
#     8   8   8   4
#     4  11  24  49  71 103 146 192 239 305 374 439
#     4  11  26  46  72 105 144 189 250 298 369 453
#     4  12  26  44  75 107 145 194 248 307 373 443
#     4  12  24  46  72 106 150 190 248 306 368 450
#
# _framework density 22.500475999999999
#
# number of rings (size 3 to 8) (size 9 to 14) (size 15 to 20)
#    0.000    0.571    2.857    5.143    4.000    0.000 
#   10.286    0.000    0.000    0.000    0.000    0.000 
#    0.000    0.000    0.000    0.000    0.000    0.000 
#
# Total GULP energy -347121.113731 kJ/mol
# GULP energy per Si atom -12397.182633 kJ/mol
# Density = 2.244926 g / cm^3
# Si number density = 22.500476 Si / 1000 Ang^3
#
#
#
# Elastic Constant Matrix: (Units=GPa)
#
#
# Indices 1 2 3 4 5 6 
#
# 1 92.9840 52.3135 58.5388 0.0000 0.0000 0.0000
# 2 52.3135 145.0559 76.8549 0.0000 0.0000 0.0000
# 3 58.5388 76.8549 175.5906 0.0000 0.0000 0.0000
# 4 0.0000 0.0000 0.0000 39.0479 0.0000 0.0000
# 5 0.0000 0.0000 0.0000 0.0000 45.5465 0.0000
# 6 0.0000 0.0000 0.0000 0.0000 0.0000 38.4517
#
#
#
# Elastic Compliance Matrix: (Units=1/GPa)
#
#
# Indices 1 2 3 4 5 6 
#
# 1 0.014909 -0.003572 -0.003407 0.000000 0.000000 0.000000
# 2 -0.003572 0.009831 -0.003112 0.000000 0.000000 0.000000
# 3 -0.003407 -0.003112 0.008193 0.000000 0.000000 0.000000
# 4 0.000000 0.000000 0.000000 0.025610 0.000000 0.000000
# 5 0.000000 0.000000 0.000000 0.000000 0.021956 0.000000
# 6 0.000000 0.000000 0.000000 0.000000 0.000000 0.026007
#
#
# Mechanical properties :
#
#
# Convention : Reuss Voigt Hill
#
# Bulk Modulus (GPa) = 78.42463 87.67166 83.04815
# Shear Modulus (GPa) = 38.18629 39.67077 38.92853
#
# Velocity S-wave (km/s) = 4.12410 4.20349 4.16398
# Velocity P-wave (km/s) = 7.58999 7.91253 7.75293
#
# Compressibility (1/GPa) = 0.01275110
#
# Stress axis : x y z
#
# Youngs Moduli (GPa) = 67.07393 101.71975 122.05351
#
# Poissons Ratio (x) = 0.36331 0.41585
# Poissons Ratio (y) = 0.23956 0.37986
# Poissons Ratio (z) = 0.22853 0.31657
#
# Static dielectric constant tensor:
#      x y z
#    x -1.894410 0.000000 0.000000 
#    y 0.000000 4.791030 0.000000 
#    z 0.000000 0.000000 3.831620 
# 
# 
# High freq. dielectric constant tensor:
#      x y z
#    x 1.886480 0.000000 0.000000 
#    y 0.000000 1.897910 0.000000 
#    z 0.000000 0.000000 1.899650 
# 
# From -- ./inp_files/12051.got.cif
#   From: 2010.03.12/outbox.cif.g09.slc.cpg/sg54_7_cif.got.tgz:12051.got - 2010.04.16 15:00:50.
