data_PCOD8224231
_publ_section_title
;
Structure prediction by ZEFSAII (Michael W. Deem and Ramdas Pophale) SiO2 
 PCOD8224231
Probable space group: P B A M
;
_chemical_formula_sum "Si O2"
_cell_formula_units_Z 40
_cell_length_a 29.685668
_cell_length_b 7.970822
_cell_length_c 7.927630
_cell_angle_alpha 90.000000
_cell_angle_beta 90.000000
_cell_angle_gamma 90.000000
_cell_volume 1875.829275
_symmetry_space_group_name_H-M "P B A M"
_symmetry_group_IT_number 55
_symmetry_cell_setting 'orthorhombic'
loop_
_space_group_symop_operation_xyz
x,y,z
-x,-y,z
1/2+x,1/2-y,-z
1/2-x,1/2+y,-z
-x,-y,-z
x,y,-z
1/2-x,1/2+y,z
1/2+x,1/2-y,z
loop_
_atom_site_type_symbol
_atom_site_label
_atom_site_fract_x
_atom_site_fract_y
_atom_site_fract_z
Si Si1 0.641524 0.805939 0.814990
Si Si2 0.301927 0.192306 0.500000
Si Si3 0.045596 0.336511 0.807399
Si Si4 0.642680 0.206628 0.187099
Si Si5 0.699287 0.203946 0.500000
Si Si6 0.953169 0.298283 0.310541
O O1 0.674205 0.734514 0.668433
O O2 0.590869 0.734829 0.790259
O O3 0.641108 0.006155 0.807362
O O4 0.658653 0.745551 0.000000
O O5 0.250741 0.246541 0.500000
O O6 0.306024 0.993837 0.500000
O O7 0.091411 0.229298 0.775931
O O8 0.045745 0.499474 0.689221
O O9 0.000375 0.228491 0.767763
O O10 0.044847 0.400137 0.000000
O O11 0.675827 0.279009 0.331056
O O12 0.658748 0.266944 0.000000
O O13 0.948564 0.232693 0.500000
#
# Coordination Sequence:
#
# PCOD8224231 Si02
#       6
#     8   4   8   8   4   8
#     4   9  16  28  42  59  88 117 148 181 220 268
#     4  10  20  34  47  71  83 121 148 192 227 270
#     4   9  15  21  31  52  83 118 149 172 211 262
#     4   8  16  27  41  61  85 118 148 179 219 266
#     4  10  20  32  51  63  93 111 154 188 231 262
#     4  10  15  19  32  55  83 116 149 173 211 262
#
# _framework density 21.323902
#
# number of rings (size 3 to 8) (size 9 to 14) (size 15 to 20)
#    0.000    2.800    1.000    4.800    5.600    0.800 
#    0.000    0.000    0.000    0.000    0.000    0.000 
#    0.000    3.200    0.000    6.400    0.000    4.000 
#
# Total GULP energy -495590.229043 kJ/mol
# GULP energy per Si atom -12389.755726 kJ/mol
# Density = 2.127537 g / cm^3
# Si number density = 21.323902 Si / 1000 Ang^3
#
#
#
# Elastic Constant Matrix: (Units=GPa)
#
#
# Indices 1 2 3 4 5 6 
#
# 1 199.7617 -1.5497 105.9967 0.0000 0.0000 0.0000
# 2 -1.5497 3.3823 2.3972 0.0000 0.0000 0.0000
# 3 105.9967 2.3972 195.3454 0.0000 0.0000 0.0000
# 4 0.0000 0.0000 0.0000 2.1691 0.0000 0.0000
# 5 0.0000 0.0000 0.0000 0.0000 34.6525 0.0000
# 6 0.0000 0.0000 0.0000 0.0000 0.0000 24.0974
#
#
#
# Elastic Compliance Matrix: (Units=1/GPa)
#
#
# Indices 1 2 3 4 5 6 
#
# 1 0.007152 0.006080 -0.003955 0.000000 0.000000 0.000000
# 2 0.006080 0.303418 -0.007023 0.000000 0.000000 0.000000
# 3 -0.003955 -0.007023 0.007352 0.000000 0.000000 0.000000
# 4 0.000000 0.000000 0.000000 0.461022 0.000000 0.000000
# 5 0.000000 0.000000 0.000000 0.000000 0.028858 0.000000
# 6 0.000000 0.000000 0.000000 0.000000 0.000000 0.041498
#
#
# Mechanical properties :
#
#
# Convention : Reuss Voigt Hill
#
# Bulk Modulus (GPa) = 3.24542 68.01974 35.63258
# Shear Modulus (GPa) = 5.19857 31.62682 18.41269
#
# Velocity S-wave (km/s) = 1.56307 3.85536 2.94169
# Velocity P-wave (km/s) = 2.18698 7.19625 5.31831
#
# Compressibility (1/GPa) = 0.30812612
#
# Stress axis : x y z
#
# Youngs Moduli (GPa) = 139.82334 3.29578 136.02653
#
# Poissons Ratio (x) = -0.02004 0.53803
# Poissons Ratio (y) = -0.85015 0.95525
# Poissons Ratio (z) = 0.55304 0.02314
#
# Static dielectric constant tensor:
#      x y z
#    x 1.374220 0.000000 0.000000 
#    y 0.000000 2.842520 0.000000 
#    z 0.000000 0.000000 4.167270 
# 
# 
# High freq. dielectric constant tensor:
#      x y z
#    x 1.846110 0.000000 0.000000 
#    y 0.000000 1.734450 0.000000 
#    z 0.000000 0.000000 1.853480 
# 
# From -- ./inp_files/3658.got.cif
#   From: 2010.03.12/outbox.cif.g09.slc.cpg/sg55_2_cif.got.tgz:3658.got - 2010.04.16 15:19:21.
