data_PCOD8224335
_publ_section_title
;
Structure prediction by ZEFSAII (Michael W. Deem and Ramdas Pophale) SiO2 
 PCOD8224335
Probable space group: P B A M
;
_chemical_formula_sum "Si O2"
_cell_formula_units_Z 64
_cell_length_a 19.147703
_cell_length_b 19.003152
_cell_length_c 8.820177
_cell_angle_alpha 90.000000
_cell_angle_beta 90.000000
_cell_angle_gamma 90.000000
_cell_volume 3209.368792
_symmetry_space_group_name_H-M "P B A M"
_symmetry_group_IT_number 55
_symmetry_cell_setting 'orthorhombic'
loop_
_space_group_symop_operation_xyz
x,y,z
-x,-y,z
1/2+x,1/2-y,-z
1/2-x,1/2+y,-z
-x,-y,-z
x,y,-z
1/2-x,1/2+y,z
1/2+x,1/2-y,z
loop_
_atom_site_type_symbol
_atom_site_label
_atom_site_fract_x
_atom_site_fract_y
_atom_site_fract_z
Si Si1 0.132146 0.336094 0.821533
Si Si2 0.801932 0.530653 0.680720
Si Si3 0.608788 0.394438 0.324289
Si Si4 0.537871 0.654891 0.324989
Si Si5 0.279890 0.701716 0.178841
Si Si6 0.513717 0.811766 0.326452
Si Si7 0.656699 0.875791 0.678276
Si Si8 0.648592 0.550327 0.675100
O O1 0.146114 0.410408 0.742296
O O2 0.186148 0.275662 0.763010
O O3 0.052727 0.316281 0.781837
O O4 0.138645 0.344960 0.000000
O O5 0.804076 0.530961 0.500000
O O6 0.823639 0.453256 0.739544
O O7 0.725310 0.547388 0.749308
O O8 0.619081 0.372763 0.500000
O O9 0.536833 0.365433 0.253513
O O10 0.671875 0.362544 0.229844
O O11 0.607890 0.477743 0.303045
O O12 0.534213 0.631410 0.500000
O O13 0.551481 0.736873 0.304157
O O14 0.601500 0.611547 0.247719
O O15 0.203067 0.686077 0.245702
O O16 0.274358 0.703318 0.000000
O O17 0.488474 0.821631 0.500000
O O18 0.574506 0.866690 0.282744
O O19 0.669899 0.869131 0.500000
O O20 0.660742 0.567762 0.500000
#
# Coordination Sequence:
#
# PCOD8224335 Si02
#       8
#     8   8   8   8   8   8   8   8
#     4  11  25  42  59  83 118 157 199 238 284 346
#     4  10  21  38  61  87 117 151 192 245 298 344
#     4  10  17  32  58  84 116 151 190 238 287 343
#     4   9  17  29  52  87 117 147 187 235 289 343
#     4  11  23  38  58  84 118 158 194 233 283 346
#     4  10  21  38  62  88 113 145 192 246 294 342
#     4  10  22  40  63  92 118 146 192 247 297 346
#     4   9  17  30  52  88 121 147 184 236 292 344
#
# _framework density 19.941616
#
# number of rings (size 3 to 8) (size 9 to 14) (size 15 to 20)
#    0.000    2.000    2.500    1.125    1.750    4.500 
#    0.000    2.500    0.000    3.000    0.000    0.000 
#    0.000    0.000    0.000    0.000    0.000    0.000 
#
# Total GULP energy -793516.432118 kJ/mol
# GULP energy per Si atom -12398.694252 kJ/mol
# Density = 1.989623 g / cm^3
# Si number density = 19.941616 Si / 1000 Ang^3
#
#
#
# Elastic Constant Matrix: (Units=GPa)
#
#
# Indices 1 2 3 4 5 6 
#
# 1 92.7251 45.3216 20.4039 0.0000 0.0000 0.0000
# 2 45.3216 92.6421 21.5223 0.0000 0.0000 0.0000
# 3 20.4039 21.5223 31.6091 0.0000 0.0000 0.0000
# 4 0.0000 0.0000 0.0000 15.5902 0.0000 0.0000
# 5 0.0000 0.0000 0.0000 0.0000 17.7022 0.0000
# 6 0.0000 0.0000 0.0000 0.0000 0.0000 37.9139
#
#
#
# Elastic Compliance Matrix: (Units=1/GPa)
#
#
# Indices 1 2 3 4 5 6 
#
# 1 0.014950 -0.006025 -0.005548 0.000000 0.000000 0.000000
# 2 -0.006025 0.015251 -0.006495 0.000000 0.000000 0.000000
# 3 -0.005548 -0.006495 0.039640 0.000000 0.000000 0.000000
# 4 0.000000 0.000000 0.000000 0.064143 0.000000 0.000000
# 5 0.000000 0.000000 0.000000 0.000000 0.056490 0.000000
# 6 0.000000 0.000000 0.000000 0.000000 0.000000 0.026376
#
#
# Mechanical properties :
#
#
# Convention : Reuss Voigt Hill
#
# Bulk Modulus (GPa) = 29.66913 43.49687 36.58300
# Shear Modulus (GPa) = 18.92360 22.88983 20.90671
#
# Velocity S-wave (km/s) = 3.08385 3.39166 3.24141
# Velocity P-wave (km/s) = 5.25266 6.09895 5.69156
#
# Compressibility (1/GPa) = 0.03370507
#
# Stress axis : x y z
#
# Youngs Moduli (GPa) = 66.88854 65.57160 25.22698
#
# Poissons Ratio (x) = 0.39506 0.13997
# Poissons Ratio (y) = 0.40300 0.16384
# Poissons Ratio (z) = 0.37111 0.42587
#
# Static dielectric constant tensor:
#      x y z
#    x 3.823180 0.000000 0.000000 
#    y 0.000000 3.722950 0.000000 
#    z 0.000000 0.000000 3.216670 
# 
# 
# High freq. dielectric constant tensor:
#      x y z
#    x 1.789160 0.000000 0.000000 
#    y 0.000000 1.784920 0.000000 
#    z 0.000000 0.000000 1.731450 
# 
# From -- ./inp_files/8068.got.cif
#   From: 2010.03.12/outbox.cif.g09.slc.cpg/sg55_5_cif.got.tgz:8068.got - 2010.04.16 15:19:21.
