data_PCOD8224069
_publ_section_title
;
Structure prediction by ZEFSAII (Michael W. Deem and Ramdas Pophale) SiO2 
 PCOD8224069
Probable space group: P C C A
;
_chemical_formula_sum "Si O2"
_cell_formula_units_Z 24
_cell_length_a 13.695677
_cell_length_b 8.360758
_cell_length_c 8.152362
_cell_angle_alpha 90.000000
_cell_angle_beta 90.000000
_cell_angle_gamma 90.000000
_cell_volume 933.496328
_symmetry_space_group_name_H-M "P C C A"
_symmetry_group_IT_number 54
_symmetry_cell_setting 'orthorhombic'
loop_
_space_group_symop_operation_xyz
x,y,z
1/2-x,-y,z
1/2+x,-y,1/2-z
-x,y,1/2-z
-x,-y,-z
1/2+x,y,-z
1/2-x,y,1/2+z
x,-y,1/2+z
loop_
_atom_site_type_symbol
_atom_site_label
_atom_site_fract_x
_atom_site_fract_y
_atom_site_fract_z
Si Si1 0.564366 0.199145 0.405463
Si Si2 0.721527 0.677767 0.103510
Si Si3 0.121948 0.846445 0.593569
O O1 0.500000 0.248985 0.250000
O O2 0.648496 0.330176 0.444379
O O3 0.492408 0.188723 0.562015
O O4 0.627585 0.037092 0.381379
O O5 0.750000 0.500000 0.153954
O O6 0.660110 0.758118 0.246892
O O7 0.816304 0.786076 0.064599
#
# Coordination Sequence:
#
# PCOD8224069 Si02
#       3
#     8   8   8
#     4  11  24  46  76 105 140 191 248 298 347 422
#     4  12  26  46  74 110 151 190 233 299 372 431
#     4  11  24  45  74 107 145 193 245 295 351 424
#
# _framework density 25.709796000000001
#
# number of rings (size 3 to 8) (size 9 to 14) (size 15 to 20)
#    0.000    0.667    0.000    9.000    0.000    4.000 
#    0.000    6.667    0.000    0.000    0.000    0.000 
#    0.000    0.000    0.000    0.000    0.000    0.000 
#
# Total GULP energy -297645.078063 kJ/mol
# GULP energy per Si atom -12401.878253 kJ/mol
# Density = 2.565128 g / cm^3
# Si number density = 25.709796 Si / 1000 Ang^3
#
#
#
# Elastic Constant Matrix: (Units=GPa)
#
#
# Indices 1 2 3 4 5 6 
#
# 1 130.3932 85.1195 44.3897 0.0000 0.0000 0.0000
# 2 85.1195 102.8004 65.6224 0.0000 0.0000 0.0000
# 3 44.3897 65.6224 75.9930 0.0000 0.0000 0.0000
# 4 0.0000 0.0000 0.0000 18.9381 0.0000 0.0000
# 5 0.0000 0.0000 0.0000 0.0000 62.8534 0.0000
# 6 0.0000 0.0000 0.0000 0.0000 0.0000 30.8979
#
#
#
# Elastic Compliance Matrix: (Units=1/GPa)
#
#
# Indices 1 2 3 4 5 6 
#
# 1 0.017540 -0.017789 0.005116 0.000000 0.000000 0.000000
# 2 -0.017789 0.039717 -0.023906 0.000000 0.000000 0.000000
# 3 0.005116 -0.023906 0.030815 0.000000 0.000000 0.000000
# 4 0.000000 0.000000 0.000000 0.052804 0.000000 0.000000
# 5 0.000000 0.000000 0.000000 0.000000 0.015910 0.000000
# 6 0.000000 0.000000 0.000000 0.000000 0.000000 0.032365
#
#
# Mechanical properties :
#
#
# Convention : Reuss Voigt Hill
#
# Bulk Modulus (GPa) = 67.05482 77.71665 72.38573
# Shear Modulus (GPa) = 18.70695 30.14156 24.42425
#
# Velocity S-wave (km/s) = 2.70037 3.42771 3.08555
# Velocity P-wave (km/s) = 5.98838 6.77936 6.39611
#
# Compressibility (1/GPa) = 0.01491317
#
# Stress axis : x y z
#
# Youngs Moduli (GPa) = 57.01287 25.17795 32.45188
#
# Poissons Ratio (x) = 0.44788 -0.16601
# Poissons Ratio (y) = 1.01418 0.77580
# Poissons Ratio (z) = -0.29165 0.60191
#
# Static dielectric constant tensor:
#      x y z
#    x 5.225150 0.000000 0.000000 
#    y 0.000000 4.228080 0.000000 
#    z 0.000000 0.000000 4.779810 
# 
# 
# High freq. dielectric constant tensor:
#      x y z
#    x 2.064090 0.000000 0.000000 
#    y 0.000000 1.991200 0.000000 
#    z 0.000000 0.000000 2.044450 
# 
# From -- ./inp_files/3134.got.cif
#   From: 2010.03.12/outbox.cif.g09.slc.cpg/sg54_2_cif.got.tgz:3134.got - 2010.04.16 15:00:50.
