data_PCOD8224939
_publ_section_title
;
Structure prediction by ZEFSAII (Michael W. Deem and Ramdas Pophale) SiO2 
 PCOD8224939
Probable space group: P B A M
;
_chemical_formula_sum "Si O2"
_cell_formula_units_Z 48
_cell_length_a 18.554368
_cell_length_b 10.106420
_cell_length_c 13.234430
_cell_angle_alpha 90.000000
_cell_angle_beta 90.000000
_cell_angle_gamma 90.000000
_cell_volume 2481.696966
_symmetry_space_group_name_H-M "P B A M"
_symmetry_group_IT_number 55
_symmetry_cell_setting 'orthorhombic'
loop_
_space_group_symop_operation_xyz
x,y,z
-x,-y,z
1/2+x,1/2-y,-z
1/2-x,1/2+y,-z
-x,-y,-z
x,y,-z
1/2-x,1/2+y,z
1/2+x,1/2-y,z
loop_
_atom_site_type_symbol
_atom_site_label
_atom_site_fract_x
_atom_site_fract_y
_atom_site_fract_z
Si Si1 0.408722 0.620719 0.794343
Si Si2 0.686020 0.160718 0.116991
Si Si3 0.425551 0.049341 0.885153
Si Si4 0.711254 0.686705 0.301131
Si Si5 0.802553 0.912118 0.385090
Si Si6 0.429143 0.327405 0.801967
O O1 0.367990 0.714552 0.873346
O O2 0.369899 0.619646 0.686370
O O3 0.410554 0.474040 0.845423
O O4 0.487947 0.675018 0.768370
O O5 0.755602 0.180767 0.187514
O O6 0.644132 0.029216 0.157876
O O7 0.711101 0.149441 0.000000
O O8 0.415854 0.207631 0.880165
O O9 0.500000 0.000000 0.831373
O O10 0.429604 0.002467 0.000000
O O11 0.738944 0.808591 0.365835
O O12 0.731313 0.554933 0.362061
O O13 0.624442 0.699865 0.292163
O O14 0.829331 0.903352 0.500000
#
# Coordination Sequence:
#
# PCOD8224939 Si02
#       6
#     8   8   8   8   8   8
#     4   9  20  35  55  78 107 139 180 223 272 320
#     4  10  20  36  54  78 112 147 180 222 268 317
#     4  10  19  31  51  76 102 142 188 218 255 310
#     4  10  21  36  57  83 110 142 180 222 273 327
#     4  10  20  38  59  81 107 140 179 225 277 327
#     4  10  19  35  52  77 109 139 178 226 269 317
#
# _framework density 19.341604
#
# number of rings (size 3 to 8) (size 9 to 14) (size 15 to 20)
#    0.000    2.167    1.667    1.500    0.000    1.333 
#    0.000   19.167    0.000    0.000    0.000    5.833 
#    0.000    0.000    0.000    0.000    0.000    0.000 
#
# Total GULP energy -594939.005233 kJ/mol
# GULP energy per Si atom -12394.562609 kJ/mol
# Density = 1.929758 g / cm^3
# Si number density = 19.341604 Si / 1000 Ang^3
#
#
#
# Elastic Constant Matrix: (Units=GPa)
#
#
# Indices 1 2 3 4 5 6 
#
# 1 63.1388 17.5402 7.2415 0.0000 0.0000 0.0000
# 2 17.5402 112.8591 17.0414 0.0000 0.0000 0.0000
# 3 7.2415 17.0414 72.9630 0.0000 0.0000 0.0000
# 4 0.0000 0.0000 0.0000 15.1543 0.0000 0.0000
# 5 0.0000 0.0000 0.0000 0.0000 10.7252 0.0000
# 6 0.0000 0.0000 0.0000 0.0000 0.0000 28.5555
#
#
#
# Elastic Compliance Matrix: (Units=1/GPa)
#
#
# Indices 1 2 3 4 5 6 
#
# 1 0.016635 -0.002421 -0.001085 0.000000 0.000000 0.000000
# 2 -0.002421 0.009537 -0.001987 0.000000 0.000000 0.000000
# 3 -0.001085 -0.001987 0.014277 0.000000 0.000000 0.000000
# 4 0.000000 0.000000 0.000000 0.065988 0.000000 0.000000
# 5 0.000000 0.000000 0.000000 0.000000 0.093238 0.000000
# 6 0.000000 0.000000 0.000000 0.000000 0.000000 0.035020
#
#
# Mechanical properties :
#
#
# Convention : Reuss Voigt Hill
#
# Bulk Modulus (GPa) = 33.94259 36.95634 35.44946
# Shear Modulus (GPa) = 19.56918 24.69621 22.13270
#
# Velocity S-wave (km/s) = 3.18428 3.57717 3.38643
# Velocity P-wave (km/s) = 5.57733 6.01749 5.80159
#
# Compressibility (1/GPa) = 0.02946151
#
# Stress axis : x y z
#
# Youngs Moduli (GPa) = 60.11313 104.85475 70.04065
#
# Poissons Ratio (x) = 0.25391 0.07603
# Poissons Ratio (y) = 0.14556 0.13918
# Poissons Ratio (z) = 0.06525 0.20836
#
# Static dielectric constant tensor:
#      x y z
#    x 3.666650 0.000000 0.000000 
#    y 0.000000 3.843580 0.000000 
#    z 0.000000 0.000000 3.069320 
# 
# 
# High freq. dielectric constant tensor:
#      x y z
#    x 1.759110 0.000000 0.000000 
#    y 0.000000 1.775520 0.000000 
#    z 0.000000 0.000000 1.705180 
# 
# From -- ./inp_files/19336.got.cif
#   From: 2010.03.12/outbox.cif.g09.slc.cpg/sg55_10_cif.got.tgz:19336.got - 2010.04.16 15:19:21.
