data_PCOD8224628
_publ_section_title
;
Structure prediction by ZEFSAII (Michael W. Deem and Ramdas Pophale) SiO2 
 PCOD8224628
Probable space group: P B A M
;
_chemical_formula_sum "Si O2"
_cell_formula_units_Z 48
_cell_length_a 14.928795
_cell_length_b 19.783005
_cell_length_c 8.988094
_cell_angle_alpha 90.000000
_cell_angle_beta 90.000000
_cell_angle_gamma 90.000000
_cell_volume 2654.511560
_symmetry_space_group_name_H-M "P B A M"
_symmetry_group_IT_number 55
_symmetry_cell_setting 'orthorhombic'
loop_
_space_group_symop_operation_xyz
x,y,z
-x,-y,z
1/2+x,1/2-y,-z
1/2-x,1/2+y,-z
-x,-y,-z
x,y,-z
1/2-x,1/2+y,z
1/2+x,1/2-y,z
loop_
_atom_site_type_symbol
_atom_site_label
_atom_site_fract_x
_atom_site_fract_y
_atom_site_fract_z
Si Si1 0.062007 0.065074 0.330501
Si Si2 0.186056 0.831016 0.673488
Si Si3 0.388842 0.805749 0.326953
Si Si4 0.776361 0.020112 0.323326
Si Si5 0.509448 0.695678 0.824819
Si Si6 0.582326 0.041858 0.323283
O O1 0.065453 0.092456 0.500000
O O2 0.026517 0.122815 0.224001
O O3 0.160778 0.042054 0.273873
O O4 0.000000 0.000000 0.321375
O O5 0.161991 0.829136 0.500000
O O6 0.282654 0.797196 0.702908
O O7 0.186133 0.908009 0.734943
O O8 0.108537 0.790336 0.759442
O O9 0.410053 0.793686 0.500000
O O10 0.440971 0.752159 0.229223
O O11 0.421966 0.879874 0.275969
O O12 0.775063 0.026375 0.500000
O O13 0.675179 0.008677 0.264165
O O14 0.515426 0.698397 0.000000
O O15 0.579504 0.036966 0.500000
O O16 0.500000 0.000000 0.252064
#
# Coordination Sequence:
#
# PCOD8224628 Si02
#       6
#     8   8   8   8   8   8
#     4  10  18  32  55  78 104 137 180 228 268 315
#     4   9  17  35  59  77  97 136 188 228 265 312
#     4   9  19  36  58  80 105 140 184 227 265 319
#     4   8  14  27  50  77 102 130 166 219 271 310
#     4  12  24  35  51  77 115 149 177 220 274 337
#     4   8  14  28  53  83 108 127 163 222 276 316
#
# _framework density 18.082424
#
# number of rings (size 3 to 8) (size 9 to 14) (size 15 to 20)
#    0.000    2.667    1.667    3.500    0.000    1.000 
#    3.000    0.000    0.000    0.500    0.000    0.000 
#    0.000    0.000    0.000    0.000    0.000    0.000 
#
# Total GULP energy -594978.890886 kJ/mol
# GULP energy per Si atom -12395.393560 kJ/mol
# Density = 1.804127 g / cm^3
# Si number density = 18.082424 Si / 1000 Ang^3
#
#
#
# Elastic Constant Matrix: (Units=GPa)
#
#
# Indices 1 2 3 4 5 6 
#
# 1 147.8198 61.2791 53.0663 0.0000 0.0000 0.0000
# 2 61.2791 70.3751 35.8825 0.0000 0.0000 0.0000
# 3 53.0663 35.8825 71.8780 0.0000 0.0000 0.0000
# 4 0.0000 0.0000 0.0000 8.2060 0.0000 0.0000
# 5 0.0000 0.0000 0.0000 0.0000 8.4835 0.0000
# 6 0.0000 0.0000 0.0000 0.0000 0.0000 28.6095
#
#
#
# Elastic Compliance Matrix: (Units=1/GPa)
#
#
# Indices 1 2 3 4 5 6 
#
# 1 0.011686 -0.007749 -0.004759 0.000000 0.000000 0.000000
# 2 -0.007749 0.024200 -0.006360 0.000000 0.000000 0.000000
# 3 -0.004759 -0.006360 0.020601 0.000000 0.000000 0.000000
# 4 0.000000 0.000000 0.000000 0.121862 0.000000 0.000000
# 5 0.000000 0.000000 0.000000 0.000000 0.117876 0.000000
# 6 0.000000 0.000000 0.000000 0.000000 0.000000 0.034953
#
#
# Mechanical properties :
#
#
# Convention : Reuss Voigt Hill
#
# Bulk Modulus (GPa) = 53.33148 65.61431 59.47290
# Shear Modulus (GPa) = 13.32751 18.38279 15.85515
#
# Velocity S-wave (km/s) = 2.71780 3.19189 2.96434
# Velocity P-wave (km/s) = 6.27743 7.06748 6.68414
#
# Compressibility (1/GPa) = 0.01875065
#
# Stress axis : x y z
#
# Youngs Moduli (GPa) = 85.57396 41.32282 48.54131
#
# Poissons Ratio (x) = 0.32021 0.23101
# Poissons Ratio (y) = 0.66310 0.30872
# Poissons Ratio (z) = 0.40725 0.26281
#
# Static dielectric constant tensor:
#      x y z
#    x 4.086460 0.000000 0.000000 
#    y 0.000000 3.287950 0.000000 
#    z 0.000000 0.000000 2.886980 
# 
# 
# High freq. dielectric constant tensor:
#      x y z
#    x 1.719810 0.000000 0.000000 
#    y 0.000000 1.684260 0.000000 
#    z 0.000000 0.000000 1.651740 
# 
# From -- ./inp_files/5820.got.cif
#   From: 2010.03.12/outbox.cif.g09.slc.cpg/sg55_3_cif.got.tgz:5820.got - 2010.04.16 15:19:21.
