data_PCOD8224914
_publ_section_title
;
Structure prediction by ZEFSAII (Michael W. Deem and Ramdas Pophale) SiO2 
 PCOD8224914
Probable space group: P B A M
;
_chemical_formula_sum "Si O2"
_cell_formula_units_Z 48
_cell_length_a 25.400384
_cell_length_b 9.680851
_cell_length_c 10.627885
_cell_angle_alpha 90.000000
_cell_angle_beta 90.000000
_cell_angle_gamma 90.000000
_cell_volume 2613.368575
_symmetry_space_group_name_H-M "P B A M"
_symmetry_group_IT_number 55
_symmetry_cell_setting 'orthorhombic'
loop_
_space_group_symop_operation_xyz
x,y,z
-x,-y,z
1/2+x,1/2-y,-z
1/2-x,1/2+y,-z
-x,-y,-z
x,y,-z
1/2-x,1/2+y,z
1/2+x,1/2-y,z
loop_
_atom_site_type_symbol
_atom_site_label
_atom_site_fract_x
_atom_site_fract_y
_atom_site_fract_z
Si Si1 0.682300 0.177201 0.358990
Si Si2 0.398452 0.340755 0.351090
Si Si3 0.709901 0.004719 0.138632
Si Si4 0.083272 0.143331 0.354702
Si Si5 0.285576 0.289498 0.235691
Si Si6 0.994802 0.344847 0.350533
O O1 0.673927 0.115517 0.500000
O O2 0.642300 0.301893 0.334482
O O3 0.741966 0.235584 0.346371
O O4 0.671944 0.059532 0.252208
O O5 0.391187 0.348921 0.500000
O O6 0.419841 0.488267 0.298716
O O7 0.342719 0.308596 0.291399
O O8 0.438837 0.220453 0.311252
O O9 0.715607 0.841219 0.144172
O O10 0.767452 0.076473 0.155546
O O11 0.687403 0.042940 0.000000
O O12 0.068083 0.133841 0.500000
O O13 0.040941 0.247809 0.292189
O O14 0.000468 0.352075 0.500000
O O15 0.000000 0.500000 0.294507
#
# Coordination Sequence:
#
# PCOD8224914 Si02
#       6
#     8   8   8   8   8   8
#     4   9  20  33  54  81 111 141 177 227 278 324
#     4  10  19  31  49  77 111 147 185 228 278 330
#     4  10  22  38  55  76 110 148 184 221 270 332
#     4   9  17  32  49  73 109 149 184 224 276 332
#     4  10  21  34  54  78 108 139 185 222 278 328
#     4   9  18  29  46  71 108 152 190 224 272 333
#
# _framework density 18.367099
#
# number of rings (size 3 to 8) (size 9 to 14) (size 15 to 20)
#    1.000    1.500    0.000    2.500    2.333    3.333 
#    0.000    0.000    0.000    0.000    0.000    3.500 
#    0.000    8.000    0.000    0.000    0.000    0.000 
#
# Total GULP energy -594684.997751 kJ/mol
# GULP energy per Si atom -12389.270786 kJ/mol
# Density = 1.832529 g / cm^3
# Si number density = 18.367099 Si / 1000 Ang^3
#
#
#
# Elastic Constant Matrix: (Units=GPa)
#
#
# Indices 1 2 3 4 5 6 
#
# 1 101.5386 62.1552 21.2952 0.0000 0.0000 0.0000
# 2 62.1552 147.9908 27.5694 0.0000 0.0000 0.0000
# 3 21.2952 27.5694 74.1368 0.0000 0.0000 0.0000
# 4 0.0000 0.0000 0.0000 17.1361 0.0000 0.0000
# 5 0.0000 0.0000 0.0000 0.0000 6.5712 0.0000
# 6 0.0000 0.0000 0.0000 0.0000 0.0000 27.9566
#
#
#
# Elastic Compliance Matrix: (Units=1/GPa)
#
#
# Indices 1 2 3 4 5 6 
#
# 1 0.013502 -0.005316 -0.001901 0.000000 0.000000 0.000000
# 2 -0.005316 0.009354 -0.001951 0.000000 0.000000 0.000000
# 3 -0.001901 -0.001951 0.014760 0.000000 0.000000 0.000000
# 4 0.000000 0.000000 0.000000 0.058356 0.000000 0.000000
# 5 0.000000 0.000000 0.000000 0.000000 0.152179 0.000000
# 6 0.000000 0.000000 0.000000 0.000000 0.000000 0.035770
#
#
# Mechanical properties :
#
#
# Convention : Reuss Voigt Hill
#
# Bulk Modulus (GPa) = 51.87329 60.63396 56.25363
# Shear Modulus (GPa) = 16.19780 24.50920 20.35350
#
# Velocity S-wave (km/s) = 2.97289 3.65692 3.33250
# Velocity P-wave (km/s) = 6.33150 7.13545 6.74546
#
# Compressibility (1/GPa) = 0.01927774
#
# Stress axis : x y z
#
# Youngs Moduli (GPa) = 74.06563 106.91164 67.74932
#
# Poissons Ratio (x) = 0.56838 0.12881
# Poissons Ratio (y) = 0.39376 0.13219
# Poissons Ratio (z) = 0.14081 0.20861
#
# Static dielectric constant tensor:
#      x y z
#    x 3.291750 0.000000 0.000000 
#    y 0.000000 3.585950 0.000000 
#    z 0.000000 0.000000 2.924040 
# 
# 
# High freq. dielectric constant tensor:
#      x y z
#    x 1.705690 0.000000 0.000000 
#    y 0.000000 1.724510 0.000000 
#    z 0.000000 0.000000 1.652350 
# 
# From -- ./inp_files/15894.got.cif
#   From: 2010.03.12/outbox.cif.g09.slc.cpg/sg55_8_cif.got.tgz:15894.got - 2010.04.16 15:19:21.
