data_PCOD8224527
_publ_section_title
;
Structure prediction by ZEFSAII (Michael W. Deem and Ramdas Pophale) SiO2 
 PCOD8224527
Probable space group: P B A M
;
_chemical_formula_sum "Si O2"
_cell_formula_units_Z 48
_cell_length_a 14.959819
_cell_length_b 20.251346
_cell_length_c 8.820346
_cell_angle_alpha 90.000000
_cell_angle_beta 90.000000
_cell_angle_gamma 90.000000
_cell_volume 2672.180894
_symmetry_space_group_name_H-M "P B A M"
_symmetry_group_IT_number 55
_symmetry_cell_setting 'orthorhombic'
loop_
_space_group_symop_operation_xyz
x,y,z
-x,-y,z
1/2+x,1/2-y,-z
1/2-x,1/2+y,-z
-x,-y,-z
x,y,-z
1/2-x,1/2+y,z
1/2+x,1/2-y,z
loop_
_atom_site_type_symbol
_atom_site_label
_atom_site_fract_x
_atom_site_fract_y
_atom_site_fract_z
Si Si1 0.806843 0.343920 0.677676
Si Si2 0.270589 0.018142 0.821109
Si Si3 0.111930 0.186380 0.678155
Si Si4 0.086970 0.039123 0.320117
Si Si5 0.998840 0.306282 0.320786
Si Si6 0.572802 0.054290 0.679070
O O1 0.808591 0.362381 0.500000
O O2 0.810202 0.412326 0.766561
O O3 0.716954 0.303215 0.718559
O O4 0.893797 0.301043 0.723390
O O5 0.172549 0.004569 0.753931
O O6 0.334264 0.959901 0.762615
O O7 0.265240 0.017065 0.000000
O O8 0.097405 0.188822 0.500000
O O9 0.079701 0.114890 0.737901
O O10 0.052638 0.244635 0.753510
O O11 0.098725 0.036473 0.500000
O O12 0.000000 0.000000 0.264858
O O13 0.009796 0.304533 0.500000
O O14 0.039331 0.374845 0.260600
O O15 0.589076 0.053777 0.500000
O O16 0.500000 0.000000 0.726443
#
# Coordination Sequence:
#
# PCOD8224527 Si02
#       6
#     8   8   8   8   8   8
#     4   9  16  31  52  70  97 133 169 205 251 302
#     4  11  21  32  50  75 103 134 170 209 254 304
#     4   8  15  28  48  76 101 124 162 209 252 296
#     4   9  18  35  57  79 102 131 169 211 254 301
#     4   9  16  28  48  74 100 129 165 209 257 298
#     4  10  18  31  51  74 100 132 170 210 256 301
#
# _framework density 17.962854
#
# number of rings (size 3 to 8) (size 9 to 14) (size 15 to 20)
#    0.000    2.667    1.667    2.500    0.000    0.667 
#    3.000    0.000    0.000    8.000    0.000    0.000 
#    0.000    0.000    0.000    0.000    0.000    0.000 
#
# Total GULP energy -595047.010608 kJ/mol
# GULP energy per Si atom -12396.812721 kJ/mol
# Density = 1.792197 g / cm^3
# Si number density = 17.962854 Si / 1000 Ang^3
#
#
#
# Elastic Constant Matrix: (Units=GPa)
#
#
# Indices 1 2 3 4 5 6 
#
# 1 182.1722 95.5057 33.1244 0.0000 0.0000 0.0000
# 2 95.5057 113.2000 18.5178 0.0000 0.0000 0.0000
# 3 33.1244 18.5178 36.0042 0.0000 0.0000 0.0000
# 4 0.0000 0.0000 0.0000 5.7537 0.0000 0.0000
# 5 0.0000 0.0000 0.0000 0.0000 7.3390 0.0000
# 6 0.0000 0.0000 0.0000 0.0000 0.0000 36.8918
#
#
#
# Elastic Compliance Matrix: (Units=1/GPa)
#
#
# Indices 1 2 3 4 5 6 
#
# 1 0.010833 -0.008200 -0.005750 0.000000 0.000000 0.000000
# 2 -0.008200 0.015851 -0.000609 0.000000 0.000000 0.000000
# 3 -0.005750 -0.000609 0.033378 0.000000 0.000000 0.000000
# 4 0.000000 0.000000 0.000000 0.173800 0.000000 0.000000
# 5 0.000000 0.000000 0.000000 0.000000 0.136259 0.000000
# 6 0.000000 0.000000 0.000000 0.000000 0.000000 0.027106
#
#
# Mechanical properties :
#
#
# Convention : Reuss Voigt Hill
#
# Bulk Modulus (GPa) = 32.31451 69.51913 50.91682
# Shear Modulus (GPa) = 11.45057 22.27880 16.86468
#
# Velocity S-wave (km/s) = 2.52753 3.52557 3.06741
# Velocity P-wave (km/s) = 5.15234 7.44033 6.39942
#
# Compressibility (1/GPa) = 0.03094585
#
# Stress axis : x y z
#
# Youngs Moduli (GPa) = 92.30653 63.08584 29.96017
#
# Poissons Ratio (x) = 0.51727 0.17226
# Poissons Ratio (y) = 0.75687 0.01825
# Poissons Ratio (z) = 0.53074 0.03842
#
# Static dielectric constant tensor:
#      x y z
#    x 3.608060 0.000000 0.000000 
#    y 0.000000 3.473120 0.000000 
#    z 0.000000 0.000000 2.856560 
# 
# 
# High freq. dielectric constant tensor:
#      x y z
#    x 1.709960 0.000000 0.000000 
#    y 0.000000 1.680420 0.000000 
#    z 0.000000 0.000000 1.649770 
# 
# From -- ./inp_files/5798.got.cif
#   From: 2010.03.12/outbox.cif.g09.slc.cpg/sg55_3_cif.got.tgz:5798.got - 2010.04.16 15:19:21.
