data_PCOD8224838
_publ_section_title
;
Structure prediction by ZEFSAII (Michael W. Deem and Ramdas Pophale) SiO2 
 PCOD8224838
Probable space group: P B A M
;
_chemical_formula_sum "Si O2"
_cell_formula_units_Z 64
_cell_length_a 5.098006
_cell_length_b 35.333673
_cell_length_c 17.904000
_cell_angle_alpha 90.000000
_cell_angle_beta 90.000000
_cell_angle_gamma 90.000000
_cell_volume 3225.070383
_symmetry_space_group_name_H-M "P B A M"
_symmetry_group_IT_number 55
_symmetry_cell_setting 'orthorhombic'
loop_
_space_group_symop_operation_xyz
x,y,z
-x,-y,z
1/2+x,1/2-y,-z
1/2-x,1/2+y,-z
-x,-y,-z
x,y,-z
1/2-x,1/2+y,z
1/2+x,1/2-y,z
loop_
_atom_site_type_symbol
_atom_site_label
_atom_site_fract_x
_atom_site_fract_y
_atom_site_fract_z
Si Si1 0.462878 0.578105 0.238987
Si Si2 0.947996 0.648313 0.084072
Si Si3 0.476365 0.724246 0.586964
Si Si4 0.526415 0.891854 0.415470
Si Si5 0.975358 0.142844 0.350224
Si Si6 0.564315 0.396799 0.084415
Si Si7 0.550705 0.770974 0.089182
Si Si8 0.966384 0.544011 0.308704
O O1 0.475349 0.622104 0.269340
O O2 0.523123 0.574696 0.149823
O O3 0.674662 0.551983 0.279579
O O4 0.177062 0.560312 0.250509
O O5 0.644729 0.637199 0.085981
O O6 0.151267 0.617109 0.114767
O O7 0.984559 0.688295 0.125530
O O8 0.049049 0.653902 0.000000
O O9 0.483901 0.710491 0.500000
O O10 0.715897 0.752160 0.604032
O O11 0.484117 0.688254 0.643831
O O12 0.438176 0.891327 0.500000
O O13 0.821441 0.876547 0.407291
O O14 0.509444 0.934950 0.387282
O O15 0.325919 0.864953 0.371115
O O16 0.572920 0.414761 0.000000
O O17 0.333698 0.741516 0.118702
O O18 0.531759 0.772253 0.000000
O O19 0.000000 0.500000 0.322804
#
# Coordination Sequence:
#
# PCOD8224838 Si02
#       8
#     8   8   8   8   8   8   8   8
#     4  10  21  37  58  80 103 142 179 212 268 322
#     4   9  17  28  45  70  95 121 156 208 267 308
#     4  10  19  30  48  74 103 138 179 224 269 304
#     4  10  19  32  54  82 111 145 180 215 256 300
#     4  10  20  34  52  76 109 145 184 224 262 314
#     4  10  19  33  54  77  99 124 168 226 269 313
#     4   9  15  23  37  58  87 121 152 185 238 310
#     4  10  21  37  57  82 112 143 174 208 252 314
#
# _framework density 19.844526999999999
#
# number of rings (size 3 to 8) (size 9 to 14) (size 15 to 20)
#    0.000    2.250    0.000    3.750    0.000    4.250 
#    0.000    0.000    0.000   11.250    0.000    0.000 
#    0.000    0.000    0.000    0.000    0.000    0.000 
#
# Total GULP energy -793087.091436 kJ/mol
# GULP energy per Si atom -12391.985804 kJ/mol
# Density = 1.979936 g / cm^3
# Si number density = 19.844527 Si / 1000 Ang^3
#
#
#
# Elastic Constant Matrix: (Units=GPa)
#
#
# Indices 1 2 3 4 5 6 
#
# 1 86.5061 8.4422 7.0670 0.0000 0.0000 0.0000
# 2 8.4422 87.4148 16.7759 0.0000 0.0000 0.0000
# 3 7.0670 16.7759 61.4569 0.0000 0.0000 0.0000
# 4 0.0000 0.0000 0.0000 10.9907 0.0000 0.0000
# 5 0.0000 0.0000 0.0000 0.0000 11.9358 0.0000
# 6 0.0000 0.0000 0.0000 0.0000 0.0000 22.7391
#
#
#
# Elastic Compliance Matrix: (Units=1/GPa)
#
#
# Indices 1 2 3 4 5 6 
#
# 1 0.011740 -0.000923 -0.001098 0.000000 0.000000 0.000000
# 2 -0.000923 0.012145 -0.003209 0.000000 0.000000 0.000000
# 3 -0.001098 -0.003209 0.017274 0.000000 0.000000 0.000000
# 4 0.000000 0.000000 0.000000 0.090986 0.000000 0.000000
# 5 0.000000 0.000000 0.000000 0.000000 0.083782 0.000000
# 6 0.000000 0.000000 0.000000 0.000000 0.000000 0.043977
#
#
# Mechanical properties :
#
#
# Convention : Reuss Voigt Hill
#
# Bulk Modulus (GPa) = 32.57539 33.32759 32.95149
# Shear Modulus (GPa) = 17.81921 22.67262 20.24592
#
# Velocity S-wave (km/s) = 2.99982 3.38377 3.19756
# Velocity P-wave (km/s) = 5.33380 5.66545 5.50213
#
# Compressibility (1/GPa) = 0.03069802
#
# Stress axis : x y z
#
# Youngs Moduli (GPa) = 85.18138 82.34041 57.89122
#
# Poissons Ratio (x) = 0.07601 0.06356
# Poissons Ratio (y) = 0.07863 0.18577
# Poissons Ratio (z) = 0.09353 0.26423
#
# Static dielectric constant tensor:
#      x y z
#    x 3.761130 0.000000 0.000000 
#    y 0.000000 3.432780 0.000000 
#    z 0.000000 0.000000 3.380270 
# 
# 
# High freq. dielectric constant tensor:
#      x y z
#    x 1.798570 0.000000 0.000000 
#    y 0.000000 1.749870 0.000000 
#    z 0.000000 0.000000 1.738510 
# 
# From -- ./inp_files/20565.got.cif
#   From: 2010.03.12/outbox.cif.g09.slc.cpg/sg55_11_cif.got.tgz:20565.got - 2010.04.16 15:19:21.
