data_PCOD8224637
_publ_section_title
;
Structure prediction by ZEFSAII (Michael W. Deem and Ramdas Pophale) SiO2 
 PCOD8224637
Probable space group: P B A M
;
_chemical_formula_sum "Si O2"
_cell_formula_units_Z 64
_cell_length_a 10.702493
_cell_length_b 17.913405
_cell_length_c 17.222853
_cell_angle_alpha 90.000000
_cell_angle_beta 90.000000
_cell_angle_gamma 90.000000
_cell_volume 3301.932509
_symmetry_space_group_name_H-M "P B A M"
_symmetry_group_IT_number 55
_symmetry_cell_setting 'orthorhombic'
loop_
_space_group_symop_operation_xyz
x,y,z
-x,-y,z
1/2+x,1/2-y,-z
1/2-x,1/2+y,-z
-x,-y,-z
x,y,-z
1/2-x,1/2+y,z
1/2+x,1/2-y,z
loop_
_atom_site_type_symbol
_atom_site_label
_atom_site_fract_x
_atom_site_fract_y
_atom_site_fract_z
Si Si1 0.108967 0.441114 0.584987
Si Si2 0.386260 0.102877 0.771808
Si Si3 0.165364 0.442408 0.749056
Si Si4 0.726905 0.826211 0.911037
Si Si5 0.979840 0.915172 0.089480
Si Si6 0.185137 0.820747 0.829591
Si Si7 0.680782 0.764122 0.673988
Si Si8 0.434958 0.772067 0.585463
O O1 0.171183 0.459722 0.500000
O O2 0.208393 0.441348 0.657355
O O3 0.048133 0.360196 0.579794
O O4 0.000000 0.500000 0.603917
O O5 0.524909 0.087045 0.744634
O O6 0.384201 0.144456 0.855353
O O7 0.320572 0.150641 0.703865
O O8 0.313689 0.025112 0.781361
O O9 0.228755 0.391233 0.812793
O O10 0.755057 0.740602 0.884296
O O11 0.840557 0.883685 0.899178
O O12 0.681563 0.825882 0.000000
O O13 0.061954 0.852730 0.131030
O O14 0.019451 0.916401 0.000000
O O15 0.000000 0.000000 0.122902
O O16 0.150423 0.787282 0.746989
O O17 0.568555 0.742616 0.615853
O O18 0.817629 0.749472 0.639265
O O19 0.412079 0.737272 0.500000
#
# Coordination Sequence:
#
# PCOD8224637 Si02
#       8
#     8   8   8   8   8   8   8   8
#     4  10  18  32  55  82 117 156 198 241 287 349
#     4  10  21  35  63  83 123 149 195 245 300 356
#     4  11  19  39  55  93 116 156 197 249 295 359
#     4  10  23  40  59  85 117 154 195 247 304 362
#     4  10  22  41  60  82 114 156 201 239 290 364
#     4  11  23  34  61  86 117 148 199 242 303 353
#     4  11  21  37  58  90 120 156 199 249 300 362
#     4  11  22  37  57  86 120 159 199 250 304 357
#
# _framework density 19.382587999999998
#
# number of rings (size 3 to 8) (size 9 to 14) (size 15 to 20)
#    0.000    1.500    3.750    1.500    7.000    0.000 
#    0.000    3.125    0.000    0.000    0.000    0.875 
#    0.000    0.000    0.000    0.000    0.000    0.000 
#
# Total GULP energy -792999.003447 kJ/mol
# GULP energy per Si atom -12390.609429 kJ/mol
# Density = 1.933847 g / cm^3
# Si number density = 19.382588 Si / 1000 Ang^3
#
#
#
# Elastic Constant Matrix: (Units=GPa)
#
#
# Indices 1 2 3 4 5 6 
#
# 1 62.5479 35.8104 32.8879 0.0000 0.0000 0.0000
# 2 35.8104 95.6209 29.1482 0.0000 0.0000 0.0000
# 3 32.8879 29.1482 123.4823 0.0000 0.0000 0.0000
# 4 0.0000 0.0000 0.0000 23.8011 0.0000 0.0000
# 5 0.0000 0.0000 0.0000 0.0000 24.1504 0.0000
# 6 0.0000 0.0000 0.0000 0.0000 0.0000 29.7122
#
#
#
# Elastic Compliance Matrix: (Units=1/GPa)
#
#
# Indices 1 2 3 4 5 6 
#
# 1 0.022260 -0.007035 -0.004268 0.000000 0.000000 0.000000
# 2 -0.007035 0.013492 -0.001311 0.000000 0.000000 0.000000
# 3 -0.004268 -0.001311 0.009545 0.000000 0.000000 0.000000
# 4 0.000000 0.000000 0.000000 0.042015 0.000000 0.000000
# 5 0.000000 0.000000 0.000000 0.000000 0.041407 0.000000
# 6 0.000000 0.000000 0.000000 0.000000 0.000000 0.033656
#
#
# Mechanical properties :
#
#
# Convention : Reuss Voigt Hill
#
# Bulk Modulus (GPa) = 49.83079 53.03822 51.43450
# Shear Modulus (GPa) = 25.73431 27.78637 26.76034
#
# Velocity S-wave (km/s) = 3.64772 3.79036 3.71973
# Velocity P-wave (km/s) = 6.59591 6.82489 6.71137
#
# Compressibility (1/GPa) = 0.02006791
#
# Stress axis : x y z
#
# Youngs Moduli (GPa) = 44.92414 74.11579 104.77224
#
# Poissons Ratio (x) = 0.52143 0.44716
# Poissons Ratio (y) = 0.31606 0.13737
# Poissons Ratio (z) = 0.19173 0.09717
#
# Static dielectric constant tensor:
#      x y z
#    x 3.208420 0.000000 0.000000 
#    y 0.000000 3.855480 0.000000 
#    z 0.000000 0.000000 3.914420 
# 
# 
# High freq. dielectric constant tensor:
#      x y z
#    x 1.713480 0.000000 0.000000 
#    y 0.000000 1.769010 0.000000 
#    z 0.000000 0.000000 1.772710 
# 
# From -- ./inp_files/18590.got.cif
#   From: 2010.03.12/outbox.cif.g09.slc.cpg/sg55_10_cif.got.tgz:18590.got - 2010.04.16 15:19:21.
