data_PCOD8224780
_publ_section_title
;
Structure prediction by ZEFSAII (Michael W. Deem and Ramdas Pophale) SiO2 
 PCOD8224780
Probable space group: P B A M
;
_chemical_formula_sum "Si O2"
_cell_formula_units_Z 60
_cell_length_a 24.454696
_cell_length_b 5.018118
_cell_length_c 28.136539
_cell_angle_alpha 90.000000
_cell_angle_beta 90.000000
_cell_angle_gamma 90.000000
_cell_volume 3452.819000
_symmetry_space_group_name_H-M "P B A M"
_symmetry_group_IT_number 55
_symmetry_cell_setting 'orthorhombic'
loop_
_space_group_symop_operation_xyz
x,y,z
-x,-y,z
1/2+x,1/2-y,-z
1/2-x,1/2+y,-z
-x,-y,-z
x,y,-z
1/2-x,1/2+y,z
1/2+x,1/2-y,z
loop_
_atom_site_type_symbol
_atom_site_label
_atom_site_fract_x
_atom_site_fract_y
_atom_site_fract_z
Si Si1 0.788443 0.547272 0.333319
Si Si2 0.130108 0.527812 0.416274
Si Si3 0.441017 0.541785 0.054910
Si Si4 0.285998 0.912380 0.130132
Si Si5 0.563503 0.476713 0.444077
Si Si6 0.125688 0.554699 0.945055
Si Si7 0.213908 0.574088 0.500000
Si Si8 0.284621 0.038002 0.770285
O O1 0.742605 0.323562 0.342858
O O2 0.841962 0.523621 0.365700
O O3 0.813865 0.528848 0.279779
O O4 0.099463 0.809840 0.415528
O O5 0.178767 0.517916 0.453755
O O6 0.084061 0.312548 0.428805
O O7 0.500000 0.500000 0.079795
O O8 0.422987 0.843865 0.062087
O O9 0.396118 0.335896 0.075502
O O10 0.446518 0.460404 0.000000
O O11 0.266177 0.608428 0.127682
O O12 0.322941 0.964837 0.084993
O O13 0.317495 0.964498 0.180979
O O14 0.500000 0.500000 0.430205
O O15 0.572136 0.526465 0.500000
O O16 0.144509 0.568609 0.000000
O O17 0.265989 0.378603 0.500000
O O18 0.230256 0.850306 0.771439
#
# Coordination Sequence:
#
# PCOD8224780 Si02
#       8
#     8   8   8   8   8   8   4   8
#     4  10  19  33  51  75 102 126 155 193 233 287
#     4  12  21  35  52  75  98 131 161 192 240 284
#     4   9  17  30  46  64  88 118 154 198 238 274
#     4  10  19  31  46  67  96 129 160 191 227 275
#     4  11  22  38  54  71  95 128 171 211 231 261
#     4  10  19  29  44  68  94 123 157 193 235 286
#     4  12  22  32  45  70 105 132 148 174 224 290
#     4   8  16  30  48  67  91 123 160 196 227 264
#
# _framework density 17.377103999999999
#
# number of rings (size 3 to 8) (size 9 to 14) (size 15 to 20)
#    0.000    1.867    1.333    4.000    0.000    3.200 
#    0.000    0.000    0.000    0.000    0.000    5.600 
#    0.000    0.000    0.000    0.000    0.000    0.000 
#
# Total GULP energy -743768.836676 kJ/mol
# GULP energy per Si atom -12396.147278 kJ/mol
# Density = 1.733755 g / cm^3
# Si number density = 17.377104 Si / 1000 Ang^3
#
#
#
# Elastic Constant Matrix: (Units=GPa)
#
#
# Indices 1 2 3 4 5 6 
#
# 1 60.4063 4.2047 36.9757 0.0000 0.0000 0.0000
# 2 4.2047 64.6142 2.7984 0.0000 0.0000 0.0000
# 3 36.9757 2.7984 90.0437 0.0000 0.0000 0.0000
# 4 0.0000 0.0000 0.0000 19.9682 0.0000 0.0000
# 5 0.0000 0.0000 0.0000 0.0000 16.4999 0.0000
# 6 0.0000 0.0000 0.0000 0.0000 0.0000 29.1278
#
#
#
# Elastic Compliance Matrix: (Units=1/GPa)
#
#
# Indices 1 2 3 4 5 6 
#
# 1 0.022184 -0.001050 -0.009077 0.000000 0.000000 0.000000
# 2 -0.001050 0.015547 -0.000052 0.000000 0.000000 0.000000
# 3 -0.009077 -0.000052 0.014835 0.000000 0.000000 0.000000
# 4 0.000000 0.000000 0.000000 0.050080 0.000000 0.000000
# 5 0.000000 0.000000 0.000000 0.000000 0.060606 0.000000
# 6 0.000000 0.000000 0.000000 0.000000 0.000000 0.034331
#
#
# Mechanical properties :
#
#
# Convention : Reuss Voigt Hill
#
# Bulk Modulus (GPa) = 31.04903 33.66910 32.35907
# Shear Modulus (GPa) = 21.86489 24.52489 23.19489
#
# Velocity S-wave (km/s) = 3.55104 3.76085 3.65745
# Velocity P-wave (km/s) = 5.89235 6.18678 6.04136
#
# Compressibility (1/GPa) = 0.03220712
#
# Stress axis : x y z
#
# Youngs Moduli (GPa) = 45.07783 64.32079 67.40940
#
# Poissons Ratio (x) = 0.06757 0.61187
# Poissons Ratio (y) = 0.04735 0.00349
# Poissons Ratio (z) = 0.40917 0.00333
#
# Static dielectric constant tensor:
#      x y z
#    x 2.966430 0.000000 0.000000 
#    y 0.000000 3.463120 0.000000 
#    z 0.000000 0.000000 3.366710 
# 
# 
# High freq. dielectric constant tensor:
#      x y z
#    x 1.635570 0.000000 0.000000 
#    y 0.000000 1.698060 0.000000 
#    z 0.000000 0.000000 1.656950 
# 
# From -- ./inp_files/23703.got.cif
#   From: 2010.03.12/outbox.cif.g09.slc.cpg/sg55_12_cif.got.tgz:23703.got - 2010.04.16 15:19:21.
