data_PCOD8224749
_publ_section_title
;
Structure prediction by ZEFSAII (Michael W. Deem and Ramdas Pophale) SiO2 
 PCOD8224749
Probable space group: P B A M
;
_chemical_formula_sum "Si O2"
_cell_formula_units_Z 44
_cell_length_a 15.113156
_cell_length_b 14.821045
_cell_length_c 10.459526
_cell_angle_alpha 90.000000
_cell_angle_beta 90.000000
_cell_angle_gamma 90.000000
_cell_volume 2342.858151
_symmetry_space_group_name_H-M "P B A M"
_symmetry_group_IT_number 55
_symmetry_cell_setting 'orthorhombic'
loop_
_space_group_symop_operation_xyz
x,y,z
-x,-y,z
1/2+x,1/2-y,-z
1/2-x,1/2+y,-z
-x,-y,-z
x,y,-z
1/2-x,1/2+y,z
1/2+x,1/2-y,z
loop_
_atom_site_type_symbol
_atom_site_label
_atom_site_fract_x
_atom_site_fract_y
_atom_site_fract_z
Si Si1 0.321807 0.176324 0.500000
Si Si2 0.148420 0.059857 0.500000
Si Si3 0.371697 0.928613 0.000000
Si Si4 0.925959 0.375074 0.000000
Si Si5 0.198897 0.333212 0.753240
Si Si6 0.115563 0.736309 0.750313
Si Si7 0.558930 0.300806 0.644404
Si Si8 0.757672 0.116247 0.500000
O O1 0.245718 0.102808 0.500000
O O2 0.377160 0.165840 0.368971
O O3 0.286773 0.279515 0.500000
O O4 0.096281 0.096453 0.373423
O O5 0.157515 0.951614 0.500000
O O6 0.472064 0.898677 0.000000
O O7 0.323302 0.892332 0.875112
O O8 0.364672 0.036523 0.000000
O O9 0.905310 0.318596 0.124502
O O10 0.295822 0.292047 0.774408
O O11 0.126920 0.255174 0.731782
O O12 0.200593 0.399207 0.628741
O O13 0.035100 0.804209 0.715955
O O14 0.551851 0.258162 0.500000
#
# Coordination Sequence:
#
# PCOD8224749 Si02
#       8
#     4   4   4   4   8   8   8   4
#     4  10  19  36  58  88 118 151 206 244 301 363
#     4  10  19  35  60  97 121 159 196 261 305 367
#     4  11  25  40  54  87 129 152 201 273 303 365
#     4  11  25  38  60  89 114 163 216 238 323 373
#     4  11  21  40  58  85 125 163 198 260 307 357
#     4  11  20  38  62  86 114 166 203 245 301 378
#     4  10  18  35  60  90 120 152 203 252 299 357
#     4  10  20  35  63  90 119 158 204 240 312 370
#
# _framework density 18.780480000000001
#
# number of rings (size 3 to 8) (size 9 to 14) (size 15 to 20)
#    0.545    0.909    7.273    0.545    2.545    0.000 
#    0.000    7.273    0.000    4.364    0.000    7.636 
#    0.000    0.000    0.000    0.000    0.000    0.000 
#
# Total GULP energy -545227.688376 kJ/mol
# GULP energy per Si atom -12391.538372 kJ/mol
# Density = 1.873774 g / cm^3
# Si number density = 18.780480 Si / 1000 Ang^3
#
#
#
# Elastic Constant Matrix: (Units=GPa)
#
#
# Indices 1 2 3 4 5 6 
#
# 1 92.8072 13.5246 19.7900 0.0000 0.0000 0.0000
# 2 13.5246 48.2754 27.5322 0.0000 0.0000 0.0000
# 3 19.7900 27.5322 142.3271 0.0000 0.0000 0.0000
# 4 0.0000 0.0000 0.0000 12.1354 0.0000 0.0000
# 5 0.0000 0.0000 0.0000 0.0000 17.2364 0.0000
# 6 0.0000 0.0000 0.0000 0.0000 0.0000 18.4009
#
#
#
# Elastic Compliance Matrix: (Units=1/GPa)
#
#
# Indices 1 2 3 4 5 6 
#
# 1 0.011381 -0.002569 -0.001085 0.000000 0.000000 0.000000
# 2 -0.002569 0.023863 -0.004259 0.000000 0.000000 0.000000
# 3 -0.001085 -0.004259 0.008001 0.000000 0.000000 0.000000
# 4 0.000000 0.000000 0.000000 0.082404 0.000000 0.000000
# 5 0.000000 0.000000 0.000000 0.000000 0.058017 0.000000
# 6 0.000000 0.000000 0.000000 0.000000 0.000000 0.054345
#
#
# Mechanical properties :
#
#
# Convention : Reuss Voigt Hill
#
# Bulk Modulus (GPa) = 36.47303 45.01150 40.74227
# Shear Modulus (GPa) = 19.01306 24.39207 21.70257
#
# Velocity S-wave (km/s) = 3.18525 3.60780 3.40309
# Velocity P-wave (km/s) = 5.74375 6.43227 6.09774
#
# Compressibility (1/GPa) = 0.02741752
#
# Stress axis : x y z
#
# Youngs Moduli (GPa) = 87.86646 41.90548 124.98664
#
# Poissons Ratio (x) = 0.10767 0.13567
# Poissons Ratio (y) = 0.22576 0.53231
# Poissons Ratio (z) = 0.09537 0.17847
#
# Static dielectric constant tensor:
#      x y z
#    x 3.552430 0.000000 0.000000 
#    y 0.000000 3.175460 0.000000 
#    z 0.000000 0.000000 3.690190 
# 
# 
# High freq. dielectric constant tensor:
#      x y z
#    x 1.738000 0.000000 0.000000 
#    y 0.000000 1.698300 0.000000 
#    z 0.000000 0.000000 1.733610 
# 
# From -- ./inp_files/14101.got.cif
#   From: 2010.03.12/outbox.cif.g09.slc.cpg/sg55_8_cif.got.tgz:14101.got - 2010.04.16 15:19:21.
