data_PCOD8224733
_publ_section_title
;
Structure prediction by ZEFSAII (Michael W. Deem and Ramdas Pophale) SiO2 
 PCOD8224733
Probable space group: P B A M
;
_chemical_formula_sum "Si O2"
_cell_formula_units_Z 56
_cell_length_a 21.953039
_cell_length_b 14.611514
_cell_length_c 8.766079
_cell_angle_alpha 90.000000
_cell_angle_beta 90.000000
_cell_angle_gamma 90.000000
_cell_volume 2811.870061
_symmetry_space_group_name_H-M "P B A M"
_symmetry_group_IT_number 55
_symmetry_cell_setting 'orthorhombic'
loop_
_space_group_symop_operation_xyz
x,y,z
-x,-y,z
1/2+x,1/2-y,-z
1/2-x,1/2+y,-z
-x,-y,-z
x,y,-z
1/2-x,1/2+y,z
1/2+x,1/2-y,z
loop_
_atom_site_type_symbol
_atom_site_label
_atom_site_fract_x
_atom_site_fract_y
_atom_site_fract_z
Si Si1 0.047624 0.422172 0.679832
Si Si2 0.229058 0.800218 0.319810
Si Si3 0.321414 0.933270 0.179448
Si Si4 0.103951 0.880280 0.677711
Si Si5 0.747631 0.388095 0.178672
Si Si6 0.381344 0.587172 0.678032
Si Si7 0.987011 0.778964 0.681009
O O1 0.059372 0.420910 0.500000
O O2 0.110393 0.443773 0.762088
O O3 0.021064 0.325014 0.736870
O O4 0.000000 0.500000 0.727655
O O5 0.233992 0.809071 0.500000
O O6 0.290057 0.843743 0.250205
O O7 0.169332 0.851576 0.252761
O O8 0.223623 0.695162 0.272051
O O9 0.284097 0.022317 0.231404
O O10 0.321796 0.921257 0.000000
O O11 0.106615 0.857702 0.500000
O O12 0.049287 0.820689 0.751894
O O13 0.090690 0.986850 0.706859
O O14 0.677489 0.400368 0.219296
O O15 0.754687 0.369338 0.000000
O O16 0.364418 0.600985 0.500000
O O17 0.430049 0.660867 0.737079
O O18 0.990276 0.785295 0.500000
#
# Coordination Sequence:
#
# PCOD8224733 Si02
#       7
#     8   8   8   8   8   8   8
#     4  10  22  38  60  88 120 157 204 254 296 352
#     4  11  22  37  62  91 119 153 202 255 303 357
#     4  11  24  42  62  85 122 164 201 247 302 366
#     4   9  18  32  55  88 117 145 187 245 303 353
#     4  11  24  39  58  85 121 161 199 242 299 360
#     4  10  18  34  60  88 115 149 196 245 295 355
#     4   9  18  33  55  85 118 151 188 240 303 352
#
# _framework density 19.915572999999998
#
# number of rings (size 3 to 8) (size 9 to 14) (size 15 to 20)
#    0.000    1.857    1.429    2.571    2.000    4.857 
#    0.000    0.000    0.000    4.286    0.000    0.000 
#    0.000    0.000    0.000    0.000    0.000    0.000 
#
# Total GULP energy -694592.250622 kJ/mol
# GULP energy per Si atom -12403.433047 kJ/mol
# Density = 1.987024 g / cm^3
# Si number density = 19.915573 Si / 1000 Ang^3
#
#
#
# Elastic Constant Matrix: (Units=GPa)
#
#
# Indices 1 2 3 4 5 6 
#
# 1 119.0619 60.7027 30.0084 0.0000 0.0000 0.0000
# 2 60.7027 131.7548 25.4948 0.0000 0.0000 0.0000
# 3 30.0084 25.4948 39.5434 0.0000 0.0000 0.0000
# 4 0.0000 0.0000 0.0000 22.0873 0.0000 0.0000
# 5 0.0000 0.0000 0.0000 0.0000 17.4182 0.0000
# 6 0.0000 0.0000 0.0000 0.0000 0.0000 31.4697
#
#
#
# Elastic Compliance Matrix: (Units=1/GPa)
#
#
# Indices 1 2 3 4 5 6 
#
# 1 0.012276 -0.004403 -0.006478 0.000000 0.000000 0.000000
# 2 -0.004403 0.010251 -0.003268 0.000000 0.000000 0.000000
# 3 -0.006478 -0.003268 0.032311 0.000000 0.000000 0.000000
# 4 0.000000 0.000000 0.000000 0.045275 0.000000 0.000000
# 5 0.000000 0.000000 0.000000 0.000000 0.057411 0.000000
# 6 0.000000 0.000000 0.000000 0.000000 0.000000 0.031777
#
#
# Mechanical properties :
#
#
# Convention : Reuss Voigt Hill
#
# Bulk Modulus (GPa) = 37.67623 58.08576 47.88099
# Shear Modulus (GPa) = 22.08050 25.80532 23.94291
#
# Velocity S-wave (km/s) = 3.33334 3.60354 3.47107
# Velocity P-wave (km/s) = 5.81153 6.82227 6.33708
#
# Compressibility (1/GPa) = 0.02654194
#
# Stress axis : x y z
#
# Youngs Moduli (GPa) = 81.45845 97.55580 30.94899
#
# Poissons Ratio (x) = 0.42949 0.20048
# Poissons Ratio (y) = 0.35862 0.10114
# Poissons Ratio (z) = 0.52766 0.31880
#
# Static dielectric constant tensor:
#      x y z
#    x 3.766110 0.000000 0.000000 
#    y 0.000000 3.851730 0.000000 
#    z 0.000000 0.000000 3.242930 
# 
# 
# High freq. dielectric constant tensor:
#      x y z
#    x 1.788620 0.000000 0.000000 
#    y 0.000000 1.793440 0.000000 
#    z 0.000000 0.000000 1.741480 
# 
# From -- ./inp_files/6181.got.cif
#   From: 2010.03.12/outbox.cif.g09.slc.cpg/sg55_4_cif.got.tgz:6181.got - 2010.04.16 15:19:21.
