data_PCOD8224815
_publ_section_title
;
Structure prediction by ZEFSAII (Michael W. Deem and Ramdas Pophale) SiO2 
 PCOD8224815
Probable space group: P B A M
;
_chemical_formula_sum "Si O2"
_cell_formula_units_Z 64
_cell_length_a 21.499434
_cell_length_b 18.856397
_cell_length_c 9.121468
_cell_angle_alpha 90.000000
_cell_angle_beta 90.000000
_cell_angle_gamma 90.000000
_cell_volume 3697.860118
_symmetry_space_group_name_H-M "P B A M"
_symmetry_group_IT_number 55
_symmetry_cell_setting 'orthorhombic'
loop_
_space_group_symop_operation_xyz
x,y,z
-x,-y,z
1/2+x,1/2-y,-z
1/2-x,1/2+y,-z
-x,-y,-z
x,y,-z
1/2-x,1/2+y,z
1/2+x,1/2-y,z
loop_
_atom_site_type_symbol
_atom_site_label
_atom_site_fract_x
_atom_site_fract_y
_atom_site_fract_z
Si Si1 0.403945 0.671233 0.669597
Si Si2 0.695268 0.418144 0.827296
Si Si3 0.228488 0.386360 0.831063
Si Si4 0.193271 0.527519 0.328678
Si Si5 0.935415 0.526830 0.671861
Si Si6 0.982100 0.077848 0.672845
Si Si7 0.359790 0.429423 0.165700
Si Si8 0.376068 0.828179 0.669965
O O1 0.392280 0.651657 0.500000
O O2 0.344628 0.645655 0.761266
O O3 0.466217 0.633278 0.728398
O O4 0.413567 0.755214 0.691873
O O5 0.765258 0.415137 0.759506
O O6 0.662740 0.492467 0.783854
O O7 0.701462 0.408870 0.000000
O O8 0.212681 0.450210 0.723361
O O9 0.302719 0.373437 0.820062
O O10 0.187473 0.321663 0.767131
O O11 0.210916 0.403685 0.000000
O O12 0.207263 0.536687 0.500000
O O13 0.118876 0.531562 0.295817
O O14 0.945686 0.534948 0.500000
O O15 0.917190 0.605649 0.730383
O O16 0.000000 0.500000 0.745648
O O17 0.976367 0.078783 0.500000
O O18 0.915374 0.099875 0.735649
O O19 0.000000 0.000000 0.731642
O O20 0.384073 0.433655 0.000000
O O21 0.358015 0.839436 0.500000
#
# Coordination Sequence:
#
# PCOD8224815 Si02
#       8
#     8   8   8   8   8   8   8   8
#     4  10  20  33  48  69  98 130 167 209 251 300
#     4  10  19  30  46  70  97 128 164 203 248 292
#     4   9  17  30  48  71  96 122 157 200 244 292
#     4   9  16  27  47  73  98 124 155 199 247 287
#     4   8  14  27  50  77  98 122 158 200 247 298
#     4  10  19  30  46  70  98 131 168 206 245 286
#     4   9  18  30  46  69  95 124 160 202 240 284
#     4   9  18  32  51  73  96 125 163 207 252 300
#
# _framework density 17.307306000000001
#
# number of rings (size 3 to 8) (size 9 to 14) (size 15 to 20)
#    0.000    2.750    1.250    2.625    0.000    3.750 
#    0.000    0.000    2.750    9.375    0.000    0.000 
#    0.000    0.000    0.000    0.000    0.000    0.000 
#
# Total GULP energy -793144.426529 kJ/mol
# GULP energy per Si atom -12392.881665 kJ/mol
# Density = 1.726791 g / cm^3
# Si number density = 17.307306 Si / 1000 Ang^3
#
#
#
# Elastic Constant Matrix: (Units=GPa)
#
#
# Indices 1 2 3 4 5 6 
#
# 1 138.8466 51.4410 49.2308 0.0000 0.0000 0.0000
# 2 51.4410 71.4578 25.1804 0.0000 0.0000 0.0000
# 3 49.2308 25.1804 55.3912 0.0000 0.0000 0.0000
# 4 0.0000 0.0000 0.0000 14.6871 0.0000 0.0000
# 5 0.0000 0.0000 0.0000 0.0000 19.3343 0.0000
# 6 0.0000 0.0000 0.0000 0.0000 0.0000 24.2619
#
#
#
# Elastic Compliance Matrix: (Units=1/GPa)
#
#
# Indices 1 2 3 4 5 6 
#
# 1 0.012343 -0.005977 -0.008253 0.000000 0.000000 0.000000
# 2 -0.005977 0.019558 -0.003579 0.000000 0.000000 0.000000
# 3 -0.008253 -0.003579 0.027015 0.000000 0.000000 0.000000
# 4 0.000000 0.000000 0.000000 0.068087 0.000000 0.000000
# 5 0.000000 0.000000 0.000000 0.000000 0.051721 0.000000
# 6 0.000000 0.000000 0.000000 0.000000 0.000000 0.041217
#
#
# Mechanical properties :
#
#
# Convention : Reuss Voigt Hill
#
# Bulk Modulus (GPa) = 42.92047 57.48889 50.20468
# Shear Modulus (GPa) = 18.98790 20.97956 19.98373
#
# Velocity S-wave (km/s) = 3.31585 3.48541 3.40169
# Velocity P-wave (km/s) = 6.28591 7.03464 6.67079
#
# Compressibility (1/GPa) = 0.02329891
#
# Stress axis : x y z
#
# Youngs Moduli (GPa) = 81.01794 51.12959 37.01606
#
# Poissons Ratio (x) = 0.30561 0.30549
# Poissons Ratio (y) = 0.48426 0.13246
# Poissons Ratio (z) = 0.66864 0.18297
#
# Static dielectric constant tensor:
#      x y z
#    x 3.611300 0.000000 0.000000 
#    y 0.000000 3.024640 0.000000 
#    z 0.000000 0.000000 3.150220 
# 
# 
# High freq. dielectric constant tensor:
#      x y z
#    x 1.672690 0.000000 0.000000 
#    y 0.000000 1.627290 0.000000 
#    z 0.000000 0.000000 1.661090 
# 
# From -- ./inp_files/9157.got.cif
#   From: 2010.03.12/outbox.cif.g09.slc.cpg/sg55_5_cif.got.tgz:9157.got - 2010.04.16 15:19:21.
