data_PCOD8224897
_publ_section_title
;
Structure prediction by ZEFSAII (Michael W. Deem and Ramdas Pophale) SiO2 
 PCOD8224897
Probable space group: P B A M
;
_chemical_formula_sum "Si O2"
_cell_formula_units_Z 40
_cell_length_a 17.952519
_cell_length_b 8.863214
_cell_length_c 12.903672
_cell_angle_alpha 90.000000
_cell_angle_beta 90.000000
_cell_angle_gamma 90.000000
_cell_volume 2053.193806
_symmetry_space_group_name_H-M "P B A M"
_symmetry_group_IT_number 55
_symmetry_cell_setting 'orthorhombic'
loop_
_space_group_symop_operation_xyz
x,y,z
-x,-y,z
1/2+x,1/2-y,-z
1/2-x,1/2+y,-z
-x,-y,-z
x,y,-z
1/2-x,1/2+y,z
1/2+x,1/2-y,z
loop_
_atom_site_type_symbol
_atom_site_label
_atom_site_fract_x
_atom_site_fract_y
_atom_site_fract_z
Si Si1 0.441774 0.716006 0.695321
Si Si2 0.848998 0.737294 0.500000
Si Si3 0.302224 0.425423 0.883412
Si Si4 0.694638 0.584879 0.500000
Si Si5 0.397548 0.369246 0.695963
Si Si6 0.847051 0.734869 0.116323
O O1 0.400166 0.795065 0.599813
O O2 0.424789 0.539926 0.692759
O O3 0.530794 0.740493 0.687423
O O4 0.413959 0.789582 0.802935
O O5 0.782226 0.617848 0.500000
O O6 0.815721 0.905428 0.500000
O O7 0.355184 0.335831 0.803750
O O8 0.308986 0.603302 0.866887
O O9 0.216131 0.388695 0.861869
O O10 0.325224 0.376325 0.000000
O O11 0.657525 0.661875 0.600458
O O12 0.879620 0.719974 0.000000
#
# Coordination Sequence:
#
# PCOD8224897 Si02
#       6
#     8   4   8   4   8   8
#     4   9  17  29  46  68  91 115 147 185 221 258
#     4  10  19  31  49  69  89 116 148 182 220 262
#     4   9  17  29  46  67  90 117 148 182 219 259
#     4  10  19  31  49  69  89 116 148 182 220 262
#     4   9  17  29  46  68  91 115 147 185 221 258
#     4   9  17  29  46  67  90 117 148 182 219 259
#
# _framework density 19.481843999999999
#
# number of rings (size 3 to 8) (size 9 to 14) (size 15 to 20)
#    0.000    2.800    0.000    1.800    0.000    3.200 
#    0.000    4.000    0.000    6.000    0.000    5.600 
#    0.000    0.000    0.000    0.000    0.000    0.000 
#
# Total GULP energy -495967.589861 kJ/mol
# GULP energy per Si atom -12399.189747 kJ/mol
# Density = 1.943750 g / cm^3
# Si number density = 19.481844 Si / 1000 Ang^3
#
#
#
# Elastic Constant Matrix: (Units=GPa)
#
#
# Indices 1 2 3 4 5 6 
#
# 1 33.8934 -5.6430 21.3181 0.0000 0.0000 0.0000
# 2 -5.6430 9.1598 3.6648 0.0000 0.0000 0.0000
# 3 21.3181 3.6648 123.2829 0.0000 0.0000 0.0000
# 4 0.0000 0.0000 0.0000 13.0651 0.0000 0.0000
# 5 0.0000 0.0000 0.0000 0.0000 33.7845 0.0000
# 6 0.0000 0.0000 0.0000 0.0000 0.0000 23.6552
#
#
#
# Elastic Compliance Matrix: (Units=1/GPa)
#
#
# Indices 1 2 3 4 5 6 
#
# 1 0.038678 0.026823 -0.007486 0.000000 0.000000 0.000000
# 2 0.026823 0.129088 -0.008476 0.000000 0.000000 0.000000
# 3 -0.007486 -0.008476 0.009658 0.000000 0.000000 0.000000
# 4 0.000000 0.000000 0.000000 0.076540 0.000000 0.000000
# 5 0.000000 0.000000 0.000000 0.000000 0.029599 0.000000
# 6 0.000000 0.000000 0.000000 0.000000 0.000000 0.042274
#
#
# Mechanical properties :
#
#
# Convention : Reuss Voigt Hill
#
# Bulk Modulus (GPa) = 5.02139 22.77955 13.90047
# Shear Modulus (GPa) = 13.49539 23.90069 18.69804
#
# Velocity S-wave (km/s) = 2.63481 3.50640 3.10137
# Velocity P-wave (km/s) = 3.44083 5.30200 4.46937
#
# Compressibility (1/GPa) = 0.19914824
#
# Stress axis : x y z
#
# Youngs Moduli (GPa) = 25.85421 7.74663 103.54327
#
# Poissons Ratio (x) = -0.20779 0.77509
# Poissons Ratio (y) = -0.69349 0.87760
# Poissons Ratio (z) = 0.19354 0.06566
#
# Static dielectric constant tensor:
#      x y z
#    x 3.601580 0.000000 0.000000 
#    y 0.000000 3.054960 0.000000 
#    z 0.000000 0.000000 3.865140 
# 
# 
# High freq. dielectric constant tensor:
#      x y z
#    x 1.753490 0.000000 0.000000 
#    y 0.000000 1.708330 0.000000 
#    z 0.000000 0.000000 1.777390 
# 
# From -- ./inp_files/12098.got.cif
#   From: 2010.03.12/outbox.cif.g09.slc.cpg/sg55_7_cif.got.tgz:12098.got - 2010.04.16 15:19:21.
