data_PCOD8224239
_publ_section_title
;
Structure prediction by ZEFSAII (Michael W. Deem and Ramdas Pophale) SiO2 
 PCOD8224239
Probable space group: P B A M
;
_chemical_formula_sum "Si O2"
_cell_formula_units_Z 48
_cell_length_a 5.271609
_cell_length_b 17.447337
_cell_length_c 27.286272
_cell_angle_alpha 90.000000
_cell_angle_beta 90.000000
_cell_angle_gamma 90.000000
_cell_volume 2509.669568
_symmetry_space_group_name_H-M "P B A M"
_symmetry_group_IT_number 55
_symmetry_cell_setting 'orthorhombic'
loop_
_space_group_symop_operation_xyz
x,y,z
-x,-y,z
1/2+x,1/2-y,-z
1/2-x,1/2+y,-z
-x,-y,-z
x,y,-z
1/2-x,1/2+y,z
1/2+x,1/2-y,z
loop_
_atom_site_type_symbol
_atom_site_label
_atom_site_fract_x
_atom_site_fract_y
_atom_site_fract_z
Si Si1 0.250004 0.796588 0.057388
Si Si2 0.250000 0.452647 0.116002
Si Si3 0.250000 0.452757 0.769988
Si Si4 0.250000 0.295842 0.287489
Si Si5 0.750001 0.839531 0.443159
Si Si6 0.249999 0.328572 0.598169
O O1 0.500007 0.750002 0.072936
O O2 0.249999 0.875711 0.085514
O O3 0.250003 0.814693 0.000000
O O4 0.500000 0.500000 0.101675
O O5 0.249999 0.430916 0.173014
O O6 0.000000 0.500000 0.101675
O O7 0.500000 0.500000 0.755758
O O8 0.250000 0.376385 0.738910
O O9 0.000000 0.500000 0.755758
O O10 0.499999 0.250000 0.270990
O O11 0.250000 0.307636 0.345325
O O12 0.750000 0.860084 0.500000
O O13 0.501492 0.876085 0.416881
O O14 0.750002 0.748349 0.434491
O O15 0.998511 0.876085 0.416881
#
# Coordination Sequence:
#
# PCOD8224239 Si02
#       6
#     8   8   8   8   8   8
#     4  10  21  36  56  85 121 152 182 230 284 333
#     4  10  21  38  59  81 109 147 193 237 271 323
#     4  10  23  41  57  79 112 148 186 230 280 331
#     4  12  21  35  56  81 108 141 177 230 275 321
#     4  10  16  25  41  63 105 140 156 196 275 326
#     4  10  16  27  39  67 101 130 158 211 257 314
#
# _framework density 19.126024000000001
#
# number of rings (size 3 to 8) (size 9 to 14) (size 15 to 20)
#    0.000    1.667    3.333    4.500    0.000    2.000 
#    0.000    0.000    0.000    0.000    0.000    0.000 
#    0.000   22.667    0.000    0.000    0.000    0.000 
#
# Total GULP energy -595146.408441 kJ/mol
# GULP energy per Si atom -12398.883509 kJ/mol
# Density = 1.908249 g / cm^3
# Si number density = 19.126024 Si / 1000 Ang^3
#
#
#
# Elastic Constant Matrix: (Units=GPa)
#
#
# Indices 1 2 3 4 5 6 
#
# 1 223.5960 65.7593 40.0880 0.0000 0.0000 0.0000
# 2 65.7593 102.4833 51.1366 0.0000 0.0000 0.0000
# 3 40.0880 51.1366 46.1417 0.0000 0.0000 0.0000
# 4 0.0000 0.0000 0.0000 -4.1172 0.0000 0.0000
# 5 0.0000 0.0000 0.0000 0.0000 12.3221 0.0000
# 6 0.0000 0.0000 0.0000 0.0000 0.0000 22.0768
#
#
#
# Elastic Compliance Matrix: (Units=1/GPa)
#
#
# Indices 1 2 3 4 5 6 
#
# 1 0.005592 -0.002604 -0.001972 0.000000 0.000000 0.000000
# 2 -0.002604 0.023041 -0.023273 0.000000 0.000000 0.000000
# 3 -0.001972 -0.023273 0.049179 0.000000 0.000000 0.000000
# 4 0.000000 0.000000 0.000000 -0.242885 0.000000 0.000000
# 5 0.000000 0.000000 0.000000 0.000000 0.081155 0.000000
# 6 0.000000 0.000000 0.000000 0.000000 0.000000 0.045297
#
#
# Mechanical properties :
#
#
# Convention : Reuss Voigt Hill
#
# Bulk Modulus (GPa) = 45.22314 76.24319 60.73316
# Shear Modulus (GPa) = 204.51069 20.40548 112.45808
#
# Velocity S-wave (km/s) = 10.35182 3.26988 7.67633
# Velocity P-wave (km/s) = 12.90644 7.36249 10.50673
#
# Compressibility (1/GPa) = 0.02211258
#
# Stress axis : x y z
#
# Youngs Moduli (GPa) = 178.83447 43.40049 20.33401
#
# Poissons Ratio (x) = 0.11301 0.04011
# Poissons Ratio (y) = 0.46565 0.47324
# Poissons Ratio (z) = 0.35275 1.01007
#
# Static dielectric constant tensor:
#      x y z
#    x 6.499260 0.000000 0.000000 
#    y 0.000000 3.032690 0.000000 
#    z 0.000000 0.000000 3.470250 
# 
# 
# High freq. dielectric constant tensor:
#      x y z
#    x 1.784080 0.000000 0.000000 
#    y 0.000000 1.698960 0.000000 
#    z 0.000000 0.000000 1.743150 
# 
# From -- ./inp_files/23806.got.cif
#   From: 2010.03.12/outbox.cif.g09.slc.cpg/sg55_12_cif.got.tgz:23806.got - 2010.04.16 15:19:21.
