data_PCOD8224471
_publ_section_title
;
Structure prediction by ZEFSAII (Michael W. Deem and Ramdas Pophale) SiO2 
 PCOD8224471
Probable space group: P B A M
;
_chemical_formula_sum "Si O2"
_cell_formula_units_Z 32
_cell_length_a 5.294358
_cell_length_b 13.677838
_cell_length_c 17.348195
_cell_angle_alpha 90.000000
_cell_angle_beta 90.000000
_cell_angle_gamma 90.000000
_cell_volume 1256.275978
_symmetry_space_group_name_H-M "P B A M"
_symmetry_group_IT_number 55
_symmetry_cell_setting 'orthorhombic'
loop_
_space_group_symop_operation_xyz
x,y,z
-x,-y,z
1/2+x,1/2-y,-z
1/2-x,1/2+y,-z
-x,-y,-z
x,y,-z
1/2-x,1/2+y,z
1/2+x,1/2-y,z
loop_
_atom_site_type_symbol
_atom_site_label
_atom_site_fract_x
_atom_site_fract_y
_atom_site_fract_z
Si Si1 0.507603 0.883913 0.825731
Si Si2 0.404210 0.146167 0.652899
Si Si3 0.097317 0.862615 0.410420
Si Si4 0.006234 0.883958 0.086471
O O1 0.544724 0.835134 0.742710
O O2 0.246360 0.846499 0.863920
O O3 0.742104 0.847303 0.877610
O O4 0.500000 0.000000 0.815841
O O5 0.364136 0.248682 0.609230
O O6 0.641037 0.086412 0.617128
O O7 0.139315 0.089839 0.636250
O O8 0.050506 0.880246 0.500000
O O9 0.031748 0.842281 0.000000
O O10 0.000000 0.000000 0.084523
#
# Coordination Sequence:
#
# PCOD8224471 Si02
#       4
#     8   8   8   8
#     4  10  19  30  47  73 101 124 149 188 238 286
#     4  10  18  30  49  73  95 119 151 198 241 270
#     4  10  19  33  53  71  88 118 164 206 228 259
#     4   9  17  30  47  68  95 127 161 191 221 266
#
# _framework density 25.472111999999999
#
# number of rings (size 3 to 8) (size 9 to 14) (size 15 to 20)
#    0.000    2.250    0.000    6.000    0.000    3.000 
#    0.000    0.000    0.000    8.250    0.000   70.000 
#    0.000    0.000    0.000    0.000    0.000    0.000 
#
# Total GULP energy -396699.690038 kJ/mol
# GULP energy per Si atom -12396.865314 kJ/mol
# Density = 2.541414 g / cm^3
# Si number density = 25.472112 Si / 1000 Ang^3
#
#
#
# Elastic Constant Matrix: (Units=GPa)
#
#
# Indices 1 2 3 4 5 6 
#
# 1 284.7671 -7.2145 91.7187 0.0000 0.0000 0.0000
# 2 -7.2145 20.4874 -11.4075 0.0000 0.0000 0.0000
# 3 91.7187 -11.4075 209.4517 0.0000 0.0000 0.0000
# 4 0.0000 0.0000 0.0000 13.1960 0.0000 0.0000
# 5 0.0000 0.0000 0.0000 0.0000 57.6033 0.0000
# 6 0.0000 0.0000 0.0000 0.0000 0.0000 -12.7909
#
#
#
# Elastic Compliance Matrix: (Units=1/GPa)
#
#
# Indices 1 2 3 4 5 6 
#
# 1 0.004092 0.000457 -0.001767 0.000000 0.000000 0.000000
# 2 0.000457 0.050388 0.002544 0.000000 0.000000 0.000000
# 3 -0.001767 0.002544 0.005687 0.000000 0.000000 0.000000
# 4 0.000000 0.000000 0.000000 0.075780 0.000000 0.000000
# 5 0.000000 0.000000 0.000000 0.000000 0.017360 0.000000
# 6 0.000000 0.000000 0.000000 0.000000 0.000000 -0.078180
#
#
# Mechanical properties :
#
#
# Convention : Reuss Voigt Hill
#
# Bulk Modulus (GPa) = 15.96539 73.43330 44.69935
# Shear Modulus (GPa) = 53.45448 41.04230 47.24839
#
# Velocity S-wave (km/s) = 4.58596 4.01841 4.31154
# Velocity P-wave (km/s) = 5.85857 7.10082 6.50939
#
# Compressibility (1/GPa) = 0.06263548
#
# Stress axis : x y z
#
# Youngs Moduli (GPa) = 244.35567 19.84597 175.84663
#
# Poissons Ratio (x) = -0.00907 0.31075
# Poissons Ratio (y) = -0.11170 -0.44738
# Poissons Ratio (z) = 0.43182 -0.05049
#
# Static dielectric constant tensor:
#      x y z
#    x 6.182360 0.000000 0.000000 
#    y 0.000000 3.966030 0.000000 
#    z 0.000000 0.000000 4.433270 
# 
# 
# High freq. dielectric constant tensor:
#      x y z
#    x 2.053260 0.000000 0.000000 
#    y 0.000000 1.991630 0.000000 
#    z 0.000000 0.000000 2.013660 
# 
# From -- ./inp_files/11209.got.cif
#   From: 2010.03.12/outbox.cif.g09.slc.cpg/sg55_6_cif.got.tgz:11209.got - 2010.04.16 15:19:21.
