data_PCOD8224254
_publ_section_title
;
Structure prediction by ZEFSAII (Michael W. Deem and Ramdas Pophale) SiO2 
 PCOD8224254
Probable space group: P B A M
;
_chemical_formula_sum "Si O2"
_cell_formula_units_Z 52
_cell_length_a 20.613538
_cell_length_b 14.213884
_cell_length_c 9.051876
_cell_angle_alpha 90.000000
_cell_angle_beta 90.000000
_cell_angle_gamma 90.000000
_cell_volume 2652.185529
_symmetry_space_group_name_H-M "P B A M"
_symmetry_group_IT_number 55
_symmetry_cell_setting 'orthorhombic'
loop_
_space_group_symop_operation_xyz
x,y,z
-x,-y,z
1/2+x,1/2-y,-z
1/2-x,1/2+y,-z
-x,-y,-z
x,y,-z
1/2-x,1/2+y,z
1/2+x,1/2-y,z
loop_
_atom_site_type_symbol
_atom_site_label
_atom_site_fract_x
_atom_site_fract_y
_atom_site_fract_z
Si Si1 0.067576 0.844485 0.323463
Si Si2 0.101898 0.642044 0.663961
Si Si3 0.063803 0.166085 0.170371
Si Si4 0.342750 0.495502 0.828118
Si Si5 0.204943 0.497354 0.323514
Si Si6 0.500000 0.000000 0.754535
Si Si7 0.610647 0.131606 0.164023
O O1 0.067507 0.848696 0.500000
O O2 0.085867 0.740997 0.257295
O O3 0.119397 0.915815 0.259462
O O4 0.996259 0.871268 0.266365
O O5 0.122733 0.668787 0.500000
O O6 0.163001 0.587042 0.734762
O O7 0.039124 0.574593 0.655557
O O8 0.085910 0.268618 0.226531
O O9 0.123074 0.095410 0.194164
O O10 0.041717 0.169614 0.000000
O O11 0.272436 0.503886 0.758081
O O12 0.338087 0.468060 0.000000
O O13 0.213269 0.495530 0.500000
O O14 0.166503 0.403441 0.274934
O O15 0.449023 0.941412 0.851984
O O16 0.640297 0.144612 0.000000
#
# Coordination Sequence:
#
# PCOD8224254 Si02
#       7
#     8   8   8   8   8   4   8
#     4  11  22  38  61  91 119 151 194 243 291 344
#     4   9  19  34  57  88 121 150 186 235 294 347
#     4  10  22  40  60  86 119 155 196 241 290 344
#     4  11  24  42  60  79 114 160 201 242 287 341
#     4  10  22  40  60  85 117 155 194 238 290 350
#     4  10  16  32  58  86 119 154 185 234 281 348
#     4  10  20  35  58  90 121 150 190 238 291 348
#
# _framework density 19.606472
#
# number of rings (size 3 to 8) (size 9 to 14) (size 15 to 20)
#    0.000    1.846    1.538    2.308    0.000    5.538 
#    0.000    5.385    0.000    0.000    0.000    0.000 
#    0.000    0.000    0.000    0.000    0.000    0.000 
#
# Total GULP energy -644698.674253 kJ/mol
# GULP energy per Si atom -12398.051428 kJ/mol
# Density = 1.956185 g / cm^3
# Si number density = 19.606472 Si / 1000 Ang^3
#
#
#
# Elastic Constant Matrix: (Units=GPa)
#
#
# Indices 1 2 3 4 5 6 
#
# 1 148.8571 57.1546 54.5622 0.0000 0.0000 0.0000
# 2 57.1546 113.8785 35.0424 0.0000 0.0000 0.0000
# 3 54.5622 35.0424 86.2459 0.0000 0.0000 0.0000
# 4 0.0000 0.0000 0.0000 26.2670 0.0000 0.0000
# 5 0.0000 0.0000 0.0000 0.0000 29.9789 0.0000
# 6 0.0000 0.0000 0.0000 0.0000 0.0000 27.7448
#
#
#
# Elastic Compliance Matrix: (Units=1/GPa)
#
#
# Indices 1 2 3 4 5 6 
#
# 1 0.009799 -0.003440 -0.004801 0.000000 0.000000 0.000000
# 2 -0.003440 0.011244 -0.002392 0.000000 0.000000 0.000000
# 3 -0.004801 -0.002392 0.015604 0.000000 0.000000 0.000000
# 4 0.000000 0.000000 0.000000 0.038071 0.000000 0.000000
# 5 0.000000 0.000000 0.000000 0.000000 0.033357 0.000000
# 6 0.000000 0.000000 0.000000 0.000000 0.000000 0.036043
#
#
# Mechanical properties :
#
#
# Convention : Reuss Voigt Hill
#
# Bulk Modulus (GPa) = 65.02118 71.38890 68.20504
# Shear Modulus (GPa) = 29.32369 30.27960 29.80164
#
# Velocity S-wave (km/s) = 3.87151 3.93411 3.90293
# Velocity P-wave (km/s) = 7.29520 7.55819 7.42786
#
# Compressibility (1/GPa) = 0.01537960
#
# Stress axis : x y z
#
# Youngs Moduli (GPa) = 102.05504 88.93554 64.08628
#
# Poissons Ratio (x) = 0.30598 0.30768
# Poissons Ratio (y) = 0.35112 0.15329
# Poissons Ratio (z) = 0.48997 0.21273
#
# Static dielectric constant tensor:
#      x y z
#    x 3.532290 0.000000 0.000000 
#    y 0.000000 3.817990 0.000000 
#    z 0.000000 0.000000 3.425670 
# 
# 
# High freq. dielectric constant tensor:
#      x y z
#    x 1.763270 0.000000 0.000000 
#    y 0.000000 1.773960 0.000000 
#    z 0.000000 0.000000 1.754680 
# 
# From -- ./inp_files/8627.got.cif
#   From: 2010.03.12/outbox.cif.g09.slc.cpg/sg55_5_cif.got.tgz:8627.got - 2010.04.16 15:19:21.
