data_PCOD8224826
_publ_section_title
;
Structure prediction by ZEFSAII (Michael W. Deem and Ramdas Pophale) SiO2 
 PCOD8224826
Probable space group: P B A M
;
_chemical_formula_sum "Si O2"
_cell_formula_units_Z 56
_cell_length_a 16.184101
_cell_length_b 13.486222
_cell_length_c 14.503469
_cell_angle_alpha 90.000000
_cell_angle_beta 90.000000
_cell_angle_gamma 90.000000
_cell_volume 3165.561647
_symmetry_space_group_name_H-M "P B A M"
_symmetry_group_IT_number 55
_symmetry_cell_setting 'orthorhombic'
loop_
_space_group_symop_operation_xyz
x,y,z
-x,-y,z
1/2+x,1/2-y,-z
1/2-x,1/2+y,-z
-x,-y,-z
x,y,-z
1/2-x,1/2+y,z
1/2+x,1/2-y,z
loop_
_atom_site_type_symbol
_atom_site_label
_atom_site_fract_x
_atom_site_fract_y
_atom_site_fract_z
Si Si1 0.460411 0.354810 0.106082
Si Si2 0.171114 0.690029 0.103078
Si Si3 0.092670 0.494331 0.108134
Si Si4 0.801525 0.667106 0.805161
Si Si5 0.847175 0.043724 0.249798
Si Si6 0.963926 0.109163 0.602352
Si Si7 0.092187 0.169340 0.258853
O O1 0.413704 0.250727 0.106462
O O2 0.403749 0.436116 0.159008
O O3 0.546187 0.340085 0.160107
O O4 0.476268 0.389726 0.000000
O O5 0.149795 0.583592 0.149733
O O6 0.245492 0.748976 0.148908
O O7 0.202023 0.672139 0.000000
O O8 0.135636 0.388471 0.126015
O O9 0.000000 0.500000 0.151186
O O10 0.085483 0.512365 0.000000
O O11 0.746181 0.581523 0.759734
O O12 0.855997 0.729247 0.732702
O O13 0.880848 0.105328 0.337574
O O14 0.848114 0.926330 0.268732
O O15 0.946405 0.152119 0.500000
O O16 0.029156 0.177746 0.655920
O O17 0.000000 0.000000 0.596063
#
# Coordination Sequence:
#
# PCOD8224826 Si02
#       7
#     8   8   8   8   8   8   8
#     4   9  17  30  48  69  94 123 157 201 246 285
#     4   9  18  31  45  63  90 126 169 211 247 284
#     4  10  20  33  47  64  91 134 182 212 238 286
#     4  11  20  31  45  66  98 128 158 201 244 281
#     4   9  19  32  47  72  98 121 155 195 240 289
#     4   8  15  32  56  75  92 115 145 190 243 288
#     4  10  19  30  47  71  95 122 159 194 231 287
#
# _framework density 17.690383000000001
#
# number of rings (size 3 to 8) (size 9 to 14) (size 15 to 20)
#    0.000    2.571    0.000    3.429    0.000    4.000 
#    0.000    0.714    0.000    0.000    0.000    0.000 
#    0.000   21.714    0.000    0.000    0.000    0.000 
#
# Total GULP energy -693980.669734 kJ/mol
# GULP energy per Si atom -12392.511960 kJ/mol
# Density = 1.765012 g / cm^3
# Si number density = 17.690383 Si / 1000 Ang^3
#
#
#
# Elastic Constant Matrix: (Units=GPa)
#
#
# Indices 1 2 3 4 5 6 
#
# 1 92.0861 36.5215 26.4953 0.0000 0.0000 0.0000
# 2 36.5215 84.4070 11.3907 0.0000 0.0000 0.0000
# 3 26.4953 11.3907 93.4124 0.0000 0.0000 0.0000
# 4 0.0000 0.0000 0.0000 13.3149 0.0000 0.0000
# 5 0.0000 0.0000 0.0000 0.0000 11.8980 0.0000
# 6 0.0000 0.0000 0.0000 0.0000 0.0000 26.7817
#
#
#
# Elastic Compliance Matrix: (Units=1/GPa)
#
#
# Indices 1 2 3 4 5 6 
#
# 1 0.014041 -0.005630 -0.003296 0.000000 0.000000 0.000000
# 2 -0.005630 0.014303 -0.000147 0.000000 0.000000 0.000000
# 3 -0.003296 -0.000147 0.011658 0.000000 0.000000 0.000000
# 4 0.000000 0.000000 0.000000 0.075104 0.000000 0.000000
# 5 0.000000 0.000000 0.000000 0.000000 0.084048 0.000000
# 6 0.000000 0.000000 0.000000 0.000000 0.000000 0.037339
#
#
# Mechanical properties :
#
#
# Convention : Reuss Voigt Hill
#
# Bulk Modulus (GPa) = 45.75574 46.52451 46.14012
# Shear Modulus (GPa) = 19.08944 23.43212 21.26078
#
# Velocity S-wave (km/s) = 3.28851 3.64341 3.47050
# Velocity P-wave (km/s) = 6.35137 6.63744 6.49598
#
# Compressibility (1/GPa) = 0.02185518
#
# Stress axis : x y z
#
# Youngs Moduli (GPa) = 71.22133 69.91342 85.77798
#
# Poissons Ratio (x) = 0.39364 0.28272
# Poissons Ratio (y) = 0.40101 0.01262
# Poissons Ratio (z) = 0.23474 0.01029
#
# Static dielectric constant tensor:
#      x y z
#    x 3.297130 0.000000 0.000000 
#    y 0.000000 3.308000 0.000000 
#    z 0.000000 0.000000 3.280240 
# 
# 
# High freq. dielectric constant tensor:
#      x y z
#    x 1.684310 0.000000 0.000000 
#    y 0.000000 1.682930 0.000000 
#    z 0.000000 0.000000 1.641020 
# 
# From -- ./inp_files/19027.got.cif
#   From: 2010.03.12/outbox.cif.g09.slc.cpg/sg55_10_cif.got.tgz:19027.got - 2010.04.16 15:19:21.
