data_PCOD8224580
_publ_section_title
;
Structure prediction by ZEFSAII (Michael W. Deem and Ramdas Pophale) SiO2 
 PCOD8224580
Probable space group: P B A M
;
_chemical_formula_sum "Si O2"
_cell_formula_units_Z 48
_cell_length_a 17.921734
_cell_length_b 8.672569
_cell_length_c 14.511846
_cell_angle_alpha 90.000000
_cell_angle_beta 90.000000
_cell_angle_gamma 90.000000
_cell_volume 2255.539577
_symmetry_space_group_name_H-M "P B A M"
_symmetry_group_IT_number 55
_symmetry_cell_setting 'orthorhombic'
loop_
_space_group_symop_operation_xyz
x,y,z
-x,-y,z
1/2+x,1/2-y,-z
1/2-x,1/2+y,-z
-x,-y,-z
x,y,-z
1/2-x,1/2+y,z
1/2+x,1/2-y,z
loop_
_atom_site_type_symbol
_atom_site_label
_atom_site_fract_x
_atom_site_fract_y
_atom_site_fract_z
Si Si1 0.949934 0.350717 0.231152
Si Si2 0.841276 0.488528 0.899318
Si Si3 0.351356 0.101032 0.395544
Si Si4 0.190977 0.055715 0.192736
Si Si5 0.741634 0.174268 0.683240
Si Si6 0.436835 0.702901 0.895105
O O1 0.873487 0.369957 0.174932
O O2 0.922097 0.331658 0.336946
O O3 0.000000 0.500000 0.221921
O O4 0.996652 0.215278 0.180788
O O5 0.753827 0.498749 0.879260
O O6 0.881823 0.652017 0.894659
O O7 0.853490 0.416660 0.000000
O O8 0.379060 0.084032 0.500000
O O9 0.281205 0.218592 0.392956
O O10 0.323982 0.933802 0.358425
O O11 0.203783 0.224632 0.236929
O O12 0.112433 0.056907 0.138456
O O13 0.191452 0.929957 0.274429
O O14 0.467409 0.676989 0.000000
#
# Coordination Sequence:
#
# PCOD8224580 Si02
#       6
#     8   8   8   8   8   8
#     4  10  19  36  56  84 123 160 192 242 293 351
#     4  10  18  31  55  83 114 156 202 241 278 338
#     4  11  22  39  64  90 115 149 197 251 306 359
#     4  11  18  36  57  87 121 158 192 240 293 348
#     4  10  20  36  61  87 119 151 186 249 308 347
#     4  10  20  33  55  88 121 160 201 238 286 342
#
# _framework density 21.280939
#
# number of rings (size 3 to 8) (size 9 to 14) (size 15 to 20)
#    0.000    1.667    5.000    2.500    0.000    2.333 
#    0.000    0.833    0.000    4.000    0.000    0.000 
#    0.000    0.000    0.000    0.000    0.000    0.000 
#
# Total GULP energy -594769.298310 kJ/mol
# GULP energy per Si atom -12391.027048 kJ/mol
# Density = 2.123250 g / cm^3
# Si number density = 21.280939 Si / 1000 Ang^3
#
#
#
# Elastic Constant Matrix: (Units=GPa)
#
#
# Indices 1 2 3 4 5 6 
#
# 1 52.0602 8.9399 18.8280 0.0000 0.0000 0.0000
# 2 8.9399 56.7465 22.3105 0.0000 0.0000 0.0000
# 3 18.8280 22.3105 136.4042 0.0000 0.0000 0.0000
# 4 0.0000 0.0000 0.0000 15.3779 0.0000 0.0000
# 5 0.0000 0.0000 0.0000 0.0000 32.8289 0.0000
# 6 0.0000 0.0000 0.0000 0.0000 0.0000 20.4961
#
#
#
# Elastic Compliance Matrix: (Units=1/GPa)
#
#
# Indices 1 2 3 4 5 6 
#
# 1 0.020486 -0.002261 -0.002458 0.000000 0.000000 0.000000
# 2 -0.002261 0.019083 -0.002809 0.000000 0.000000 0.000000
# 3 -0.002458 -0.002809 0.008130 0.000000 0.000000 0.000000
# 4 0.000000 0.000000 0.000000 0.065029 0.000000 0.000000
# 5 0.000000 0.000000 0.000000 0.000000 0.030461 0.000000
# 6 0.000000 0.000000 0.000000 0.000000 0.000000 0.048790
#
#
# Mechanical properties :
#
#
# Convention : Reuss Voigt Hill
#
# Bulk Modulus (GPa) = 30.63495 38.37418 34.50457
# Shear Modulus (GPa) = 22.94479 26.74943 24.84711
#
# Velocity S-wave (km/s) = 3.28714 3.54922 3.42069
# Velocity P-wave (km/s) = 5.36971 5.90485 5.64363
#
# Compressibility (1/GPa) = 0.03264246
#
# Stress axis : x y z
#
# Youngs Moduli (GPa) = 48.81453 52.40304 123.00317
#
# Poissons Ratio (x) = 0.11848 0.30232
# Poissons Ratio (y) = 0.11037 0.34553
# Poissons Ratio (z) = 0.11998 0.14721
#
# Static dielectric constant tensor:
#      x y z
#    x 3.763890 0.000000 0.000000 
#    y 0.000000 3.731520 0.000000 
#    z 0.000000 0.000000 3.841390 
# 
# 
# High freq. dielectric constant tensor:
#      x y z
#    x 1.822970 0.000000 0.000000 
#    y 0.000000 1.820820 0.000000 
#    z 0.000000 0.000000 1.826790 
# 
# From -- ./inp_files/17309.got.cif
#   From: 2010.03.12/outbox.cif.g09.slc.cpg/sg55_9_cif.got.tgz:17309.got - 2010.04.16 15:19:21.
