data_PCOD8224768
_publ_section_title
;
Structure prediction by ZEFSAII (Michael W. Deem and Ramdas Pophale) SiO2 
 PCOD8224768
Probable space group: P B A M
;
_chemical_formula_sum "Si O2"
_cell_formula_units_Z 64
_cell_length_a 13.318187
_cell_length_b 34.320299
_cell_length_c 8.978152
_cell_angle_alpha 90.000000
_cell_angle_beta 90.000000
_cell_angle_gamma 90.000000
_cell_volume 4103.771065
_symmetry_space_group_name_H-M "P B A M"
_symmetry_group_IT_number 55
_symmetry_cell_setting 'orthorhombic'
loop_
_space_group_symop_operation_xyz
x,y,z
-x,-y,z
1/2+x,1/2-y,-z
1/2-x,1/2+y,-z
-x,-y,-z
x,y,-z
1/2-x,1/2+y,z
1/2+x,1/2-y,z
loop_
_atom_site_type_symbol
_atom_site_label
_atom_site_fract_x
_atom_site_fract_y
_atom_site_fract_z
Si Si1 0.619416 0.618795 0.328364
Si Si2 0.696347 0.306477 0.172817
Si Si3 0.880453 0.042599 0.832768
Si Si4 0.881226 0.957071 0.167132
Si Si5 0.105278 0.266866 0.675762
Si Si6 0.097270 0.733014 0.170076
Si Si7 0.217896 0.809154 0.174267
Si Si8 0.882935 0.880892 0.328421
O O1 0.646797 0.625143 0.500000
O O2 0.658249 0.576025 0.278895
O O3 0.677262 0.649787 0.228919
O O4 0.501252 0.623430 0.299343
O O5 0.627773 0.275939 0.260842
O O6 0.675566 0.349499 0.230989
O O7 0.813446 0.297581 0.197836
O O8 0.667137 0.303085 0.000000
O O9 0.999614 0.042233 0.832249
O O10 0.841362 0.999779 0.780529
O O11 0.841711 0.051444 0.000000
O O12 0.843018 0.923425 0.278045
O O13 0.842565 0.948189 0.000000
O O14 0.116547 0.265945 0.500000
O O15 0.992448 0.278531 0.720327
O O16 0.179257 0.299317 0.741525
O O17 0.135426 0.776302 0.209763
O O18 0.059527 0.731220 0.000000
O O19 0.241895 0.810743 0.000000
O O20 0.855665 0.874923 0.500000
#
# Coordination Sequence:
#
# PCOD8224768 Si02
#       8
#     8   8   8   8   8   8   8   8
#     4  10  19  28  40  62  90 117 146 182 221 257
#     4  10  20  33  48  64  85 115 149 181 211 252
#     4   8  14  25  40  57  79 112 149 179 210 252
#     4   8  14  25  40  57  80 112 148 179 209 253
#     4  11  21  32  48  67  88 112 139 178 223 261
#     4   9  19  34  49  64  83 112 147 179 214 255
#     4  10  20  33  48  64  85 115 149 181 211 253
#     4  10  19  28  41  63  90 117 145 181 221 257
#
# _framework density 15.595411
#
# number of rings (size 3 to 8) (size 9 to 14) (size 15 to 20)
#    0.000    2.500    0.000    4.875    0.000    7.000 
#    0.000    2.500    0.000    0.000    0.000    0.000 
#    0.000    1.000    0.000   10.500    0.000    5.500 
#
# Total GULP energy -793528.225516 kJ/mol
# GULP energy per Si atom -12398.878524 kJ/mol
# Density = 1.555992 g / cm^3
# Si number density = 15.595411 Si / 1000 Ang^3
#
#
#
# Elastic Constant Matrix: (Units=GPa)
#
#
# Indices 1 2 3 4 5 6 
#
# 1 55.0736 32.5810 42.4534 0.0000 0.0000 0.0000
# 2 32.5810 110.9873 50.0590 0.0000 0.0000 0.0000
# 3 42.4534 50.0590 105.0354 0.0000 0.0000 0.0000
# 4 0.0000 0.0000 0.0000 27.1086 0.0000 0.0000
# 5 0.0000 0.0000 0.0000 0.0000 20.1001 0.0000
# 6 0.0000 0.0000 0.0000 0.0000 0.0000 16.2366
#
#
#
# Elastic Compliance Matrix: (Units=1/GPa)
#
#
# Indices 1 2 3 4 5 6 
#
# 1 0.027651 -0.003919 -0.009308 0.000000 0.000000 0.000000
# 2 -0.003919 0.012033 -0.004151 0.000000 0.000000 0.000000
# 3 -0.009308 -0.004151 0.015261 0.000000 0.000000 0.000000
# 4 0.000000 0.000000 0.000000 0.036889 0.000000 0.000000
# 5 0.000000 0.000000 0.000000 0.000000 0.049751 0.000000
# 6 0.000000 0.000000 0.000000 0.000000 0.000000 0.061589
#
#
# Mechanical properties :
#
#
# Convention : Reuss Voigt Hill
#
# Bulk Modulus (GPa) = 49.53197 57.92035 53.72616
# Shear Modulus (GPa) = 20.43660 22.42260 21.42960
#
# Velocity S-wave (km/s) = 3.62390 3.79591 3.71090
# Velocity P-wave (km/s) = 7.02423 7.51211 7.27226
#
# Compressibility (1/GPa) = 0.02018898
#
# Stress axis : x y z
#
# Youngs Moduli (GPa) = 36.16472 83.10805 65.52608
#
# Poissons Ratio (x) = 0.32568 0.60995
# Poissons Ratio (y) = 0.14172 0.27198
# Poissons Ratio (z) = 0.33664 0.34496
#
# Static dielectric constant tensor:
#      x y z
#    x 2.623570 0.000000 0.000000 
#    y 0.000000 3.182660 0.000000 
#    z 0.000000 0.000000 3.056970 
# 
# 
# High freq. dielectric constant tensor:
#      x y z
#    x 1.549380 0.000000 0.000000 
#    y 0.000000 1.600620 0.000000 
#    z 0.000000 0.000000 1.609680 
# 
# From -- ./inp_files/4581.got.cif
#   From: 2010.03.12/outbox.cif.g09.slc.cpg/sg55_3_cif.got.tgz:4581.got - 2010.04.16 15:19:21.
