data_PCOD8224346
_publ_section_title
;
Structure prediction by ZEFSAII (Michael W. Deem and Ramdas Pophale) SiO2 
 PCOD8224346
Probable space group: P B A M
;
_chemical_formula_sum "Si O2"
_cell_formula_units_Z 56
_cell_length_a 17.568504
_cell_length_b 22.289115
_cell_length_c 9.284933
_cell_angle_alpha 90.000000
_cell_angle_beta 90.000000
_cell_angle_gamma 90.000000
_cell_volume 3635.853544
_symmetry_space_group_name_H-M "P B A M"
_symmetry_group_IT_number 55
_symmetry_cell_setting 'orthorhombic'
loop_
_space_group_symop_operation_xyz
x,y,z
-x,-y,z
1/2+x,1/2-y,-z
1/2-x,1/2+y,-z
-x,-y,-z
x,y,-z
1/2-x,1/2+y,z
1/2+x,1/2-y,z
loop_
_atom_site_type_symbol
_atom_site_label
_atom_site_fract_x
_atom_site_fract_y
_atom_site_fract_z
Si Si1 0.082631 0.280240 0.669204
Si Si2 0.254561 0.817207 0.340841
Si Si3 0.294559 0.179906 0.661035
Si Si4 0.566129 0.786778 0.832086
Si Si5 0.999837 0.069164 0.669202
Si Si6 0.634212 0.348056 0.670133
Si Si7 0.883985 0.151687 0.832309
O O1 0.062899 0.278976 0.500000
O O2 0.156134 0.322178 0.700565
O O3 0.097586 0.213257 0.731110
O O4 0.011587 0.307283 0.755908
O O5 0.240797 0.844785 0.500000
O O6 0.233489 0.747812 0.344307
O O7 0.202435 0.852351 0.226664
O O8 0.318239 0.158832 0.500000
O O9 0.365945 0.172637 0.767229
O O10 0.221783 0.142098 0.722830
O O11 0.581054 0.716836 0.799156
O O12 0.560830 0.800348 0.000000
O O13 0.985805 0.078724 0.500000
O O14 0.932735 0.101522 0.753238
O O15 0.081558 0.096255 0.716690
O O16 0.000000 0.000000 0.713135
O O17 0.638924 0.340300 0.500000
O O18 0.882435 0.137221 0.000000
#
# Coordination Sequence:
#
# PCOD8224346 Si02
#       7
#     8   8   8   8   8   8   8
#     4   9  15  25  42  60  80 109 140 169 203 245
#     4   8  15  26  41  59  76 102 140 173 202 242
#     4   8  14  25  40  55  74 105 138 167 200 240
#     4  10  18  25  36  59  86 110 137 167 202 245
#     4  10  19  30  46  64  81 107 145 185 215 241
#     4   8  14  26  42  58  77 103 139 175 205 240
#     4  10  19  29  40  56  82 114 140 170 212 249
#
# _framework density 15.402162000000001
#
# number of rings (size 3 to 8) (size 9 to 14) (size 15 to 20)
#    0.000    3.000    1.429    2.571    0.000    2.000 
#    0.000    2.857    0.000    0.000    0.000    0.000 
#    0.000    1.143    0.000   13.143    0.000    3.714 
#
# Total GULP energy -694084.008616 kJ/mol
# GULP energy per Si atom -12394.357297 kJ/mol
# Density = 1.536711 g / cm^3
# Si number density = 15.402162 Si / 1000 Ang^3
#
#
#
# Elastic Constant Matrix: (Units=GPa)
#
#
# Indices 1 2 3 4 5 6 
#
# 1 150.2106 37.7333 65.6899 0.0000 0.0000 0.0000
# 2 37.7333 44.2699 26.6559 0.0000 0.0000 0.0000
# 3 65.6899 26.6559 70.6568 0.0000 0.0000 0.0000
# 4 0.0000 0.0000 0.0000 11.0576 0.0000 0.0000
# 5 0.0000 0.0000 0.0000 0.0000 11.5112 0.0000
# 6 0.0000 0.0000 0.0000 0.0000 0.0000 15.6189
#
#
#
# Elastic Compliance Matrix: (Units=1/GPa)
#
#
# Indices 1 2 3 4 5 6 
#
# 1 0.011871 -0.004494 -0.009342 0.000000 0.000000 0.000000
# 2 -0.004494 0.030929 -0.007490 0.000000 0.000000 0.000000
# 3 -0.009342 -0.007490 0.025664 0.000000 0.000000 0.000000
# 4 0.000000 0.000000 0.000000 0.090435 0.000000 0.000000
# 5 0.000000 0.000000 0.000000 0.000000 0.086872 0.000000
# 6 0.000000 0.000000 0.000000 0.000000 0.000000 0.064025
#
#
# Mechanical properties :
#
#
# Convention : Reuss Voigt Hill
#
# Bulk Modulus (GPa) = 38.74073 58.36617 48.55345
# Shear Modulus (GPa) = 13.84843 16.64144 15.24493
#
# Velocity S-wave (km/s) = 3.00179 3.29060 3.14951
# Velocity P-wave (km/s) = 6.10096 7.23978 6.69463
#
# Compressibility (1/GPa) = 0.02581263
#
# Stress axis : x y z
#
# Youngs Moduli (GPa) = 84.23593 32.33200 38.96562
#
# Poissons Ratio (x) = 0.14529 0.36400
# Poissons Ratio (y) = 0.37854 0.29187
# Poissons Ratio (z) = 0.78690 0.24218
#
# Static dielectric constant tensor:
#      x y z
#    x 3.283500 0.000000 0.000000 
#    y 0.000000 2.483050 0.000000 
#    z 0.000000 0.000000 2.837280 
# 
# 
# High freq. dielectric constant tensor:
#      x y z
#    x 1.606570 0.000000 0.000000 
#    y 0.000000 1.519950 0.000000 
#    z 0.000000 0.000000 1.579910 
# 
# From -- ./inp_files/7830.got.cif
#   From: 2010.03.12/outbox.cif.g09.slc.cpg/sg55_4_cif.got.tgz:7830.got - 2010.04.16 15:19:21.
