data_PCOD8224764
_publ_section_title
;
Structure prediction by ZEFSAII (Michael W. Deem and Ramdas Pophale) SiO2 
 PCOD8224764
Probable space group: P B A M
;
_chemical_formula_sum "Si O2"
_cell_formula_units_Z 64
_cell_length_a 18.381090
_cell_length_b 26.452317
_cell_length_c 8.741500
_cell_angle_alpha 90.000000
_cell_angle_beta 90.000000
_cell_angle_gamma 90.000000
_cell_volume 4250.313280
_symmetry_space_group_name_H-M "P B A M"
_symmetry_group_IT_number 55
_symmetry_cell_setting 'orthorhombic'
loop_
_space_group_symop_operation_xyz
x,y,z
-x,-y,z
1/2+x,1/2-y,-z
1/2-x,1/2+y,-z
-x,-y,-z
x,y,-z
1/2-x,1/2+y,z
1/2+x,1/2-y,z
loop_
_atom_site_type_symbol
_atom_site_label
_atom_site_fract_x
_atom_site_fract_y
_atom_site_fract_z
Si Si1 0.155160 0.145461 0.323514
Si Si2 0.427744 0.555687 0.820234
Si Si3 0.157106 0.852062 0.324461
Si Si4 0.211370 0.289704 0.325667
Si Si5 0.565923 0.252861 0.672802
Si Si6 0.780359 0.302055 0.175897
Si Si7 0.415747 0.256020 0.821975
Si Si8 0.916951 0.048447 0.318679
O O1 0.151096 0.129715 0.500000
O O2 0.128164 0.099927 0.218600
O O3 0.106334 0.194623 0.287872
O O4 0.239589 0.156136 0.279060
O O5 0.392931 0.502288 0.769208
O O6 0.501529 0.564614 0.726041
O O7 0.444569 0.555034 0.000000
O O8 0.134546 0.852202 0.500000
O O9 0.244124 0.842079 0.301833
O O10 0.107715 0.808343 0.253909
O O11 0.136926 0.907205 0.259099
O O12 0.225829 0.269121 0.500000
O O13 0.123988 0.293354 0.303689
O O14 0.241283 0.251619 0.199254
O O15 0.536491 0.253992 0.500000
O O16 0.498525 0.242653 0.782702
O O17 0.864396 0.291762 0.226355
O O18 0.774277 0.318738 0.000000
O O19 0.407596 0.264956 0.000000
O O20 0.912436 0.039250 0.500000
#
# Coordination Sequence:
#
# PCOD8224764 Si02
#       8
#     8   8   8   8   8   8   8   8
#     4  10  19  31  45  60  79 108 142 174 206 243
#     4  11  21  31  43  60  83 110 138 173 210 244
#     4   9  17  29  45  60  78 107 141 172 205 240
#     4   8  15  28  42  58  79 105 136 169 202 239
#     4   9  17  27  41  59  81 108 137 166 198 237
#     4   9  17  28  40  58  81 106 135 168 203 239
#     4  10  19  27  39  60  86 111 137 168 201 239
#     4  10  19  31  45  61  82 109 141 176 207 241
#
# _framework density 15.057714000000001
#
# number of rings (size 3 to 8) (size 9 to 14) (size 15 to 20)
#    0.000    2.500    0.000    4.875    0.000    8.000 
#    0.000    0.000    0.000    0.000    0.000    0.000 
#    0.000    1.000    0.000   11.500    0.000    2.875 
#
# Total GULP energy -793113.244080 kJ/mol
# GULP energy per Si atom -12392.394439 kJ/mol
# Density = 1.502344 g / cm^3
# Si number density = 15.057714 Si / 1000 Ang^3
#
#
#
# Elastic Constant Matrix: (Units=GPa)
#
#
# Indices 1 2 3 4 5 6 
#
# 1 88.1626 42.5138 18.8385 0.0000 0.0000 0.0000
# 2 42.5138 70.0017 17.0757 0.0000 0.0000 0.0000
# 3 18.8385 17.0757 38.8615 0.0000 0.0000 0.0000
# 4 0.0000 0.0000 0.0000 17.8698 0.0000 0.0000
# 5 0.0000 0.0000 0.0000 0.0000 19.4884 0.0000
# 6 0.0000 0.0000 0.0000 0.0000 0.0000 26.1065
#
#
#
# Elastic Compliance Matrix: (Units=1/GPa)
#
#
# Indices 1 2 3 4 5 6 
#
# 1 0.016590 -0.009088 -0.004049 0.000000 0.000000 0.000000
# 2 -0.009088 0.020979 -0.004813 0.000000 0.000000 0.000000
# 3 -0.004049 -0.004813 0.029810 0.000000 0.000000 0.000000
# 4 0.000000 0.000000 0.000000 0.055960 0.000000 0.000000
# 5 0.000000 0.000000 0.000000 0.000000 0.051312 0.000000
# 6 0.000000 0.000000 0.000000 0.000000 0.000000 0.038305
#
#
# Mechanical properties :
#
#
# Convention : Reuss Voigt Hill
#
# Bulk Modulus (GPa) = 31.76650 39.32019 35.54335
# Shear Modulus (GPa) = 19.27906 20.59945 19.93926
#
# Velocity S-wave (km/s) = 3.58207 3.70271 3.64289
# Velocity P-wave (km/s) = 6.18471 6.66706 6.43041
#
# Compressibility (1/GPa) = 0.03147970
#
# Stress axis : x y z
#
# Youngs Moduli (GPa) = 60.27616 47.66737 33.54595
#
# Poissons Ratio (x) = 0.43320 0.13583
# Poissons Ratio (y) = 0.54779 0.16144
# Poissons Ratio (z) = 0.24406 0.22940
#
# Static dielectric constant tensor:
#      x y z
#    x 3.071370 0.000000 0.000000 
#    y 0.000000 2.825500 0.000000 
#    z 0.000000 0.000000 2.939090 
# 
# 
# High freq. dielectric constant tensor:
#      x y z
#    x 1.565570 0.000000 0.000000 
#    y 0.000000 1.541100 0.000000 
#    z 0.000000 0.000000 1.587070 
# 
# From -- ./inp_files/8232.got.cif
#   From: 2010.03.12/outbox.cif.g09.slc.cpg/sg55_5_cif.got.tgz:8232.got - 2010.04.16 15:19:21.
