data_PCOD8224430
_publ_section_title
;
Structure prediction by ZEFSAII (Michael W. Deem and Ramdas Pophale) SiO2 
 PCOD8224430
Probable space group: P B A M
;
_chemical_formula_sum "Si O2"
_cell_formula_units_Z 64
_cell_length_a 19.036310
_cell_length_b 23.330656
_cell_length_c 8.788987
_cell_angle_alpha 90.000000
_cell_angle_beta 90.000000
_cell_angle_gamma 90.000000
_cell_volume 3903.449282
_symmetry_space_group_name_H-M "P B A M"
_symmetry_group_IT_number 55
_symmetry_cell_setting 'orthorhombic'
loop_
_space_group_symop_operation_xyz
x,y,z
-x,-y,z
1/2+x,1/2-y,-z
1/2-x,1/2+y,-z
-x,-y,-z
x,y,-z
1/2-x,1/2+y,z
1/2+x,1/2-y,z
loop_
_atom_site_type_symbol
_atom_site_label
_atom_site_fract_x
_atom_site_fract_y
_atom_site_fract_z
Si Si1 0.000621 0.121374 0.818974
Si Si2 0.732538 0.667077 0.821115
Si Si3 0.859046 0.725682 0.320582
Si Si4 0.497691 0.247737 0.819911
Si Si5 0.360415 0.436896 0.179676
Si Si6 0.776256 0.838520 0.324922
Si Si7 0.357115 0.564596 0.180080
Si Si8 0.645013 0.766028 0.322282
O O1 0.000353 0.186759 0.762139
O O2 0.070014 0.090155 0.754910
O O3 0.932656 0.088846 0.751589
O O4 0.000263 0.120220 0.000000
O O5 0.805266 0.676381 0.732371
O O6 0.705350 0.603528 0.778841
O O7 0.672543 0.711359 0.770405
O O8 0.745153 0.674494 0.000000
O O9 0.869626 0.721288 0.500000
O O10 0.932418 0.715520 0.235760
O O11 0.827061 0.786945 0.271117
O O12 0.431462 0.217044 0.740265
O O13 0.490684 0.242404 0.000000
O O14 0.346809 0.500441 0.246002
O O15 0.370200 0.440050 0.000000
O O16 0.789746 0.852169 0.500000
O O17 0.792364 0.895779 0.231114
O O18 0.695844 0.820358 0.294410
O O19 0.358753 0.563415 0.000000
O O20 0.643405 0.750067 0.500000
#
# Coordination Sequence:
#
# PCOD8224430 Si02
#       8
#     8   8   8   8   8   8   8   8
#     4   9  16  27  43  68  97 126 161 195 228 270
#     4  10  18  31  49  70  95 125 165 206 238 280
#     4  10  20  33  48  68  97 129 159 198 248 294
#     4  11  19  30  50  75  96 126 164 200 239 286
#     4   9  17  29  46  70  97 127 163 203 238 272
#     4   9  19  33  46  64  94 127 160 197 238 282
#     4  10  18  29  49  70  93 128 167 200 235 277
#     4  10  20  33  48  68  96 130 160 197 249 293
#
# _framework density 16.395755999999999
#
# number of rings (size 3 to 8) (size 9 to 14) (size 15 to 20)
#    0.000    2.250    2.500    2.625    0.000    4.000 
#    0.000    1.250    0.000    0.750    0.000    0.875 
#    0.000    7.000    0.000    0.000    0.000    0.000 
#
# Total GULP energy -793618.763960 kJ/mol
# GULP energy per Si atom -12400.293187 kJ/mol
# Density = 1.635844 g / cm^3
# Si number density = 16.395756 Si / 1000 Ang^3
#
#
#
# Elastic Constant Matrix: (Units=GPa)
#
#
# Indices 1 2 3 4 5 6 
#
# 1 120.1579 51.4129 23.9115 0.0000 0.0000 0.0000
# 2 51.4129 84.6015 23.8085 0.0000 0.0000 0.0000
# 3 23.9115 23.8085 34.6661 0.0000 0.0000 0.0000
# 4 0.0000 0.0000 0.0000 13.2939 0.0000 0.0000
# 5 0.0000 0.0000 0.0000 0.0000 25.8316 0.0000
# 6 0.0000 0.0000 0.0000 0.0000 0.0000 22.6779
#
#
#
# Elastic Compliance Matrix: (Units=1/GPa)
#
#
# Indices 1 2 3 4 5 6 
#
# 1 0.011665 -0.005981 -0.003939 0.000000 0.000000 0.000000
# 2 -0.005981 0.017718 -0.008044 0.000000 0.000000 0.000000
# 3 -0.003939 -0.008044 0.037088 0.000000 0.000000 0.000000
# 4 0.000000 0.000000 0.000000 0.075223 0.000000 0.000000
# 5 0.000000 0.000000 0.000000 0.000000 0.038712 0.000000
# 6 0.000000 0.000000 0.000000 0.000000 0.000000 0.044096
#
#
# Mechanical properties :
#
#
# Convention : Reuss Voigt Hill
#
# Bulk Modulus (GPa) = 32.73834 48.63238 40.68536
# Shear Modulus (GPa) = 18.47682 21.71352 20.09517
#
# Velocity S-wave (km/s) = 3.36061 3.64309 3.50470
# Velocity P-wave (km/s) = 5.92193 6.88637 6.42228
#
# Compressibility (1/GPa) = 0.03054523
#
# Stress axis : x y z
#
# Youngs Moduli (GPa) = 85.72553 56.43933 26.96303
#
# Poissons Ratio (x) = 0.33754 0.10620
# Poissons Ratio (y) = 0.51268 0.21688
# Poissons Ratio (z) = 0.33766 0.45398
#
# Static dielectric constant tensor:
#      x y z
#    x 3.151030 0.000000 0.000000 
#    y 0.000000 3.036550 0.000000 
#    z 0.000000 0.000000 2.888640 
# 
# 
# High freq. dielectric constant tensor:
#      x y z
#    x 1.630510 0.000000 0.000000 
#    y 0.000000 1.602130 0.000000 
#    z 0.000000 0.000000 1.619090 
# 
# From -- ./inp_files/8156.got.cif
#   From: 2010.03.12/outbox.cif.g09.slc.cpg/sg55_5_cif.got.tgz:8156.got - 2010.04.16 15:19:21.
