data_PCOD8224097
_publ_section_title
;
Structure prediction by ZEFSAII (Michael W. Deem and Ramdas Pophale) SiO2 
 PCOD8224097
Probable space group: P C C A
;
_chemical_formula_sum "Si O2"
_cell_formula_units_Z 40
_cell_length_a 15.340366
_cell_length_b 6.864039
_cell_length_c 18.435108
_cell_angle_alpha 90.000000
_cell_angle_beta 90.000000
_cell_angle_gamma 90.000000
_cell_volume 1941.159180
_symmetry_space_group_name_H-M "P C C A"
_symmetry_group_IT_number 54
_symmetry_cell_setting 'orthorhombic'
loop_
_space_group_symop_operation_xyz
x,y,z
1/2-x,-y,z
1/2+x,-y,1/2-z
-x,y,1/2-z
-x,-y,-z
1/2+x,y,-z
1/2-x,y,1/2+z
x,-y,1/2+z
loop_
_atom_site_type_symbol
_atom_site_label
_atom_site_fract_x
_atom_site_fract_y
_atom_site_fract_z
Si Si1 0.623942 0.301760 0.736438
Si Si2 0.500000 0.365461 0.250000
Si Si3 0.839647 0.109980 0.381083
Si Si4 0.172427 0.843865 0.459957
Si Si5 0.750000 0.500000 0.127774
Si Si6 0.529089 0.030417 0.145604
O O1 0.578440 0.491311 0.770413
O O2 0.693097 0.355208 0.675781
O O3 0.674189 0.227014 0.807116
O O4 0.557859 0.145687 0.699358
O O5 0.537606 0.236469 0.185337
O O6 0.927611 0.984240 0.374516
O O7 0.750000 0.000000 0.390620
O O8 0.849670 0.223187 0.457576
O O9 0.190786 0.640042 0.420829
O O10 0.089224 0.954768 0.425247
O O11 0.250000 0.000000 0.454448
#
# Coordination Sequence:
#
# PCOD8224097 Si02
#       6
#     8   4   8   8   4   8
#     4  12  25  43  69 103 134 175 235 281 335 408
#     4  12  22  42  70 102 130 180 236 278 334 406
#     4  11  26  45  67 102 140 176 224 288 337 400
#     4  11  25  46  68  98 141 181 222 278 349 406
#     4  12  26  42  72 100 130 184 226 272 344 414
#     4  12  23  46  70  97 141 179 227 279 341 404
#
# _framework density 20.606244
#
# number of rings (size 3 to 8) (size 9 to 14) (size 15 to 20)
#    0.000    0.400    8.000    0.600    5.600    0.800 
#    3.600    2.000    0.000    0.000    0.000    0.000 
#    0.000    0.000    0.000    0.000    0.000    0.000 
#
# Total GULP energy -495655.428847 kJ/mol
# GULP energy per Si atom -12391.385721 kJ/mol
# Density = 2.055934 g / cm^3
# Si number density = 20.606244 Si / 1000 Ang^3
#
#
#
# Elastic Constant Matrix: (Units=GPa)
#
#
# Indices 1 2 3 4 5 6 
#
# 1 113.1380 32.6675 50.4965 0.0000 0.0000 0.0000
# 2 32.6675 97.5663 51.2752 0.0000 0.0000 0.0000
# 3 50.4965 51.2752 166.4553 0.0000 0.0000 0.0000
# 4 0.0000 0.0000 0.0000 58.6117 0.0000 0.0000
# 5 0.0000 0.0000 0.0000 0.0000 -41.8802 0.0000
# 6 0.0000 0.0000 0.0000 0.0000 0.0000 29.5849
#
#
#
# Elastic Compliance Matrix: (Units=1/GPa)
#
#
# Indices 1 2 3 4 5 6 
#
# 1 0.010611 -0.002221 -0.002535 0.000000 0.000000 0.000000
# 2 -0.002221 0.012694 -0.003237 0.000000 0.000000 0.000000
# 3 -0.002535 -0.003237 0.007774 0.000000 0.000000 0.000000
# 4 0.000000 0.000000 0.000000 0.017061 0.000000 0.000000
# 5 0.000000 0.000000 0.000000 0.000000 -0.023878 0.000000
# 6 0.000000 0.000000 0.000000 0.000000 0.000000 0.033801
#
#
# Mechanical properties :
#
#
# Convention : Reuss Voigt Hill
#
# Bulk Modulus (GPa) = 66.24981 71.78198 69.01590
# Shear Modulus (GPa) = 63.22716 25.44465 44.33591
#
# Velocity S-wave (km/s) = 5.54528 3.51779 4.64354
# Velocity P-wave (km/s) = 8.55689 7.17011 7.89401
#
# Compressibility (1/GPa) = 0.01509438
#
# Stress axis : x y z
#
# Youngs Moduli (GPa) = 94.23807 78.77779 128.63942
#
# Poissons Ratio (x) = 0.17494 0.32611
# Poissons Ratio (y) = 0.20927 0.41635
# Poissons Ratio (z) = 0.23890 0.25497
#
# Static dielectric constant tensor:
#      x y z
#    x 3.948950 0.000000 0.000000 
#    y 0.000000 3.627340 0.000000 
#    z 0.000000 0.000000 4.085530 
# 
# 
# High freq. dielectric constant tensor:
#      x y z
#    x 1.820310 0.000000 0.000000 
#    y 0.000000 1.796350 0.000000 
#    z 0.000000 0.000000 1.820920 
# 
# From -- ./inp_files/18431.got.cif
#   From: 2010.03.12/outbox.cif.g09.slc.cpg/sg54_10_cif.got.tgz:18431.got - 2010.04.16 15:00:50.
