data_PCOD8224482
_publ_section_title
;
Structure prediction by ZEFSAII (Michael W. Deem and Ramdas Pophale) SiO2 
 PCOD8224482
Probable space group: P B A M
;
_chemical_formula_sum "Si O2"
_cell_formula_units_Z 56
_cell_length_a 21.827027
_cell_length_b 14.336792
_cell_length_c 9.300517
_cell_angle_alpha 90.000000
_cell_angle_beta 90.000000
_cell_angle_gamma 90.000000
_cell_volume 2910.406563
_symmetry_space_group_name_H-M "P B A M"
_symmetry_group_IT_number 55
_symmetry_cell_setting 'orthorhombic'
loop_
_space_group_symop_operation_xyz
x,y,z
-x,-y,z
1/2+x,1/2-y,-z
1/2-x,1/2+y,-z
-x,-y,-z
x,y,-z
1/2-x,1/2+y,z
1/2+x,1/2-y,z
loop_
_atom_site_type_symbol
_atom_site_label
_atom_site_fract_x
_atom_site_fract_y
_atom_site_fract_z
Si Si1 0.117435 0.936659 0.335818
Si Si2 0.471864 0.285316 0.336140
Si Si3 0.432982 0.596797 0.837045
Si Si4 0.198629 0.188920 0.164538
Si Si5 0.744026 0.478511 0.334010
Si Si6 0.838810 0.634341 0.667980
Si Si7 0.025233 0.404663 0.331853
O O1 0.108671 0.968007 0.500000
O O2 0.096721 0.828071 0.315250
O O3 0.070168 0.997671 0.242581
O O4 0.187574 0.952994 0.288799
O O5 0.494293 0.300056 0.500000
O O6 0.517845 0.336772 0.232527
O O7 0.474611 0.175303 0.299259
O O8 0.368487 0.647253 0.823701
O O9 0.451872 0.577295 0.000000
O O10 0.245008 0.115780 0.239927
O O11 0.198939 0.287550 0.245771
O O12 0.219393 0.203666 0.000000
O O13 0.738082 0.448837 0.500000
O O14 0.806177 0.535029 0.305864
O O15 0.837727 0.662136 0.500000
O O16 0.908039 0.624716 0.729338
O O17 0.034614 0.422216 0.500000
O O18 0.000000 0.500000 0.259701
#
# Coordination Sequence:
#
# PCOD8224482 Si02
#       7
#     8   8   8   8   8   8   8
#     4   9  18  31  47  73 107 137 166 206 259 315
#     4  10  18  30  50  73 101 138 170 208 259 311
#     4  10  19  30  48  75 103 134 170 209 253 307
#     4  10  20  34  54  78 105 141 178 214 264 325
#     4   9  19  35  53  79 109 138 178 225 269 314
#     4  10  19  35  59  82 104 137 178 226 272 311
#     4   9  18  33  53  79 106 134 175 221 267 315
#
# _framework density 19.241299000000001
#
# number of rings (size 3 to 8) (size 9 to 14) (size 15 to 20)
#    0.000    2.429    1.429    1.286    0.000    4.000 
#    2.571    0.000    0.000    1.714    0.000    0.000 
#    0.000    0.000    0.000    0.000    0.000    0.000 
#
# Total GULP energy -694218.116192 kJ/mol
# GULP energy per Si atom -12396.752075 kJ/mol
# Density = 1.919750 g / cm^3
# Si number density = 19.241299 Si / 1000 Ang^3
#
#
#
# Elastic Constant Matrix: (Units=GPa)
#
#
# Indices 1 2 3 4 5 6 
#
# 1 38.0571 30.0945 18.0326 0.0000 0.0000 0.0000
# 2 30.0945 106.8450 37.1486 0.0000 0.0000 0.0000
# 3 18.0326 37.1486 71.3375 0.0000 0.0000 0.0000
# 4 0.0000 0.0000 0.0000 6.6502 0.0000 0.0000
# 5 0.0000 0.0000 0.0000 0.0000 14.5934 0.0000
# 6 0.0000 0.0000 0.0000 0.0000 0.0000 25.1898
#
#
#
# Elastic Compliance Matrix: (Units=1/GPa)
#
#
# Indices 1 2 3 4 5 6 
#
# 1 0.034965 -0.008273 -0.004530 0.000000 0.000000 0.000000
# 2 -0.008273 0.013386 -0.004879 0.000000 0.000000 0.000000
# 3 -0.004530 -0.004879 0.017704 0.000000 0.000000 0.000000
# 4 0.000000 0.000000 0.000000 0.150371 0.000000 0.000000
# 5 0.000000 0.000000 0.000000 0.000000 0.068524 0.000000
# 6 0.000000 0.000000 0.000000 0.000000 0.000000 0.039699
#
#
# Mechanical properties :
#
#
# Convention : Reuss Voigt Hill
#
# Bulk Modulus (GPa) = 32.58454 42.97677 37.78065
# Shear Modulus (GPa) = 13.50457 18.01761 15.76109
#
# Velocity S-wave (km/s) = 2.65213 3.06339 2.86515
# Velocity P-wave (km/s) = 5.13321 5.90734 5.53383
#
# Compressibility (1/GPa) = 0.03068941
#
# Stress axis : x y z
#
# Youngs Moduli (GPa) = 28.59984 74.70373 56.48466
#
# Poissons Ratio (x) = 0.61806 0.25588
# Poissons Ratio (y) = 0.23662 0.27561
# Poissons Ratio (z) = 0.12956 0.36451
#
# Static dielectric constant tensor:
#      x y z
#    x 3.478770 0.000000 0.000000 
#    y 0.000000 3.585570 0.000000 
#    z 0.000000 0.000000 3.403740 
# 
# 
# High freq. dielectric constant tensor:
#      x y z
#    x 1.731430 0.000000 0.000000 
#    y 0.000000 1.748730 0.000000 
#    z 0.000000 0.000000 1.725540 
# 
# From -- ./inp_files/8767.got.cif
#   From: 2010.03.12/outbox.cif.g09.slc.cpg/sg55_5_cif.got.tgz:8767.got - 2010.04.16 15:19:21.
