data_PCOD8224736
_publ_section_title
;
Structure prediction by ZEFSAII (Michael W. Deem and Ramdas Pophale) SiO2 
 PCOD8224736
Probable space group: P B A M
;
_chemical_formula_sum "Si O2"
_cell_formula_units_Z 44
_cell_length_a 8.416221
_cell_length_b 14.234878
_cell_length_c 16.814686
_cell_angle_alpha 90.000000
_cell_angle_beta 90.000000
_cell_angle_gamma 90.000000
_cell_volume 2014.464610
_symmetry_space_group_name_H-M "P B A M"
_symmetry_group_IT_number 55
_symmetry_cell_setting 'orthorhombic'
loop_
_space_group_symop_operation_xyz
x,y,z
-x,-y,z
1/2+x,1/2-y,-z
1/2-x,1/2+y,-z
-x,-y,-z
x,y,-z
1/2-x,1/2+y,z
1/2+x,1/2-y,z
loop_
_atom_site_type_symbol
_atom_site_label
_atom_site_fract_x
_atom_site_fract_y
_atom_site_fract_z
Si Si1 0.374895 0.848061 0.500000
Si Si2 0.261514 0.351667 0.171440
Si Si3 0.201314 0.190458 0.628057
Si Si4 0.376745 0.618672 0.000000
Si Si5 0.223718 0.560899 0.500000
Si Si6 0.000000 0.000000 0.862878
Si Si7 0.206799 0.795802 0.000000
Si Si8 0.022499 0.720281 0.261762
O O1 0.321079 0.787474 0.422977
O O2 0.561071 0.876109 0.500000
O O3 0.285493 0.948921 0.500000
O O4 0.377743 0.439744 0.190435
O O5 0.100226 0.356295 0.223967
O O6 0.361723 0.258509 0.193341
O O7 0.218038 0.345617 0.078101
O O8 0.175607 0.096640 0.576156
O O9 0.377218 0.178190 0.665375
O O10 0.077579 0.193031 0.700747
O O11 0.382645 0.558854 0.919766
O O12 0.519621 0.692468 0.000000
O O13 0.222132 0.683308 0.000000
#
# Coordination Sequence:
#
# PCOD8224736 Si02
#       8
#     4   8   8   4   4   4   4   8
#     4  10  20  37  66  93 118 164 205 245 305 363
#     4  10  20  36  60  84 115 160 207 248 306 363
#     4  10  20  40  60  88 125 161 202 254 300 373
#     4   9  18  32  60  81 110 140 192 263 308 339
#     4  10  20  37  66  91 118 159 205 252 299 358
#     4   9  18  34  52  86 114 143 192 260 304 351
#     4  10  18  34  62  82 104 154 212 242 290 374
#     4  10  21  37  58  83 123 164 197 238 313 370
#
# _framework density 21.842033000000001
#
# number of rings (size 3 to 8) (size 9 to 14) (size 15 to 20)
#    0.000    2.182    1.818    2.727    0.000    0.000 
#    6.545    0.909    4.000   27.273    0.000    0.000 
#    0.000    0.000    0.000    0.000    0.000    0.000 
#
# Total GULP energy -545128.420200 kJ/mol
# GULP energy per Si atom -12389.282277 kJ/mol
# Density = 2.179232 g / cm^3
# Si number density = 21.842033 Si / 1000 Ang^3
#
#
#
# Elastic Constant Matrix: (Units=GPa)
#
#
# Indices 1 2 3 4 5 6 
#
# 1 55.7371 1.9810 28.3845 0.0000 0.0000 0.0000
# 2 1.9810 82.9372 12.3870 0.0000 0.0000 0.0000
# 3 28.3845 12.3870 99.2656 0.0000 0.0000 0.0000
# 4 0.0000 0.0000 0.0000 17.4636 0.0000 0.0000
# 5 0.0000 0.0000 0.0000 0.0000 17.9405 0.0000
# 6 0.0000 0.0000 0.0000 0.0000 0.0000 39.1458
#
#
#
# Elastic Compliance Matrix: (Units=1/GPa)
#
#
# Indices 1 2 3 4 5 6 
#
# 1 0.021012 0.000403 -0.006059 0.000000 0.000000 0.000000
# 2 0.000403 0.012294 -0.001649 0.000000 0.000000 0.000000
# 3 -0.006059 -0.001649 0.012012 0.000000 0.000000 0.000000
# 4 0.000000 0.000000 0.000000 0.057262 0.000000 0.000000
# 5 0.000000 0.000000 0.000000 0.000000 0.055740 0.000000
# 6 0.000000 0.000000 0.000000 0.000000 0.000000 0.025546
#
#
# Mechanical properties :
#
#
# Convention : Reuss Voigt Hill
#
# Bulk Modulus (GPa) = 32.56412 35.93831 34.25122
# Shear Modulus (GPa) = 23.95643 27.92248 25.93946
#
# Velocity S-wave (km/s) = 3.31540 3.57933 3.44989
# Velocity P-wave (km/s) = 5.44032 5.79410 5.61999
#
# Compressibility (1/GPa) = 0.03070864
#
# Stress axis : x y z
#
# Youngs Moduli (GPa) = 47.59076 81.34031 83.24833
#
# Poissons Ratio (x) = -0.03278 0.50438
# Poissons Ratio (y) = -0.01918 0.13731
# Poissons Ratio (z) = 0.28834 0.13416
#
# Static dielectric constant tensor:
#      x y z
#    x 3.922240 0.000000 0.000000 
#    y 0.000000 3.670820 0.000000 
#    z 0.000000 0.000000 4.171480 
# 
# 
# High freq. dielectric constant tensor:
#      x y z
#    x 1.850010 0.000000 0.000000 
#    y 0.000000 1.823770 0.000000 
#    z 0.000000 0.000000 1.870580 
# 
# From -- ./inp_files/20744.got.cif
#   From: 2010.03.12/outbox.cif.g09.slc.cpg/sg55_11_cif.got.tgz:20744.got - 2010.04.16 15:19:21.
