data_PCOD8224262
_publ_section_title
;
Structure prediction by ZEFSAII (Michael W. Deem and Ramdas Pophale) SiO2 
 PCOD8224262
Probable space group: P B A M
;
_chemical_formula_sum "Si O2"
_cell_formula_units_Z 56
_cell_length_a 13.948332
_cell_length_b 29.174915
_cell_length_c 9.003379
_cell_angle_alpha 90.000000
_cell_angle_beta 90.000000
_cell_angle_gamma 90.000000
_cell_volume 3663.847659
_symmetry_space_group_name_H-M "P B A M"
_symmetry_group_IT_number 55
_symmetry_cell_setting 'orthorhombic'
loop_
_space_group_symop_operation_xyz
x,y,z
-x,-y,z
1/2+x,1/2-y,-z
1/2-x,1/2+y,-z
-x,-y,-z
x,y,-z
1/2-x,1/2+y,z
1/2+x,1/2-y,z
loop_
_atom_site_type_symbol
_atom_site_label
_atom_site_fract_x
_atom_site_fract_y
_atom_site_fract_z
Si Si1 0.392137 0.269403 0.324094
Si Si2 0.386376 0.003169 0.163452
Si Si3 0.712982 0.819597 0.323331
Si Si4 0.897026 0.771263 0.675927
Si Si5 0.793557 0.678544 0.674166
Si Si6 0.896529 0.597014 0.824278
Si Si7 0.399402 0.092721 0.324548
O O1 0.399414 0.265606 0.500000
O O2 0.357145 0.220226 0.261634
O O3 0.497224 0.280713 0.256125
O O4 0.315991 0.308891 0.282182
O O5 0.356310 0.043501 0.275857
O O6 0.500000 0.000000 0.154434
O O7 0.351393 0.952926 0.217488
O O8 0.344804 0.014793 0.000000
O O9 0.713152 0.817312 0.500000
O O10 0.821066 0.809200 0.263980
O O11 0.676200 0.868968 0.269038
O O12 0.900514 0.774610 0.500000
O O13 0.862566 0.720400 0.720488
O O14 0.803287 0.667641 0.500000
O O15 0.821354 0.634243 0.768081
O O16 0.998836 0.604365 0.747362
O O17 0.911985 0.600714 0.000000
O O18 0.412850 0.093236 0.500000
#
# Coordination Sequence:
#
# PCOD8224262 Si02
#       7
#     8   8   8   8   8   8   8
#     4   8  13  22  37  58  83 108 131 157 191 230
#     4   8  16  29  40  53  77 107 133 156 195 248
#     4   8  14  22  35  60  86 105 129 159 194 233
#     4   8  13  23  39  59  85 110 129 157 197 237
#     4   9  16  25  41  63  80 100 136 170 190 221
#     4  10  19  29  40  55  80 111 134 157 198 245
#     4  10  17  25  41  63  83 103 132 168 196 226
#
# _framework density 15.284478
#
# number of rings (size 3 to 8) (size 9 to 14) (size 15 to 20)
#    0.000    3.286    0.000    4.286    0.000    5.429 
#    0.000    0.000    0.000   11.143    0.000    1.000 
#    0.000    8.000    0.000    0.000    0.000    0.000 
#
# Total GULP energy -693871.172974 kJ/mol
# GULP energy per Si atom -12390.556660 kJ/mol
# Density = 1.524969 g / cm^3
# Si number density = 15.284478 Si / 1000 Ang^3
#
#
#
# Elastic Constant Matrix: (Units=GPa)
#
#
# Indices 1 2 3 4 5 6 
#
# 1 114.7907 66.4608 23.3004 0.0000 0.0000 0.0000
# 2 66.4608 133.9005 39.9814 0.0000 0.0000 0.0000
# 3 23.3004 39.9814 38.8887 0.0000 0.0000 0.0000
# 4 0.0000 0.0000 0.0000 8.9240 0.0000 0.0000
# 5 0.0000 0.0000 0.0000 0.0000 3.9584 0.0000
# 6 0.0000 0.0000 0.0000 0.0000 0.0000 22.2489
#
#
#
# Elastic Compliance Matrix: (Units=1/GPa)
#
#
# Indices 1 2 3 4 5 6 
#
# 1 0.012291 -0.005630 -0.001576 0.000000 0.000000 0.000000
# 2 -0.005630 0.013355 -0.010357 0.000000 0.000000 0.000000
# 3 -0.001576 -0.010357 0.037307 0.000000 0.000000 0.000000
# 4 0.000000 0.000000 0.000000 0.112058 0.000000 0.000000
# 5 0.000000 0.000000 0.000000 0.000000 0.252628 0.000000
# 6 0.000000 0.000000 0.000000 0.000000 0.000000 0.044946
#
#
# Mechanical properties :
#
#
# Convention : Reuss Voigt Hill
#
# Bulk Modulus (GPa) = 35.93679 60.78501 48.36090
# Shear Modulus (GPa) = 9.67142 17.54874 13.61008
#
# Velocity S-wave (km/s) = 2.51820 3.39210 2.98728
# Velocity P-wave (km/s) = 5.65846 7.42948 6.60361
#
# Compressibility (1/GPa) = 0.02782664
#
# Stress axis : x y z
#
# Youngs Moduli (GPa) = 81.36008 74.87715 26.80468
#
# Poissons Ratio (x) = 0.42156 0.04225
# Poissons Ratio (y) = 0.45806 0.27762
# Poissons Ratio (z) = 0.12823 0.77552
#
# Static dielectric constant tensor:
#      x y z
#    x 3.125450 0.000000 0.000000 
#    y 0.000000 3.198930 0.000000 
#    z 0.000000 0.000000 2.614380 
# 
# 
# High freq. dielectric constant tensor:
#      x y z
#    x 1.561790 0.000000 0.000000 
#    y 0.000000 1.584790 0.000000 
#    z 0.000000 0.000000 1.553400 
# 
# From -- ./inp_files/6881.got.cif
#   From: 2010.03.12/outbox.cif.g09.slc.cpg/sg55_4_cif.got.tgz:6881.got - 2010.04.16 15:19:21.
