data_PCOD8224647
_publ_section_title
;
Structure prediction by ZEFSAII (Michael W. Deem and Ramdas Pophale) SiO2 
 PCOD8224647
Probable space group: P B A M
;
_chemical_formula_sum "Si O2"
_cell_formula_units_Z 44
_cell_length_a 17.512001
_cell_length_b 7.463683
_cell_length_c 13.847410
_cell_angle_alpha 90.000000
_cell_angle_beta 90.000000
_cell_angle_gamma 90.000000
_cell_volume 1809.912211
_symmetry_space_group_name_H-M "P B A M"
_symmetry_group_IT_number 55
_symmetry_cell_setting 'orthorhombic'
loop_
_space_group_symop_operation_xyz
x,y,z
-x,-y,z
1/2+x,1/2-y,-z
1/2-x,1/2+y,-z
-x,-y,-z
x,y,-z
1/2-x,1/2+y,z
1/2+x,1/2-y,z
loop_
_atom_site_type_symbol
_atom_site_label
_atom_site_fract_x
_atom_site_fract_y
_atom_site_fract_z
Si Si1 0.130092 0.995329 0.500000
Si Si2 0.295866 0.104771 0.500000
Si Si3 0.922315 0.204956 0.798031
Si Si4 0.318618 0.000817 0.293025
Si Si5 0.172440 0.132929 0.799654
Si Si6 0.500000 0.500000 0.656040
Si Si7 0.880050 0.288642 0.000000
Si Si8 0.229650 0.056763 0.000000
O O1 0.203063 0.128913 0.500000
O O2 0.076934 0.026176 0.593815
O O3 0.166319 0.798916 0.500000
O O4 0.326405 0.994113 0.408273
O O5 0.858956 0.326562 0.750114
O O6 0.992851 0.182598 0.723079
O O7 0.936525 0.280628 0.906764
O O8 0.899688 0.996076 0.809815
O O9 0.229814 0.022613 0.268782
O O10 0.352322 0.820337 0.247460
O O11 0.208492 0.171112 0.904760
O O12 0.815679 0.130705 0.000000
O O13 0.823677 0.462925 0.000000
#
# Coordination Sequence:
#
# PCOD8224647 Si02
#       8
#     4   4   8   8   8   4   4   4
#     4  11  24  44  78  95 142 175 236 291 358 400
#     4  12  24  42  66 110 122 177 235 291 333 422
#     4  11  23  40  64  94 137 184 230 273 353 419
#     4  12  21  37  62  97 134 172 224 287 350 399
#     4  11  21  36  61  97 137 172 224 297 340 409
#     4  11  24  47  66  96 140 203 214 285 358 428
#     4  10  20  33  60 101 131 182 222 295 335 424
#     4  10  18  32  56  95 138 165 226 290 366 375
#
# _framework density 24.310570999999999
#
# number of rings (size 3 to 8) (size 9 to 14) (size 15 to 20)
#    0.000    0.909    5.455    3.273    0.000    0.364 
#    0.000    1.818    4.000    2.182    0.000    5.091 
#    0.000    0.000    0.000    0.000    0.000    0.000 
#
# Total GULP energy -545242.913434 kJ/mol
# GULP energy per Si atom -12391.884396 kJ/mol
# Density = 2.425524 g / cm^3
# Si number density = 24.310571 Si / 1000 Ang^3
#
#
#
# Elastic Constant Matrix: (Units=GPa)
#
#
# Indices 1 2 3 4 5 6 
#
# 1 57.4336 14.6740 16.7635 0.0000 0.0000 0.0000
# 2 14.6740 72.8150 20.2348 0.0000 0.0000 0.0000
# 3 16.7635 20.2348 190.7152 0.0000 0.0000 0.0000
# 4 0.0000 0.0000 0.0000 6.4218 0.0000 0.0000
# 5 0.0000 0.0000 0.0000 0.0000 23.8368 0.0000
# 6 0.0000 0.0000 0.0000 0.0000 0.0000 24.2405
#
#
#
# Elastic Compliance Matrix: (Units=1/GPa)
#
#
# Indices 1 2 3 4 5 6 
#
# 1 0.018654 -0.003404 -0.001279 0.000000 0.000000 0.000000
# 2 -0.003404 0.014772 -0.001268 0.000000 0.000000 0.000000
# 3 -0.001279 -0.001268 0.005490 0.000000 0.000000 0.000000
# 4 0.000000 0.000000 0.000000 0.155720 0.000000 0.000000
# 5 0.000000 0.000000 0.000000 0.000000 0.041952 0.000000
# 6 0.000000 0.000000 0.000000 0.000000 0.000000 0.041253
#
#
# Mechanical properties :
#
#
# Convention : Reuss Voigt Hill
#
# Bulk Modulus (GPa) = 37.01614 47.14540 42.08077
# Shear Modulus (GPa) = 16.73648 28.85256 22.79452
#
# Velocity S-wave (km/s) = 2.62667 3.44878 3.06541
# Velocity P-wave (km/s) = 4.94556 5.94086 5.46591
#
# Compressibility (1/GPa) = 0.02701524
#
# Stress axis : x y z
#
# Youngs Moduli (GPa) = 53.60692 67.69649 182.13800
#
# Poissons Ratio (x) = 0.23044 0.23287
# Poissons Ratio (y) = 0.18248 0.23097
# Poissons Ratio (z) = 0.06854 0.08584
#
# Static dielectric constant tensor:
#      x y z
#    x 4.222730 0.000000 0.000000 
#    y 0.000000 4.205550 0.000000 
#    z 0.000000 0.000000 5.061810 
# 
# 
# High freq. dielectric constant tensor:
#      x y z
#    x 1.934370 0.000000 0.000000 
#    y 0.000000 1.952540 0.000000 
#    z 0.000000 0.000000 1.998100 
# 
# From -- ./inp_files/19330.got.cif
#   From: 2010.03.12/outbox.cif.g09.slc.cpg/sg55_10_cif.got.tgz:19330.got - 2010.04.16 15:19:21.
