data_PCOD8224331
_publ_section_title
;
Structure prediction by ZEFSAII (Michael W. Deem and Ramdas Pophale) SiO2 
 PCOD8224331
Probable space group: P B A M
;
_chemical_formula_sum "Si O2"
_cell_formula_units_Z 56
_cell_length_a 17.071189
_cell_length_b 12.812337
_cell_length_c 13.701216
_cell_angle_alpha 90.000000
_cell_angle_beta 90.000000
_cell_angle_gamma 90.000000
_cell_volume 2996.754988
_symmetry_space_group_name_H-M "P B A M"
_symmetry_group_IT_number 55
_symmetry_cell_setting 'orthorhombic'
loop_
_space_group_symop_operation_xyz
x,y,z
-x,-y,z
1/2+x,1/2-y,-z
1/2-x,1/2+y,-z
-x,-y,-z
x,y,-z
1/2-x,1/2+y,z
1/2+x,1/2-y,z
loop_
_atom_site_type_symbol
_atom_site_label
_atom_site_fract_x
_atom_site_fract_y
_atom_site_fract_z
Si Si1 0.159090 0.119905 0.263657
Si Si2 0.706100 0.148900 0.279371
Si Si3 0.509402 0.687321 0.300643
Si Si4 0.342712 0.429666 0.387073
Si Si5 0.707075 0.533709 0.109717
Si Si6 0.453239 0.894501 0.613831
Si Si7 0.960897 0.109921 0.106328
O O1 0.201409 0.229430 0.256600
O O2 0.171283 0.073192 0.155064
O O3 0.073128 0.130186 0.310637
O O4 0.192923 0.035861 0.340246
O O5 0.773085 0.150018 0.362430
O O6 0.625074 0.103747 0.321596
O O7 0.727681 0.085785 0.180241
O O8 0.576761 0.610993 0.340035
O O9 0.509589 0.798443 0.355011
O O10 0.518794 0.700972 0.183371
O O11 0.356959 0.444213 0.500000
O O12 0.632846 0.609185 0.102076
O O13 0.741281 0.513621 0.000000
O O14 0.431479 0.882963 0.500000
O O15 0.500000 0.000000 0.634571
O O16 0.995058 0.140031 0.000000
O O17 0.000000 0.000000 0.140202
#
# Coordination Sequence:
#
# PCOD8224331 Si02
#       7
#     8   8   8   8   8   8   8
#     4  10  21  35  55  82 115 147 182 237 289 346
#     4  10  22  39  57  81 116 152 194 238 286 345
#     4  11  19  35  58  88 115 143 191 240 295 347
#     4  11  22  35  55  84 116 148 189 243 295 344
#     4  10  20  36  58  85 116 150 187 229 284 345
#     4  10  23  42  62  81 111 160 205 238 282 346
#     4  10  17  31  58  89 118 146 182 229 289 355
#
# _framework density 18.686881
#
# number of rings (size 3 to 8) (size 9 to 14) (size 15 to 20)
#    0.000    1.714    4.286    1.286    0.000    6.857 
#    0.000    2.143    0.000    0.857    0.000    0.000 
#    0.000    0.000    0.000    0.000    0.000    0.000 
#
# Total GULP energy -693810.386493 kJ/mol
# GULP energy per Si atom -12389.471187 kJ/mol
# Density = 1.864435 g / cm^3
# Si number density = 18.686881 Si / 1000 Ang^3
#
#
#
# Elastic Constant Matrix: (Units=GPa)
#
#
# Indices 1 2 3 4 5 6 
#
# 1 69.6710 35.6927 29.6081 0.0000 0.0000 0.0000
# 2 35.6927 101.5040 51.8885 0.0000 0.0000 0.0000
# 3 29.6081 51.8885 138.8067 0.0000 0.0000 0.0000
# 4 0.0000 0.0000 0.0000 23.5323 0.0000 0.0000
# 5 0.0000 0.0000 0.0000 0.0000 29.0873 0.0000
# 6 0.0000 0.0000 0.0000 0.0000 0.0000 21.1343
#
#
#
# Elastic Compliance Matrix: (Units=1/GPa)
#
#
# Indices 1 2 3 4 5 6 
#
# 1 0.017867 -0.005358 -0.001808 0.000000 0.000000 0.000000
# 2 -0.005358 0.013786 -0.004011 0.000000 0.000000 0.000000
# 3 -0.001808 -0.004011 0.009089 0.000000 0.000000 0.000000
# 4 0.000000 0.000000 0.000000 0.042495 0.000000 0.000000
# 5 0.000000 0.000000 0.000000 0.000000 0.034379 0.000000
# 6 0.000000 0.000000 0.000000 0.000000 0.000000 0.047316
#
#
# Mechanical properties :
#
#
# Convention : Reuss Voigt Hill
#
# Bulk Modulus (GPa) = 54.38285 60.48448 57.43367
# Shear Modulus (GPa) = 25.85105 27.60360 26.72733
#
# Velocity S-wave (km/s) = 3.72342 3.84756 3.78600
# Velocity P-wave (km/s) = 6.90293 7.22329 7.06493
#
# Compressibility (1/GPa) = 0.01838815
#
# Stress axis : x y z
#
# Youngs Moduli (GPa) = 55.97027 72.53616 110.02136
#
# Poissons Ratio (x) = 0.38867 0.19892
# Poissons Ratio (y) = 0.29991 0.44125
# Poissons Ratio (z) = 0.10119 0.29091
#
# Static dielectric constant tensor:
#      x y z
#    x 3.577090 0.000000 0.000000 
#    y 0.000000 3.349130 0.000000 
#    z 0.000000 0.000000 3.676700 
# 
# 
# High freq. dielectric constant tensor:
#      x y z
#    x 1.721800 0.000000 0.000000 
#    y 0.000000 1.704960 0.000000 
#    z 0.000000 0.000000 1.736450 
# 
# From -- ./inp_files/18374.got.cif
#   From: 2010.03.12/outbox.cif.g09.slc.cpg/sg55_10_cif.got.tgz:18374.got - 2010.04.16 15:19:21.
