data_PCOD8224895
_publ_section_title
;
Structure prediction by ZEFSAII (Michael W. Deem and Ramdas Pophale) SiO2 
 PCOD8224895
Probable space group: P B A M
;
_chemical_formula_sum "Si O2"
_cell_formula_units_Z 64
_cell_length_a 23.641817
_cell_length_b 14.803313
_cell_length_c 8.976504
_cell_angle_alpha 90.000000
_cell_angle_beta 90.000000
_cell_angle_gamma 90.000000
_cell_volume 3141.571888
_symmetry_space_group_name_H-M "P B A M"
_symmetry_group_IT_number 55
_symmetry_cell_setting 'orthorhombic'
loop_
_space_group_symop_operation_xyz
x,y,z
-x,-y,z
1/2+x,1/2-y,-z
1/2-x,1/2+y,-z
-x,-y,-z
x,y,-z
1/2-x,1/2+y,z
1/2+x,1/2-y,z
loop_
_atom_site_type_symbol
_atom_site_label
_atom_site_fract_x
_atom_site_fract_y
_atom_site_fract_z
Si Si1 0.330294 0.859243 0.673454
Si Si2 0.478867 0.627968 0.167022
Si Si3 0.591211 0.634588 0.325130
Si Si4 0.182007 0.556217 0.677867
Si Si5 0.289650 0.667312 0.677220
Si Si6 0.077479 0.663175 0.324542
Si Si7 0.953680 0.695986 0.673436
Si Si8 0.132345 0.025965 0.166496
O O1 0.317294 0.856065 0.500000
O O2 0.300109 0.769377 0.741658
O O3 0.398012 0.863516 0.702102
O O4 0.306155 0.954159 0.739629
O O5 0.528584 0.602335 0.280257
O O6 0.446252 0.716181 0.225781
O O7 0.434406 0.546659 0.161688
O O8 0.502676 0.645512 0.000000
O O9 0.600112 0.623850 0.500000
O O10 0.597512 0.737769 0.270237
O O11 0.638343 0.572279 0.244284
O O12 0.180706 0.552472 0.500000
O O13 0.229624 0.627101 0.731700
O O14 0.121294 0.590067 0.742339
O O15 0.294492 0.668015 0.500000
O O16 0.337714 0.602169 0.737647
O O17 0.082999 0.660045 0.500000
O O18 0.011906 0.643709 0.279327
O O19 0.958110 0.724940 0.500000
O O20 0.157959 0.022584 0.000000
#
# Coordination Sequence:
#
# PCOD8224895 Si02
#       8
#     8   8   8   8   8   8   8   8
#     4   9  17  30  51  79 106 136 176 221 271 324
#     4  10  19  31  48  74 108 144 179 217 264 319
#     4  10  20  32  51  79 110 144 178 218 269 324
#     4   9  18  32  52  80 109 136 174 224 275 323
#     4  10  20  34  54  77 104 137 177 225 268 318
#     4   8  16  30  48  76 110 140 171 217 272 322
#     4   9  16  29  51  77 107 139 177 222 271 323
#     4  11  22  34  50  74 105 142 183 222 265 317
#
# _framework density 20.371967999999999
#
# number of rings (size 3 to 8) (size 9 to 14) (size 15 to 20)
#    0.000    2.500    1.250    2.250    0.000    4.500 
#    0.000    6.250    0.000    6.750    0.000    3.500 
#    0.000    0.000    0.000    0.000    0.000    0.000 
#
# Total GULP energy -793004.717627 kJ/mol
# GULP energy per Si atom -12390.698713 kJ/mol
# Density = 2.032560 g / cm^3
# Si number density = 20.371968 Si / 1000 Ang^3
#
#
#
# Elastic Constant Matrix: (Units=GPa)
#
#
# Indices 1 2 3 4 5 6 
#
# 1 83.6811 70.2218 6.9979 0.0000 0.0000 0.0000
# 2 70.2218 139.7249 17.6127 0.0000 0.0000 0.0000
# 3 6.9979 17.6127 28.3100 0.0000 0.0000 0.0000
# 4 0.0000 0.0000 0.0000 5.9289 0.0000 0.0000
# 5 0.0000 0.0000 0.0000 0.0000 9.4118 0.0000
# 6 0.0000 0.0000 0.0000 0.0000 0.0000 22.4762
#
#
#
# Elastic Compliance Matrix: (Units=1/GPa)
#
#
# Indices 1 2 3 4 5 6 
#
# 1 0.020722 -0.010600 0.001472 0.000000 0.000000 0.000000
# 2 -0.010600 0.013188 -0.005585 0.000000 0.000000 0.000000
# 3 0.001472 -0.005585 0.038434 0.000000 0.000000 0.000000
# 4 0.000000 0.000000 0.000000 0.168666 0.000000 0.000000
# 5 0.000000 0.000000 0.000000 0.000000 0.106250 0.000000
# 6 0.000000 0.000000 0.000000 0.000000 0.000000 0.044492
#
#
# Mechanical properties :
#
#
# Convention : Reuss Voigt Hill
#
# Bulk Modulus (GPa) = 23.29947 49.04231 36.17089
# Shear Modulus (GPa) = 11.48152 18.02227 14.75189
#
# Velocity S-wave (km/s) = 2.37659 2.97755 2.69388
# Velocity P-wave (km/s) = 4.35807 5.99556 5.24116
#
# Compressibility (1/GPa) = 0.04291943
#
# Stress axis : x y z
#
# Youngs Moduli (GPa) = 48.25790 75.82608 26.01884
#
# Poissons Ratio (x) = 0.80375 -0.03831
# Poissons Ratio (y) = 0.51153 0.14531
# Poissons Ratio (z) = -0.07105 0.42346
#
# Static dielectric constant tensor:
#      x y z
#    x 3.777870 0.000000 0.000000 
#    y 0.000000 4.006290 0.000000 
#    z 0.000000 0.000000 3.333600 
# 
# 
# High freq. dielectric constant tensor:
#      x y z
#    x 1.787360 0.000000 0.000000 
#    y 0.000000 1.800010 0.000000 
#    z 0.000000 0.000000 1.745290 
# 
# From -- ./inp_files/9682.got.cif
#   From: 2010.03.12/outbox.cif.g09.slc.cpg/sg55_5_cif.got.tgz:9682.got - 2010.04.16 15:19:21.
