data_PCOD8224983
_publ_section_title
;
Structure prediction by ZEFSAII (Michael W. Deem and Ramdas Pophale) SiO2 
 PCOD8224983
Probable space group: P B A M
;
_chemical_formula_sum "Si O2"
_cell_formula_units_Z 64
_cell_length_a 19.452269
_cell_length_b 20.306905
_cell_length_c 9.344113
_cell_angle_alpha 90.000000
_cell_angle_beta 90.000000
_cell_angle_gamma 90.000000
_cell_volume 3691.068335
_symmetry_space_group_name_H-M "P B A M"
_symmetry_group_IT_number 55
_symmetry_cell_setting 'orthorhombic'
loop_
_space_group_symop_operation_xyz
x,y,z
-x,-y,z
1/2+x,1/2-y,-z
1/2-x,1/2+y,-z
-x,-y,-z
x,y,-z
1/2-x,1/2+y,z
1/2+x,1/2-y,z
loop_
_atom_site_type_symbol
_atom_site_label
_atom_site_fract_x
_atom_site_fract_y
_atom_site_fract_z
Si Si1 0.714508 0.683948 0.168769
Si Si2 0.213891 0.427357 0.336483
Si Si3 0.934054 0.231202 0.834810
Si Si4 0.564748 0.119553 0.664259
Si Si5 0.304564 0.074322 0.663959
Si Si6 0.713975 0.301925 0.333073
Si Si7 0.563544 0.272253 0.663216
Si Si8 0.567181 0.882830 0.831488
O O1 0.738186 0.614290 0.231525
O O2 0.633784 0.690222 0.203843
O O3 0.755671 0.743231 0.239982
O O4 0.728479 0.686405 0.000000
O O5 0.226126 0.403948 0.500000
O O6 0.134009 0.418706 0.295844
O O7 0.232678 0.504016 0.316414
O O8 0.921490 0.306664 0.788588
O O9 0.999372 0.200293 0.753539
O O10 0.952379 0.227300 0.000000
O O11 0.543426 0.107905 0.500000
O O12 0.577959 0.196015 0.697000
O O13 0.504194 0.091500 0.764272
O O14 0.328601 0.084045 0.500000
O O15 0.250355 0.130087 0.709316
O O16 0.370660 0.076179 0.765054
O O17 0.723731 0.283808 0.500000
O O18 0.633261 0.311078 0.297353
O O19 0.542836 0.283313 0.500000
O O20 0.565536 0.894388 0.000000
#
# Coordination Sequence:
#
# PCOD8224983 Si02
#       8
#     8   8   8   8   8   8   8   8
#     4  11  21  34  54  79 104 135 172 214 261 306
#     4  10  21  37  53  75 105 139 177 216 258 308
#     4   9  19  33  49  75 106 133 167 212 256 305
#     4   9  17  31  49  70 101 137 175 211 250 303
#     4  10  21  35  54  76 104 141 176 213 261 310
#     4  10  19  34  55  80 105 133 173 217 257 306
#     4   9  17  30  51  77 101 129 167 212 256 300
#     4  10  19  32  49  72 106 139 174 214 252 302
#
# _framework density 17.339153
#
# number of rings (size 3 to 8) (size 9 to 14) (size 15 to 20)
#    0.000    2.250    2.500    0.750    0.000    3.500 
#    0.000    2.500    0.000    0.750    0.000    5.250 
#    0.000    0.000    0.000    0.000    0.000    0.000 
#
# Total GULP energy -793735.001640 kJ/mol
# GULP energy per Si atom -12402.109401 kJ/mol
# Density = 1.729969 g / cm^3
# Si number density = 17.339153 Si / 1000 Ang^3
#
#
#
# Elastic Constant Matrix: (Units=GPa)
#
#
# Indices 1 2 3 4 5 6 
#
# 1 101.4165 36.0216 48.4935 0.0000 0.0000 0.0000
# 2 36.0216 62.2521 25.1715 0.0000 0.0000 0.0000
# 3 48.4935 25.1715 64.6497 0.0000 0.0000 0.0000
# 4 0.0000 0.0000 0.0000 18.5455 0.0000 0.0000
# 5 0.0000 0.0000 0.0000 0.0000 27.0045 0.0000
# 6 0.0000 0.0000 0.0000 0.0000 0.0000 20.7267
#
#
#
# Elastic Compliance Matrix: (Units=1/GPa)
#
#
# Indices 1 2 3 4 5 6 
#
# 1 0.016824 -0.005498 -0.010479 0.000000 0.000000 0.000000
# 2 -0.005498 0.020862 -0.003999 0.000000 0.000000 0.000000
# 3 -0.010479 -0.003999 0.024885 0.000000 0.000000 0.000000
# 4 0.000000 0.000000 0.000000 0.053921 0.000000 0.000000
# 5 0.000000 0.000000 0.000000 0.000000 0.037031 0.000000
# 6 0.000000 0.000000 0.000000 0.000000 0.000000 0.048247
#
#
# Mechanical properties :
#
#
# Convention : Reuss Voigt Hill
#
# Bulk Modulus (GPa) = 44.20893 49.74353 46.97623
# Shear Modulus (GPa) = 20.05936 21.16411 20.61174
#
# Velocity S-wave (km/s) = 3.40499 3.49749 3.45155
# Velocity P-wave (km/s) = 6.40395 6.71273 6.56016
#
# Compressibility (1/GPa) = 0.02261986
#
# Stress axis : x y z
#
# Youngs Moduli (GPa) = 59.44034 47.93446 40.18492
#
# Poissons Ratio (x) = 0.26353 0.42109
# Poissons Ratio (y) = 0.32679 0.16069
# Poissons Ratio (z) = 0.62286 0.19168
#
# Static dielectric constant tensor:
#      x y z
#    x 3.317260 0.000000 0.000000 
#    y 0.000000 3.061620 0.000000 
#    z 0.000000 0.000000 3.236200 
# 
# 
# High freq. dielectric constant tensor:
#      x y z
#    x 1.670280 0.000000 0.000000 
#    y 0.000000 1.643690 0.000000 
#    z 0.000000 0.000000 1.670340 
# 
# From -- ./inp_files/7970.got.cif
#   From: 2010.03.12/outbox.cif.g09.slc.cpg/sg55_4_cif.got.tgz:7970.got - 2010.04.16 15:19:21.
