data_PCOD8224236
_publ_section_title
;
Structure prediction by ZEFSAII (Michael W. Deem and Ramdas Pophale) SiO2 
 PCOD8224236
Probable space group: P B A M
;
_chemical_formula_sum "Si O2"
_cell_formula_units_Z 40
_cell_length_a 5.353124
_cell_length_b 12.756135
_cell_length_c 22.043148
_cell_angle_alpha 90.000000
_cell_angle_beta 90.000000
_cell_angle_gamma 90.000000
_cell_volume 1505.220162
_symmetry_space_group_name_H-M "P B A M"
_symmetry_group_IT_number 55
_symmetry_cell_setting 'orthorhombic'
loop_
_space_group_symop_operation_xyz
x,y,z
-x,-y,z
1/2+x,1/2-y,-z
1/2-x,1/2+y,-z
-x,-y,-z
x,y,-z
1/2-x,1/2+y,z
1/2+x,1/2-y,z
loop_
_atom_site_type_symbol
_atom_site_label
_atom_site_fract_x
_atom_site_fract_y
_atom_site_fract_z
Si Si1 0.722356 0.183215 0.066146
Si Si2 0.648728 0.358521 0.242015
Si Si3 0.239720 0.397678 0.569876
Si Si4 0.148842 0.376711 0.806175
Si Si5 0.261513 0.624496 0.619419
O O1 0.491111 0.262506 0.071708
O O2 0.701010 0.102844 0.122406
O O3 0.707473 0.126130 0.000000
O O4 0.608670 0.247418 0.208398
O O5 0.383112 0.419434 0.233956
O O6 0.717636 0.339174 0.311589
O O7 0.876400 0.426466 0.211327
O O8 0.220182 0.431493 0.500000
O O9 0.250211 0.499387 0.612514
O O10 0.494023 0.332832 0.582789
O O11 0.997081 0.330025 0.590415
#
# Coordination Sequence:
#
# PCOD8224236 Si02
#       5
#     8   8   8   8   8
#     4  10  16  25  41  60  83 120 153 181 214 239
#     4  10  18  27  43  61  89 120 147 168 204 256
#     4  10  19  33  50  69  87 102 132 182 232 270
#     4  10  17  30  40  62  91 124 148 174 200 244
#     4  10  18  29  46  70  86 110 138 171 218 271
#
# _framework density 26.574189000000001
#
# number of rings (size 3 to 8) (size 9 to 14) (size 15 to 20)
#    0.000    2.000    4.000    4.200    0.000    0.000 
#    0.000    0.000    0.000    0.000    0.000   95.200 
#    0.000    0.000    0.000  122.400    0.000    0.000 
#
# Total GULP energy -495626.443149 kJ/mol
# GULP energy per Si atom -12390.661079 kJ/mol
# Density = 2.651370 g / cm^3
# Si number density = 26.574189 Si / 1000 Ang^3
#
#
#
# Elastic Constant Matrix: (Units=GPa)
#
#
# Indices 1 2 3 4 5 6 
#
# 1 281.7209 -5.9336 50.7228 0.0000 0.0000 0.0000
# 2 -5.9336 46.8606 -5.1401 0.0000 0.0000 0.0000
# 3 50.7228 -5.1401 177.7134 0.0000 0.0000 0.0000
# 4 0.0000 0.0000 0.0000 15.2140 0.0000 0.0000
# 5 0.0000 0.0000 0.0000 0.0000 49.8306 0.0000
# 6 0.0000 0.0000 0.0000 0.0000 0.0000 -47.1055
#
#
#
# Elastic Compliance Matrix: (Units=1/GPa)
#
#
# Indices 1 2 3 4 5 6 
#
# 1 0.003748 0.000358 -0.001059 0.000000 0.000000 0.000000
# 2 0.000358 0.021442 0.000518 0.000000 0.000000 0.000000
# 3 -0.001059 0.000518 0.005944 0.000000 0.000000 0.000000
# 4 0.000000 0.000000 0.000000 0.065729 0.000000 0.000000
# 5 0.000000 0.000000 0.000000 0.000000 0.020068 0.000000
# 6 0.000000 0.000000 0.000000 0.000000 0.000000 -0.021229
#
#
# Mechanical properties :
#
#
# Convention : Reuss Voigt Hill
#
# Bulk Modulus (GPa) = 32.50114 65.06591 48.78353
# Shear Modulus (GPa) = 47.02593 34.69756 40.86175
#
# Velocity S-wave (km/s) = 4.21124 3.61735 3.92554
# Velocity P-wave (km/s) = 5.99190 6.47956 6.24050
#
# Compressibility (1/GPa) = 0.03076815
#
# Stress axis : x y z
#
# Youngs Moduli (GPa) = 266.81654 46.63730 168.22619
#
# Poissons Ratio (x) = -0.01671 0.17821
# Poissons Ratio (y) = -0.09562 -0.08712
# Poissons Ratio (z) = 0.28265 -0.02415
#
# Static dielectric constant tensor:
#      x y z
#    x 7.455560 0.000000 0.000000 
#    y 0.000000 4.120490 0.000000 
#    z 0.000000 0.000000 2.144980 
# 
# 
# High freq. dielectric constant tensor:
#      x y z
#    x 2.120980 0.000000 0.000000 
#    y 0.000000 2.044730 0.000000 
#    z 0.000000 0.000000 2.056800 
# 
# From -- ./inp_files/22295.got.cif
#   From: 2010.03.12/outbox.cif.g09.slc.cpg/sg55_12_cif.got.tgz:22295.got - 2010.04.16 15:19:21.
