data_PCOD8224534
_publ_section_title
;
Structure prediction by ZEFSAII (Michael W. Deem and Ramdas Pophale) SiO2 
 PCOD8224534
Probable space group: P B A M
;
_chemical_formula_sum "Si O2"
_cell_formula_units_Z 64
_cell_length_a 12.775912
_cell_length_b 28.778001
_cell_length_c 9.238889
_cell_angle_alpha 90.000000
_cell_angle_beta 90.000000
_cell_angle_gamma 90.000000
_cell_volume 3396.818049
_symmetry_space_group_name_H-M "P B A M"
_symmetry_group_IT_number 55
_symmetry_cell_setting 'orthorhombic'
loop_
_space_group_symop_operation_xyz
x,y,z
-x,-y,z
1/2+x,1/2-y,-z
1/2-x,1/2+y,-z
-x,-y,-z
x,y,-z
1/2-x,1/2+y,z
1/2+x,1/2-y,z
loop_
_atom_site_type_symbol
_atom_site_label
_atom_site_fract_x
_atom_site_fract_y
_atom_site_fract_z
Si Si1 0.660120 0.380221 0.829489
Si Si2 0.436053 0.798285 0.827641
Si Si3 0.388493 0.517267 0.827453
Si Si4 0.268807 0.938665 0.833113
Si Si5 0.502293 0.302968 0.826669
Si Si6 0.479551 0.946225 0.333762
Si Si7 0.896651 0.373442 0.829962
Si Si8 0.217746 0.835747 0.833250
O O1 0.637506 0.431580 0.764717
O O2 0.579073 0.342833 0.764415
O O3 0.776429 0.362487 0.791169
O O4 0.644582 0.383416 0.000000
O O5 0.457675 0.746626 0.768789
O O6 0.530456 0.831354 0.774665
O O7 0.325489 0.816529 0.762032
O O8 0.433200 0.799017 0.000000
O O9 0.500000 0.500000 0.766604
O O10 0.300308 0.481205 0.773215
O O11 0.390172 0.517222 0.000000
O O12 0.371189 0.932379 0.738614
O O13 0.203935 0.891062 0.815960
O O14 0.301430 0.946473 0.000000
O O15 0.385302 0.311850 0.764747
O O16 0.502361 0.304252 0.000000
O O17 0.476424 0.930915 0.500000
O O18 0.573470 0.920260 0.253196
O O19 0.500000 0.000000 0.314168
O O20 0.911166 0.382553 0.000000
O O21 0.222710 0.821507 0.000000
#
# Coordination Sequence:
#
# PCOD8224534 Si02
#       8
#     8   8   8   8   8   8   8   8
#     4   9  17  27  41  67  99 132 165 202 249 297
#     4   9  17  27  42  67  98 136 168 201 251 303
#     4   9  16  26  43  69 101 134 168 204 249 301
#     4  10  18  31  52  75 101 133 170 214 254 297
#     4   9  17  26  41  68 106 139 164 205 257 302
#     4  11  23  36  50  72 101 132 167 205 252 307
#     4  10  19  33  51  73 102 129 166 210 250 301
#     4   9  16  27  43  67  99 133 169 203 248 301
#
# _framework density 18.841161
#
# number of rings (size 3 to 8) (size 9 to 14) (size 15 to 20)
#    0.000    2.500    1.250    1.875    1.750    5.000 
#    0.000    0.000    0.000    0.375    0.000    6.125 
#    0.000    0.000    0.000    0.000    0.000    0.000 
#
# Total GULP energy -793485.753963 kJ/mol
# GULP energy per Si atom -12398.214906 kJ/mol
# Density = 1.879828 g / cm^3
# Si number density = 18.841161 Si / 1000 Ang^3
#
#
#
# Elastic Constant Matrix: (Units=GPa)
#
#
# Indices 1 2 3 4 5 6 
#
# 1 153.6914 75.7158 17.2609 0.0000 0.0000 0.0000
# 2 75.7158 138.0549 16.5093 0.0000 0.0000 0.0000
# 3 17.2609 16.5093 23.3453 0.0000 0.0000 0.0000
# 4 0.0000 0.0000 0.0000 6.2884 0.0000 0.0000
# 5 0.0000 0.0000 0.0000 0.0000 1.6151 0.0000
# 6 0.0000 0.0000 0.0000 0.0000 0.0000 36.9170
#
#
#
# Elastic Compliance Matrix: (Units=1/GPa)
#
#
# Indices 1 2 3 4 5 6 
#
# 1 0.009173 -0.004610 -0.003522 0.000000 0.000000 0.000000
# 2 -0.004610 0.010229 -0.003825 0.000000 0.000000 0.000000
# 3 -0.003522 -0.003825 0.048145 0.000000 0.000000 0.000000
# 4 0.000000 0.000000 0.000000 0.159022 0.000000 0.000000
# 5 0.000000 0.000000 0.000000 0.000000 0.619146 0.000000
# 6 0.000000 0.000000 0.000000 0.000000 0.000000 0.027088
#
#
# Mechanical properties :
#
#
# Convention : Reuss Voigt Hill
#
# Bulk Modulus (GPa) = 22.91911 59.34041 41.12976
# Shear Modulus (GPa) = 5.48689 22.67116 14.07902
#
# Velocity S-wave (km/s) = 1.70836 3.47259 2.73655
# Velocity P-wave (km/s) = 4.01025 6.90232 5.64465
#
# Compressibility (1/GPa) = 0.04363171
#
# Stress axis : x y z
#
# Youngs Moduli (GPa) = 109.01395 97.75967 20.77065
#
# Poissons Ratio (x) = 0.45065 0.07316
# Poissons Ratio (y) = 0.50253 0.07946
# Poissons Ratio (z) = 0.38400 0.37398
#
# Static dielectric constant tensor:
#      x y z
#    x 3.719510 0.000000 0.000000 
#    y 0.000000 3.701380 0.000000 
#    z 0.000000 0.000000 2.738560 
# 
# 
# High freq. dielectric constant tensor:
#      x y z
#    x 1.748850 0.000000 0.000000 
#    y 0.000000 1.745870 0.000000 
#    z 0.000000 0.000000 1.643860 
# 
# From -- ./inp_files/4492.got.cif
#   From: 2010.03.12/outbox.cif.g09.slc.cpg/sg55_3_cif.got.tgz:4492.got - 2010.04.16 15:19:21.
