data_PCOD8224613
_publ_section_title
;
Structure prediction by ZEFSAII (Michael W. Deem and Ramdas Pophale) SiO2 
 PCOD8224613
Probable space group: P B A M
;
_chemical_formula_sum "Si O2"
_cell_formula_units_Z 56
_cell_length_a 17.053036
_cell_length_b 5.224613
_cell_length_c 31.926584
_cell_angle_alpha 90.000000
_cell_angle_beta 90.000000
_cell_angle_gamma 90.000000
_cell_volume 2844.515398
_symmetry_space_group_name_H-M "P B A M"
_symmetry_group_IT_number 55
_symmetry_cell_setting 'orthorhombic'
loop_
_space_group_symop_operation_xyz
x,y,z
-x,-y,z
1/2+x,1/2-y,-z
1/2-x,1/2+y,-z
-x,-y,-z
x,y,-z
1/2-x,1/2+y,z
1/2+x,1/2-y,z
loop_
_atom_site_type_symbol
_atom_site_label
_atom_site_fract_x
_atom_site_fract_y
_atom_site_fract_z
Si Si1 0.700593 0.375266 0.843279
Si Si2 0.592492 0.493406 0.326666
Si Si3 0.406186 0.729993 0.082793
Si Si4 0.092538 0.504909 0.624218
Si Si5 0.922439 0.267748 0.048020
Si Si6 0.701829 0.377271 0.747014
Si Si7 0.700005 0.991762 0.547501
O O1 0.737057 0.652059 0.853884
O O2 0.621654 0.320013 0.869744
O O3 0.674245 0.379637 0.795071
O O4 0.500000 0.500000 0.321330
O O5 0.621670 0.760829 0.346516
O O6 0.626898 0.445572 0.280781
O O7 0.621709 0.261967 0.356178
O O8 0.500343 0.749853 0.077630
O O9 0.373888 0.493052 0.054725
O O10 0.370234 0.992909 0.063929
O O11 0.126569 0.540051 0.577982
O O12 0.000000 0.500000 0.619357
O O13 0.948238 0.301322 0.000000
O O14 0.766954 0.593043 0.737058
O O15 0.668261 0.975246 0.500000
O O16 0.739159 0.264868 0.556276
#
# Coordination Sequence:
#
# PCOD8224613 Si02
#       7
#     8   8   8   8   8   8   8
#     4  10  21  37  55  75 106 142 174 213 259 312
#     4  10  21  37  55  82 113 141 177 234 280 314
#     4  10  18  32  54  77 102 133 172 208 260 307
#     4  10  21  36  56  79 111 146 182 220 280 339
#     4  10  19  33  56  79 104 134 169 222 264 302
#     4  10  21  37  58  80 106 145 186 218 267 331
#     4  10  21  36  54  80 112 143 184 236 277 315
#
# _framework density 19.687009
#
# number of rings (size 3 to 8) (size 9 to 14) (size 15 to 20)
#    0.000    2.000    0.000    4.714    0.000    3.714 
#    2.571    0.000    6.286   19.714    0.000    0.000 
#    0.000    0.000    0.000    0.000    0.000    0.000 
#
# Total GULP energy -694113.713312 kJ/mol
# GULP energy per Si atom -12394.887738 kJ/mol
# Density = 1.964220 g / cm^3
# Si number density = 19.687009 Si / 1000 Ang^3
#
#
#
# Elastic Constant Matrix: (Units=GPa)
#
#
# Indices 1 2 3 4 5 6 
#
# 1 36.3123 21.5840 58.2986 0.0000 0.0000 0.0000
# 2 21.5840 166.4440 51.6040 0.0000 0.0000 0.0000
# 3 58.2986 51.6040 140.2460 0.0000 0.0000 0.0000
# 4 0.0000 0.0000 0.0000 24.8377 0.0000 0.0000
# 5 0.0000 0.0000 0.0000 0.0000 2.3721 0.0000
# 6 0.0000 0.0000 0.0000 0.0000 0.0000 16.7153
#
#
#
# Elastic Compliance Matrix: (Units=1/GPa)
#
#
# Indices 1 2 3 4 5 6 
#
# 1 0.082795 -0.000075 -0.034389 0.000000 0.000000 0.000000
# 2 -0.000075 0.006782 -0.002464 0.000000 0.000000 0.000000
# 3 -0.034389 -0.002464 0.022332 0.000000 0.000000 0.000000
# 4 0.000000 0.000000 0.000000 0.040261 0.000000 0.000000
# 5 0.000000 0.000000 0.000000 0.000000 0.421564 0.000000
# 6 0.000000 0.000000 0.000000 0.000000 0.000000 0.059825
#
#
# Mechanical properties :
#
#
# Convention : Reuss Voigt Hill
#
# Bulk Modulus (GPa) = 26.27971 67.33061 46.80516
# Shear Modulus (GPa) = 6.94348 22.88608 14.91478
#
# Velocity S-wave (km/s) = 1.88005 3.41324 2.75543
# Velocity P-wave (km/s) = 4.25330 7.05750 5.82662
#
# Compressibility (1/GPa) = 0.03805217
#
# Stress axis : x y z
#
# Youngs Moduli (GPa) = 12.07809 147.45467 44.77813
#
# Poissons Ratio (x) = 0.01100 1.53989
# Poissons Ratio (y) = 0.00090 0.11035
# Poissons Ratio (z) = 0.41536 0.36338
#
# Static dielectric constant tensor:
#      x y z
#    x 3.070850 0.000000 0.000000 
#    y 0.000000 4.761700 0.000000 
#    z 0.000000 0.000000 3.607020 
# 
# 
# High freq. dielectric constant tensor:
#      x y z
#    x 1.723540 0.000000 0.000000 
#    y 0.000000 1.806760 0.000000 
#    z 0.000000 0.000000 1.767310 
# 
# From -- ./inp_files/24178.got.cif
#   From: 2010.03.12/outbox.cif.g09.slc.cpg/sg55_13_cif.got.tgz:24178.got - 2010.04.16 15:19:21.
