data_PCOD8224862
_publ_section_title
;
Structure prediction by ZEFSAII (Michael W. Deem and Ramdas Pophale) SiO2 
 PCOD8224862
Probable space group: P B A M
;
_chemical_formula_sum "Si O2"
_cell_formula_units_Z 64
_cell_length_a 19.650400
_cell_length_b 19.636030
_cell_length_c 8.908197
_cell_angle_alpha 90.000000
_cell_angle_beta 90.000000
_cell_angle_gamma 90.000000
_cell_volume 3437.279871
_symmetry_space_group_name_H-M "P B A M"
_symmetry_group_IT_number 55
_symmetry_cell_setting 'orthorhombic'
loop_
_space_group_symop_operation_xyz
x,y,z
-x,-y,z
1/2+x,1/2-y,-z
1/2-x,1/2+y,-z
-x,-y,-z
x,y,-z
1/2-x,1/2+y,z
1/2+x,1/2-y,z
loop_
_atom_site_type_symbol
_atom_site_label
_atom_site_fract_x
_atom_site_fract_y
_atom_site_fract_z
Si Si1 0.847849 0.724057 0.174716
Si Si2 0.512440 0.910003 0.833686
Si Si3 0.998547 0.742091 0.168867
Si Si4 0.770531 0.129071 0.828029
Si Si5 0.404956 0.979783 0.672665
Si Si6 0.734469 0.830360 0.174253
Si Si7 0.132164 0.769230 0.676920
Si Si8 0.725624 0.985126 0.170254
O O1 0.923235 0.736432 0.246727
O O2 0.804781 0.656711 0.226301
O O3 0.802835 0.789943 0.216342
O O4 0.863755 0.717005 0.000000
O O5 0.532056 0.832147 0.837362
O O6 0.434325 0.919218 0.777538
O O7 0.558183 0.949400 0.713880
O O8 0.521826 0.941312 0.000000
O O9 0.054347 0.781863 0.267403
O O10 0.994651 0.773324 0.000000
O O11 0.827707 0.163102 0.725930
O O12 0.780398 0.046838 0.819042
O O13 0.780328 0.154388 0.000000
O O14 0.416571 0.961695 0.500000
O O15 0.326892 0.990808 0.705670
O O16 0.669537 0.798934 0.260683
O O17 0.750736 0.909529 0.214845
O O18 0.717046 0.822418 0.000000
O O19 0.131212 0.762990 0.500000
O O20 0.695778 0.983102 0.000000
#
# Coordination Sequence:
#
# PCOD8224862 Si02
#       8
#     8   8   8   8   8   8   8   8
#     4   8  15  30  52  75  98 125 162 208 253 296
#     4  10  19  31  46  64  91 129 172 208 240 289
#     4  10  19  32  52  73  94 127 168 208 251 298
#     4   9  18  35  56  76 100 131 169 212 254 298
#     4  11  21  30  42  65 100 134 161 196 246 300
#     4   9  18  34  55  78 103 132 168 211 257 304
#     4  11  22  34  50  75 106 137 169 206 250 302
#     4  10  19  32  53  76  97 127 168 209 251 301
#
# _framework density 18.619373
#
# number of rings (size 3 to 8) (size 9 to 14) (size 15 to 20)
#    0.000    2.250    0.000    5.625    0.000    7.000 
#    0.000    2.500    0.000    0.750    0.000    5.250 
#    0.000    0.000    0.000    0.000    0.000    0.000 
#
# Total GULP energy -792835.206752 kJ/mol
# GULP energy per Si atom -12388.050106 kJ/mol
# Density = 1.857699 g / cm^3
# Si number density = 18.619373 Si / 1000 Ang^3
#
#
#
# Elastic Constant Matrix: (Units=GPa)
#
#
# Indices 1 2 3 4 5 6 
#
# 1 84.2351 13.3074 21.2278 0.0000 0.0000 0.0000
# 2 13.3074 91.2200 12.8598 0.0000 0.0000 0.0000
# 3 21.2278 12.8598 70.7212 0.0000 0.0000 0.0000
# 4 0.0000 0.0000 0.0000 0.2338 0.0000 0.0000
# 5 0.0000 0.0000 0.0000 0.0000 10.7082 0.0000
# 6 0.0000 0.0000 0.0000 0.0000 0.0000 12.4881
#
#
#
# Elastic Compliance Matrix: (Units=1/GPa)
#
#
# Indices 1 2 3 4 5 6 
#
# 1 0.013011 -0.001383 -0.003654 0.000000 0.000000 0.000000
# 2 -0.001383 0.011398 -0.001657 0.000000 0.000000 0.000000
# 3 -0.003654 -0.001657 0.015538 0.000000 0.000000 0.000000
# 4 0.000000 0.000000 0.000000 4.277113 0.000000 0.000000
# 5 0.000000 0.000000 0.000000 0.000000 0.093387 0.000000
# 6 0.000000 0.000000 0.000000 0.000000 0.000000 0.080076
#
#
# Mechanical properties :
#
#
# Convention : Reuss Voigt Hill
#
# Bulk Modulus (GPa) = 37.65295 37.88513 37.76904
# Shear Modulus (GPa) = 1.10797 17.93809 9.52303
#
# Velocity S-wave (km/s) = 0.77224 3.10725 2.26400
# Velocity P-wave (km/s) = 4.58928 5.76755 5.21182
#
# Compressibility (1/GPa) = 0.02655834
#
# Stress axis : x y z
#
# Youngs Moduli (GPa) = 76.85913 87.73535 64.35760
#
# Poissons Ratio (x) = 0.12133 0.23515
# Poissons Ratio (y) = 0.10629 0.10667
# Poissons Ratio (z) = 0.28083 0.14542
#
# Static dielectric constant tensor:
#      x y z
#    x 3.417620 0.000000 0.000000 
#    y 0.000000 3.460240 0.000000 
#    z 0.000000 0.000000 3.217460 
# 
# 
# High freq. dielectric constant tensor:
#      x y z
#    x 1.706170 0.000000 0.000000 
#    y 0.000000 1.709730 0.000000 
#    z 0.000000 0.000000 1.700340 
# 
# From -- ./inp_files/8015.got.cif
#   From: 2010.03.12/outbox.cif.g09.slc.cpg/sg55_5_cif.got.tgz:8015.got - 2010.04.16 15:19:21.
