data_PCOD8224800
_publ_section_title
;
Structure prediction by ZEFSAII (Michael W. Deem and Ramdas Pophale) SiO2 
 PCOD8224800
Probable space group: P B A M
;
_chemical_formula_sum "Si O2"
_cell_formula_units_Z 56
_cell_length_a 17.491869
_cell_length_b 22.406001
_cell_length_c 9.239385
_cell_angle_alpha 90.000000
_cell_angle_beta 90.000000
_cell_angle_gamma 90.000000
_cell_volume 3621.125956
_symmetry_space_group_name_H-M "P B A M"
_symmetry_group_IT_number 55
_symmetry_cell_setting 'orthorhombic'
loop_
_space_group_symop_operation_xyz
x,y,z
-x,-y,z
1/2+x,1/2-y,-z
1/2-x,1/2+y,-z
-x,-y,-z
x,y,-z
1/2-x,1/2+y,z
1/2+x,1/2-y,z
loop_
_atom_site_type_symbol
_atom_site_label
_atom_site_fract_x
_atom_site_fract_y
_atom_site_fract_z
Si Si1 0.233435 0.308646 0.331863
Si Si2 0.994353 0.930611 0.166668
Si Si3 0.865909 0.151547 0.168285
Si Si4 0.875376 0.852554 0.328913
Si Si5 0.430239 0.778750 0.335612
Si Si6 0.238312 0.686812 0.831200
Si Si7 0.424545 0.219430 0.834460
O O1 0.253507 0.296624 0.500000
O O2 0.288863 0.359584 0.264462
O O3 0.248611 0.251377 0.234981
O O4 0.142862 0.323007 0.316670
O O5 0.076483 0.902076 0.202322
O O6 0.929924 0.904000 0.270212
O O7 0.971915 0.918120 0.000000
O O8 0.000000 0.000000 0.200933
O O9 0.904836 0.213539 0.218742
O O10 0.842735 0.154104 0.000000
O O11 0.865403 0.858761 0.500000
O O12 0.791614 0.860316 0.254277
O O13 0.908769 0.788105 0.283256
O O14 0.456763 0.775627 0.500000
O O15 0.501666 0.805338 0.248829
O O16 0.147313 0.674329 0.811001
O O17 0.260564 0.686786 0.000000
O O18 0.448636 0.222346 0.000000
#
# Coordination Sequence:
#
# PCOD8224800 Si02
#       7
#     8   8   8   8   8   8   8
#     4   9  17  27  39  59  83 111 144 175 212 257
#     4  10  20  33  48  64  84 114 152 190 224 259
#     4   9  17  29  42  59  81 110 146 180 217 256
#     4  10  19  30  43  61  84 113 146 181 221 259
#     4   9  17  26  38  59  85 112 141 170 207 254
#     4   9  17  28  41  59  82 111 144 176 210 255
#     4   9  16  25  40  61  83 110 143 174 207 250
#
# _framework density 15.464803
#
# number of rings (size 3 to 8) (size 9 to 14) (size 15 to 20)
#    0.000    2.714    1.429    3.000    0.000    6.571 
#    0.000    0.000    0.000    0.000    0.000    0.000 
#    0.000    1.143    0.000   12.857    0.000    6.429 
#
# Total GULP energy -694002.744106 kJ/mol
# GULP energy per Si atom -12392.906145 kJ/mol
# Density = 1.542960 g / cm^3
# Si number density = 15.464803 Si / 1000 Ang^3
#
#
#
# Elastic Constant Matrix: (Units=GPa)
#
#
# Indices 1 2 3 4 5 6 
#
# 1 131.2862 38.1467 70.9509 0.0000 0.0000 0.0000
# 2 38.1467 41.8809 27.4909 0.0000 0.0000 0.0000
# 3 70.9509 27.4909 85.0387 0.0000 0.0000 0.0000
# 4 0.0000 0.0000 0.0000 13.2099 0.0000 0.0000
# 5 0.0000 0.0000 0.0000 0.0000 32.0632 0.0000
# 6 0.0000 0.0000 0.0000 0.0000 0.0000 14.5669
#
#
#
# Elastic Compliance Matrix: (Units=1/GPa)
#
#
# Indices 1 2 3 4 5 6 
#
# 1 0.015366 -0.007084 -0.010531 0.000000 0.000000 0.000000
# 2 -0.007084 0.033574 -0.004943 0.000000 0.000000 0.000000
# 3 -0.010531 -0.004943 0.022144 0.000000 0.000000 0.000000
# 4 0.000000 0.000000 0.000000 0.075701 0.000000 0.000000
# 5 0.000000 0.000000 0.000000 0.000000 0.031188 0.000000
# 6 0.000000 0.000000 0.000000 0.000000 0.000000 0.068649
#
#
# Mechanical properties :
#
#
# Convention : Reuss Voigt Hill
#
# Bulk Modulus (GPa) = 38.50841 59.04252 48.77546
# Shear Modulus (GPa) = 16.64480 20.07583 18.36031
#
# Velocity S-wave (km/s) = 3.28426 3.60691 3.44936
# Velocity P-wave (km/s) = 6.27189 7.45707 6.89001
#
# Compressibility (1/GPa) = 0.02596836
#
# Stress axis : x y z
#
# Youngs Moduli (GPa) = 65.07754 29.78462 45.15990
#
# Poissons Ratio (x) = 0.21099 0.47556
# Poissons Ratio (y) = 0.46100 0.22325
# Poissons Ratio (z) = 0.68531 0.14724
#
# Static dielectric constant tensor:
#      x y z
#    x 3.416430 0.000000 0.000000 
#    y 0.000000 2.484450 0.000000 
#    z 0.000000 0.000000 3.046230 
# 
# 
# High freq. dielectric constant tensor:
#      x y z
#    x 1.607200 0.000000 0.000000 
#    y 0.000000 1.516890 0.000000 
#    z 0.000000 0.000000 1.604890 
# 
# From -- ./inp_files/7811.got.cif
#   From: 2010.03.12/outbox.cif.g09.slc.cpg/sg55_4_cif.got.tgz:7811.got - 2010.04.16 15:19:21.
