data_PCOD8224155
_publ_section_title
;
Structure prediction by ZEFSAII (Michael W. Deem and Ramdas Pophale) SiO2 
 PCOD8224155
Probable space group: P C C A
;
_chemical_formula_sum "Si O2"
_cell_formula_units_Z 32
_cell_length_a 4.945783
_cell_length_b 20.938403
_cell_length_c 13.467899
_cell_angle_alpha 90.000000
_cell_angle_beta 90.000000
_cell_angle_gamma 90.000000
_cell_volume 1394.692491
_symmetry_space_group_name_H-M "P C C A"
_symmetry_group_IT_number 54
_symmetry_cell_setting 'orthorhombic'
loop_
_space_group_symop_operation_xyz
x,y,z
1/2-x,-y,z
1/2+x,-y,1/2-z
-x,y,1/2-z
-x,-y,-z
1/2+x,y,-z
1/2-x,y,1/2+z
x,-y,1/2+z
loop_
_atom_site_type_symbol
_atom_site_label
_atom_site_fract_x
_atom_site_fract_y
_atom_site_fract_z
Si Si1 0.000000 0.541964 0.750000
Si Si2 0.172989 0.371694 0.433346
Si Si3 0.745147 0.752212 0.684039
Si Si4 0.250000 0.000000 0.814729
Si Si5 0.205915 0.875923 0.435346
O O1 0.750000 0.500000 0.789911
O O2 0.886711 0.584104 0.660380
O O3 0.468372 0.385778 0.476827
O O4 0.160137 0.298341 0.398639
O O5 0.500000 0.723042 0.750000
O O6 0.633852 0.816329 0.634071
O O7 0.000000 0.770561 0.750000
O O8 0.141059 0.058295 0.880108
O O9 0.500000 0.025367 0.750000
O O10 0.517733 0.872828 0.467596
#
# Coordination Sequence:
#
# PCOD8224155 Si02
#       5
#     4   8   8   4   8
#     4  12  28  48  74 106 146 188 234 290 348 426
#     4  12  26  46  74 106 141 186 234 288 349 416
#     4  12  24  43  70 100 138 181 229 288 347 415
#     4  12  24  42  64  92 130 178 228 282 350 416
#     4  12  24  42  64  97 133 176 228 286 347 415
#
# _framework density 22.944127000000002
#
# number of rings (size 3 to 8) (size 9 to 14) (size 15 to 20)
#    0.000    0.000    1.250    9.750    1.750    3.000 
#    0.000    0.000    0.000    0.000    0.000    0.000 
#    0.000    0.000    0.000    0.000    0.000    0.000 
#
# Total GULP energy -397138.407489 kJ/mol
# GULP energy per Si atom -12410.575234 kJ/mol
# Density = 2.289191 g / cm^3
# Si number density = 22.944127 Si / 1000 Ang^3
#
#
#
# Elastic Constant Matrix: (Units=GPa)
#
#
# Indices 1 2 3 4 5 6 
#
# 1 116.0247 23.0621 31.6439 0.0000 0.0000 0.0000
# 2 23.0621 122.7418 44.4151 0.0000 0.0000 0.0000
# 3 31.6439 44.4151 105.1991 0.0000 0.0000 0.0000
# 4 0.0000 0.0000 0.0000 -25.9349 0.0000 0.0000
# 5 0.0000 0.0000 0.0000 0.0000 50.2199 0.0000
# 6 0.0000 0.0000 0.0000 0.0000 0.0000 32.1785
#
#
#
# Elastic Compliance Matrix: (Units=1/GPa)
#
#
# Indices 1 2 3 4 5 6 
#
# 1 0.009470 -0.000883 -0.002475 0.000000 0.000000 0.000000
# 2 -0.000883 0.009699 -0.003829 0.000000 0.000000 0.000000
# 3 -0.002475 -0.003829 0.011867 0.000000 0.000000 0.000000
# 4 0.000000 0.000000 0.000000 -0.038558 0.000000 0.000000
# 5 0.000000 0.000000 0.000000 0.000000 0.019912 0.000000
# 6 0.000000 0.000000 0.000000 0.000000 0.000000 0.031077
#
#
# Mechanical properties :
#
#
# Convention : Reuss Voigt Hill
#
# Bulk Modulus (GPa) = 60.02621 60.24530 60.13575
# Shear Modulus (GPa) = 78.87004 27.61568 53.24286
#
# Velocity S-wave (km/s) = 5.86937 3.47307 4.82243
# Velocity P-wave (km/s) = 8.49419 6.51132 7.56798
#
# Compressibility (1/GPa) = 0.01665939
#
# Stress axis : x y z
#
# Youngs Moduli (GPa) = 105.60108 103.10593 84.26713
#
# Poissons Ratio (x) = 0.09109 0.20860
# Poissons Ratio (y) = 0.09330 0.32266
# Poissons Ratio (z) = 0.26141 0.39480
#
# Static dielectric constant tensor:
#      x y z
#    x 4.229850 0.000000 0.000000 
#    y 0.000000 4.090160 0.000000 
#    z 0.000000 0.000000 4.156830 
# 
# 
# High freq. dielectric constant tensor:
#      x y z
#    x 1.922270 0.000000 0.000000 
#    y 0.000000 1.911720 0.000000 
#    z 0.000000 0.000000 1.914610 
# 
# From -- ./inp_files/6273.got.cif
#   From: 2010.03.12/outbox.cif.g09.slc.cpg/sg54_4_cif.got.tgz:6273.got - 2010.04.16 15:00:50.
