data_PCOD8224247
_publ_section_title
;
Structure prediction by ZEFSAII (Michael W. Deem and Ramdas Pophale) SiO2 
 PCOD8224247
Probable space group: P B A M
;
_chemical_formula_sum "Si O2"
_cell_formula_units_Z 52
_cell_length_a 27.164039
_cell_length_b 5.216043
_cell_length_c 20.707063
_cell_angle_alpha 90.000000
_cell_angle_beta 90.000000
_cell_angle_gamma 90.000000
_cell_volume 2933.958814
_symmetry_space_group_name_H-M "P B A M"
_symmetry_group_IT_number 55
_symmetry_cell_setting 'orthorhombic'
loop_
_space_group_symop_operation_xyz
x,y,z
-x,-y,z
1/2+x,1/2-y,-z
1/2-x,1/2+y,-z
-x,-y,-z
x,y,-z
1/2-x,1/2+y,z
1/2+x,1/2-y,z
loop_
_atom_site_type_symbol
_atom_site_label
_atom_site_fract_x
_atom_site_fract_y
_atom_site_fract_z
Si Si1 0.782543 0.765944 0.361141
Si Si2 0.219575 0.766168 0.075577
Si Si3 0.976433 0.750102 0.280550
Si Si4 0.867724 0.266113 0.171775
Si Si5 0.720236 0.176322 0.500000
Si Si6 0.980619 0.249805 0.137259
Si Si7 0.865092 0.766192 0.255172
O O1 0.741517 0.545392 0.352125
O O2 0.807756 0.739705 0.432694
O O3 0.824685 0.725578 0.309397
O O4 0.250654 0.518324 0.096422
O O5 0.167727 0.766146 0.111170
O O6 0.207898 0.764806 0.000000
O O7 0.918014 0.748599 0.289196
O O8 0.000000 0.500000 0.314453
O O9 0.990104 0.750016 0.205126
O O10 0.000000 0.000000 0.314534
O O11 0.922589 0.244925 0.145195
O O12 0.858742 0.542766 0.202839
O O13 0.857635 0.043215 0.223211
O O14 0.766658 0.374341 0.500000
O O15 0.000000 0.500000 0.098740
O O16 0.000000 0.000000 0.098629
#
# Coordination Sequence:
#
# PCOD8224247 Si02
#       7
#     8   8   8   8   4   8   8
#     4  10  21  35  49  73 106 136 167 209 243 298
#     4  10  23  42  57  71  97 137 177 203 238 303
#     4  10  16  30  46  68 100 134 163 190 239 301
#     4  12  21  32  55  78 101 132 167 206 256 295
#     4   8  16  34  54  64  90 142 178 194 242 292
#     4  10  16  30  48  71  98 130 161 195 242 298
#     4  12  21  30  51  82 105 130 163 206 261 295
#
# _framework density 17.723495
#
# number of rings (size 3 to 8) (size 9 to 14) (size 15 to 20)
#    0.000    1.538    6.154    1.846    0.000    3.692 
#    0.000    0.000    0.000    0.923    0.000    1.077 
#    0.000    0.000    0.000    0.000    0.000    0.000 
#
# Total GULP energy -644511.625048 kJ/mol
# GULP energy per Si atom -12394.454328 kJ/mol
# Density = 1.768316 g / cm^3
# Si number density = 17.723495 Si / 1000 Ang^3
#
#
#
# Elastic Constant Matrix: (Units=GPa)
#
#
# Indices 1 2 3 4 5 6 
#
# 1 103.7350 25.8420 45.4836 0.0000 0.0000 0.0000
# 2 25.8420 138.5514 14.5665 0.0000 0.0000 0.0000
# 3 45.4836 14.5665 41.4624 0.0000 0.0000 0.0000
# 4 0.0000 0.0000 0.0000 6.7208 0.0000 0.0000
# 5 0.0000 0.0000 0.0000 0.0000 -3.2092 0.0000
# 6 0.0000 0.0000 0.0000 0.0000 0.0000 26.6713
#
#
#
# Elastic Compliance Matrix: (Units=1/GPa)
#
#
# Indices 1 2 3 4 5 6 
#
# 1 0.018828 -0.001392 -0.020165 0.000000 0.000000 0.000000
# 2 -0.001392 0.007597 -0.001142 0.000000 0.000000 0.000000
# 3 -0.020165 -0.001142 0.046641 0.000000 0.000000 0.000000
# 4 0.000000 0.000000 0.000000 0.148792 0.000000 0.000000
# 5 0.000000 0.000000 0.000000 0.000000 -0.311606 0.000000
# 6 0.000000 0.000000 0.000000 0.000000 0.000000 0.037493
#
#
# Mechanical properties :
#
#
# Convention : Reuss Voigt Hill
#
# Bulk Modulus (GPa) = 36.14383 50.61476 43.37929
# Shear Modulus (GPa) = 2112.37613 19.22705 1065.80159
#
# Velocity S-wave (km/s) = 34.56065 3.29725 24.54903
# Velocity P-wave (km/s) = 40.16244 6.56627 28.77618
#
# Compressibility (1/GPa) = 0.02766724
#
# Stress axis : x y z
#
# Youngs Moduli (GPa) = 53.11134 131.62727 21.44050
#
# Poissons Ratio (x) = 0.18319 0.43236
# Poissons Ratio (y) = 0.07392 0.02449
# Poissons Ratio (z) = 1.07101 0.15037
#
# Static dielectric constant tensor:
#      x y z
#    x 3.167770 0.000000 0.000000 
#    y 0.000000 2.356560 0.000000 
#    z 0.000000 0.000000 2.976540 
# 
# 
# High freq. dielectric constant tensor:
#      x y z
#    x 1.677130 0.000000 0.000000 
#    y 0.000000 1.725180 0.000000 
#    z 0.000000 0.000000 1.635330 
# 
# From -- ./inp_files/20494.got.cif
#   From: 2010.03.12/outbox.cif.g09.slc.cpg/sg55_11_cif.got.tgz:20494.got - 2010.04.16 15:19:21.
