data_PCOD8224135
_publ_section_title
;
Structure prediction by ZEFSAII (Michael W. Deem and Ramdas Pophale) SiO2 
 PCOD8224135
Probable space group: P C C A
;
_chemical_formula_sum "Si O2"
_cell_formula_units_Z 40
_cell_length_a 22.715034
_cell_length_b 7.570494
_cell_length_c 9.791772
_cell_angle_alpha 90.000000
_cell_angle_beta 90.000000
_cell_angle_gamma 90.000000
_cell_volume 1683.832560
_symmetry_space_group_name_H-M "P C C A"
_symmetry_group_IT_number 54
_symmetry_cell_setting 'orthorhombic'
loop_
_space_group_symop_operation_xyz
x,y,z
1/2-x,-y,z
1/2+x,-y,1/2-z
-x,y,1/2-z
-x,-y,-z
1/2+x,y,-z
1/2-x,y,1/2+z
x,-y,1/2+z
loop_
_atom_site_type_symbol
_atom_site_label
_atom_site_fract_x
_atom_site_fract_y
_atom_site_fract_z
Si Si1 0.564407 0.934681 0.035695
Si Si2 0.858733 0.685048 0.868568
Si Si3 0.687415 0.592989 0.666748
Si Si4 0.009400 0.363609 0.112335
Si Si5 0.639795 0.062793 0.274786
O O1 0.547859 0.761950 0.121719
O O2 0.601679 0.060256 0.135152
O O3 0.600304 0.876238 0.902071
O O4 0.500000 0.000000 0.000000
O O5 0.856649 0.536188 0.750276
O O6 0.927057 0.732975 0.904539
O O7 0.831249 0.871006 0.811637
O O8 0.827634 0.614262 0.006321
O O9 0.750000 0.500000 0.680593
O O10 0.688138 0.784760 0.743087
O O11 0.000000 0.474303 0.250000
O O12 0.000000 0.500000 0.000000
#
# Coordination Sequence:
#
# PCOD8224135 Si02
#       5
#     8   8   8   8   8
#     4  12  22  43  70 112 162 205 246 298 388 487
#     4  12  26  48  77 111 158 202 263 323 392 475
#     4  12  29  52  77 109 146 205 274 339 392 453
#     4  12  23  39  67 112 159 204 247 303 383 480
#     4  12  25  47  76 113 155 206 257 322 390 472
#
# _framework density 23.755330000000001
#
# number of rings (size 3 to 8) (size 9 to 14) (size 15 to 20)
#    0.000    0.000    6.000    3.600    2.800    2.400 
#    0.000    2.000    0.000    0.000    0.000    0.000 
#    0.000    0.000    0.000    0.000    0.000    0.000 
#
# Total GULP energy -495603.313300 kJ/mol
# GULP energy per Si atom -12390.082832 kJ/mol
# Density = 2.370126 g / cm^3
# Si number density = 23.755330 Si / 1000 Ang^3
#
#
#
# Elastic Constant Matrix: (Units=GPa)
#
#
# Indices 1 2 3 4 5 6 
#
# 1 92.4143 44.1582 51.0261 0.0000 0.0000 0.0000
# 2 44.1582 160.3853 62.7462 0.0000 0.0000 0.0000
# 3 51.0261 62.7462 180.8416 0.0000 0.0000 0.0000
# 4 0.0000 0.0000 0.0000 46.0893 0.0000 0.0000
# 5 0.0000 0.0000 0.0000 0.0000 27.1138 0.0000
# 6 0.0000 0.0000 0.0000 0.0000 0.0000 48.6210
#
#
#
# Elastic Compliance Matrix: (Units=1/GPa)
#
#
# Indices 1 2 3 4 5 6 
#
# 1 0.013705 -0.002615 -0.002959 0.000000 0.000000 0.000000
# 2 -0.002615 0.007713 -0.001938 0.000000 0.000000 0.000000
# 3 -0.002959 -0.001938 0.007037 0.000000 0.000000 0.000000
# 4 0.000000 0.000000 0.000000 0.021697 0.000000 0.000000
# 5 0.000000 0.000000 0.000000 0.000000 0.036882 0.000000
# 6 0.000000 0.000000 0.000000 0.000000 0.000000 0.020567
#
#
# Mechanical properties :
#
#
# Convention : Reuss Voigt Hill
#
# Bulk Modulus (GPa) = 74.46626 83.27804 78.87215
# Shear Modulus (GPa) = 39.33792 42.74552 41.04172
#
# Velocity S-wave (km/s) = 4.07377 4.24654 4.16105
# Velocity P-wave (km/s) = 7.31728 7.69265 7.50731
#
# Compressibility (1/GPa) = 0.01342890
#
# Stress axis : x y z
#
# Youngs Moduli (GPa) = 72.96827 129.64445 142.10076
#
# Poissons Ratio (x) = 0.33908 0.42053
# Poissons Ratio (y) = 0.19084 0.27544
# Poissons Ratio (z) = 0.21594 0.25129
#
# Static dielectric constant tensor:
#      x y z
#    x 4.221980 0.000000 0.000000 
#    y 0.000000 0.980520 0.000000 
#    z 0.000000 0.000000 6.254410 
# 
# 
# High freq. dielectric constant tensor:
#      x y z
#    x 1.918230 0.000000 0.000000 
#    y 0.000000 1.951220 0.000000 
#    z 0.000000 0.000000 1.974450 
# 
# From -- ./inp_files/5009.got.cif
#   From: 2010.03.12/outbox.cif.g09.slc.cpg/sg54_3_cif.got.tgz:5009.got - 2010.04.16 15:00:50.
