data_PCOD8224037
_publ_section_title
;
Structure prediction by ZEFSAII (Michael W. Deem and Ramdas Pophale) SiO2 
 PCOD8224037
Probable space group: P C C A
;
_chemical_formula_sum "Si O2"
_cell_formula_units_Z 40
_cell_length_a 12.440927
_cell_length_b 8.472617
_cell_length_c 16.779713
_cell_angle_alpha 90.000000
_cell_angle_beta 90.000000
_cell_angle_gamma 90.000000
_cell_volume 1768.702725
_symmetry_space_group_name_H-M "P C C A"
_symmetry_group_IT_number 54
_symmetry_cell_setting 'orthorhombic'
loop_
_space_group_symop_operation_xyz
x,y,z
1/2-x,-y,z
1/2+x,-y,1/2-z
-x,y,1/2-z
-x,-y,-z
1/2+x,y,-z
1/2-x,y,1/2+z
x,-y,1/2+z
loop_
_atom_site_type_symbol
_atom_site_label
_atom_site_fract_x
_atom_site_fract_y
_atom_site_fract_z
Si Si1 0.662349 0.171447 0.620768
Si Si2 0.554898 0.350015 0.329757
Si Si3 0.226950 0.832293 0.700445
Si Si4 0.948822 0.672409 0.903444
Si Si5 0.389631 0.172039 0.430649
O O1 0.693104 0.125536 0.710083
O O2 0.573402 0.306110 0.618765
O O3 0.770498 0.242978 0.582031
O O4 0.619702 0.018434 0.571453
O O5 0.500000 0.421704 0.250000
O O6 0.670365 0.280097 0.307119
O O7 0.570930 0.484190 0.397727
O O8 0.475535 0.215354 0.362537
O O9 0.124806 0.753580 0.661422
O O10 0.250000 0.000000 0.657506
O O11 0.928703 0.751481 0.987900
#
# Coordination Sequence:
#
# PCOD8224037 Si02
#       5
#     8   8   8   8   8
#     4  11  23  48  71 102 140 185 246 289 358 420
#     4  12  24  47  69 104 149 190 237 291 363 435
#     4  12  24  45  74 104 137 191 242 294 348 431
#     4  12  28  41  72 104 147 186 235 299 366 423
#     4  11  25  46  71 106 141 189 236 304 352 425
#
# _framework density 22.615447
#
# number of rings (size 3 to 8) (size 9 to 14) (size 15 to 20)
#    0.000    0.400    4.000    4.800    5.600    0.800 
#    3.600    0.000    0.000    0.000    0.000    0.000 
#    0.000    0.000    0.000    0.000    0.000    0.000 
#
# Total GULP energy -495993.060143 kJ/mol
# GULP energy per Si atom -12399.826504 kJ/mol
# Density = 2.256397 g / cm^3
# Si number density = 22.615447 Si / 1000 Ang^3
#
#
#
# Elastic Constant Matrix: (Units=GPa)
#
#
# Indices 1 2 3 4 5 6 
#
# 1 133.3572 21.7226 36.1233 0.0000 0.0000 0.0000
# 2 21.7226 80.6213 25.9713 0.0000 0.0000 0.0000
# 3 36.1233 25.9713 93.1567 0.0000 0.0000 0.0000
# 4 0.0000 0.0000 0.0000 -2.5654 0.0000 0.0000
# 5 0.0000 0.0000 0.0000 0.0000 32.6984 0.0000
# 6 0.0000 0.0000 0.0000 0.0000 0.0000 27.5872
#
#
#
# Elastic Compliance Matrix: (Units=1/GPa)
#
#
# Indices 1 2 3 4 5 6 
#
# 1 0.008511 -0.001351 -0.002923 0.000000 0.000000 0.000000
# 2 -0.001351 0.013842 -0.003335 0.000000 0.000000 0.000000
# 3 -0.002923 -0.003335 0.012798 0.000000 0.000000 0.000000
# 4 0.000000 0.000000 0.000000 -0.389807 0.000000 0.000000
# 5 0.000000 0.000000 0.000000 0.000000 0.030583 0.000000
# 6 0.000000 0.000000 0.000000 0.000000 0.000000 0.036249
#
#
# Mechanical properties :
#
#
# Convention : Reuss Voigt Hill
#
# Bulk Modulus (GPa) = 50.17280 52.75217 51.46248
# Shear Modulus (GPa) = -18.79972 26.43191 3.81609
#
# Velocity S-wave (km/s) = -2.88632 3.42241 1.30040
# Velocity P-wave (km/s) = 3.33550 6.24448 5.00595
#
# Compressibility (1/GPa) = 0.01993112
#
# Stress axis : x y z
#
# Youngs Moduli (GPa) = 117.49956 72.24326 78.13721
#
# Poissons Ratio (x) = 0.09763 0.22843
# Poissons Ratio (y) = 0.15878 0.26059
# Poissons Ratio (z) = 0.34350 0.24093
#
# Static dielectric constant tensor:
#      x y z
#    x 3.887410 0.000000 0.000000 
#    y 0.000000 4.015210 0.000000 
#    z 0.000000 0.000000 4.102640 
# 
# 
# High freq. dielectric constant tensor:
#      x y z
#    x 1.917740 0.000000 0.000000 
#    y 0.000000 1.887520 0.000000 
#    z 0.000000 0.000000 1.890740 
# 
# From -- ./inp_files/17074.got.cif
#   From: 2010.03.12/outbox.cif.g09.slc.cpg/sg54_9_cif.got.tgz:17074.got - 2010.04.16 15:00:50.
