data_PCOD8224034
_publ_section_title
;
Structure prediction by ZEFSAII (Michael W. Deem and Ramdas Pophale) SiO2 
 PCOD8224034
Probable space group: P C C A
;
_chemical_formula_sum "Si O2"
_cell_formula_units_Z 48
_cell_length_a 10.869712
_cell_length_b 14.327919
_cell_length_c 13.901387
_cell_angle_alpha 90.000000
_cell_angle_beta 90.000000
_cell_angle_gamma 90.000000
_cell_volume 2165.006920
_symmetry_space_group_name_H-M "P C C A"
_symmetry_group_IT_number 54
_symmetry_cell_setting 'orthorhombic'
loop_
_space_group_symop_operation_xyz
x,y,z
1/2-x,-y,z
1/2+x,-y,1/2-z
-x,y,1/2-z
-x,-y,-z
1/2+x,y,-z
1/2-x,y,1/2+z
x,-y,1/2+z
loop_
_atom_site_type_symbol
_atom_site_label
_atom_site_fract_x
_atom_site_fract_y
_atom_site_fract_z
Si Si1 0.823783 0.845544 0.865314
Si Si2 0.500000 0.423325 0.250000
Si Si3 0.500000 0.732041 0.250000
Si Si4 0.750000 0.500000 0.171071
Si Si5 0.414209 0.730686 0.602670
Si Si6 0.179884 0.314976 0.400277
Si Si7 0.750000 0.000000 0.720621
Si Si8 0.359397 0.855646 0.916267
O O1 0.712315 0.771523 0.854507
O O2 0.819568 0.928881 0.789470
O O3 0.948000 0.792266 0.838822
O O4 0.835510 0.885169 0.973241
O O5 0.622151 0.487523 0.232351
O O6 0.532509 0.355383 0.338231
O O7 0.397381 0.671090 0.302157
O O8 0.753149 0.588183 0.098478
O O9 0.400941 0.692113 0.495276
O O10 0.503965 0.819370 0.601232
O O11 0.265423 0.225345 0.386275
O O12 0.655231 0.945837 0.651159
#
# Coordination Sequence:
#
# PCOD8224034 Si02
#       8
#     8   4   4   4   8   8   4   8
#     4  11  25  41  70 105 133 194 235 288 360 419
#     4  12  25  46  71 108 148 190 237 300 357 432
#     4  12  21  46  67 100 142 182 233 294 357 422
#     4  12  26  44  74 110 146 188 250 292 364 432
#     4  11  24  47  74  98 145 190 237 290 362 425
#     4  11  24  45  73 101 141 189 235 296 359 424
#     4  12  24  44  70 104 142 186 242 288 354 422
#     4  11  23  47  68 101 145 185 236 295 355 422
#
# _framework density 22.170829999999999
#
# number of rings (size 3 to 8) (size 9 to 14) (size 15 to 20)
#    0.000    0.667    5.000    3.000    0.000    2.667 
#    0.000    3.333    0.000    0.000    0.000    0.000 
#    0.000    0.000    0.000    0.000    0.000    0.000 
#
# Total GULP energy -595072.604838 kJ/mol
# GULP energy per Si atom -12397.345934 kJ/mol
# Density = 2.212037 g / cm^3
# Si number density = 22.170830 Si / 1000 Ang^3
#
#
#
# Elastic Constant Matrix: (Units=GPa)
#
#
# Indices 1 2 3 4 5 6 
#
# 1 105.5444 32.0859 38.0453 0.0000 0.0000 0.0000
# 2 32.0859 110.6581 60.9991 0.0000 0.0000 0.0000
# 3 38.0453 60.9991 130.3141 0.0000 0.0000 0.0000
# 4 0.0000 0.0000 0.0000 34.4269 0.0000 0.0000
# 5 0.0000 0.0000 0.0000 0.0000 37.6461 0.0000
# 6 0.0000 0.0000 0.0000 0.0000 0.0000 24.0412
#
#
#
# Elastic Compliance Matrix: (Units=1/GPa)
#
#
# Indices 1 2 3 4 5 6 
#
# 1 0.010875 -0.001891 -0.002290 0.000000 0.000000 0.000000
# 2 -0.001891 0.012508 -0.005303 0.000000 0.000000 0.000000
# 3 -0.002290 -0.005303 0.010825 0.000000 0.000000 0.000000
# 4 0.000000 0.000000 0.000000 0.029047 0.000000 0.000000
# 5 0.000000 0.000000 0.000000 0.000000 0.026563 0.000000
# 6 0.000000 0.000000 0.000000 0.000000 0.000000 0.041595
#
#
# Mechanical properties :
#
#
# Convention : Reuss Voigt Hill
#
# Bulk Modulus (GPa) = 65.61555 67.64191 66.62873
# Shear Modulus (GPa) = 32.16240 33.58194 32.87217
#
# Velocity S-wave (km/s) = 3.81289 3.89612 3.85473
# Velocity P-wave (km/s) = 7.00313 7.12849 7.06609
#
# Compressibility (1/GPa) = 0.01524029
#
# Stress axis : x y z
#
# Youngs Moduli (GPa) = 91.95439 79.94642 92.38258
#
# Poissons Ratio (x) = 0.15118 0.21153
# Poissons Ratio (y) = 0.17389 0.48990
# Poissons Ratio (z) = 0.21055 0.42395
#
# Static dielectric constant tensor:
#      x y z
#    x 4.202060 0.000000 0.000000 
#    y 0.000000 3.980060 0.000000 
#    z 0.000000 0.000000 4.077600 
# 
# 
# High freq. dielectric constant tensor:
#      x y z
#    x 1.878370 0.000000 0.000000 
#    y 0.000000 1.872540 0.000000 
#    z 0.000000 0.000000 1.884040 
# 
# From -- ./inp_files/12683.got.cif
#   From: 2010.03.12/outbox.cif.g09.slc.cpg/sg54_7_cif.got.tgz:12683.got - 2010.04.16 15:00:50.
