data_PCOD8224185
_publ_section_title
;
Structure prediction by ZEFSAII (Michael W. Deem and Ramdas Pophale) SiO2 
 PCOD8224185
Probable space group: P C C A
;
_chemical_formula_sum "Si O2"
_cell_formula_units_Z 24
_cell_length_a 17.050011
_cell_length_b 7.892198
_cell_length_c 7.286104
_cell_angle_alpha 90.000000
_cell_angle_beta 90.000000
_cell_angle_gamma 90.000000
_cell_volume 980.433183
_symmetry_space_group_name_H-M "P C C A"
_symmetry_group_IT_number 54
_symmetry_cell_setting 'orthorhombic'
loop_
_space_group_symop_operation_xyz
x,y,z
1/2-x,-y,z
1/2+x,-y,1/2-z
-x,y,1/2-z
-x,-y,-z
1/2+x,y,-z
1/2-x,y,1/2+z
x,-y,1/2+z
loop_
_atom_site_type_symbol
_atom_site_label
_atom_site_fract_x
_atom_site_fract_y
_atom_site_fract_z
Si Si1 0.155682 0.664573 0.184337
Si Si2 0.800063 0.829982 0.956118
Si Si3 0.088788 0.310407 0.311619
O O1 0.155885 0.798071 0.351840
O O2 0.134466 0.482430 0.263251
O O3 0.240783 0.673126 0.084824
O O4 0.091506 0.720158 0.030713
O O5 0.750000 0.000000 0.964369
O O6 0.865575 0.839927 0.795440
O O7 0.000000 0.320771 0.250000
#
# Coordination Sequence:
#
# PCOD8224185 Si02
#       3
#     8   8   8
#     4  12  25  44  77 108 149 201 257 310 367 451
#     4  12  27  46  75 110 149 204 262 307 377 458
#     4  12  27  47  77 118 152 196 255 319 379 445
#
# _framework density 24.478974999999998
#
# number of rings (size 3 to 8) (size 9 to 14) (size 15 to 20)
#    0.000    0.000    6.667    3.000    0.000    1.333 
#    0.000    3.333    0.000    0.000    0.000    0.000 
#    0.000    0.000    0.000    0.000    0.000    0.000 
#
# Total GULP energy -297555.246272 kJ/mol
# GULP energy per Si atom -12398.135261 kJ/mol
# Density = 2.442326 g / cm^3
# Si number density = 24.478975 Si / 1000 Ang^3
#
#
#
# Elastic Constant Matrix: (Units=GPa)
#
#
# Indices 1 2 3 4 5 6 
#
# 1 116.6336 69.2676 20.7333 0.0000 0.0000 0.0000
# 2 69.2676 109.1568 55.5582 0.0000 0.0000 0.0000
# 3 20.7333 55.5582 165.7893 0.0000 0.0000 0.0000
# 4 0.0000 0.0000 0.0000 18.8393 0.0000 0.0000
# 5 0.0000 0.0000 0.0000 0.0000 46.6400 0.0000
# 6 0.0000 0.0000 0.0000 0.0000 0.0000 18.5652
#
#
#
# Elastic Compliance Matrix: (Units=1/GPa)
#
#
# Indices 1 2 3 4 5 6 
#
# 1 0.014056 -0.009675 0.001484 0.000000 0.000000 0.000000
# 2 -0.009675 0.017705 -0.004723 0.000000 0.000000 0.000000
# 3 0.001484 -0.004723 0.007429 0.000000 0.000000 0.000000
# 4 0.000000 0.000000 0.000000 0.053080 0.000000 0.000000
# 5 0.000000 0.000000 0.000000 0.000000 0.021441 0.000000
# 6 0.000000 0.000000 0.000000 0.000000 0.000000 0.053864
#
#
# Mechanical properties :
#
#
# Convention : Reuss Voigt Hill
#
# Bulk Modulus (GPa) = 74.83919 75.85533 75.34726
# Shear Modulus (GPa) = 25.27090 33.21027 29.24059
#
# Velocity S-wave (km/s) = 3.21651 3.68732 3.45993
# Velocity P-wave (km/s) = 6.66587 7.01310 6.84169
#
# Compressibility (1/GPa) = 0.01336198
#
# Stress axis : x y z
#
# Youngs Moduli (GPa) = 71.14482 56.48281 134.60967
#
# Poissons Ratio (x) = 0.54647 -0.19982
# Poissons Ratio (y) = 0.68832 0.63577
# Poissons Ratio (z) = -0.10561 0.26677
#
# Static dielectric constant tensor:
#      x y z
#    x 4.328060 0.000000 0.000000 
#    y 0.000000 4.220240 0.000000 
#    z 0.000000 0.000000 5.226690 
# 
# 
# High freq. dielectric constant tensor:
#      x y z
#    x 1.953940 0.000000 0.000000 
#    y 0.000000 1.956550 0.000000 
#    z 0.000000 0.000000 2.004530 
# 
# From -- ./inp_files/3128.got.cif
#   From: 2010.03.12/outbox.cif.g09.slc.cpg/sg54_2_cif.got.tgz:3128.got - 2010.04.16 15:00:50.
