data_PCOD8224788
_publ_section_title
;
Structure prediction by ZEFSAII (Michael W. Deem and Ramdas Pophale) SiO2 
 PCOD8224788
Probable space group: P B A M
;
_chemical_formula_sum "Si O2"
_cell_formula_units_Z 64
_cell_length_a 18.717358
_cell_length_b 21.284069
_cell_length_c 9.075704
_cell_angle_alpha 90.000000
_cell_angle_beta 90.000000
_cell_angle_gamma 90.000000
_cell_volume 3615.592929
_symmetry_space_group_name_H-M "P B A M"
_symmetry_group_IT_number 55
_symmetry_cell_setting 'orthorhombic'
loop_
_space_group_symop_operation_xyz
x,y,z
-x,-y,z
1/2+x,1/2-y,-z
1/2-x,1/2+y,-z
-x,-y,-z
x,y,-z
1/2-x,1/2+y,z
1/2+x,1/2-y,z
loop_
_atom_site_type_symbol
_atom_site_label
_atom_site_fract_x
_atom_site_fract_y
_atom_site_fract_z
Si Si1 0.572977 0.854280 0.328671
Si Si2 0.964836 0.815591 0.165535
Si Si3 0.525575 0.570024 0.672430
Si Si4 0.921886 0.480848 0.173163
Si Si5 0.418134 0.802526 0.674055
Si Si6 0.826251 0.596786 0.828174
Si Si7 0.878952 0.242180 0.162090
Si Si8 0.665644 0.610479 0.829171
O O1 0.581106 0.864325 0.500000
O O2 0.600584 0.916521 0.249684
O O3 0.491809 0.837809 0.282833
O O4 0.625939 0.798304 0.279132
O O5 0.914241 0.766724 0.253032
O O6 0.970194 0.882401 0.248772
O O7 0.042738 0.786754 0.159309
O O8 0.934622 0.825901 0.000000
O O9 0.500000 0.500000 0.706765
O O10 0.525192 0.585540 0.500000
O O11 0.606615 0.576241 0.730435
O O12 0.867475 0.534628 0.223304
O O13 0.000000 0.500000 0.229479
O O14 0.920819 0.469540 0.000000
O O15 0.411149 0.794315 0.500000
O O16 0.353016 0.843656 0.735430
O O17 0.743373 0.582109 0.795801
O O18 0.840034 0.611399 0.000000
O O19 0.827414 0.184928 0.208517
O O20 0.859110 0.268453 0.000000
O O21 0.643353 0.602066 0.000000
#
# Coordination Sequence:
#
# PCOD8224788 Si02
#       8
#     8   8   8   8   8   8   8   8
#     4  10  19  29  46  72 101 130 167 212 250 298
#     4   9  17  30  51  77 102 129 165 210 255 301
#     4  10  20  34  55  82 109 136 169 215 270 325
#     4  10  19  31  49  73 102 140 179 216 257 301
#     4  10  19  30  47  74 105 136 169 211 263 309
#     4  10  20  34  52  74 103 138 180 222 262 315
#     4   8  15  29  49  71  94 121 157 204 254 300
#     4   9  19  35  55  78 102 133 175 221 264 316
#
# _framework density 17.701108999999999
#
# number of rings (size 3 to 8) (size 9 to 14) (size 15 to 20)
#    0.000    2.500    1.250    2.250    0.000    6.250 
#    0.000    0.000    2.750    0.000    0.000    0.000 
#    0.000    0.000    0.000    0.000    0.000    0.000 
#
# Total GULP energy -793550.648733 kJ/mol
# GULP energy per Si atom -12399.228886 kJ/mol
# Density = 1.766082 g / cm^3
# Si number density = 17.701109 Si / 1000 Ang^3
#
#
#
# Elastic Constant Matrix: (Units=GPa)
#
#
# Indices 1 2 3 4 5 6 
#
# 1 58.2546 41.9749 29.7335 0.0000 0.0000 0.0000
# 2 41.9749 131.8178 62.3261 0.0000 0.0000 0.0000
# 3 29.7335 62.3261 85.6849 0.0000 0.0000 0.0000
# 4 0.0000 0.0000 0.0000 30.7444 0.0000 0.0000
# 5 0.0000 0.0000 0.0000 0.0000 15.6448 0.0000
# 6 0.0000 0.0000 0.0000 0.0000 0.0000 24.4879
#
#
#
# Elastic Compliance Matrix: (Units=1/GPa)
#
#
# Indices 1 2 3 4 5 6 
#
# 1 0.023175 -0.005453 -0.004076 0.000000 0.000000 0.000000
# 2 -0.005453 0.012846 -0.007452 0.000000 0.000000 0.000000
# 3 -0.004076 -0.007452 0.018505 0.000000 0.000000 0.000000
# 4 0.000000 0.000000 0.000000 0.032526 0.000000 0.000000
# 5 0.000000 0.000000 0.000000 0.000000 0.063919 0.000000
# 6 0.000000 0.000000 0.000000 0.000000 0.000000 0.040837
#
#
# Mechanical properties :
#
#
# Convention : Reuss Voigt Hill
#
# Bulk Modulus (GPa) = 48.62414 60.42514 54.52464
# Shear Modulus (GPa) = 21.49389 23.62359 22.55874
#
# Velocity S-wave (km/s) = 3.48842 3.65716 3.57378
# Velocity P-wave (km/s) = 6.61472 7.21412 6.92091
#
# Compressibility (1/GPa) = 0.02056591
#
# Stress axis : x y z
#
# Youngs Moduli (GPa) = 43.14959 77.84603 54.03825
#
# Poissons Ratio (x) = 0.42446 0.22025
# Poissons Ratio (y) = 0.23528 0.40268
# Poissons Ratio (z) = 0.17587 0.58010
#
# Static dielectric constant tensor:
#      x y z
#    x 3.036180 0.000000 0.000000 
#    y 0.000000 3.420800 0.000000 
#    z 0.000000 0.000000 3.303820 
# 
# 
# High freq. dielectric constant tensor:
#      x y z
#    x 1.645520 0.000000 0.000000 
#    y 0.000000 1.687740 0.000000 
#    z 0.000000 0.000000 1.688460 
# 
# From -- ./inp_files/9179.got.cif
#   From: 2010.03.12/outbox.cif.g09.slc.cpg/sg55_5_cif.got.tgz:9179.got - 2010.04.16 15:19:21.
