data_PCOD8224371
_publ_section_title
;
Structure prediction by ZEFSAII (Michael W. Deem and Ramdas Pophale) SiO2 
 PCOD8224371
Probable space group: P B A M
;
_chemical_formula_sum "Si O2"
_cell_formula_units_Z 64
_cell_length_a 18.393402
_cell_length_b 26.233133
_cell_length_c 8.666321
_cell_angle_alpha 90.000000
_cell_angle_beta 90.000000
_cell_angle_gamma 90.000000
_cell_volume 4181.643405
_symmetry_space_group_name_H-M "P B A M"
_symmetry_group_IT_number 55
_symmetry_cell_setting 'orthorhombic'
loop_
_space_group_symop_operation_xyz
x,y,z
-x,-y,z
1/2+x,1/2-y,-z
1/2-x,1/2+y,-z
-x,-y,-z
x,y,-z
1/2-x,1/2+y,z
1/2+x,1/2-y,z
loop_
_atom_site_type_symbol
_atom_site_label
_atom_site_fract_x
_atom_site_fract_y
_atom_site_fract_z
Si Si1 0.922744 0.244855 0.680543
Si Si2 0.573778 0.556721 0.182311
Si Si3 0.086406 0.242063 0.316671
Si Si4 0.079778 0.052492 0.317420
Si Si5 0.337459 0.644189 0.183678
Si Si6 0.337875 0.354099 0.682673
Si Si7 0.790431 0.698522 0.173603
Si Si8 0.801599 0.301073 0.170764
O O1 0.922956 0.241048 0.500000
O O2 0.888268 0.192310 0.744712
O O3 0.873444 0.293668 0.726334
O O4 0.004304 0.252087 0.741756
O O5 0.498907 0.573219 0.265007
O O6 0.597552 0.500611 0.234818
O O7 0.636926 0.594977 0.232199
O O8 0.561912 0.557761 0.000000
O O9 0.092430 0.237382 0.500000
O O10 0.110913 0.189126 0.242469
O O11 0.133429 0.290193 0.258721
O O12 0.080316 0.044846 0.500000
O O13 0.141292 0.092016 0.266558
O O14 0.252973 0.654724 0.230578
O O15 0.345894 0.640085 0.000000
O O16 0.342904 0.361239 0.500000
O O17 0.254384 0.343919 0.731518
O O18 0.745621 0.750253 0.170937
O O19 0.805221 0.678947 0.000000
O O20 0.829298 0.314125 0.000000
#
# Coordination Sequence:
#
# PCOD8224371 Si02
#       8
#     8   8   8   8   8   8   8   8
#     4   9  18  28  41  61  86 113 144 177 212 253
#     4  11  21  33  47  64  87 115 145 182 220 255
#     4  10  18  28  42  63  88 116 147 181 217 257
#     4  11  21  33  47  64  86 114 147 183 218 256
#     4  10  19  31  45  63  85 113 147 182 218 260
#     4  10  18  30  46  64  86 115 148 182 217 258
#     4   9  17  29  42  60  84 113 146 180 216 257
#     4   8  16  28  42  59  82 109 140 175 212 252
#
# _framework density 15.304988
#
# number of rings (size 3 to 8) (size 9 to 14) (size 15 to 20)
#    0.000    2.250    0.000    6.000    0.000    6.000 
#    0.000    0.000    0.000    0.000    0.000    0.000 
#    0.000    1.000    0.000   10.500    0.000    5.750 
#
# Total GULP energy -793474.046678 kJ/mol
# GULP energy per Si atom -12398.031979 kJ/mol
# Density = 1.527015 g / cm^3
# Si number density = 15.304988 Si / 1000 Ang^3
#
#
#
# Elastic Constant Matrix: (Units=GPa)
#
#
# Indices 1 2 3 4 5 6 
#
# 1 96.1435 40.3583 21.8644 0.0000 0.0000 0.0000
# 2 40.3583 62.3878 15.1648 0.0000 0.0000 0.0000
# 3 21.8644 15.1648 62.9713 0.0000 0.0000 0.0000
# 4 0.0000 0.0000 0.0000 23.7222 0.0000 0.0000
# 5 0.0000 0.0000 0.0000 0.0000 24.5716 0.0000
# 6 0.0000 0.0000 0.0000 0.0000 0.0000 26.6000
#
#
#
# Elastic Compliance Matrix: (Units=1/GPa)
#
#
# Indices 1 2 3 4 5 6 
#
# 1 0.014796 -0.008840 -0.003008 0.000000 0.000000 0.000000
# 2 -0.008840 0.022307 -0.002303 0.000000 0.000000 0.000000
# 3 -0.003008 -0.002303 0.017479 0.000000 0.000000 0.000000
# 4 0.000000 0.000000 0.000000 0.042155 0.000000 0.000000
# 5 0.000000 0.000000 0.000000 0.000000 0.040697 0.000000
# 6 0.000000 0.000000 0.000000 0.000000 0.000000 0.037594
#
#
# Mechanical properties :
#
#
# Convention : Reuss Voigt Hill
#
# Bulk Modulus (GPa) = 38.05172 41.80861 39.93016
# Shear Modulus (GPa) = 23.57474 24.58643 24.08059
#
# Velocity S-wave (km/s) = 3.92896 4.01238 3.97089
# Velocity P-wave (km/s) = 6.74526 6.98870 6.86806
#
# Compressibility (1/GPa) = 0.02628002
#
# Stress axis : x y z
#
# Youngs Moduli (GPa) = 67.58498 44.82861 57.21035
#
# Poissons Ratio (x) = 0.39630 0.17212
# Poissons Ratio (y) = 0.59747 0.13173
# Poissons Ratio (z) = 0.20333 0.10322
#
# Static dielectric constant tensor:
#      x y z
#    x 3.114720 0.000000 0.000000 
#    y 0.000000 2.784850 0.000000 
#    z 0.000000 0.000000 3.044220 
# 
# 
# High freq. dielectric constant tensor:
#      x y z
#    x 1.575730 0.000000 0.000000 
#    y 0.000000 1.551940 0.000000 
#    z 0.000000 0.000000 1.602430 
# 
# From -- ./inp_files/8211.got.cif
#   From: 2010.03.12/outbox.cif.g09.slc.cpg/sg55_5_cif.got.tgz:8211.got - 2010.04.16 15:19:21.
