data_PCOD8224671
_publ_section_title
;
Structure prediction by ZEFSAII (Michael W. Deem and Ramdas Pophale) SiO2 
 PCOD8224671
Probable space group: P B A M
;
_chemical_formula_sum "Si O2"
_cell_formula_units_Z 64
_cell_length_a 30.831434
_cell_length_b 12.239019
_cell_length_c 8.791020
_cell_angle_alpha 90.000000
_cell_angle_beta 90.000000
_cell_angle_gamma 90.000000
_cell_volume 3317.260686
_symmetry_space_group_name_H-M "P B A M"
_symmetry_group_IT_number 55
_symmetry_cell_setting 'orthorhombic'
loop_
_space_group_symop_operation_xyz
x,y,z
-x,-y,z
1/2+x,1/2-y,-z
1/2-x,1/2+y,-z
-x,-y,-z
x,y,-z
1/2-x,1/2+y,z
1/2+x,1/2-y,z
loop_
_atom_site_type_symbol
_atom_site_label
_atom_site_fract_x
_atom_site_fract_y
_atom_site_fract_z
Si Si1 0.951545 0.514444 0.681093
Si Si2 0.624466 0.606935 0.319236
Si Si3 0.326942 0.755213 0.329198
Si Si4 0.048079 0.033169 0.822872
Si Si5 0.197871 0.486996 0.318285
Si Si6 0.705816 0.467887 0.318124
Si Si7 0.623003 0.854952 0.318697
Si Si8 0.072826 0.247587 0.671299
O O1 0.951005 0.510904 0.500000
O O2 0.919548 0.419527 0.742872
O O3 0.935016 0.631894 0.738298
O O4 0.000000 0.500000 0.745871
O O5 0.623949 0.607032 0.500000
O O6 0.582727 0.540116 0.265634
O O7 0.669108 0.552027 0.258303
O O8 0.622462 0.731123 0.255679
O O9 0.308853 0.767193 0.500000
O O10 0.318450 0.871370 0.248338
O O11 0.302676 0.653419 0.250027
O O12 0.376712 0.722707 0.330642
O O13 0.050697 0.160367 0.780629
O O14 0.056641 0.016637 0.000000
O O15 0.000000 0.000000 0.773941
O O16 0.195567 0.487044 0.500000
O O17 0.246787 0.499952 0.258229
O O18 0.166332 0.583352 0.258394
O O19 0.703938 0.465082 0.500000
O O20 0.622779 0.854360 0.500000
O O21 0.053727 0.237261 0.500000
#
# Coordination Sequence:
#
# PCOD8224671 Si02
#       8
#     8   8   8   8   8   8   8   8
#     4   9  17  28  45  75 108 137 170 211 262 311
#     4  10  20  34  53  79 107 134 174 218 255 305
#     4   9  15  26  43  67 102 138 172 209 253 302
#     4  11  25  41  55  74 103 137 173 213 263 318
#     4   9  16  25  40  68 110 147 166 201 264 311
#     4   9  17  26  41  70 105 140 175 209 251 306
#     4   9  17  28  43  72 111 142 168 207 259 311
#     4  10  18  33  57  79 104 136 174 219 257 300
#
# _framework density 19.293028
#
# number of rings (size 3 to 8) (size 9 to 14) (size 15 to 20)
#    0.000    2.500    2.500    0.375    3.500    1.000 
#    0.000    0.000    0.000    1.125    0.000    3.500 
#    0.000    0.000    0.000    0.000    0.000    0.000 
#
# Total GULP energy -793284.312601 kJ/mol
# GULP energy per Si atom -12395.067384 kJ/mol
# Density = 1.924912 g / cm^3
# Si number density = 19.293028 Si / 1000 Ang^3
#
#
#
# Elastic Constant Matrix: (Units=GPa)
#
#
# Indices 1 2 3 4 5 6 
#
# 1 132.8980 56.9905 12.4781 0.0000 0.0000 0.0000
# 2 56.9905 148.2599 10.3133 0.0000 0.0000 0.0000
# 3 12.4781 10.3133 7.0121 0.0000 0.0000 0.0000
# 4 0.0000 0.0000 0.0000 3.3641 0.0000 0.0000
# 5 0.0000 0.0000 0.0000 0.0000 6.3348 0.0000
# 6 0.0000 0.0000 0.0000 0.0000 0.0000 37.1564
#
#
#
# Elastic Compliance Matrix: (Units=1/GPa)
#
#
# Indices 1 2 3 4 5 6 
#
# 1 0.010053 -0.002918 -0.013596 0.000000 0.000000 0.000000
# 2 -0.002918 0.008361 -0.007104 0.000000 0.000000 0.000000
# 3 -0.013596 -0.007104 0.177253 0.000000 0.000000 0.000000
# 4 0.000000 0.000000 0.000000 0.297257 0.000000 0.000000
# 5 0.000000 0.000000 0.000000 0.000000 0.157857 0.000000
# 6 0.000000 0.000000 0.000000 0.000000 0.000000 0.026913
#
#
# Mechanical properties :
#
#
# Convention : Reuss Voigt Hill
#
# Bulk Modulus (GPa) = 6.73722 49.74822 28.24272
# Shear Modulus (GPa) = 6.45655 23.26360 14.86007
#
# Velocity S-wave (km/s) = 1.83135 3.47624 2.77831
# Velocity P-wave (km/s) = 2.82337 6.47718 4.99626
#
# Compressibility (1/GPa) = 0.14842926
#
# Stress axis : x y z
#
# Youngs Moduli (GPa) = 99.47610 119.60449 5.64166
#
# Poissons Ratio (x) = 0.34905 0.07671
# Poissons Ratio (y) = 0.29031 0.04008
# Poissons Ratio (z) = 1.35252 0.84964
#
# Static dielectric constant tensor:
#      x y z
#    x 3.668970 0.000000 0.000000 
#    y 0.000000 3.863810 0.000000 
#    z 0.000000 0.000000 2.760630 
# 
# 
# High freq. dielectric constant tensor:
#      x y z
#    x 1.760890 0.000000 0.000000 
#    y 0.000000 1.772470 0.000000 
#    z 0.000000 0.000000 1.664950 
# 
# From -- ./inp_files/10815.got.cif
#   From: 2010.03.12/outbox.cif.g09.slc.cpg/sg55_6_cif.got.tgz:10815.got - 2010.04.16 15:19:21.
