data_PCOD8224417
_publ_section_title
;
Structure prediction by ZEFSAII (Michael W. Deem and Ramdas Pophale) SiO2 
 PCOD8224417
Probable space group: P B A M
;
_chemical_formula_sum "Si O2"
_cell_formula_units_Z 64
_cell_length_a 5.128969
_cell_length_b 29.789916
_cell_length_c 21.214324
_cell_angle_alpha 90.000000
_cell_angle_beta 90.000000
_cell_angle_gamma 90.000000
_cell_volume 3241.369567
_symmetry_space_group_name_H-M "P B A M"
_symmetry_group_IT_number 55
_symmetry_cell_setting 'orthorhombic'
loop_
_space_group_symop_operation_xyz
x,y,z
-x,-y,z
1/2+x,1/2-y,-z
1/2-x,1/2+y,-z
-x,-y,-z
x,y,-z
1/2-x,1/2+y,z
1/2+x,1/2-y,z
loop_
_atom_site_type_symbol
_atom_site_label
_atom_site_fract_x
_atom_site_fract_y
_atom_site_fract_z
Si Si1 0.533150 0.606872 0.431204
Si Si2 0.003344 0.946302 0.070669
Si Si3 0.520713 0.359264 0.702395
Si Si4 0.519850 0.086238 0.726685
Si Si5 0.503279 0.947850 0.862630
Si Si6 0.489929 0.720167 0.796092
Si Si7 0.534359 0.949429 0.404103
Si Si8 0.421351 0.279092 0.931826
O O1 0.502894 0.630724 0.500000
O O2 0.509165 0.643373 0.374339
O O3 0.315588 0.568374 0.424965
O O4 0.813455 0.583097 0.431277
O O5 0.239878 0.925753 0.111108
O O6 0.742409 0.925424 0.100145
O O7 0.033030 0.928826 0.000000
O O8 0.000000 0.000000 0.073802
O O9 0.814866 0.373213 0.719240
O O10 0.463184 0.312558 0.736926
O O11 0.314234 0.395565 0.727604
O O12 0.460954 0.059280 0.789309
O O13 0.482272 0.050255 0.671496
O O14 0.500000 0.000000 0.878362
O O15 0.199764 0.739959 0.790942
O O16 0.525627 0.694830 0.865020
O O17 0.500000 0.000000 0.429387
O O18 0.623495 0.237574 0.930577
O O19 0.462861 0.305146 0.000000
#
# Coordination Sequence:
#
# PCOD8224417 Si02
#       8
#     8   8   8   8   8   8   8   8
#     4  10  21  35  52  74 103 143 177 205 255 309
#     4   9  17  28  43  65  90 120 167 222 262 289
#     4  10  21  36  53  74 104 134 164 206 252 308
#     4  10  20  34  50  72 101 135 166 200 259 312
#     4  10  18  29  48  69  91 125 169 212 249 295
#     4  10  19  33  56  81 101 127 165 207 248 294
#     4  10  20  33  51  76 105 134 173 222 256 292
#     4   8  14  25  44  72 100 122 148 186 233 287
#
# _framework density 19.744738000000002
#
# number of rings (size 3 to 8) (size 9 to 14) (size 15 to 20)
#    0.000    2.375    0.000    3.000    0.000    3.000 
#    0.000    3.750    0.000    5.250    0.000    0.000 
#    0.000    0.000    0.000    0.000    0.000    0.000 
#
# Total GULP energy -793040.866122 kJ/mol
# GULP energy per Si atom -12391.263533 kJ/mol
# Density = 1.969980 g / cm^3
# Si number density = 19.744738 Si / 1000 Ang^3
#
#
#
# Elastic Constant Matrix: (Units=GPa)
#
#
# Indices 1 2 3 4 5 6 
#
# 1 97.8976 4.1396 32.4585 0.0000 0.0000 0.0000
# 2 4.1396 27.2241 27.9588 0.0000 0.0000 0.0000
# 3 32.4585 27.9588 176.1073 0.0000 0.0000 0.0000
# 4 0.0000 0.0000 0.0000 -204.8593 0.0000 0.0000
# 5 0.0000 0.0000 0.0000 0.0000 -32.5485 0.0000
# 6 0.0000 0.0000 0.0000 0.0000 0.0000 11.7457
#
#
#
# Elastic Compliance Matrix: (Units=1/GPa)
#
#
# Indices 1 2 3 4 5 6 
#
# 1 0.010885 0.000484 -0.002083 0.000000 0.000000 0.000000
# 2 0.000484 0.043909 -0.007060 0.000000 0.000000 0.000000
# 3 -0.002083 -0.007060 0.007183 0.000000 0.000000 0.000000
# 4 0.000000 0.000000 0.000000 -0.004881 0.000000 0.000000
# 5 0.000000 0.000000 0.000000 0.000000 -0.030723 0.000000
# 6 0.000000 0.000000 0.000000 0.000000 0.000000 0.085137
#
#
# Mechanical properties :
#
#
# Convention : Reuss Voigt Hill
#
# Bulk Modulus (GPa) = 22.39188 47.81586 35.10387
# Shear Modulus (GPa) = 34.79117 -29.35426 2.71845
#
# Velocity S-wave (km/s) = 4.20223 -3.85994 1.17464
# Velocity P-wave (km/s) = 5.90849 2.09858 4.43364
#
# Compressibility (1/GPa) = 0.04465905
#
# Stress axis : x y z
#
# Youngs Moduli (GPa) = 91.87012 22.77422 139.21418
#
# Poissons Ratio (x) = -0.01103 0.28999
# Poissons Ratio (y) = -0.04448 0.98289
# Poissons Ratio (z) = 0.19137 0.16079
#
# Static dielectric constant tensor:
#      x y z
#    x 3.911930 0.000000 0.000000 
#    y 0.000000 2.825110 0.000000 
#    z 0.000000 0.000000 4.103890 
# 
# 
# High freq. dielectric constant tensor:
#      x y z
#    x 1.797040 0.000000 0.000000 
#    y 0.000000 1.687700 0.000000 
#    z 0.000000 0.000000 1.792950 
# 
# From -- ./inp_files/20550.got.cif
#   From: 2010.03.12/outbox.cif.g09.slc.cpg/sg55_11_cif.got.tgz:20550.got - 2010.04.16 15:19:21.
