data_PCOD8224038
_publ_section_title
;
Structure prediction by ZEFSAII (Michael W. Deem and Ramdas Pophale) SiO2 
 PCOD8224038
Probable space group: P C C A
;
_chemical_formula_sum "Si O2"
_cell_formula_units_Z 40
_cell_length_a 13.569763
_cell_length_b 9.725928
_cell_length_c 13.708235
_cell_angle_alpha 90.000000
_cell_angle_beta 90.000000
_cell_angle_gamma 90.000000
_cell_volume 1809.192813
_symmetry_space_group_name_H-M "P C C A"
_symmetry_group_IT_number 54
_symmetry_cell_setting 'orthorhombic'
loop_
_space_group_symop_operation_xyz
x,y,z
1/2-x,-y,z
1/2+x,-y,1/2-z
-x,y,1/2-z
-x,-y,-z
1/2+x,y,-z
1/2-x,y,1/2+z
x,-y,1/2+z
loop_
_atom_site_type_symbol
_atom_site_label
_atom_site_fract_x
_atom_site_fract_y
_atom_site_fract_z
Si Si1 0.610655 0.824144 0.276204
Si Si2 0.750000 0.500000 0.891883
Si Si3 0.909585 0.405976 0.531457
Si Si4 0.750000 0.000000 0.139438
Si Si5 0.609676 0.499254 0.238584
Si Si6 0.412190 0.108592 0.504705
O O1 0.500000 0.871896 0.250000
O O2 0.619139 0.660327 0.263257
O O3 0.630501 0.874891 0.386217
O O4 0.690835 0.892445 0.205802
O O5 0.822274 0.416437 0.816636
O O6 0.681170 0.401385 0.955441
O O7 0.858711 0.461903 0.629515
O O8 0.955174 0.253895 0.533980
O O9 0.000000 0.500000 0.500000
O O10 0.675218 0.077168 0.069026
O O11 0.500000 0.443540 0.250000
O O12 0.500000 0.000000 0.500000
#
# Coordination Sequence:
#
# PCOD8224038 Si02
#       6
#     8   4   8   4   8   8
#     4  11  23  50  72 100 151 194 235 311 367 425
#     4  12  24  42  74 106 142 186 232 312 366 426
#     4  12  26  47  75 110 144 192 241 306 367 434
#     4  12  28  44  76 106 142 196 250 292 370 450
#     4  11  24  46  72 104 146 188 238 301 371 432
#     4  12  27  50  75 106 150 198 243 303 365 441
#
# _framework density 22.109306
#
# number of rings (size 3 to 8) (size 9 to 14) (size 15 to 20)
#    0.000    0.400    6.000    2.400    5.600    0.000 
#    7.200    0.000    0.000    0.000    0.000    0.000 
#    0.000    0.000    0.000    0.000    0.000    0.000 
#
# Total GULP energy -495743.189890 kJ/mol
# GULP energy per Si atom -12393.579747 kJ/mol
# Density = 2.205898 g / cm^3
# Si number density = 22.109306 Si / 1000 Ang^3
#
#
#
# Elastic Constant Matrix: (Units=GPa)
#
#
# Indices 1 2 3 4 5 6 
#
# 1 159.9688 57.1466 70.8716 0.0000 0.0000 0.0000
# 2 57.1466 125.5734 59.4295 0.0000 0.0000 0.0000
# 3 70.8716 59.4295 205.0311 0.0000 0.0000 0.0000
# 4 0.0000 0.0000 0.0000 28.6226 0.0000 0.0000
# 5 0.0000 0.0000 0.0000 0.0000 56.7625 0.0000
# 6 0.0000 0.0000 0.0000 0.0000 0.0000 21.0374
#
#
#
# Elastic Compliance Matrix: (Units=1/GPa)
#
#
# Indices 1 2 3 4 5 6 
#
# 1 0.008123 -0.002744 -0.002012 0.000000 0.000000 0.000000
# 2 -0.002744 0.010157 -0.001995 0.000000 0.000000 0.000000
# 3 -0.002012 -0.001995 0.006151 0.000000 0.000000 0.000000
# 4 0.000000 0.000000 0.000000 0.034937 0.000000 0.000000
# 5 0.000000 0.000000 0.000000 0.000000 0.017617 0.000000
# 6 0.000000 0.000000 0.000000 0.000000 0.000000 0.047534
#
#
# Mechanical properties :
#
#
# Convention : Reuss Voigt Hill
#
# Bulk Modulus (GPa) = 91.51689 96.16317 93.84003
# Shear Modulus (GPa) = 35.29408 41.49287 38.39347
#
# Velocity S-wave (km/s) = 3.99976 4.33681 4.17169
# Velocity P-wave (km/s) = 7.92550 8.28650 8.10801
#
# Compressibility (1/GPa) = 0.01092695
#
# Stress axis : x y z
#
# Youngs Moduli (GPa) = 123.10487 98.45711 162.56738
#
# Poissons Ratio (x) = 0.27020 0.32715
# Poissons Ratio (y) = 0.33784 0.32438
# Poissons Ratio (z) = 0.24774 0.19646
#
# Static dielectric constant tensor:
#      x y z
#    x 4.330780 0.000000 0.000000 
#    y 0.000000 3.754860 0.000000 
#    z 0.000000 0.000000 4.790370 
# 
# 
# High freq. dielectric constant tensor:
#      x y z
#    x 1.885180 0.000000 0.000000 
#    y 0.000000 1.845750 0.000000 
#    z 0.000000 0.000000 1.901820 
# 
# From -- ./inp_files/13256.got.cif
#   From: 2010.03.12/outbox.cif.g09.slc.cpg/sg54_7_cif.got.tgz:13256.got - 2010.04.16 15:00:50.
