data_PCOD8224356
_publ_section_title
;
Structure prediction by ZEFSAII (Michael W. Deem and Ramdas Pophale) SiO2 
 PCOD8224356
Probable space group: P B A M
;
_chemical_formula_sum "Si O2"
_cell_formula_units_Z 64
_cell_length_a 26.591522
_cell_length_b 18.294487
_cell_length_c 9.029175
_cell_angle_alpha 90.000000
_cell_angle_beta 90.000000
_cell_angle_gamma 90.000000
_cell_volume 4392.497285
_symmetry_space_group_name_H-M "P B A M"
_symmetry_group_IT_number 55
_symmetry_cell_setting 'orthorhombic'
loop_
_space_group_symop_operation_xyz
x,y,z
-x,-y,z
1/2+x,1/2-y,-z
1/2-x,1/2+y,-z
-x,-y,-z
x,y,-z
1/2-x,1/2+y,z
1/2+x,1/2-y,z
loop_
_atom_site_type_symbol
_atom_site_label
_atom_site_fract_x
_atom_site_fract_y
_atom_site_fract_z
Si Si1 0.441739 0.416131 0.824311
Si Si2 0.298686 0.804967 0.836288
Si Si3 0.352737 0.334040 0.324215
Si Si4 0.349365 0.664142 0.824313
Si Si5 0.755612 0.077361 0.326454
Si Si6 0.946036 0.919725 0.174448
Si Si7 0.698883 0.791008 0.167244
Si Si8 0.256297 0.588948 0.323767
O O1 0.405332 0.362756 0.736256
O O2 0.431660 0.499120 0.769294
O O3 0.498507 0.394881 0.774217
O O4 0.433262 0.406880 0.000000
O O5 0.343663 0.750545 0.784217
O O6 0.291560 0.875222 0.732744
O O7 0.249589 0.755025 0.834114
O O8 0.309515 0.835219 0.000000
O O9 0.354525 0.326893 0.500000
O O10 0.308595 0.389204 0.270874
O O11 0.343740 0.253931 0.254713
O O12 0.404690 0.638829 0.772112
O O13 0.309809 0.615742 0.735158
O O14 0.340344 0.652280 0.000000
O O15 0.752918 0.082172 0.500000
O O16 0.750193 0.994679 0.271458
O O17 0.947452 0.925511 0.000000
O O18 0.709902 0.866711 0.252482
O O19 0.680566 0.807371 0.000000
O O20 0.254849 0.597776 0.500000
#
# Coordination Sequence:
#
# PCOD8224356 Si02
#       8
#     8   8   8   8   8   8   8   8
#     4   9  16  27  42  59  78 106 140 172 203 236
#     4   8  15  25  38  55  74  97 129 163 193 224
#     4  10  18  28  41  58  81 109 136 166 201 236
#     4   9  16  27  41  57  77 105 137 167 197 232
#     4   9  18  28  38  54  79 107 132 157 193 236
#     4   8  15  27  42  58  79 106 139 174 204 232
#     4   9  17  29  42  57  76 102 134 165 195 233
#     4  10  18  27  39  58  81 104 130 162 197 235
#
# _framework density 14.570299
#
# number of rings (size 3 to 8) (size 9 to 14) (size 15 to 20)
#    0.000    3.000    0.000    3.375    0.000    4.500 
#    0.000    1.875    0.000    0.000    0.000    0.000 
#    0.000    1.000    0.000   11.500    0.000    2.875 
#
# Total GULP energy -793244.794225 kJ/mol
# GULP energy per Si atom -12394.449910 kJ/mol
# Density = 1.453714 g / cm^3
# Si number density = 14.570299 Si / 1000 Ang^3
#
#
#
# Elastic Constant Matrix: (Units=GPa)
#
#
# Indices 1 2 3 4 5 6 
#
# 1 83.3550 55.1333 25.7927 0.0000 0.0000 0.0000
# 2 55.1333 105.0134 37.6547 0.0000 0.0000 0.0000
# 3 25.7927 37.6547 47.8670 0.0000 0.0000 0.0000
# 4 0.0000 0.0000 0.0000 23.0140 0.0000 0.0000
# 5 0.0000 0.0000 0.0000 0.0000 15.5911 0.0000
# 6 0.0000 0.0000 0.0000 0.0000 0.0000 28.0158
#
#
#
# Elastic Compliance Matrix: (Units=1/GPa)
#
#
# Indices 1 2 3 4 5 6 
#
# 1 0.018743 -0.008662 -0.003285 0.000000 0.000000 0.000000
# 2 -0.008662 0.017267 -0.008916 0.000000 0.000000 0.000000
# 3 -0.003285 -0.008916 0.029675 0.000000 0.000000 0.000000
# 4 0.000000 0.000000 0.000000 0.043452 0.000000 0.000000
# 5 0.000000 0.000000 0.000000 0.000000 0.064139 0.000000
# 6 0.000000 0.000000 0.000000 0.000000 0.000000 0.035694
#
#
# Mechanical properties :
#
#
# Convention : Reuss Voigt Hill
#
# Bulk Modulus (GPa) = 41.73856 52.59964 47.16910
# Shear Modulus (GPa) = 19.32866 21.16782 20.24824
#
# Velocity S-wave (km/s) = 3.64618 3.81570 3.73190
# Velocity P-wave (km/s) = 6.81430 7.45599 7.14235
#
# Compressibility (1/GPa) = 0.02395866
#
# Stress axis : x y z
#
# Youngs Moduli (GPa) = 53.35348 57.91285 33.69835
#
# Poissons Ratio (x) = 0.50166 0.11071
# Poissons Ratio (y) = 0.46216 0.30045
# Poissons Ratio (z) = 0.17528 0.51634
#
# Static dielectric constant tensor:
#      x y z
#    x 2.848230 0.000000 0.000000 
#    y 0.000000 2.974720 0.000000 
#    z 0.000000 0.000000 2.781840 
# 
# 
# High freq. dielectric constant tensor:
#      x y z
#    x 1.525740 0.000000 0.000000 
#    y 0.000000 1.546690 0.000000 
#    z 0.000000 0.000000 1.554580 
# 
# From -- ./inp_files/8230.got.cif
#   From: 2010.03.12/outbox.cif.g09.slc.cpg/sg55_5_cif.got.tgz:8230.got - 2010.04.16 15:19:21.
