data_PCOD8224913
_publ_section_title
;
Structure prediction by ZEFSAII (Michael W. Deem and Ramdas Pophale) SiO2 
 PCOD8224913
Probable space group: P B A M
;
_chemical_formula_sum "Si O2"
_cell_formula_units_Z 56
_cell_length_a 14.418408
_cell_length_b 21.081113
_cell_length_c 9.541746
_cell_angle_alpha 90.000000
_cell_angle_beta 90.000000
_cell_angle_gamma 90.000000
_cell_volume 2900.271790
_symmetry_space_group_name_H-M "P B A M"
_symmetry_group_IT_number 55
_symmetry_cell_setting 'orthorhombic'
loop_
_space_group_symop_operation_xyz
x,y,z
-x,-y,z
1/2+x,1/2-y,-z
1/2-x,1/2+y,-z
-x,-y,-z
x,y,-z
1/2-x,1/2+y,z
1/2+x,1/2-y,z
loop_
_atom_site_type_symbol
_atom_site_label
_atom_site_fract_x
_atom_site_fract_y
_atom_site_fract_z
Si Si1 0.255894 0.104119 0.661220
Si Si2 0.826358 0.762085 0.664968
Si Si3 0.158458 0.834801 0.335304
Si Si4 0.922206 0.364177 0.155627
Si Si5 0.744431 0.534758 0.661577
Si Si6 0.080228 0.448872 0.154710
Si Si7 0.990608 0.230950 0.162028
O O1 0.281787 0.111664 0.500000
O O2 0.198326 0.165446 0.708991
O O3 0.353178 0.101108 0.740141
O O4 0.202577 0.036534 0.689274
O O5 0.850824 0.757236 0.500000
O O6 0.743865 0.712598 0.702472
O O7 0.915496 0.747897 0.759720
O O8 0.135357 0.828759 0.500000
O O9 0.179858 0.907370 0.288783
O O10 0.064651 0.822636 0.247792
O O11 0.917724 0.288691 0.166890
O O12 0.029205 0.382331 0.186710
O O13 0.894187 0.387530 0.000000
O O14 0.765039 0.545023 0.500000
O O15 0.843115 0.539250 0.732078
O O16 0.000000 0.500000 0.166268
O O17 0.125914 0.448691 0.000000
O O18 0.010982 0.211013 0.000000
#
# Coordination Sequence:
#
# PCOD8224913 Si02
#       7
#     8   8   8   8   8   8   8
#     4  10  20  35  56  82 110 143 185 228 274 328
#     4  10  21  38  60  83 111 150 191 231 281 337
#     4  10  21  39  60  84 115 150 188 233 285 337
#     4  10  20  34  52  78 111 145 180 224 277 332
#     4  10  21  35  54  82 113 145 185 234 281 327
#     4  10  19  31  49  76 112 149 180 214 272 342
#     4  11  23  37  58  86 113 145 190 240 285 331
#
# _framework density 19.308534000000002
#
# number of rings (size 3 to 8) (size 9 to 14) (size 15 to 20)
#    0.000    1.857    2.857    1.286    0.000    3.143 
#    0.000    0.714    0.000    4.286    0.000    0.000 
#    0.000    0.000    0.000    0.000    0.000    0.000 
#
# Total GULP energy -693967.759194 kJ/mol
# GULP energy per Si atom -12392.281414 kJ/mol
# Density = 1.926459 g / cm^3
# Si number density = 19.308534 Si / 1000 Ang^3
#
#
#
# Elastic Constant Matrix: (Units=GPa)
#
#
# Indices 1 2 3 4 5 6 
#
# 1 45.5872 7.2815 28.5589 0.0000 0.0000 0.0000
# 2 7.2815 106.1120 22.2248 0.0000 0.0000 0.0000
# 3 28.5589 22.2248 53.0599 0.0000 0.0000 0.0000
# 4 0.0000 0.0000 0.0000 15.4673 0.0000 0.0000
# 5 0.0000 0.0000 0.0000 0.0000 57.1033 0.0000
# 6 0.0000 0.0000 0.0000 0.0000 0.0000 18.2291
#
#
#
# Elastic Compliance Matrix: (Units=1/GPa)
#
#
# Indices 1 2 3 4 5 6 
#
# 1 0.033345 0.001612 -0.018623 0.000000 0.000000 0.000000
# 2 0.001612 0.010408 -0.005227 0.000000 0.000000 0.000000
# 3 -0.018623 -0.005227 0.031060 0.000000 0.000000 0.000000
# 4 0.000000 0.000000 0.000000 0.064653 0.000000 0.000000
# 5 0.000000 0.000000 0.000000 0.000000 0.017512 0.000000
# 6 0.000000 0.000000 0.000000 0.000000 0.000000 0.054857
#
#
# Mechanical properties :
#
#
# Convention : Reuss Voigt Hill
#
# Bulk Modulus (GPa) = 32.96302 35.65437 34.30869
# Shear Modulus (GPa) = 18.76708 27.93954 23.35331
#
# Velocity S-wave (km/s) = 3.12101 3.80808 3.48153
# Velocity P-wave (km/s) = 5.48602 6.15150 5.82826
#
# Compressibility (1/GPa) = 0.03033703
#
# Stress axis : x y z
#
# Youngs Moduli (GPa) = 29.98932 96.07779 32.19590
#
# Poissons Ratio (x) = -0.15491 0.59959
# Poissons Ratio (y) = -0.04835 0.16830
# Poissons Ratio (z) = 0.55849 0.50224
#
# Static dielectric constant tensor:
#      x y z
#    x 3.257930 0.000000 0.000000 
#    y 0.000000 4.220500 0.000000 
#    z 0.000000 0.000000 3.504950 
# 
# 
# High freq. dielectric constant tensor:
#      x y z
#    x 1.718130 0.000000 0.000000 
#    y 0.000000 1.769690 0.000000 
#    z 0.000000 0.000000 1.750300 
# 
# From -- ./inp_files/6083.got.cif
#   From: 2010.03.12/outbox.cif.g09.slc.cpg/sg55_4_cif.got.tgz:6083.got - 2010.04.16 15:19:21.
