data_PCOD8224140
_publ_section_title
;
Structure prediction by ZEFSAII (Michael W. Deem and Ramdas Pophale) SiO2 
 PCOD8224140
Probable space group: P C C A
;
_chemical_formula_sum "Si O2"
_cell_formula_units_Z 48
_cell_length_a 8.640199
_cell_length_b 13.949003
_cell_length_c 18.740851
_cell_angle_alpha 90.000000
_cell_angle_beta 90.000000
_cell_angle_gamma 90.000000
_cell_volume 2258.687876
_symmetry_space_group_name_H-M "P C C A"
_symmetry_group_IT_number 54
_symmetry_cell_setting 'orthorhombic'
loop_
_space_group_symop_operation_xyz
x,y,z
1/2-x,-y,z
1/2+x,-y,1/2-z
-x,y,1/2-z
-x,-y,-z
1/2+x,y,-z
1/2-x,y,1/2+z
x,-y,1/2+z
loop_
_atom_site_type_symbol
_atom_site_label
_atom_site_fract_x
_atom_site_fract_y
_atom_site_fract_z
Si Si1 0.867072 0.282067 0.919767
Si Si2 0.836596 0.599193 0.287592
Si Si3 0.920719 0.968172 0.570993
Si Si4 0.438594 0.132861 0.328580
Si Si5 0.358228 0.243754 0.796700
Si Si6 0.510040 0.250009 0.933278
O O1 0.861582 0.377681 0.871567
O O2 0.694452 0.245379 0.934193
O O3 0.969217 0.203823 0.879918
O O4 0.947858 0.302444 0.995828
O O5 0.750000 0.500000 0.279920
O O6 0.738439 0.682873 0.251015
O O7 0.000000 0.590862 0.250000
O O8 0.947014 0.856420 0.579551
O O9 0.750000 0.000000 0.555162
O O10 0.972778 0.026359 0.641983
O O11 0.000000 0.000000 0.500000
O O12 0.500000 0.143035 0.250000
O O13 0.255534 0.159226 0.325631
O O14 0.500000 0.199568 0.750000
O O15 0.436276 0.302108 0.863513
#
# Coordination Sequence:
#
# PCOD8224140 Si02
#       6
#     8   8   8   8   8   8
#     4  12  24  46  72 101 142 187 234 287 366 421
#     4  12  26  47  77 106 134 177 231 295 358 433
#     4  12  25  41  61  95 138 184 239 281 337 401
#     4  12  23  44  66  98 139 188 238 296 342 409
#     4  12  22  45  73 102 140 185 237 287 363 420
#     4  12  25  41  70 101 141 192 233 287 350 422
#
# _framework density 21.251275
#
# number of rings (size 3 to 8) (size 9 to 14) (size 15 to 20)
#    0.000    0.000    8.333    2.500    0.000    0.667 
#    3.000    1.667    0.000    0.000    0.000    0.000 
#    0.000    0.000    0.000    0.000    0.000    0.000 
#
# Total GULP energy -595025.638309 kJ/mol
# GULP energy per Si atom -12396.367465 kJ/mol
# Density = 2.120291 g / cm^3
# Si number density = 21.251275 Si / 1000 Ang^3
#
#
#
# Elastic Constant Matrix: (Units=GPa)
#
#
# Indices 1 2 3 4 5 6 
#
# 1 158.4091 21.7121 52.6667 0.0000 0.0000 0.0000
# 2 21.7121 64.7753 6.8734 0.0000 0.0000 0.0000
# 3 52.6667 6.8734 153.4552 0.0000 0.0000 0.0000
# 4 0.0000 0.0000 0.0000 25.9635 0.0000 0.0000
# 5 0.0000 0.0000 0.0000 0.0000 40.0860 0.0000
# 6 0.0000 0.0000 0.0000 0.0000 0.0000 20.0327
#
#
#
# Elastic Compliance Matrix: (Units=1/GPa)
#
#
# Indices 1 2 3 4 5 6 
#
# 1 0.007434 -0.002232 -0.002451 0.000000 0.000000 0.000000
# 2 -0.002232 0.016182 0.000041 0.000000 0.000000 0.000000
# 3 -0.002451 0.000041 0.007356 0.000000 0.000000 0.000000
# 4 0.000000 0.000000 0.000000 0.038516 0.000000 0.000000
# 5 0.000000 0.000000 0.000000 0.000000 0.024946 0.000000
# 6 0.000000 0.000000 0.000000 0.000000 0.000000 0.049918
#
#
# Mechanical properties :
#
#
# Convention : Reuss Voigt Hill
#
# Bulk Modulus (GPa) = 46.10906 59.90488 53.00697
# Shear Modulus (GPa) = 31.08208 36.90894 33.99551
#
# Velocity S-wave (km/s) = 3.82854 4.17200 4.00395
# Velocity P-wave (km/s) = 6.42556 7.17339 6.80975
#
# Compressibility (1/GPa) = 0.02168771
#
# Stress axis : x y z
#
# Youngs Moduli (GPa) = 134.52388 61.79848 135.94305
#
# Poissons Ratio (x) = 0.13791 0.33324
# Poissons Ratio (y) = 0.30020 -0.00559
# Poissons Ratio (z) = 0.32976 -0.00254
#
# Static dielectric constant tensor:
#      x y z
#    x 4.300280 0.000000 0.000000 
#    y 0.000000 5.934720 0.000000 
#    z 0.000000 0.000000 4.143940 
# 
# 
# High freq. dielectric constant tensor:
#      x y z
#    x 1.862510 0.000000 0.000000 
#    y 0.000000 1.795370 0.000000 
#    z 0.000000 0.000000 1.862050 
# 
# From -- ./inp_files/16596.got.cif
#   From: 2010.03.12/outbox.cif.g09.slc.cpg/sg54_9_cif.got.tgz:16596.got - 2010.04.16 15:00:50.
