data_PCOD8224656
_publ_section_title
;
Structure prediction by ZEFSAII (Michael W. Deem and Ramdas Pophale) SiO2 
 PCOD8224656
Probable space group: P B A M
;
_chemical_formula_sum "Si O2"
_cell_formula_units_Z 56
_cell_length_a 21.166962
_cell_length_b 9.443233
_cell_length_c 15.387736
_cell_angle_alpha 90.000000
_cell_angle_beta 90.000000
_cell_angle_gamma 90.000000
_cell_volume 3075.770748
_symmetry_space_group_name_H-M "P B A M"
_symmetry_group_IT_number 55
_symmetry_cell_setting 'orthorhombic'
loop_
_space_group_symop_operation_xyz
x,y,z
-x,-y,z
1/2+x,1/2-y,-z
1/2-x,1/2+y,-z
-x,-y,-z
x,y,-z
1/2-x,1/2+y,z
1/2+x,1/2-y,z
loop_
_atom_site_type_symbol
_atom_site_label
_atom_site_fract_x
_atom_site_fract_y
_atom_site_fract_z
Si Si1 0.840854 0.072351 0.806603
Si Si2 0.109921 0.662734 0.900638
Si Si3 0.429541 0.993490 0.262898
Si Si4 0.851672 0.762851 0.784368
Si Si5 0.260113 0.310354 0.337437
Si Si6 0.826981 0.444384 0.404056
Si Si7 0.714071 0.059301 0.095100
O O1 0.882303 0.176405 0.866699
O O2 0.823188 0.138305 0.713722
O O3 0.773634 0.032728 0.846256
O O4 0.877700 0.922234 0.798857
O O5 0.068557 0.575286 0.830375
O O6 0.178542 0.591095 0.903173
O O7 0.081125 0.661893 0.000000
O O8 0.409003 0.829278 0.255162
O O9 0.381329 0.065293 0.330853
O O10 0.500000 0.000000 0.301575
O O11 0.789787 0.770136 0.724071
O O12 0.831587 0.685199 0.873351
O O13 0.223968 0.434503 0.385896
O O14 0.287346 0.200274 0.406641
O O15 0.856785 0.468096 0.500000
O O16 0.736913 0.102108 0.000000
#
# Coordination Sequence:
#
# PCOD8224656 Si02
#       7
#     8   8   8   8   8   8   8
#     4  11  17  28  49  76 111 142 171 218 272 329
#     4  10  20  33  52  78 106 146 191 229 272 322
#     4  10  22  41  58  75 104 149 195 233 272 321
#     4   9  19  31  52  75 106 146 178 219 272 324
#     4  10  18  33  52  83 116 143 166 216 274 334
#     4  11  21  35  59  88 114 143 178 222 278 335
#     4   9  17  27  43  74 111 143 173 210 267 332
#
# _framework density 18.206817000000001
#
# number of rings (size 3 to 8) (size 9 to 14) (size 15 to 20)
#    0.000    2.000    2.857    3.429    0.000    2.857 
#    0.000    0.714    0.000    0.857    0.000    1.000 
#    0.000    0.000    0.000    0.000    0.000    0.000 
#
# Total GULP energy -694075.526281 kJ/mol
# GULP energy per Si atom -12394.205826 kJ/mol
# Density = 1.816538 g / cm^3
# Si number density = 18.206817 Si / 1000 Ang^3
#
#
#
# Elastic Constant Matrix: (Units=GPa)
#
#
# Indices 1 2 3 4 5 6 
#
# 1 64.0611 28.5205 19.0057 0.0000 0.0000 0.0000
# 2 28.5205 120.9543 35.1379 0.0000 0.0000 0.0000
# 3 19.0057 35.1379 103.0591 0.0000 0.0000 0.0000
# 4 0.0000 0.0000 0.0000 17.2800 0.0000 0.0000
# 5 0.0000 0.0000 0.0000 0.0000 8.5754 0.0000
# 6 0.0000 0.0000 0.0000 0.0000 0.0000 8.9280
#
#
#
# Elastic Compliance Matrix: (Units=1/GPa)
#
#
# Indices 1 2 3 4 5 6 
#
# 1 0.017826 -0.003605 -0.002058 0.000000 0.000000 0.000000
# 2 -0.003605 0.009906 -0.002712 0.000000 0.000000 0.000000
# 3 -0.002058 -0.002712 0.011008 0.000000 0.000000 0.000000
# 4 0.000000 0.000000 0.000000 0.057870 0.000000 0.000000
# 5 0.000000 0.000000 0.000000 0.000000 0.116613 0.000000
# 6 0.000000 0.000000 0.000000 0.000000 0.000000 0.112007
#
#
# Mechanical properties :
#
#
# Convention : Reuss Voigt Hill
#
# Bulk Modulus (GPa) = 45.48100 50.37807 47.92953
# Shear Modulus (GPa) = 14.31391 20.65071 17.48231
#
# Velocity S-wave (km/s) = 2.80694 3.37149 3.10208
# Velocity P-wave (km/s) = 5.96151 6.54873 6.26201
#
# Compressibility (1/GPa) = 0.02198721
#
# Stress axis : x y z
#
# Youngs Moduli (GPa) = 56.09835 100.95199 90.84696
#
# Poissons Ratio (x) = 0.36397 0.18697
# Poissons Ratio (y) = 0.20226 0.24642
# Poissons Ratio (z) = 0.11546 0.27383
#
# Static dielectric constant tensor:
#      x y z
#    x 2.875920 0.000000 0.000000 
#    y 0.000000 3.401010 0.000000 
#    z 0.000000 0.000000 3.405920 
# 
# 
# High freq. dielectric constant tensor:
#      x y z
#    x 1.654480 0.000000 0.000000 
#    y 0.000000 1.714950 0.000000 
#    z 0.000000 0.000000 1.701040 
# 
# From -- ./inp_files/17618.got.cif
#   From: 2010.03.12/outbox.cif.g09.slc.cpg/sg55_9_cif.got.tgz:17618.got - 2010.04.16 15:19:21.
