data_PCOD8224294
_publ_section_title
;
Structure prediction by ZEFSAII (Michael W. Deem and Ramdas Pophale) SiO2 
 PCOD8224294
Probable space group: P B A M
;
_chemical_formula_sum "Si O2"
_cell_formula_units_Z 64
_cell_length_a 18.980709
_cell_length_b 23.413567
_cell_length_c 9.179198
_cell_angle_alpha 90.000000
_cell_angle_beta 90.000000
_cell_angle_gamma 90.000000
_cell_volume 4079.291602
_symmetry_space_group_name_H-M "P B A M"
_symmetry_group_IT_number 55
_symmetry_cell_setting 'orthorhombic'
loop_
_space_group_symop_operation_xyz
x,y,z
-x,-y,z
1/2+x,1/2-y,-z
1/2-x,1/2+y,-z
-x,-y,-z
x,y,-z
1/2-x,1/2+y,z
1/2+x,1/2-y,z
loop_
_atom_site_type_symbol
_atom_site_label
_atom_site_fract_x
_atom_site_fract_y
_atom_site_fract_z
Si Si1 0.716615 0.169763 0.831997
Si Si2 0.649124 0.933318 0.826684
Si Si3 0.863027 0.560693 0.171386
Si Si4 0.774989 0.338220 0.670151
Si Si5 0.994615 0.750444 0.169188
Si Si6 0.639554 0.268871 0.330333
Si Si7 0.502577 0.879853 0.827214
Si Si8 0.150656 0.761779 0.167199
O O1 0.700741 0.104120 0.789196
O O2 0.667002 0.210118 0.737807
O O3 0.798960 0.183625 0.803728
O O4 0.695928 0.180497 0.000000
O O5 0.711896 0.897922 0.751528
O O6 0.574575 0.908365 0.771734
O O7 0.654906 0.998147 0.766988
O O8 0.657695 0.929087 0.000000
O O9 0.936416 0.584731 0.237175
O O10 0.873000 0.554648 0.000000
O O11 0.789925 0.345103 0.500000
O O12 0.694412 0.319880 0.701078
O O13 0.827896 0.290548 0.731147
O O14 0.935362 0.784939 0.258544
O O15 0.998197 0.685326 0.226392
O O16 0.070340 0.780001 0.199895
O O17 0.974563 0.753213 0.000000
O O18 0.629140 0.258681 0.500000
O O19 0.501151 0.881263 0.000000
O O20 0.157186 0.740353 0.000000
#
# Coordination Sequence:
#
# PCOD8224294 Si02
#       8
#     8   8   8   8   8   8   8   8
#     4   9  16  29  47  67  90 117 149 186 223 263
#     4  10  18  29  46  65  88 120 158 187 212 256
#     4   9  16  26  44  67  89 119 153 184 217 254
#     4  10  20  32  44  62  90 119 149 186 227 262
#     4  10  17  28  46  67  89 118 149 180 222 268
#     4  10  20  31  44  64  89 118 149 184 225 267
#     4   9  15  25  41  65  92 117 149 182 208 247
#     4   9  17  29  47  68  90 115 148 186 224 267
#
# _framework density 15.688998
#
# number of rings (size 3 to 8) (size 9 to 14) (size 15 to 20)
#    0.000    2.500    2.500    1.125    0.000    3.500 
#    0.000    0.625    0.000    0.750    0.000    0.875 
#    0.000    7.000    0.000    0.000    0.000    0.000 
#
# Total GULP energy -793424.412830 kJ/mol
# GULP energy per Si atom -12397.256450 kJ/mol
# Density = 1.565329 g / cm^3
# Si number density = 15.688998 Si / 1000 Ang^3
#
#
#
# Elastic Constant Matrix: (Units=GPa)
#
#
# Indices 1 2 3 4 5 6 
#
# 1 123.4828 58.6800 43.5834 0.0000 0.0000 0.0000
# 2 58.6800 89.0006 28.6438 0.0000 0.0000 0.0000
# 3 43.5834 28.6438 47.2060 0.0000 0.0000 0.0000
# 4 0.0000 0.0000 0.0000 10.5070 0.0000 0.0000
# 5 0.0000 0.0000 0.0000 0.0000 17.9282 0.0000
# 6 0.0000 0.0000 0.0000 0.0000 0.0000 24.2414
#
#
#
# Elastic Compliance Matrix: (Units=1/GPa)
#
#
# Indices 1 2 3 4 5 6 
#
# 1 0.014548 -0.006548 -0.009459 0.000000 0.000000 0.000000
# 2 -0.006548 0.016910 -0.004215 0.000000 0.000000 0.000000
# 3 -0.009459 -0.004215 0.032474 0.000000 0.000000 0.000000
# 4 0.000000 0.000000 0.000000 0.095174 0.000000 0.000000
# 5 0.000000 0.000000 0.000000 0.000000 0.055778 0.000000
# 6 0.000000 0.000000 0.000000 0.000000 0.000000 0.041252
#
#
# Mechanical properties :
#
#
# Convention : Reuss Voigt Hill
#
# Bulk Modulus (GPa) = 42.57344 57.94487 50.25916
# Shear Modulus (GPa) = 16.42525 19.12083 17.77304
#
# Velocity S-wave (km/s) = 3.23914 3.49483 3.36941
# Velocity P-wave (km/s) = 6.41749 7.30060 6.87324
#
# Compressibility (1/GPa) = 0.02348882
#
# Stress axis : x y z
#
# Youngs Moduli (GPa) = 68.73616 59.13805 30.79351
#
# Poissons Ratio (x) = 0.38723 0.29127
# Poissons Ratio (y) = 0.45007 0.12980
# Poissons Ratio (z) = 0.65016 0.24927
#
# Static dielectric constant tensor:
#      x y z
#    x 3.169970 0.000000 0.000000 
#    y 0.000000 2.955660 0.000000 
#    z 0.000000 0.000000 2.808190 
# 
# 
# High freq. dielectric constant tensor:
#      x y z
#    x 1.602160 0.000000 0.000000 
#    y 0.000000 1.575750 0.000000 
#    z 0.000000 0.000000 1.579640 
# 
# From -- ./inp_files/8213.got.cif
#   From: 2010.03.12/outbox.cif.g09.slc.cpg/sg55_5_cif.got.tgz:8213.got - 2010.04.16 15:19:21.
