data_PCOD8224567
_publ_section_title
;
Structure prediction by ZEFSAII (Michael W. Deem and Ramdas Pophale) SiO2 
 PCOD8224567
Probable space group: P B A M
;
_chemical_formula_sum "Si O2"
_cell_formula_units_Z 64
_cell_length_a 13.441786
_cell_length_b 25.096548
_cell_length_c 10.112909
_cell_angle_alpha 90.000000
_cell_angle_beta 90.000000
_cell_angle_gamma 90.000000
_cell_volume 3411.513272
_symmetry_space_group_name_H-M "P B A M"
_symmetry_group_IT_number 55
_symmetry_cell_setting 'orthorhombic'
loop_
_space_group_symop_operation_xyz
x,y,z
-x,-y,z
1/2+x,1/2-y,-z
1/2-x,1/2+y,-z
-x,-y,-z
x,y,-z
1/2-x,1/2+y,z
1/2+x,1/2-y,z
loop_
_atom_site_type_symbol
_atom_site_label
_atom_site_fract_x
_atom_site_fract_y
_atom_site_fract_z
Si Si1 0.409680 0.853392 0.647954
Si Si2 0.898551 0.905498 0.151887
Si Si3 0.767283 0.002212 0.841814
Si Si4 0.223655 0.792334 0.742213
Si Si5 0.616859 0.605770 0.846648
Si Si6 0.873312 0.789318 0.148718
Si Si7 0.103524 0.470685 0.349120
Si Si8 0.974026 0.255014 0.652268
O O1 0.437180 0.867942 0.500000
O O2 0.304722 0.821746 0.651287
O O3 0.406031 0.911162 0.717054
O O4 0.498790 0.815270 0.701861
O O5 0.837669 0.954714 0.211273
O O6 0.836799 0.850319 0.168123
O O7 0.007509 0.898936 0.220411
O O8 0.915190 0.919933 0.000000
O O9 0.814710 0.058022 0.794257
O O10 0.668846 0.995651 0.754151
O O11 0.745047 0.999582 0.000000
O O12 0.166434 0.836989 0.824643
O O13 0.281128 0.750757 0.835791
O O14 0.143086 0.758178 0.659615
O O15 0.602421 0.597719 0.000000
O O16 0.962515 0.782976 0.252932
O O17 0.916588 0.781950 0.000000
O O18 0.148009 0.468997 0.500000
O O19 0.000000 0.500000 0.353320
O O20 0.009261 0.247772 0.500000
#
# Coordination Sequence:
#
# PCOD8224567 Si02
#       8
#     8   8   8   8   8   8   8   8
#     4   9  19  36  54  77 109 144 183 225 270 330
#     4   9  18  34  54  79 114 146 175 222 281 331
#     4  10  20  35  58  84 109 142 188 231 270 323
#     4  11  19  32  56  82 110 143 180 230 277 332
#     4  10  18  31  54  81 107 143 181 220 270 332
#     4  10  21  35  54  82 113 144 181 227 280 335
#     4  10  21  38  58  78 108 150 187 224 275 326
#     4  10  21  36  56  81 109 145 185 225 279 335
#
# _framework density 18.760002
#
# number of rings (size 3 to 8) (size 9 to 14) (size 15 to 20)
#    0.000    2.125    2.500    1.125    0.000    3.750 
#    0.000    0.625    0.000    0.750    0.000    0.000 
#    0.000    0.000    0.000    0.000    0.000    0.000 
#
# Total GULP energy -792951.522588 kJ/mol
# GULP energy per Si atom -12389.867540 kJ/mol
# Density = 1.871730 g / cm^3
# Si number density = 18.760002 Si / 1000 Ang^3
#
#
#
# Elastic Constant Matrix: (Units=GPa)
#
#
# Indices 1 2 3 4 5 6 
#
# 1 97.8516 55.8785 26.4678 0.0000 0.0000 0.0000
# 2 55.8785 102.6300 26.0957 0.0000 0.0000 0.0000
# 3 26.4678 26.0957 60.4863 0.0000 0.0000 0.0000
# 4 0.0000 0.0000 0.0000 21.1335 0.0000 0.0000
# 5 0.0000 0.0000 0.0000 0.0000 23.5205 0.0000
# 6 0.0000 0.0000 0.0000 0.0000 0.0000 31.8152
#
#
#
# Elastic Compliance Matrix: (Units=1/GPa)
#
#
# Indices 1 2 3 4 5 6 
#
# 1 0.015471 -0.007528 -0.003522 0.000000 0.000000 0.000000
# 2 -0.007528 0.014607 -0.003008 0.000000 0.000000 0.000000
# 3 -0.003522 -0.003008 0.019372 0.000000 0.000000 0.000000
# 4 0.000000 0.000000 0.000000 0.047318 0.000000 0.000000
# 5 0.000000 0.000000 0.000000 0.000000 0.042516 0.000000
# 6 0.000000 0.000000 0.000000 0.000000 0.000000 0.031431
#
#
# Mechanical properties :
#
#
# Convention : Reuss Voigt Hill
#
# Bulk Modulus (GPa) = 46.87347 53.09464 49.98405
# Shear Modulus (GPa) = 24.27857 25.46225 24.87041
#
# Velocity S-wave (km/s) = 3.60136 3.68810 3.64499
# Velocity P-wave (km/s) = 6.50639 6.81906 6.66456
#
# Compressibility (1/GPa) = 0.02133403
#
# Stress axis : x y z
#
# Youngs Moduli (GPa) = 64.63674 68.45918 51.62191
#
# Poissons Ratio (x) = 0.51535 0.18182
# Poissons Ratio (y) = 0.48658 0.15528
# Poissons Ratio (z) = 0.22766 0.20592
#
# Static dielectric constant tensor:
#      x y z
#    x 3.523790 0.000000 0.000000 
#    y 0.000000 3.704070 0.000000 
#    z 0.000000 0.000000 3.165600 
# 
# 
# High freq. dielectric constant tensor:
#      x y z
#    x 1.721570 0.000000 0.000000 
#    y 0.000000 1.745530 0.000000 
#    z 0.000000 0.000000 1.696440 
# 
# From -- ./inp_files/13552.got.cif
#   From: 2010.03.12/outbox.cif.g09.slc.cpg/sg55_7_cif.got.tgz:13552.got - 2010.04.16 15:19:21.
