data_PCOD8224260
_publ_section_title
;
Structure prediction by ZEFSAII (Michael W. Deem and Ramdas Pophale) SiO2 
 PCOD8224260
Probable space group: P B A M
;
_chemical_formula_sum "Si O2"
_cell_formula_units_Z 56
_cell_length_a 29.745139
_cell_length_b 14.722591
_cell_length_c 8.908910
_cell_angle_alpha 90.000000
_cell_angle_beta 90.000000
_cell_angle_gamma 90.000000
_cell_volume 3901.439006
_symmetry_space_group_name_H-M "P B A M"
_symmetry_group_IT_number 55
_symmetry_cell_setting 'orthorhombic'
loop_
_space_group_symop_operation_xyz
x,y,z
-x,-y,z
1/2+x,1/2-y,-z
1/2-x,1/2+y,-z
-x,-y,-z
x,y,-z
1/2-x,1/2+y,z
1/2+x,1/2-y,z
loop_
_atom_site_type_symbol
_atom_site_label
_atom_site_fract_x
_atom_site_fract_y
_atom_site_fract_z
Si Si1 0.007912 0.393292 0.830868
Si Si2 0.418396 0.130581 0.674195
Si Si3 0.769192 0.460930 0.833836
Si Si4 0.311905 0.857046 0.178452
Si Si5 0.745977 0.291786 0.323155
Si Si6 0.902584 0.580887 0.325514
Si Si7 0.166146 0.691387 0.833000
O O1 0.052507 0.370826 0.736474
O O2 0.000000 0.500000 0.831405
O O3 0.965455 0.345011 0.752886
O O4 0.013091 0.356101 0.000000
O O5 0.422957 0.152848 0.500000
O O6 0.380683 0.196540 0.744471
O O7 0.404706 0.026611 0.702035
O O8 0.777712 0.562114 0.771520
O O9 0.738767 0.398555 0.722810
O O10 0.818567 0.414058 0.845569
O O11 0.746896 0.463365 0.000000
O O12 0.294504 0.764567 0.251702
O O13 0.361488 0.875705 0.236994
O O14 0.313042 0.848137 0.000000
O O15 0.745810 0.281050 0.500000
O O16 0.793911 0.255768 0.256537
O O17 0.897547 0.603692 0.500000
O O18 0.160440 0.733629 0.000000
#
# Coordination Sequence:
#
# PCOD8224260 Si02
#       7
#     8   8   8   8   8   8   8
#     4   9  17  26  36  50  72 101 133 166 198 235
#     4  10  17  25  39  56  75 101 131 167 206 238
#     4   8  17  30  43  57  77 104 137 170 201 242
#     4  11  19  29  45  60  79 110 142 171 207 248
#     4  10  19  29  41  60  82 103 134 173 209 244
#     4  10  18  26  36  54  77 100 133 170 202 238
#     4   9  16  28  41  55  75 100 133 166 198 238
#
# _framework density 14.353679
#
# number of rings (size 3 to 8) (size 9 to 14) (size 15 to 20)
#    0.857    1.571    1.429    3.000    0.000    4.000 
#    0.000    0.000    0.000    0.000    0.000    0.000 
#    0.000    0.000    0.000    1.286    0.000   23.857 
#
# Total GULP energy -693925.725085 kJ/mol
# GULP energy per Si atom -12391.530805 kJ/mol
# Density = 1.432101 g / cm^3
# Si number density = 14.353679 Si / 1000 Ang^3
#
#
#
# Elastic Constant Matrix: (Units=GPa)
#
#
# Indices 1 2 3 4 5 6 
#
# 1 69.3766 14.9915 40.3638 0.0000 0.0000 0.0000
# 2 14.9915 8.4697 10.1914 0.0000 0.0000 0.0000
# 3 40.3638 10.1914 100.1720 0.0000 0.0000 0.0000
# 4 0.0000 0.0000 0.0000 12.8271 0.0000 0.0000
# 5 0.0000 0.0000 0.0000 0.0000 29.6876 0.0000
# 6 0.0000 0.0000 0.0000 0.0000 0.0000 16.9871
#
#
#
# Elastic Compliance Matrix: (Units=1/GPa)
#
#
# Indices 1 2 3 4 5 6 
#
# 1 0.026902 -0.039396 -0.006832 0.000000 0.000000 0.000000
# 2 -0.039396 0.192232 -0.003683 0.000000 0.000000 0.000000
# 3 -0.006832 -0.003683 0.013110 0.000000 0.000000 0.000000
# 4 0.000000 0.000000 0.000000 0.077960 0.000000 0.000000
# 5 0.000000 0.000000 0.000000 0.000000 0.033684 0.000000
# 6 0.000000 0.000000 0.000000 0.000000 0.000000 0.058868
#
#
# Mechanical properties :
#
#
# Convention : Reuss Voigt Hill
#
# Bulk Modulus (GPa) = 7.55162 34.34572 20.94867
# Shear Modulus (GPa) = 9.14547 19.39847 14.27197
#
# Velocity S-wave (km/s) = 2.52693 3.68021 3.15669
# Velocity P-wave (km/s) = 3.71299 6.48373 5.28323
#
# Compressibility (1/GPa) = 0.13242199
#
# Stress axis : x y z
#
# Youngs Moduli (GPa) = 37.17202 5.20206 76.27535
#
# Poissons Ratio (x) = 0.20494 0.52110
# Poissons Ratio (y) = 1.46444 0.28091
# Poissons Ratio (z) = 0.25396 0.01916
#
# Static dielectric constant tensor:
#      x y z
#    x 2.732230 0.000000 0.000000 
#    y 0.000000 2.347330 0.000000 
#    z 0.000000 0.000000 2.895990 
# 
# 
# High freq. dielectric constant tensor:
#      x y z
#    x 1.537820 0.000000 0.000000 
#    y 0.000000 1.481320 0.000000 
#    z 0.000000 0.000000 1.567990 
# 
# From -- ./inp_files/10878.got.cif
#   From: 2010.03.12/outbox.cif.g09.slc.cpg/sg55_6_cif.got.tgz:10878.got - 2010.04.16 15:19:21.
