data_PCOD8224594
_publ_section_title
;
Structure prediction by ZEFSAII (Michael W. Deem and Ramdas Pophale) SiO2 
 PCOD8224594
Probable space group: P B A M
;
_chemical_formula_sum "Si O2"
_cell_formula_units_Z 40
_cell_length_a 13.231813
_cell_length_b 5.327982
_cell_length_c 22.260404
_cell_angle_alpha 90.000000
_cell_angle_beta 90.000000
_cell_angle_gamma 90.000000
_cell_volume 1569.333138
_symmetry_space_group_name_H-M "P B A M"
_symmetry_group_IT_number 55
_symmetry_cell_setting 'orthorhombic'
loop_
_space_group_symop_operation_xyz
x,y,z
-x,-y,z
1/2+x,1/2-y,-z
1/2-x,1/2+y,-z
-x,-y,-z
x,y,-z
1/2-x,1/2+y,z
1/2+x,1/2-y,z
loop_
_atom_site_type_symbol
_atom_site_label
_atom_site_fract_x
_atom_site_fract_y
_atom_site_fract_z
Si Si1 0.866392 0.350783 0.118755
Si Si2 0.140805 0.148609 0.069820
Si Si3 0.108024 0.234275 0.690507
Si Si4 0.814033 0.832222 0.566300
Si Si5 0.116231 0.734266 0.741054
O O1 0.918732 0.619484 0.102053
O O2 0.750061 0.396556 0.100015
O O3 0.877608 0.293738 0.188202
O O4 0.915840 0.118417 0.081197
O O5 0.152441 0.209695 0.000000
O O6 0.102313 0.203466 0.618257
O O7 0.166831 0.491064 0.708905
O O8 0.998129 0.249432 0.718553
O O9 0.167676 0.996669 0.720205
O O10 0.864719 0.811167 0.500000
O O11 0.733190 0.608618 0.573826
#
# Coordination Sequence:
#
# PCOD8224594 Si02
#       5
#     8   8   8   8   8
#     4  10  18  32  50  80 112 153 188 237 293 341
#     4  10  19  33  53  82 116 148 197 243 291 346
#     4  10  21  40  57  84 115 161 195 237 282 351
#     4  10  21  40  63  90 120 153 192 243 298 344
#     4  10  21  37  57  80 123 159 196 230 290 346
#
# _framework density 25.488533
#
# number of rings (size 3 to 8) (size 9 to 14) (size 15 to 20)
#    0.000    2.000    0.000    5.400    0.000    0.000 
#   21.600    4.000    0.000    0.000    0.000   95.200 
#    0.000    0.000    0.000    0.000    0.000    0.000 
#
# Total GULP energy -495663.801406 kJ/mol
# GULP energy per Si atom -12391.595035 kJ/mol
# Density = 2.543052 g / cm^3
# Si number density = 25.488533 Si / 1000 Ang^3
#
#
#
# Elastic Constant Matrix: (Units=GPa)
#
#
# Indices 1 2 3 4 5 6 
#
# 1 17.0380 -3.3912 16.2261 0.0000 0.0000 0.0000
# 2 -3.3912 281.6304 58.1611 0.0000 0.0000 0.0000
# 3 16.2261 58.1611 239.0343 0.0000 0.0000 0.0000
# 4 0.0000 0.0000 0.0000 51.6501 0.0000 0.0000
# 5 0.0000 0.0000 0.0000 0.0000 37.6641 0.0000
# 6 0.0000 0.0000 0.0000 0.0000 0.0000 -9.0299
#
#
#
# Elastic Compliance Matrix: (Units=1/GPa)
#
#
# Indices 1 2 3 4 5 6 
#
# 1 0.063552 0.001744 -0.004738 0.000000 0.000000 0.000000
# 2 0.001744 0.003786 -0.001040 0.000000 0.000000 0.000000
# 3 -0.004738 -0.001040 0.004758 0.000000 0.000000 0.000000
# 4 0.000000 0.000000 0.000000 0.019361 0.000000 0.000000
# 5 0.000000 0.000000 0.000000 0.000000 0.026550 0.000000
# 6 0.000000 0.000000 0.000000 0.000000 0.000000 -0.110744
#
#
# Mechanical properties :
#
#
# Convention : Reuss Voigt Hill
#
# Bulk Modulus (GPa) = 15.61816 75.52163 45.56989
# Shear Modulus (GPa) = 136.33089 47.17065 91.75077
#
# Velocity S-wave (km/s) = 7.32142 4.30660 6.00625
# Velocity P-wave (km/s) = 8.80976 7.37720 8.12511
#
# Compressibility (1/GPa) = 0.06402804
#
# Stress axis : x y z
#
# Youngs Moduli (GPa) = 15.73517 264.09894 210.16724
#
# Poissons Ratio (x) = -0.46053 0.99584
# Poissons Ratio (y) = -0.02744 0.21851
# Poissons Ratio (z) = 0.07456 0.27458
#
# Static dielectric constant tensor:
#      x y z
#    x 3.993100 0.000000 0.000000 
#    y 0.000000 20.988960 0.000000 
#    z 0.000000 0.000000 4.578910 
# 
# 
# High freq. dielectric constant tensor:
#      x y z
#    x 1.993890 0.000000 0.000000 
#    y 0.000000 2.071350 0.000000 
#    z 0.000000 0.000000 2.017230 
# 
# From -- ./inp_files/20334.got.cif
#   From: 2010.03.12/outbox.cif.g09.slc.cpg/sg55_11_cif.got.tgz:20334.got - 2010.04.16 15:19:21.
