data_PCOD8224461
_publ_section_title
;
Structure prediction by ZEFSAII (Michael W. Deem and Ramdas Pophale) SiO2 
 PCOD8224461
Probable space group: P B A M
;
_chemical_formula_sum "Si O2"
_cell_formula_units_Z 64
_cell_length_a 9.480985
_cell_length_b 20.151087
_cell_length_c 17.257166
_cell_angle_alpha 90.000000
_cell_angle_beta 90.000000
_cell_angle_gamma 90.000000
_cell_volume 3297.018729
_symmetry_space_group_name_H-M "P B A M"
_symmetry_group_IT_number 55
_symmetry_cell_setting 'orthorhombic'
loop_
_space_group_symop_operation_xyz
x,y,z
-x,-y,z
1/2+x,1/2-y,-z
1/2-x,1/2+y,-z
-x,-y,-z
x,y,-z
1/2-x,1/2+y,z
1/2+x,1/2-y,z
loop_
_atom_site_type_symbol
_atom_site_label
_atom_site_fract_x
_atom_site_fract_y
_atom_site_fract_z
Si Si1 0.535178 0.130674 0.288051
Si Si2 0.319330 0.196376 0.911468
Si Si3 0.748282 0.931565 0.687873
Si Si4 0.065433 0.252251 0.817992
Si Si5 0.501747 0.606854 0.783498
Si Si6 0.853228 0.538157 0.413662
Si Si7 0.690669 0.444960 0.913072
Si Si8 0.291502 0.958598 0.195889
O O1 0.371616 0.126442 0.316643
O O2 0.572371 0.206049 0.262914
O O3 0.636360 0.102569 0.357351
O O4 0.571870 0.087262 0.210205
O O5 0.218398 0.238066 0.854066
O O6 0.477740 0.208456 0.883103
O O7 0.293049 0.118106 0.904214
O O8 0.300165 0.220843 0.000000
O O9 0.902496 0.902512 0.707227
O O10 0.758452 0.981569 0.614244
O O11 0.686935 0.973343 0.758630
O O12 0.985303 0.184128 0.800830
O O13 0.442025 0.565621 0.856529
O O14 0.656702 0.579686 0.767964
O O15 0.812656 0.562245 0.500000
O O16 0.000000 0.500000 0.411813
O O17 0.770229 0.514885 0.892172
O O18 0.632796 0.450962 0.000000
#
# Coordination Sequence:
#
# PCOD8224461 Si02
#       8
#     8   8   8   8   8   8   8   8
#     4  10  19  31  51  75  99 127 161 204 247 296
#     4  10  21  35  50  68  96 133 172 214 255 299
#     4   9  17  31  51  72  99 126 155 202 250 289
#     4  11  20  34  51  71  98 134 173 206 248 299
#     4  10  20  31  48  70  95 130 167 201 239 296
#     4   8  15  29  52  80 102 123 157 200 245 294
#     4   9  18  32  48  67  93 123 159 209 261 294
#     4  10  18  30  48  72  95 121 162 208 248 291
#
# _framework density 19.411477000000001
#
# number of rings (size 3 to 8) (size 9 to 14) (size 15 to 20)
#    0.000    2.375    0.000    6.000    0.000    1.500 
#    0.000    2.500    0.000   15.750    0.000    9.625 
#    0.000    0.000    0.000    0.000    0.000    0.000 
#
# Total GULP energy -792913.717089 kJ/mol
# GULP energy per Si atom -12389.276830 kJ/mol
# Density = 1.936730 g / cm^3
# Si number density = 19.411477 Si / 1000 Ang^3
#
#
#
# Elastic Constant Matrix: (Units=GPa)
#
#
# Indices 1 2 3 4 5 6 
#
# 1 56.3862 14.0914 20.5623 0.0000 0.0000 0.0000
# 2 14.0914 68.4526 36.9377 0.0000 0.0000 0.0000
# 3 20.5623 36.9377 108.7553 0.0000 0.0000 0.0000
# 4 0.0000 0.0000 0.0000 27.4539 0.0000 0.0000
# 5 0.0000 0.0000 0.0000 0.0000 12.3619 0.0000
# 6 0.0000 0.0000 0.0000 0.0000 0.0000 23.3167
#
#
#
# Elastic Compliance Matrix: (Units=1/GPa)
#
#
# Indices 1 2 3 4 5 6 
#
# 1 0.019382 -0.002464 -0.002828 0.000000 0.000000 0.000000
# 2 -0.002464 0.018200 -0.005716 0.000000 0.000000 0.000000
# 3 -0.002828 -0.005716 0.011671 0.000000 0.000000 0.000000
# 4 0.000000 0.000000 0.000000 0.036425 0.000000 0.000000
# 5 0.000000 0.000000 0.000000 0.000000 0.080894 0.000000
# 6 0.000000 0.000000 0.000000 0.000000 0.000000 0.042888
#
#
# Mechanical properties :
#
#
# Convention : Reuss Voigt Hill
#
# Bulk Modulus (GPa) = 36.71321 41.86409 39.28865
# Shear Modulus (GPa) = 20.78544 23.42667 22.10606
#
# Velocity S-wave (km/s) = 3.27583 3.47774 3.37829
# Velocity P-wave (km/s) = 5.76735 6.14327 5.95827
#
# Compressibility (1/GPa) = 0.02723815
#
# Stress axis : x y z
#
# Youngs Moduli (GPa) = 51.59490 54.94473 85.68369
#
# Poissons Ratio (x) = 0.13539 0.24228
# Poissons Ratio (y) = 0.12713 0.48974
# Poissons Ratio (z) = 0.14589 0.31404
#
# Static dielectric constant tensor:
#      x y z
#    x 3.423090 0.000000 0.000000 
#    y 0.000000 3.605090 0.000000 
#    z 0.000000 0.000000 3.701710 
# 
# 
# High freq. dielectric constant tensor:
#      x y z
#    x 1.745690 0.000000 0.000000 
#    y 0.000000 1.747860 0.000000 
#    z 0.000000 0.000000 1.722970 
# 
# From -- ./inp_files/21097.got.cif
#   From: 2010.03.12/outbox.cif.g09.slc.cpg/sg55_11_cif.got.tgz:21097.got - 2010.04.16 15:19:21.
