data_PCOD8224068
_publ_section_title
;
Structure prediction by ZEFSAII (Michael W. Deem and Ramdas Pophale) SiO2 
 PCOD8224068
Probable space group: P C C A
;
_chemical_formula_sum "Si O2"
_cell_formula_units_Z 24
_cell_length_a 7.129200
_cell_length_b 8.218180
_cell_length_c 15.220197
_cell_angle_alpha 90.000000
_cell_angle_beta 90.000000
_cell_angle_gamma 90.000000
_cell_volume 891.736866
_symmetry_space_group_name_H-M "P C C A"
_symmetry_group_IT_number 54
_symmetry_cell_setting 'orthorhombic'
loop_
_space_group_symop_operation_xyz
x,y,z
1/2-x,-y,z
1/2+x,-y,1/2-z
-x,y,1/2-z
-x,-y,-z
1/2+x,y,-z
1/2-x,y,1/2+z
x,-y,1/2+z
loop_
_atom_site_type_symbol
_atom_site_label
_atom_site_fract_x
_atom_site_fract_y
_atom_site_fract_z
Si Si1 0.354797 0.834575 0.951002
Si Si2 0.000000 0.600463 0.750000
Si Si3 0.749971 0.171449 0.860122
Si Si4 0.750000 0.500000 0.109451
O O1 0.543238 0.794708 0.897984
O O2 0.231858 0.667468 0.944961
O O3 0.250000 0.000000 0.917332
O O4 0.392992 0.851834 0.055981
O O5 0.822553 0.702594 0.787379
O O6 0.933627 0.487959 0.670685
O O7 0.750000 0.000000 0.808726
#
# Coordination Sequence:
#
# PCOD8224068 Si02
#       4
#     8   4   8   4
#     4  11  24  47  75 102 135 186 242 291 344 420
#     4  12  26  42  66 106 146 188 230 294 368 420
#     4  11  24  45  73 103 141 184 236 292 353 422
#     4  12  26  44  70 102 142 186 236 290 354 420
#
# _framework density 26.913772999999999
#
# number of rings (size 3 to 8) (size 9 to 14) (size 15 to 20)
#    0.000    0.667    0.000   10.000    0.000   10.667 
#    0.000    3.333    0.000    0.000    0.000    0.000 
#    0.000    0.000    0.000    0.000    0.000    0.000 
#
# Total GULP energy -297317.997571 kJ/mol
# GULP energy per Si atom -12388.249899 kJ/mol
# Density = 2.685252 g / cm^3
# Si number density = 26.913773 Si / 1000 Ang^3
#
#
#
# Elastic Constant Matrix: (Units=GPa)
#
#
# Indices 1 2 3 4 5 6 
#
# 1 109.9191 25.7447 23.6044 0.0000 0.0000 0.0000
# 2 25.7447 190.9370 29.8871 0.0000 0.0000 0.0000
# 3 23.6044 29.8871 65.6688 0.0000 0.0000 0.0000
# 4 0.0000 0.0000 0.0000 44.9750 0.0000 0.0000
# 5 0.0000 0.0000 0.0000 0.0000 60.1127 0.0000
# 6 0.0000 0.0000 0.0000 0.0000 0.0000 31.7330
#
#
#
# Elastic Compliance Matrix: (Units=1/GPa)
#
#
# Indices 1 2 3 4 5 6 
#
# 1 0.009983 -0.000845 -0.003204 0.000000 0.000000 0.000000
# 2 -0.000845 0.005710 -0.002295 0.000000 0.000000 0.000000
# 3 -0.003204 -0.002295 0.017424 0.000000 0.000000 0.000000
# 4 0.000000 0.000000 0.000000 0.022235 0.000000 0.000000
# 5 0.000000 0.000000 0.000000 0.000000 0.016635 0.000000
# 6 0.000000 0.000000 0.000000 0.000000 0.000000 0.031513
#
#
# Mechanical properties :
#
#
# Convention : Reuss Voigt Hill
#
# Bulk Modulus (GPa) = 48.94735 58.33302 53.64018
# Shear Modulus (GPa) = 40.65060 46.51674 43.58367
#
# Velocity S-wave (km/s) = 3.89060 4.16187 4.02852
# Velocity P-wave (km/s) = 6.19747 6.69447 6.45076
#
# Compressibility (1/GPa) = 0.02043012
#
# Stress axis : x y z
#
# Youngs Moduli (GPa) = 100.16552 175.11617 57.39111
#
# Poissons Ratio (x) = 0.14790 0.18389
# Poissons Ratio (y) = 0.08460 0.13173
# Poissons Ratio (z) = 0.32094 0.40196
#
# Static dielectric constant tensor:
#      x y z
#    x 4.748310 0.000000 0.000000 
#    y 0.000000 5.082680 0.000000 
#    z 0.000000 0.000000 4.634330 
# 
# 
# High freq. dielectric constant tensor:
#      x y z
#    x 2.088030 0.000000 0.000000 
#    y 0.000000 2.102780 0.000000 
#    z 0.000000 0.000000 2.058550 
# 
# From -- ./inp_files/16120.got.cif
#   From: 2010.03.12/outbox.cif.g09.slc.cpg/sg54_9_cif.got.tgz:16120.got - 2010.04.16 15:00:50.
