data_PCOD8224443
_publ_section_title
;
Structure prediction by ZEFSAII (Michael W. Deem and Ramdas Pophale) SiO2 
 PCOD8224443
Probable space group: P B A M
;
_chemical_formula_sum "Si O2"
_cell_formula_units_Z 64
_cell_length_a 18.832899
_cell_length_b 21.453125
_cell_length_c 9.289331
_cell_angle_alpha 90.000000
_cell_angle_beta 90.000000
_cell_angle_gamma 90.000000
_cell_volume 3753.117650
_symmetry_space_group_name_H-M "P B A M"
_symmetry_group_IT_number 55
_symmetry_cell_setting 'orthorhombic'
loop_
_space_group_symop_operation_xyz
x,y,z
-x,-y,z
1/2+x,1/2-y,-z
1/2-x,1/2+y,-z
-x,-y,-z
x,y,-z
1/2-x,1/2+y,z
1/2+x,1/2-y,z
loop_
_atom_site_type_symbol
_atom_site_label
_atom_site_fract_x
_atom_site_fract_y
_atom_site_fract_z
Si Si1 0.579584 0.850415 0.336646
Si Si2 0.971243 0.806672 0.160178
Si Si3 0.530392 0.564503 0.828515
Si Si4 0.918517 0.492518 0.334838
Si Si5 0.424354 0.805628 0.670010
Si Si6 0.834821 0.594949 0.829700
Si Si7 0.870762 0.244452 0.158496
Si Si8 0.676527 0.616301 0.830087
O O1 0.586774 0.829410 0.500000
O O2 0.497612 0.841023 0.290461
O O3 0.634714 0.807376 0.250550
O O4 0.603706 0.921125 0.312547
O O5 0.924203 0.765283 0.269629
O O6 0.978997 0.877935 0.217535
O O7 0.048504 0.777295 0.150997
O O8 0.936689 0.805593 0.000000
O O9 0.500000 0.500000 0.762826
O O10 0.610876 0.575149 0.768492
O O11 0.532179 0.560900 0.000000
O O12 0.906716 0.514526 0.500000
O O13 0.872122 0.533041 0.227245
O O14 0.000000 0.500000 0.291950
O O15 0.409853 0.804166 0.500000
O O16 0.362650 0.843629 0.749556
O O17 0.751735 0.585966 0.791366
O O18 0.847522 0.602091 0.000000
O O19 0.826115 0.187642 0.229819
O O20 0.841825 0.260983 0.000000
O O21 0.665066 0.622569 0.000000
#
# Coordination Sequence:
#
# PCOD8224443 Si02
#       8
#     8   8   8   8   8   8   8   8
#     4   9  17  29  47  68  91 119 156 200 236 276
#     4   8  14  25  44  73  97 114 148 196 237 277
#     4   8  13  25  50  78 100 126 159 197 244 296
#     4  10  19  34  49  66  97 134 168 201 243 289
#     4  10  18  30  46  66  93 127 160 194 244 289
#     4  11  21  31  47  70  97 129 166 206 245 288
#     4   8  14  27  47  67  90 117 146 189 239 280
#     4   8  16  30  46  69 100 126 154 199 249 290
#
# _framework density 17.052489000000001
#
# number of rings (size 3 to 8) (size 9 to 14) (size 15 to 20)
#    0.000    3.000    1.250    2.250    0.000    1.250 
#    0.000    1.250    2.750    1.875    0.000    0.000 
#    0.000    0.000    0.000    0.000    0.000    0.000 
#
# Total GULP energy -793180.715837 kJ/mol
# GULP energy per Si atom -12393.448685 kJ/mol
# Density = 1.701368 g / cm^3
# Si number density = 17.052489 Si / 1000 Ang^3
#
#
#
# Elastic Constant Matrix: (Units=GPa)
#
#
# Indices 1 2 3 4 5 6 
#
# 1 75.7427 52.5184 35.8520 0.0000 0.0000 0.0000
# 2 52.5184 121.8232 44.5435 0.0000 0.0000 0.0000
# 3 35.8520 44.5435 61.5039 0.0000 0.0000 0.0000
# 4 0.0000 0.0000 0.0000 13.7438 0.0000 0.0000
# 5 0.0000 0.0000 0.0000 0.0000 11.8012 0.0000
# 6 0.0000 0.0000 0.0000 0.0000 0.0000 20.8379
#
#
#
# Elastic Compliance Matrix: (Units=1/GPa)
#
#
# Indices 1 2 3 4 5 6 
#
# 1 0.021290 -0.006312 -0.007839 0.000000 0.000000 0.000000
# 2 -0.006312 0.013037 -0.005762 0.000000 0.000000 0.000000
# 3 -0.007839 -0.005762 0.025002 0.000000 0.000000 0.000000
# 4 0.000000 0.000000 0.000000 0.072760 0.000000 0.000000
# 5 0.000000 0.000000 0.000000 0.000000 0.084737 0.000000
# 6 0.000000 0.000000 0.000000 0.000000 0.000000 0.047989
#
#
# Mechanical properties :
#
#
# Convention : Reuss Voigt Hill
#
# Bulk Modulus (GPa) = 51.27680 58.32196 54.79938
# Shear Modulus (GPa) = 16.06988 17.68698 16.87843
#
# Velocity S-wave (km/s) = 3.07315 3.22407 3.14951
# Velocity P-wave (km/s) = 6.53663 6.93795 6.74028
#
# Compressibility (1/GPa) = 0.01950200
#
# Stress axis : x y z
#
# Youngs Moduli (GPa) = 46.97149 76.70725 39.99697
#
# Poissons Ratio (x) = 0.48416 0.31353
# Poissons Ratio (y) = 0.29647 0.23048
# Poissons Ratio (z) = 0.36821 0.44201
#
# Static dielectric constant tensor:
#      x y z
#    x 3.006580 0.000000 0.000000 
#    y 0.000000 3.462180 0.000000 
#    z 0.000000 0.000000 3.066240 
# 
# 
# High freq. dielectric constant tensor:
#      x y z
#    x 1.621960 0.000000 0.000000 
#    y 0.000000 1.664600 0.000000 
#    z 0.000000 0.000000 1.634080 
# 
# From -- ./inp_files/9171.got.cif
#   From: 2010.03.12/outbox.cif.g09.slc.cpg/sg55_5_cif.got.tgz:9171.got - 2010.04.16 15:19:21.
