data_PCOD8224120
_publ_section_title
;
Structure prediction by ZEFSAII (Michael W. Deem and Ramdas Pophale) SiO2 
 PCOD8224120
Probable space group: P C C A
;
_chemical_formula_sum "Si O2"
_cell_formula_units_Z 24
_cell_length_a 13.266430
_cell_length_b 5.042426
_cell_length_c 13.856235
_cell_angle_alpha 90.000000
_cell_angle_beta 90.000000
_cell_angle_gamma 90.000000
_cell_volume 926.912723
_symmetry_space_group_name_H-M "P C C A"
_symmetry_group_IT_number 54
_symmetry_cell_setting 'orthorhombic'
loop_
_space_group_symop_operation_xyz
x,y,z
1/2-x,-y,z
1/2+x,-y,1/2-z
-x,y,1/2-z
-x,-y,-z
1/2+x,y,-z
1/2-x,y,1/2+z
x,-y,1/2+z
loop_
_atom_site_type_symbol
_atom_site_label
_atom_site_fract_x
_atom_site_fract_y
_atom_site_fract_z
Si Si1 0.640579 0.622021 0.580107
Si Si2 0.436306 0.636222 0.124134
Si Si3 0.858928 0.107248 0.772156
O O1 0.750000 0.500000 0.596369
O O2 0.626457 0.723711 0.471045
O O3 0.553135 0.407909 0.599508
O O4 0.630829 0.860152 0.656772
O O5 0.437656 0.884788 0.195572
O O6 0.383957 0.384072 0.175002
O O7 0.750000 0.000000 0.802988
#
# Coordination Sequence:
#
# PCOD8224120 Si02
#       3
#     8   8   8
#     4  11  26  48  77 109 145 194 247 296 362 435
#     4  11  28  50  74 107 150 191 240 304 361 427
#     4  12  26  47  75 109 147 191 241 296 362 432
#
# _framework density 25.892406000000001
#
# number of rings (size 3 to 8) (size 9 to 14) (size 15 to 20)
#    0.000    0.667    0.000    6.000    0.000   22.667 
#    0.000    0.000    0.000    0.000    0.000    0.000 
#    0.000    0.000    0.000    0.000    0.000    0.000 
#
# Total GULP energy -297644.523750 kJ/mol
# GULP energy per Si atom -12401.855156 kJ/mol
# Density = 2.583347 g / cm^3
# Si number density = 25.892406 Si / 1000 Ang^3
#
#
#
# Elastic Constant Matrix: (Units=GPa)
#
#
# Indices 1 2 3 4 5 6 
#
# 1 136.1732 32.2714 67.3456 0.0000 0.0000 0.0000
# 2 32.2714 157.4807 102.8419 0.0000 0.0000 0.0000
# 3 67.3456 102.8419 180.1108 0.0000 0.0000 0.0000
# 4 0.0000 0.0000 0.0000 48.1025 0.0000 0.0000
# 5 0.0000 0.0000 0.0000 0.0000 39.6913 0.0000
# 6 0.0000 0.0000 0.0000 0.0000 0.0000 -42.5024
#
#
#
# Elastic Compliance Matrix: (Units=1/GPa)
#
#
# Indices 1 2 3 4 5 6 
#
# 1 0.009041 0.000566 -0.003704 0.000000 0.000000 0.000000
# 2 0.000566 0.010161 -0.006014 0.000000 0.000000 0.000000
# 3 -0.003704 -0.006014 0.010371 0.000000 0.000000 0.000000
# 4 0.000000 0.000000 0.000000 0.020789 0.000000 0.000000
# 5 0.000000 0.000000 0.000000 0.000000 0.025194 0.000000
# 6 0.000000 0.000000 0.000000 0.000000 0.000000 -0.023528
#
#
# Mechanical properties :
#
#
# Convention : Reuss Voigt Hill
#
# Bulk Modulus (GPa) = 88.72851 97.63138 93.17995
# Shear Modulus (GPa) = 67.48750 27.14533 47.31641
#
# Velocity S-wave (km/s) = 5.11089 3.24140 4.27948
# Velocity P-wave (km/s) = 8.31690 7.19703 7.77715
#
# Compressibility (1/GPa) = 0.01127033
#
# Stress axis : x y z
#
# Youngs Moduli (GPa) = 110.60487 98.41443 96.42538
#
# Poissons Ratio (x) = -0.05570 0.35714
# Poissons Ratio (y) = -0.06260 0.57986
# Poissons Ratio (z) = 0.40966 0.59182
#
# Static dielectric constant tensor:
#      x y z
#    x 4.901930 0.000000 0.000000 
#    y 0.000000 4.494830 0.000000 
#    z 0.000000 0.000000 5.318140 
# 
# 
# High freq. dielectric constant tensor:
#      x y z
#    x 2.066140 0.000000 0.000000 
#    y 0.000000 2.020470 0.000000 
#    z 0.000000 0.000000 2.059130 
# 
# From -- ./inp_files/12858.got.cif
#   From: 2010.03.12/outbox.cif.g09.slc.cpg/sg54_7_cif.got.tgz:12858.got - 2010.04.16 15:00:50.
