data_PCOD8224782
_publ_section_title
;
Structure prediction by ZEFSAII (Michael W. Deem and Ramdas Pophale) SiO2 
 PCOD8224782
Probable space group: P B A M
;
_chemical_formula_sum "Si O2"
_cell_formula_units_Z 48
_cell_length_a 5.077543
_cell_length_b 43.024431
_cell_length_c 12.568059
_cell_angle_alpha 90.000000
_cell_angle_beta 90.000000
_cell_angle_gamma 90.000000
_cell_volume 2745.598041
_symmetry_space_group_name_H-M "P B A M"
_symmetry_group_IT_number 55
_symmetry_cell_setting 'orthorhombic'
loop_
_space_group_symop_operation_xyz
x,y,z
-x,-y,z
1/2+x,1/2-y,-z
1/2-x,1/2+y,-z
-x,-y,-z
x,y,-z
1/2-x,1/2+y,z
1/2+x,1/2-y,z
loop_
_atom_site_type_symbol
_atom_site_label
_atom_site_fract_x
_atom_site_fract_y
_atom_site_fract_z
Si Si1 0.952663 0.172666 0.227543
Si Si2 0.024325 0.034520 0.625727
Si Si3 0.553375 0.131892 0.000000
Si Si4 0.970272 0.572702 0.625799
Si Si5 0.952674 0.369298 0.228293
Si Si6 0.553144 0.329182 0.000000
Si Si7 0.544684 0.730330 0.376224
O O1 0.662886 0.158426 0.241559
O O2 0.003519 0.198507 0.315079
O O3 0.162637 0.144946 0.241046
O O4 0.985070 0.188737 0.110034
O O5 0.993651 0.031917 0.500000
O O6 0.300623 0.049075 0.659381
O O7 0.796094 0.057046 0.668824
O O8 0.000000 0.000000 0.675752
O O9 0.486536 0.114273 0.111139
O O10 0.862477 0.140348 0.000000
O O11 0.362270 0.162301 0.000000
O O12 0.967556 0.578800 0.500000
O O13 0.007705 0.605722 0.680283
O O14 0.525695 0.721987 0.500000
O O15 0.324968 0.755466 0.344528
#
# Coordination Sequence:
#
# PCOD8224782 Si02
#       7
#     8   8   4   8   8   4   8
#     4  10  19  33  51  69  93 122 151 188 236 276
#     4   9  17  30  46  64  92 129 159 184 223 271
#     4   8  16  30  46  65  91 124 154 178 217 278
#     4  10  19  29  44  71  99 118 149 194 229 268
#     4  10  19  31  49  72  96 121 150 188 234 277
#     4   8  16  30  48  69  90 114 149 190 225 270
#     4  10  21  36  51  68  92 124 161 191 218 270
#
# _framework density 17.482531000000002
#
# number of rings (size 3 to 8) (size 9 to 14) (size 15 to 20)
#    0.000    2.500    0.000    2.500    0.000    3.333 
#    0.000    0.833    0.000    0.000    0.000    3.500 
#    0.000    0.000    0.000    0.000    0.000    0.000 
#
# Total GULP energy -594961.769800 kJ/mol
# GULP energy per Si atom -12395.036871 kJ/mol
# Density = 1.744274 g / cm^3
# Si number density = 17.482531 Si / 1000 Ang^3
#
#
#
# Elastic Constant Matrix: (Units=GPa)
#
#
# Indices 1 2 3 4 5 6 
#
# 1 59.0687 1.5348 25.7209 0.0000 0.0000 0.0000
# 2 1.5348 62.5066 45.9706 0.0000 0.0000 0.0000
# 3 25.7209 45.9706 69.1622 0.0000 0.0000 0.0000
# 4 0.0000 0.0000 0.0000 0.7379 0.0000 0.0000
# 5 0.0000 0.0000 0.0000 0.0000 17.4508 0.0000
# 6 0.0000 0.0000 0.0000 0.0000 0.0000 19.9742
#
#
#
# Elastic Compliance Matrix: (Units=1/GPa)
#
#
# Indices 1 2 3 4 5 6 
#
# 1 0.023852 0.011617 -0.016592 0.000000 0.000000 0.000000
# 2 0.011617 0.036956 -0.028884 0.000000 0.000000 0.000000
# 3 -0.016592 -0.028884 0.039828 0.000000 0.000000 0.000000
# 4 0.000000 0.000000 0.000000 1.355128 0.000000 0.000000
# 5 0.000000 0.000000 0.000000 0.000000 0.057304 0.000000
# 6 0.000000 0.000000 0.000000 0.000000 0.000000 0.050065
#
#
# Mechanical properties :
#
#
# Convention : Reuss Voigt Hill
#
# Bulk Modulus (GPa) = 30.37860 37.46557 33.92208
# Shear Modulus (GPa) = 3.04539 15.46666 9.25603
#
# Velocity S-wave (km/s) = 1.32127 2.97760 2.30346
# Velocity P-wave (km/s) = 4.44319 5.77047 5.14977
#
# Compressibility (1/GPa) = 0.03291791
#
# Stress axis : x y z
#
# Youngs Moduli (GPa) = 41.92434 27.05922 25.10798
#
# Poissons Ratio (x) = -0.31435 0.41660
# Poissons Ratio (y) = -0.48704 0.72522
# Poissons Ratio (z) = 0.69562 0.78158
#
# Static dielectric constant tensor:
#      x y z
#    x 3.527870 0.000000 0.000000 
#    y 0.000000 2.909100 0.000000 
#    z 0.000000 0.000000 3.330920 
# 
# 
# High freq. dielectric constant tensor:
#      x y z
#    x 1.702750 0.000000 0.000000 
#    y 0.000000 1.637980 0.000000 
#    z 0.000000 0.000000 1.662850 
# 
# From -- ./inp_files/16688.got.cif
#   From: 2010.03.12/outbox.cif.g09.slc.cpg/sg55_9_cif.got.tgz:16688.got - 2010.04.16 15:19:21.
