data_PCOD8224704
_publ_section_title
;
Structure prediction by ZEFSAII (Michael W. Deem and Ramdas Pophale) SiO2 
 PCOD8224704
Probable space group: P B A M
;
_chemical_formula_sum "Si O2"
_cell_formula_units_Z 40
_cell_length_a 9.833323
_cell_length_b 17.917623
_cell_length_c 12.679655
_cell_angle_alpha 90.000000
_cell_angle_beta 90.000000
_cell_angle_gamma 90.000000
_cell_volume 2234.025553
_symmetry_space_group_name_H-M "P B A M"
_symmetry_group_IT_number 55
_symmetry_cell_setting 'orthorhombic'
loop_
_space_group_symop_operation_xyz
x,y,z
-x,-y,z
1/2+x,1/2-y,-z
1/2-x,1/2+y,-z
-x,-y,-z
x,y,-z
1/2-x,1/2+y,z
1/2+x,1/2-y,z
loop_
_atom_site_type_symbol
_atom_site_label
_atom_site_fract_x
_atom_site_fract_y
_atom_site_fract_z
Si Si1 0.699472 0.330459 0.622559
Si Si2 0.850034 0.967831 0.771410
Si Si3 0.649936 0.471512 0.000000
Si Si4 0.993796 0.698249 0.377499
Si Si5 0.600188 0.069123 0.000000
Si Si6 0.900789 0.569703 0.772028
O O1 0.685724 0.350561 0.500000
O O2 0.683656 0.406898 0.684708
O O3 0.581868 0.273599 0.658909
O O4 0.846198 0.293643 0.646832
O O5 0.827242 0.928809 0.888090
O O6 0.751549 0.038917 0.758598
O O7 0.000000 0.000000 0.755868
O O8 0.500000 0.500000 0.000000
O O9 0.744483 0.543716 0.000000
O O10 0.965772 0.683181 0.500000
O O11 0.928818 0.628991 0.317591
O O12 0.576697 0.110650 0.112472
O O13 0.500000 0.000000 0.000000
O O14 0.000000 0.500000 0.758600
#
# Coordination Sequence:
#
# PCOD8224704 Si02
#       6
#     8   8   4   8   4   8
#     4  10  22  39  54  75 107 143 176 214 266 315
#     4  10  20  34  57  83 107 136 176 220 258 310
#     4   8  16  32  51  76 108 138 165 208 268 308
#     4  10  22  38  55  74 106 143 175 215 267 316
#     4   8  16  28  51  78 104 130 165 210 262 309
#     4  10  18  34  56  81 103 134 175 217 258 306
#
# _framework density 17.904897999999999
#
# number of rings (size 3 to 8) (size 9 to 14) (size 15 to 20)
#    0.000    2.400    2.000    0.000    2.800    1.600 
#    0.000    1.000    0.000    0.000    0.000    0.000 
#    0.000    0.000    0.000    0.000    0.000    0.000 
#
# Total GULP energy -495563.577428 kJ/mol
# GULP energy per Si atom -12389.089436 kJ/mol
# Density = 1.786415 g / cm^3
# Si number density = 17.904898 Si / 1000 Ang^3
#
#
#
# Elastic Constant Matrix: (Units=GPa)
#
#
# Indices 1 2 3 4 5 6 
#
# 1 101.8872 17.4837 29.8644 0.0000 0.0000 0.0000
# 2 17.4837 56.8321 47.1578 0.0000 0.0000 0.0000
# 3 29.8644 47.1578 86.9976 0.0000 0.0000 0.0000
# 4 0.0000 0.0000 0.0000 -2.6348 0.0000 0.0000
# 5 0.0000 0.0000 0.0000 0.0000 20.9468 0.0000
# 6 0.0000 0.0000 0.0000 0.0000 0.0000 25.9670
#
#
#
# Elastic Compliance Matrix: (Units=1/GPa)
#
#
# Indices 1 2 3 4 5 6 
#
# 1 0.010919 -0.000452 -0.003503 0.000000 0.000000 0.000000
# 2 -0.000452 0.031998 -0.017190 0.000000 0.000000 0.000000
# 3 -0.003503 -0.017190 0.022015 0.000000 0.000000 0.000000
# 4 0.000000 0.000000 0.000000 -0.379531 0.000000 0.000000
# 5 0.000000 0.000000 0.000000 0.000000 0.047740 0.000000
# 6 0.000000 0.000000 0.000000 0.000000 0.000000 0.038510
#
#
# Mechanical properties :
#
#
# Convention : Reuss Voigt Hill
#
# Bulk Modulus (GPa) = 44.16541 48.30318 46.23430
# Shear Modulus (GPa) = -28.00962 18.93653 -4.53655
#
# Velocity S-wave (km/s) = -3.95948 3.25563 -1.59348
# Velocity P-wave (km/s) = 1.95368 6.41626 4.74264
#
# Compressibility (1/GPa) = 0.02264215
#
# Stress axis : x y z
#
# Youngs Moduli (GPa) = 91.58171 31.25153 45.42364
#
# Poissons Ratio (x) = 0.01414 0.15912
# Poissons Ratio (y) = 0.04143 0.78082
# Poissons Ratio (z) = 0.32082 0.53721
#
# Static dielectric constant tensor:
#      x y z
#    x 3.676720 0.000000 0.000000 
#    y 0.000000 2.890110 0.000000 
#    z 0.000000 0.000000 3.846460 
# 
# 
# High freq. dielectric constant tensor:
#      x y z
#    x 1.719210 0.000000 0.000000 
#    y 0.000000 1.639170 0.000000 
#    z 0.000000 0.000000 1.712300 
# 
# From -- ./inp_files/12089.got.cif
#   From: 2010.03.12/outbox.cif.g09.slc.cpg/sg55_7_cif.got.tgz:12089.got - 2010.04.16 15:19:21.
