data_PCOD8224435
_publ_section_title
;
Structure prediction by ZEFSAII (Michael W. Deem and Ramdas Pophale) SiO2 
 PCOD8224435
Probable space group: P B A M
;
_chemical_formula_sum "Si O2"
_cell_formula_units_Z 64
_cell_length_a 12.881956
_cell_length_b 28.561251
_cell_length_c 8.592647
_cell_angle_alpha 90.000000
_cell_angle_beta 90.000000
_cell_angle_gamma 90.000000
_cell_volume 3161.447746
_symmetry_space_group_name_H-M "P B A M"
_symmetry_group_IT_number 55
_symmetry_cell_setting 'orthorhombic'
loop_
_space_group_symop_operation_xyz
x,y,z
-x,-y,z
1/2+x,1/2-y,-z
1/2-x,1/2+y,-z
-x,-y,-z
x,y,-z
1/2-x,1/2+y,z
1/2+x,1/2-y,z
loop_
_atom_site_type_symbol
_atom_site_label
_atom_site_fract_x
_atom_site_fract_y
_atom_site_fract_z
Si Si1 0.373640 0.401348 0.680820
Si Si2 0.820313 0.420433 0.684250
Si Si3 0.517290 0.323272 0.684290
Si Si4 0.322045 0.260258 0.318403
Si Si5 0.797753 0.662102 0.819053
Si Si6 0.237196 0.172500 0.181448
Si Si7 0.229067 0.477337 0.685414
Si Si8 0.444223 0.904414 0.316707
O O1 0.392490 0.407219 0.500000
O O2 0.475890 0.374722 0.745998
O O3 0.277706 0.367028 0.707368
O O4 0.336710 0.452234 0.747680
O O5 0.806669 0.416658 0.500000
O O6 0.752697 0.380484 0.763901
O O7 0.777415 0.470005 0.749657
O O8 0.939718 0.416634 0.734386
O O9 0.538862 0.324139 0.500000
O O10 0.432334 0.283521 0.726280
O O11 0.621167 0.311270 0.775651
O O12 0.300354 0.265068 0.500000
O O13 0.225469 0.284059 0.224918
O O14 0.320674 0.205905 0.267956
O O15 0.912504 0.643892 0.772060
O O16 0.775759 0.653231 0.000000
O O17 0.255757 0.176922 0.000000
O O18 0.228985 0.478547 0.500000
O O19 0.128977 0.447325 0.739556
O O20 0.436327 0.896036 0.500000
#
# Coordination Sequence:
#
# PCOD8224435 Si02
#       8
#     8   8   8   8   8   8   8   8
#     4   8  15  31  56  83 108 136 177 227 270 313
#     4  10  20  35  55  77 107 148 190 232 274 318
#     4   9  19  38  63  85 106 137 177 221 270 321
#     4  10  21  40  64  84 104 136 181 229 271 318
#     4  10  18  29  50  82 115 143 174 216 268 326
#     4  12  26  40  55  79 114 149 179 219 270 326
#     4   8  14  29  56  86 109 136 183 235 275 312
#     4   9  17  31  53  81 112 146 185 228 273 320
#
# _framework density 20.243891000000001
#
# number of rings (size 3 to 8) (size 9 to 14) (size 15 to 20)
#    0.000    2.500    0.000    4.500    0.000    5.500 
#    0.000    4.375    0.000    7.500    0.000    0.000 
#    0.000    0.000    0.000    0.000    0.000    0.000 
#
# Total GULP energy -793049.203585 kJ/mol
# GULP energy per Si atom -12391.393806 kJ/mol
# Density = 2.019782 g / cm^3
# Si number density = 20.243891 Si / 1000 Ang^3
#
#
#
# Elastic Constant Matrix: (Units=GPa)
#
#
# Indices 1 2 3 4 5 6 
#
# 1 73.6827 44.1963 28.3917 0.0000 0.0000 0.0000
# 2 44.1963 103.0580 18.7574 0.0000 0.0000 0.0000
# 3 28.3917 18.7574 32.1870 0.0000 0.0000 0.0000
# 4 0.0000 0.0000 0.0000 12.1152 0.0000 0.0000
# 5 0.0000 0.0000 0.0000 0.0000 13.9422 0.0000
# 6 0.0000 0.0000 0.0000 0.0000 0.0000 28.5695
#
#
#
# Elastic Compliance Matrix: (Units=1/GPa)
#
#
# Indices 1 2 3 4 5 6 
#
# 1 0.024789 -0.007440 -0.017531 0.000000 0.000000 0.000000
# 2 -0.007440 0.013088 -0.001064 0.000000 0.000000 0.000000
# 3 -0.017531 -0.001064 0.047152 0.000000 0.000000 0.000000
# 4 0.000000 0.000000 0.000000 0.082541 0.000000 0.000000
# 5 0.000000 0.000000 0.000000 0.000000 0.071725 0.000000
# 6 0.000000 0.000000 0.000000 0.000000 0.000000 0.035002
#
#
# Mechanical properties :
#
#
# Convention : Reuss Voigt Hill
#
# Bulk Modulus (GPa) = 30.34036 43.51316 36.92676
# Shear Modulus (GPa) = 14.82125 18.76420 16.79272
#
# Velocity S-wave (km/s) = 2.70873 3.04782 2.88326
# Velocity P-wave (km/s) = 4.98025 5.82466 5.41893
#
# Compressibility (1/GPa) = 0.03295940
#
# Stress axis : x y z
#
# Youngs Moduli (GPa) = 40.33978 76.40784 21.20802
#
# Poissons Ratio (x) = 0.56849 0.37179
# Poissons Ratio (y) = 0.30014 0.02257
# Poissons Ratio (z) = 0.70718 0.08130
#
# Static dielectric constant tensor:
#      x y z
#    x 3.634380 0.000000 0.000000 
#    y 0.000000 4.081120 0.000000 
#    z 0.000000 0.000000 3.297110 
# 
# 
# High freq. dielectric constant tensor:
#      x y z
#    x 1.774920 0.000000 0.000000 
#    y 0.000000 1.794740 0.000000 
#    z 0.000000 0.000000 1.759770 
# 
# From -- ./inp_files/4559.got.cif
#   From: 2010.03.12/outbox.cif.g09.slc.cpg/sg55_3_cif.got.tgz:4559.got - 2010.04.16 15:19:21.
