data_PCOD8224094
_publ_section_title
;
Structure prediction by ZEFSAII (Michael W. Deem and Ramdas Pophale) SiO2 
 PCOD8224094
Probable space group: P C C A
;
_chemical_formula_sum "Si O2"
_cell_formula_units_Z 48
_cell_length_a 13.586948
_cell_length_b 5.178940
_cell_length_c 30.405933
_cell_angle_alpha 90.000000
_cell_angle_beta 90.000000
_cell_angle_gamma 90.000000
_cell_volume 2139.543531
_symmetry_space_group_name_H-M "P C C A"
_symmetry_group_IT_number 54
_symmetry_cell_setting 'orthorhombic'
loop_
_space_group_symop_operation_xyz
x,y,z
1/2-x,-y,z
1/2+x,-y,1/2-z
-x,y,1/2-z
-x,-y,-z
1/2+x,y,-z
1/2-x,y,1/2+z
x,-y,1/2+z
loop_
_atom_site_type_symbol
_atom_site_label
_atom_site_fract_x
_atom_site_fract_y
_atom_site_fract_z
Si Si1 0.750000 0.500000 0.069320
Si Si2 0.422530 0.687320 0.982431
Si Si3 0.036590 0.127301 0.344558
Si Si4 0.750000 0.500000 0.324311
Si Si5 0.461433 0.373167 0.202213
Si Si6 0.750000 0.000000 0.379951
Si Si7 0.250000 0.000000 0.371532
Si Si8 0.438766 0.966472 0.069673
O O1 0.659186 0.501833 0.036449
O O2 0.739913 0.247302 0.098045
O O3 0.471175 0.849551 0.943370
O O4 0.500000 0.500000 0.000000
O O5 0.390664 0.844026 0.025832
O O6 0.152042 0.045468 0.342570
O O7 0.975635 0.876642 0.328658
O O8 0.994914 0.207481 0.393135
O O9 0.022280 0.377747 0.314264
O O10 0.844744 0.568940 0.294782
O O11 0.782673 0.250874 0.352512
O O12 0.500000 0.297456 0.250000
O O13 0.656704 0.097995 0.408434
#
# Coordination Sequence:
#
# PCOD8224094 Si02
#       8
#     4   8   8   4   8   4   4   8
#     4  12  26  45  67 100 144 194 246 300 355 407
#     4  11  27  42  66 100 146 189 244 305 350 412
#     4  12  25  48  74 104 142 189 235 290 362 429
#     4  12  24  47  73 110 138 180 234 294 353 435
#     4  12  27  48  77 109 145 181 229 300 364 437
#     4  12  26  41  79 102 136 190 238 286 359 421
#     4  12  26  45  75 102 140 196 246 288 347 439
#     4  11  25  45  66 103 139 188 242 291 353 422
#
# _framework density 22.434691999999998
#
# number of rings (size 3 to 8) (size 9 to 14) (size 15 to 20)
#    0.000    0.333    5.000    2.500    9.333    1.333 
#    0.000    0.000    0.000    0.000    0.000    0.000 
#    0.000    0.000    0.000    0.000    0.000    0.000 
#
# Total GULP energy -594887.062673 kJ/mol
# GULP energy per Si atom -12393.480472 kJ/mol
# Density = 2.238363 g / cm^3
# Si number density = 22.434692 Si / 1000 Ang^3
#
#
#
# Elastic Constant Matrix: (Units=GPa)
#
#
# Indices 1 2 3 4 5 6 
#
# 1 123.5985 12.4583 44.3068 0.0000 0.0000 0.0000
# 2 12.4583 116.4842 23.1833 0.0000 0.0000 0.0000
# 3 44.3068 23.1833 93.7604 0.0000 0.0000 0.0000
# 4 0.0000 0.0000 0.0000 -35.3240 0.0000 0.0000
# 5 0.0000 0.0000 0.0000 0.0000 37.3131 0.0000
# 6 0.0000 0.0000 0.0000 0.0000 0.0000 34.3867
#
#
#
# Elastic Compliance Matrix: (Units=1/GPa)
#
#
# Indices 1 2 3 4 5 6 
#
# 1 0.009743 -0.000132 -0.004571 0.000000 0.000000 0.000000
# 2 -0.000132 0.009031 -0.002171 0.000000 0.000000 0.000000
# 3 -0.004571 -0.002171 0.013362 0.000000 0.000000 0.000000
# 4 0.000000 0.000000 0.000000 -0.028309 0.000000 0.000000
# 5 0.000000 0.000000 0.000000 0.000000 0.026800 0.000000
# 6 0.000000 0.000000 0.000000 0.000000 0.000000 0.029081
#
#
# Mechanical properties :
#
#
# Convention : Reuss Voigt Hill
#
# Bulk Modulus (GPa) = 54.38323 54.85998 54.62160
# Shear Modulus (GPa) = 62.82570 24.20148 43.51359
#
# Velocity S-wave (km/s) = 5.29760 3.28800 4.40883
# Velocity P-wave (km/s) = 7.85575 6.23866 7.09344
#
# Compressibility (1/GPa) = 0.01838802
#
# Stress axis : x y z
#
# Youngs Moduli (GPa) = 102.64081 110.72987 74.83719
#
# Poissons Ratio (x) = 0.01464 0.34210
# Poissons Ratio (y) = 0.01357 0.16244
# Poissons Ratio (z) = 0.46920 0.24034
#
# Static dielectric constant tensor:
#      x y z
#    x 4.263350 0.000000 0.000000 
#    y 0.000000 3.773510 0.000000 
#    z 0.000000 0.000000 3.849670 
# 
# 
# High freq. dielectric constant tensor:
#      x y z
#    x 1.906770 0.000000 0.000000 
#    y 0.000000 1.882870 0.000000 
#    z 0.000000 0.000000 1.879460 
# 
# From -- ./inp_files/26552.got.cif
#   From: 2010.03.12/outbox.cif.g09.slc.cpg/sg54_14_cif.got.tgz:26552.got - 2010.04.16 15:00:50.
