data_PCOD8224723
_publ_section_title
;
Structure prediction by ZEFSAII (Michael W. Deem and Ramdas Pophale) SiO2 
 PCOD8224723
Probable space group: P B A M
;
_chemical_formula_sum "Si O2"
_cell_formula_units_Z 56
_cell_length_a 19.251219
_cell_length_b 17.485494
_cell_length_c 8.899764
_cell_angle_alpha 90.000000
_cell_angle_beta 90.000000
_cell_angle_gamma 90.000000
_cell_volume 2995.812520
_symmetry_space_group_name_H-M "P B A M"
_symmetry_group_IT_number 55
_symmetry_cell_setting 'orthorhombic'
loop_
_space_group_symop_operation_xyz
x,y,z
-x,-y,z
1/2+x,1/2-y,-z
1/2-x,1/2+y,-z
-x,-y,-z
x,y,-z
1/2-x,1/2+y,z
1/2+x,1/2-y,z
loop_
_atom_site_type_symbol
_atom_site_label
_atom_site_fract_x
_atom_site_fract_y
_atom_site_fract_z
Si Si1 0.595044 0.372080 0.675224
Si Si2 0.340360 0.466431 0.327204
Si Si3 0.378604 0.781914 0.178361
Si Si4 0.814700 0.578041 0.674969
Si Si5 0.077354 0.531261 0.172458
Si Si6 0.449153 0.359847 0.823638
Si Si7 0.467051 0.190925 0.823722
O O1 0.588453 0.354143 0.500000
O O2 0.640919 0.446387 0.707988
O O3 0.634881 0.302425 0.755929
O O4 0.518360 0.387230 0.739822
O O5 0.356188 0.445793 0.500000
O O6 0.260286 0.455750 0.285949
O O7 0.384518 0.410646 0.222868
O O8 0.322058 0.841540 0.238699
O O9 0.454030 0.809692 0.237441
O O10 0.374056 0.777263 0.000000
O O11 0.823993 0.594004 0.500000
O O12 0.871308 0.516717 0.725421
O O13 0.076942 0.618669 0.237179
O O14 0.000000 0.500000 0.186531
O O15 0.103056 0.526261 0.000000
O O16 0.431294 0.271514 0.781290
O O17 0.463623 0.367454 0.000000
O O18 0.472706 0.179004 0.000000
#
# Coordination Sequence:
#
# PCOD8224723 Si02
#       7
#     8   8   8   8   8   8   8
#     4  10  20  37  61  85 112 149 190 233 286 341
#     4  10  23  41  56  77 116 157 191 230 285 345
#     4  10  19  36  59  84 111 143 184 233 285 337
#     4  11  23  38  55  80 114 153 193 234 283 341
#     4  10  18  34  59  81 108 148 186 229 284 336
#     4  10  20  35  59  88 116 145 189 243 285 332
#     4   8  16  32  54  82 112 138 173 226 285 334
#
# _framework density 18.692758000000001
#
# number of rings (size 3 to 8) (size 9 to 14) (size 15 to 20)
#    0.000    2.143    1.429    3.000    0.000    4.286 
#    2.571    1.429    0.000    0.000    0.000    0.000 
#    0.000    0.000    0.000    0.000    0.000    0.000 
#
# Total GULP energy -694414.674337 kJ/mol
# GULP energy per Si atom -12400.262042 kJ/mol
# Density = 1.865021 g / cm^3
# Si number density = 18.692758 Si / 1000 Ang^3
#
#
#
# Elastic Constant Matrix: (Units=GPa)
#
#
# Indices 1 2 3 4 5 6 
#
# 1 84.5569 64.5275 44.0355 0.0000 0.0000 0.0000
# 2 64.5275 146.5387 60.4568 0.0000 0.0000 0.0000
# 3 44.0355 60.4568 86.7166 0.0000 0.0000 0.0000
# 4 0.0000 0.0000 0.0000 33.1371 0.0000 0.0000
# 5 0.0000 0.0000 0.0000 0.0000 21.2793 0.0000
# 6 0.0000 0.0000 0.0000 0.0000 0.0000 20.1322
#
#
#
# Elastic Compliance Matrix: (Units=1/GPa)
#
#
# Indices 1 2 3 4 5 6 
#
# 1 0.019518 -0.006325 -0.005502 0.000000 0.000000 0.000000
# 2 -0.006325 0.011629 -0.004896 0.000000 0.000000 0.000000
# 3 -0.005502 -0.004896 0.017739 0.000000 0.000000 0.000000
# 4 0.000000 0.000000 0.000000 0.030178 0.000000 0.000000
# 5 0.000000 0.000000 0.000000 0.000000 0.046994 0.000000
# 6 0.000000 0.000000 0.000000 0.000000 0.000000 0.049672
#
#
# Mechanical properties :
#
#
# Convention : Reuss Voigt Hill
#
# Bulk Modulus (GPa) = 64.76189 72.87243 68.81716
# Shear Modulus (GPa) = 23.32938 24.82921 24.07930
#
# Velocity S-wave (km/s) = 3.53660 3.64851 3.59299
# Velocity P-wave (km/s) = 7.16920 7.53776 7.35579
#
# Compressibility (1/GPa) = 0.01544118
#
# Stress axis : x y z
#
# Youngs Moduli (GPa) = 51.23376 85.99176 56.37304
#
# Poissons Ratio (x) = 0.54388 0.31017
# Poissons Ratio (y) = 0.32405 0.27598
# Poissons Ratio (z) = 0.28189 0.42099
#
# Static dielectric constant tensor:
#      x y z
#    x 3.248980 0.000000 0.000000 
#    y 0.000000 3.780740 0.000000 
#    z 0.000000 0.000000 3.365260 
# 
# 
# High freq. dielectric constant tensor:
#      x y z
#    x 1.703170 0.000000 0.000000 
#    y 0.000000 1.745490 0.000000 
#    z 0.000000 0.000000 1.720470 
# 
# From -- ./inp_files/7876.got.cif
#   From: 2010.03.12/outbox.cif.g09.slc.cpg/sg55_4_cif.got.tgz:7876.got - 2010.04.16 15:19:21.
