data_PCOD8224687
_publ_section_title
;
Structure prediction by ZEFSAII (Michael W. Deem and Ramdas Pophale) SiO2 
 PCOD8224687
Probable space group: P B A M
;
_chemical_formula_sum "Si O2"
_cell_formula_units_Z 64
_cell_length_a 17.181412
_cell_length_b 12.365342
_cell_length_c 15.235366
_cell_angle_alpha 90.000000
_cell_angle_beta 90.000000
_cell_angle_gamma 90.000000
_cell_volume 3236.814988
_symmetry_space_group_name_H-M "P B A M"
_symmetry_group_IT_number 55
_symmetry_cell_setting 'orthorhombic'
loop_
_space_group_symop_operation_xyz
x,y,z
-x,-y,z
1/2+x,1/2-y,-z
1/2-x,1/2+y,-z
-x,-y,-z
x,y,-z
1/2-x,1/2+y,z
1/2+x,1/2-y,z
loop_
_atom_site_type_symbol
_atom_site_label
_atom_site_fract_x
_atom_site_fract_y
_atom_site_fract_z
Si Si1 0.690152 0.375483 0.901939
Si Si2 0.811130 0.761660 0.598393
Si Si3 0.320814 0.040907 0.204964
Si Si4 0.378586 0.808829 0.775987
Si Si5 0.083999 0.957179 0.829430
Si Si6 0.060278 0.728969 0.763846
Si Si7 0.642352 0.705603 0.596430
Si Si8 0.177325 0.016228 0.666248
O O1 0.778654 0.407300 0.879615
O O2 0.660070 0.288208 0.831012
O O3 0.642349 0.488655 0.899242
O O4 0.685592 0.326911 0.000000
O O5 0.829713 0.716070 0.500000
O O6 0.848667 0.688577 0.675074
O O7 0.718467 0.778809 0.612629
O O8 0.845632 0.881587 0.607422
O O9 0.392463 0.119157 0.225190
O O10 0.354702 0.922896 0.181280
O O11 0.259507 0.031041 0.284286
O O12 0.470667 0.795559 0.779547
O O13 0.088084 0.825575 0.829749
O O14 0.106892 0.002102 0.734295
O O15 0.000000 0.000000 0.854930
O O16 0.073746 0.769457 0.664370
O O17 0.606499 0.724030 0.500000
O O18 0.679155 0.586032 0.602852
#
# Coordination Sequence:
#
# PCOD8224687 Si02
#       8
#     8   8   8   8   8   8   8   8
#     4  11  25  43  70  97 120 159 213 267 320 382
#     4  11  20  34  59  88 122 167 215 262 309 367
#     4  11  23  41  65  90 126 173 211 254 317 387
#     4  12  23  43  64  93 133 165 210 261 319 383
#     4  10  19  38  63  92 122 157 200 263 318 377
#     4  11  22  40  64  91 129 174 207 258 326 382
#     4  10  20  33  55  86 123 166 218 266 311 369
#     4  10  18  33  58  85 118 159 214 260 308 367
#
# _framework density 19.772523
#
# number of rings (size 3 to 8) (size 9 to 14) (size 15 to 20)
#    0.000    1.250    6.250    0.750    3.500    1.250 
#    0.000    1.250    0.000    7.125    0.000    0.000 
#    0.000    0.000    0.000    0.000    0.000    0.000 
#
# Total GULP energy -793285.839517 kJ/mol
# GULP energy per Si atom -12395.091242 kJ/mol
# Density = 1.972752 g / cm^3
# Si number density = 19.772523 Si / 1000 Ang^3
#
#
#
# Elastic Constant Matrix: (Units=GPa)
#
#
# Indices 1 2 3 4 5 6 
#
# 1 85.0847 37.5630 32.0522 0.0000 0.0000 0.0000
# 2 37.5630 108.9806 24.6273 0.0000 0.0000 0.0000
# 3 32.0522 24.6273 88.2183 0.0000 0.0000 0.0000
# 4 0.0000 0.0000 0.0000 12.1163 0.0000 0.0000
# 5 0.0000 0.0000 0.0000 0.0000 11.3325 0.0000
# 6 0.0000 0.0000 0.0000 0.0000 0.0000 31.6314
#
#
#
# Elastic Compliance Matrix: (Units=1/GPa)
#
#
# Indices 1 2 3 4 5 6 
#
# 1 0.015286 -0.004284 -0.004358 0.000000 0.000000 0.000000
# 2 -0.004284 0.010994 -0.001513 0.000000 0.000000 0.000000
# 3 -0.004358 -0.001513 0.013341 0.000000 0.000000 0.000000
# 4 0.000000 0.000000 0.000000 0.082534 0.000000 0.000000
# 5 0.000000 0.000000 0.000000 0.000000 0.088242 0.000000
# 6 0.000000 0.000000 0.000000 0.000000 0.000000 0.031614
#
#
# Mechanical properties :
#
#
# Convention : Reuss Voigt Hill
#
# Bulk Modulus (GPa) = 51.78038 52.30762 52.04400
# Shear Modulus (GPa) = 18.60413 23.55211 21.07812
#
# Velocity S-wave (km/s) = 3.07075 3.45505 3.26856
# Velocity P-wave (km/s) = 6.23038 6.51373 6.37363
#
# Compressibility (1/GPa) = 0.01931233
#
# Stress axis : x y z
#
# Youngs Moduli (GPa) = 65.41983 90.95582 74.95591
#
# Poissons Ratio (x) = 0.38964 0.32665
# Poissons Ratio (y) = 0.28025 0.11339
# Poissons Ratio (z) = 0.28509 0.13759
#
# Static dielectric constant tensor:
#      x y z
#    x 3.518080 0.000000 0.000000 
#    y 0.000000 3.810050 0.000000 
#    z 0.000000 0.000000 3.394740 
# 
# 
# High freq. dielectric constant tensor:
#      x y z
#    x 1.763440 0.000000 0.000000 
#    y 0.000000 1.779060 0.000000 
#    z 0.000000 0.000000 1.747510 
# 
# From -- ./inp_files/19498.got.cif
#   From: 2010.03.12/outbox.cif.g09.slc.cpg/sg55_10_cif.got.tgz:19498.got - 2010.04.16 15:19:21.
