data_PCOD8224847
_publ_section_title
;
Structure prediction by ZEFSAII (Michael W. Deem and Ramdas Pophale) SiO2 
 PCOD8224847
Probable space group: P B A M
;
_chemical_formula_sum "Si O2"
_cell_formula_units_Z 64
_cell_length_a 14.547427
_cell_length_b 24.021168
_cell_length_c 9.514473
_cell_angle_alpha 90.000000
_cell_angle_beta 90.000000
_cell_angle_gamma 90.000000
_cell_volume 3324.796320
_symmetry_space_group_name_H-M "P B A M"
_symmetry_group_IT_number 55
_symmetry_cell_setting 'orthorhombic'
loop_
_space_group_symop_operation_xyz
x,y,z
-x,-y,z
1/2+x,1/2-y,-z
1/2-x,1/2+y,-z
-x,-y,-z
x,y,-z
1/2-x,1/2+y,z
1/2+x,1/2-y,z
loop_
_atom_site_type_symbol
_atom_site_label
_atom_site_fract_x
_atom_site_fract_y
_atom_site_fract_z
Si Si1 0.276750 0.908518 0.344346
Si Si2 0.073703 0.545682 0.160742
Si Si3 0.950608 0.945600 0.334767
Si Si4 0.353676 0.751135 0.167350
Si Si5 0.927476 0.631056 0.841536
Si Si6 0.689101 0.706067 0.337536
Si Si7 0.753275 0.968202 0.659443
Si Si8 0.987601 0.822350 0.663921
O O1 0.316715 0.899457 0.500000
O O2 0.363757 0.911336 0.243085
O O3 0.209043 0.858509 0.305177
O O4 0.222664 0.966194 0.332867
O O5 0.165787 0.547760 0.249444
O O6 0.000000 0.500000 0.216070
O O7 0.030991 0.608116 0.174138
O O8 0.098848 0.531593 0.000000
O O9 0.944398 0.956303 0.500000
O O10 0.845157 0.939162 0.280195
O O11 0.002722 0.887849 0.300333
O O12 0.000000 0.000000 0.265685
O O13 0.414443 0.805426 0.209390
O O14 0.251529 0.755917 0.235120
O O15 0.405822 0.699632 0.237728
O O16 0.344886 0.742330 0.000000
O O17 0.892482 0.627184 0.000000
O O18 0.709839 0.721617 0.500000
O O19 0.580829 0.712309 0.303533
O O20 0.731056 0.949792 0.500000
O O21 0.960436 0.815452 0.500000
#
# Coordination Sequence:
#
# PCOD8224847 Si02
#       8
#     8   8   8   8   8   8   8   8
#     4   9  16  27  48  77 106 133 172 221 262 308
#     4  10  19  32  50  72 105 147 184 219 268 329
#     4   9  18  35  59  85 113 144 178 222 278 337
#     4  10  21  37  57  80 109 142 183 232 278 327
#     4   9  18  33  50  70  99 141 185 220 262 317
#     4   9  18  34  57  82 105 138 182 226 273 321
#     4  10  19  30  49  80 111 139 174 217 268 322
#     4  10  20  37  61  85 112 145 184 230 278 334
#
# _framework density 19.249300000000002
#
# number of rings (size 3 to 8) (size 9 to 14) (size 15 to 20)
#    0.000    2.500    1.250    1.125    0.000    4.750 
#    2.250    0.625    0.000    3.000    0.000    0.000 
#    0.000    0.000    0.000    0.000    0.000    0.000 
#
# Total GULP energy -793251.339501 kJ/mol
# GULP energy per Si atom -12394.552180 kJ/mol
# Density = 1.920549 g / cm^3
# Si number density = 19.249300 Si / 1000 Ang^3
#
#
#
# Elastic Constant Matrix: (Units=GPa)
#
#
# Indices 1 2 3 4 5 6 
#
# 1 117.2465 33.5590 50.5885 0.0000 0.0000 0.0000
# 2 33.5590 61.0136 27.2159 0.0000 0.0000 0.0000
# 3 50.5885 27.2159 68.3349 0.0000 0.0000 0.0000
# 4 0.0000 0.0000 0.0000 17.5573 0.0000 0.0000
# 5 0.0000 0.0000 0.0000 0.0000 -10.2562 0.0000
# 6 0.0000 0.0000 0.0000 0.0000 0.0000 29.4933
#
#
#
# Elastic Compliance Matrix: (Units=1/GPa)
#
#
# Indices 1 2 3 4 5 6 
#
# 1 0.013121 -0.003507 -0.008317 0.000000 0.000000 0.000000
# 2 -0.003507 0.020868 -0.005715 0.000000 0.000000 0.000000
# 3 -0.008317 -0.005715 0.023067 0.000000 0.000000 0.000000
# 4 0.000000 0.000000 0.000000 0.056956 0.000000 0.000000
# 5 0.000000 0.000000 0.000000 0.000000 -0.097502 0.000000
# 6 0.000000 0.000000 0.000000 0.000000 0.000000 0.033906
#
#
# Mechanical properties :
#
#
# Convention : Reuss Voigt Hill
#
# Bulk Modulus (GPa) = 45.49918 52.14689 48.82303
# Shear Modulus (GPa) = 53.86726 16.37431 35.12078
#
# Velocity S-wave (km/s) = 5.29573 2.91975 4.27608
# Velocity P-wave (km/s) = 7.81544 6.20610 7.05680
#
# Compressibility (1/GPa) = 0.02197842
#
# Stress axis : x y z
#
# Youngs Moduli (GPa) = 76.21103 47.92030 43.35203
#
# Poissons Ratio (x) = 0.16807 0.36056
# Poissons Ratio (y) = 0.26729 0.24775
# Poissons Ratio (z) = 0.63385 0.27385
#
# Static dielectric constant tensor:
#      x y z
#    x 3.478170 0.000000 0.000000 
#    y 0.000000 3.454230 0.000000 
#    z 0.000000 0.000000 3.345390 
# 
# 
# High freq. dielectric constant tensor:
#      x y z
#    x 1.744060 0.000000 0.000000 
#    y 0.000000 1.739820 0.000000 
#    z 0.000000 0.000000 1.726340 
# 
# From -- ./inp_files/6495.got.cif
#   From: 2010.03.12/outbox.cif.g09.slc.cpg/sg55_4_cif.got.tgz:6495.got - 2010.04.16 15:19:21.
