data_PCOD8224283
_publ_section_title
;
Structure prediction by ZEFSAII (Michael W. Deem and Ramdas Pophale) SiO2 
 PCOD8224283
Probable space group: P B A M
;
_chemical_formula_sum "Si O2"
_cell_formula_units_Z 64
_cell_length_a 14.518467
_cell_length_b 30.266045
_cell_length_c 9.179256
_cell_angle_alpha 90.000000
_cell_angle_beta 90.000000
_cell_angle_gamma 90.000000
_cell_volume 4033.517238
_symmetry_space_group_name_H-M "P B A M"
_symmetry_group_IT_number 55
_symmetry_cell_setting 'orthorhombic'
loop_
_space_group_symop_operation_xyz
x,y,z
-x,-y,z
1/2+x,1/2-y,-z
1/2-x,1/2+y,-z
-x,-y,-z
x,y,-z
1/2-x,1/2+y,z
1/2+x,1/2-y,z
loop_
_atom_site_type_symbol
_atom_site_label
_atom_site_fract_x
_atom_site_fract_y
_atom_site_fract_z
Si Si1 0.104678 0.050679 0.327957
Si Si2 0.658981 0.368089 0.833479
Si Si3 0.196164 0.865100 0.672052
Si Si4 0.976406 0.275737 0.167255
Si Si5 0.670454 0.196219 0.173949
Si Si6 0.896869 0.047179 0.328085
Si Si7 0.226825 0.714886 0.825804
Si Si8 0.966202 0.175232 0.836845
O O1 0.110269 0.057541 0.500000
O O2 0.172863 0.086284 0.254080
O O3 0.999956 0.056376 0.268553
O O4 0.138657 0.001458 0.281625
O O5 0.720694 0.328566 0.766483
O O6 0.552281 0.356432 0.817159
O O7 0.687257 0.376250 0.000000
O O8 0.211175 0.862193 0.500000
O O9 0.286624 0.847496 0.753605
O O10 0.174670 0.915295 0.725556
O O11 0.109809 0.834972 0.716414
O O12 0.877388 0.287021 0.239330
O O13 0.001784 0.224612 0.186730
O O14 0.064372 0.302112 0.230948
O O15 0.966821 0.288652 0.000000
O O16 0.724590 0.240045 0.228634
O O17 0.675410 0.192548 0.000000
O O18 0.905683 0.049050 0.500000
O O19 0.228801 0.715385 0.000000
O O20 0.923358 0.170431 0.000000
#
# Coordination Sequence:
#
# PCOD8224283 Si02
#       8
#     8   8   8   8   8   8   8   8
#     4   9  16  30  47  62  85 120 152 179 215 275
#     4  10  18  27  43  70  95 117 148 189 224 253
#     4  11  20  30  44  66  92 120 150 185 225 262
#     4   9  16  28  47  66  86 120 158 184 209 255
#     4  10  18  30  48  67  87 117 156 186 213 262
#     4   8  16  29  45  62  85 119 153 177 215 275
#     4   9  16  27  45  66  91 120 150 180 216 263
#     4  10  17  27  45  66  90 121 155 183 211 256
#
# _framework density 15.867044
#
# number of rings (size 3 to 8) (size 9 to 14) (size 15 to 20)
#    0.000    2.500    3.750    1.125    0.000    0.000 
#    0.000    3.750    0.000    0.000    0.000    0.875 
#    0.000    7.000    0.000    0.000    0.000    0.000 
#
# Total GULP energy -793119.632590 kJ/mol
# GULP energy per Si atom -12392.494259 kJ/mol
# Density = 1.583093 g / cm^3
# Si number density = 15.867044 Si / 1000 Ang^3
#
#
#
# Elastic Constant Matrix: (Units=GPa)
#
#
# Indices 1 2 3 4 5 6 
#
# 1 67.0469 36.7209 16.3075 0.0000 0.0000 0.0000
# 2 36.7209 100.4192 23.7939 0.0000 0.0000 0.0000
# 3 16.3075 23.7939 27.9897 0.0000 0.0000 0.0000
# 4 0.0000 0.0000 0.0000 23.0706 0.0000 0.0000
# 5 0.0000 0.0000 0.0000 0.0000 14.0909 0.0000
# 6 0.0000 0.0000 0.0000 0.0000 0.0000 26.4885
#
#
#
# Elastic Compliance Matrix: (Units=1/GPa)
#
#
# Indices 1 2 3 4 5 6 
#
# 1 0.019596 -0.005586 -0.006669 0.000000 0.000000 0.000000
# 2 -0.005586 0.014062 -0.008700 0.000000 0.000000 0.000000
# 3 -0.006669 -0.008700 0.047009 0.000000 0.000000 0.000000
# 4 0.000000 0.000000 0.000000 0.043345 0.000000 0.000000
# 5 0.000000 0.000000 0.000000 0.000000 0.070968 0.000000
# 6 0.000000 0.000000 0.000000 0.000000 0.000000 0.037752
#
#
# Mechanical properties :
#
#
# Convention : Reuss Voigt Hill
#
# Bulk Modulus (GPa) = 25.80104 38.78895 32.29500
# Shear Modulus (GPa) = 17.38766 20.63890 19.01328
#
# Velocity S-wave (km/s) = 3.31393 3.61049 3.46538
# Velocity P-wave (km/s) = 5.56228 6.47149 6.03403
#
# Compressibility (1/GPa) = 0.03875812
#
# Stress axis : x y z
#
# Youngs Moduli (GPa) = 51.03024 71.11257 21.27273
#
# Poissons Ratio (x) = 0.39721 0.14187
# Poissons Ratio (y) = 0.28504 0.18507
# Poissons Ratio (z) = 0.34031 0.61867
#
# Static dielectric constant tensor:
#      x y z
#    x 3.054260 0.000000 0.000000 
#    y 0.000000 3.192710 0.000000 
#    z 0.000000 0.000000 2.682660 
# 
# 
# High freq. dielectric constant tensor:
#      x y z
#    x 1.587210 0.000000 0.000000 
#    y 0.000000 1.606180 0.000000 
#    z 0.000000 0.000000 1.573110 
# 
# From -- ./inp_files/6929.got.cif
#   From: 2010.03.12/outbox.cif.g09.slc.cpg/sg55_4_cif.got.tgz:6929.got - 2010.04.16 15:19:21.
