data_PCOD8224581
_publ_section_title
;
Structure prediction by ZEFSAII (Michael W. Deem and Ramdas Pophale) SiO2 
 PCOD8224581
Probable space group: P B A M
;
_chemical_formula_sum "Si O2"
_cell_formula_units_Z 48
_cell_length_a 19.913513
_cell_length_b 8.939580
_cell_length_c 14.841562
_cell_angle_alpha 90.000000
_cell_angle_beta 90.000000
_cell_angle_gamma 90.000000
_cell_volume 2642.071752
_symmetry_space_group_name_H-M "P B A M"
_symmetry_group_IT_number 55
_symmetry_cell_setting 'orthorhombic'
loop_
_space_group_symop_operation_xyz
x,y,z
-x,-y,z
1/2+x,1/2-y,-z
1/2-x,1/2+y,-z
-x,-y,-z
x,y,-z
1/2-x,1/2+y,z
1/2+x,1/2-y,z
loop_
_atom_site_type_symbol
_atom_site_label
_atom_site_fract_x
_atom_site_fract_y
_atom_site_fract_z
Si Si1 0.735578 0.537362 0.340845
Si Si2 0.977291 0.162267 0.896458
Si Si3 0.372096 0.157327 0.206564
Si Si4 0.658870 0.813650 0.597398
Si Si5 0.216792 0.216281 0.218297
Si Si6 0.108694 0.355098 0.103366
O O1 0.778930 0.429663 0.404976
O O2 0.686104 0.643137 0.397035
O O3 0.787084 0.637681 0.281929
O O4 0.692703 0.431070 0.272851
O O5 0.037668 0.277318 0.883341
O O6 0.914638 0.208848 0.835646
O O7 0.953561 0.156999 0.000000
O O8 0.000000 0.000000 0.863142
O O9 0.386813 0.152423 0.315003
O O10 0.293947 0.191602 0.187683
O O11 0.394320 0.003639 0.162006
O O12 0.621305 0.828842 0.500000
O O13 0.168191 0.242826 0.133745
O O14 0.121862 0.397992 0.000000
#
# Coordination Sequence:
#
# PCOD8224581 Si02
#       6
#     8   8   8   8   8   8
#     4   8  17  31  51  76 114 143 175 222 271 327
#     4  10  23  39  58  81 105 145 197 233 274 335
#     4  10  21  37  56  81 115 150 177 234 277 333
#     4  10  18  31  55  84 110 146 185 227 275 330
#     4  10  18  35  53  84 112 144 182 220 285 322
#     4  11  22  36  57  82 110 150 191 224 271 337
#
# _framework density 18.167560999999999
#
# number of rings (size 3 to 8) (size 9 to 14) (size 15 to 20)
#    0.000    2.500    3.333    1.500    4.667    2.667 
#    0.000    0.000    0.000    2.500    0.000    0.000 
#    0.000    0.000    0.000    0.000    0.000    0.000 
#
# Total GULP energy -594871.032010 kJ/mol
# GULP energy per Si atom -12393.146500 kJ/mol
# Density = 1.812621 g / cm^3
# Si number density = 18.167561 Si / 1000 Ang^3
#
#
#
# Elastic Constant Matrix: (Units=GPa)
#
#
# Indices 1 2 3 4 5 6 
#
# 1 44.7973 14.4238 32.6661 0.0000 0.0000 0.0000
# 2 14.4238 118.0028 46.9974 0.0000 0.0000 0.0000
# 3 32.6661 46.9974 130.6255 0.0000 0.0000 0.0000
# 4 0.0000 0.0000 0.0000 15.9954 0.0000 0.0000
# 5 0.0000 0.0000 0.0000 0.0000 17.9700 0.0000
# 6 0.0000 0.0000 0.0000 0.0000 0.0000 21.2853
#
#
#
# Elastic Compliance Matrix: (Units=1/GPa)
#
#
# Indices 1 2 3 4 5 6 
#
# 1 0.027354 -0.000723 -0.006580 0.000000 0.000000 0.000000
# 2 -0.000723 0.009911 -0.003385 0.000000 0.000000 0.000000
# 3 -0.006580 -0.003385 0.010519 0.000000 0.000000 0.000000
# 4 0.000000 0.000000 0.000000 0.062518 0.000000 0.000000
# 5 0.000000 0.000000 0.000000 0.000000 0.055648 0.000000
# 6 0.000000 0.000000 0.000000 0.000000 0.000000 0.046981
#
#
# Mechanical properties :
#
#
# Convention : Reuss Voigt Hill
#
# Bulk Modulus (GPa) = 37.86834 53.51112 45.68973
# Shear Modulus (GPa) = 20.56682 24.33936 22.45309
#
# Velocity S-wave (km/s) = 3.36826 3.66418 3.51934
# Velocity P-wave (km/s) = 6.00134 6.88620 6.45894
#
# Compressibility (1/GPa) = 0.02640729
#
# Stress axis : x y z
#
# Youngs Moduli (GPa) = 36.55776 100.89902 95.06615
#
# Poissons Ratio (x) = 0.07292 0.62558
# Poissons Ratio (y) = 0.02642 0.32181
# Poissons Ratio (z) = 0.24057 0.34155
#
# Static dielectric constant tensor:
#      x y z
#    x 3.017880 0.000000 0.000000 
#    y 0.000000 3.618690 0.000000 
#    z 0.000000 0.000000 3.395830 
# 
# 
# High freq. dielectric constant tensor:
#      x y z
#    x 1.661970 0.000000 0.000000 
#    y 0.000000 1.729050 0.000000 
#    z 0.000000 0.000000 1.699730 
# 
# From -- ./inp_files/19651.got.cif
#   From: 2010.03.12/outbox.cif.g09.slc.cpg/sg55_10_cif.got.tgz:19651.got - 2010.04.16 15:19:21.
