data_PCOD8224300
_publ_section_title
;
Structure prediction by ZEFSAII (Michael W. Deem and Ramdas Pophale) SiO2 
 PCOD8224300
Probable space group: P B A M
;
_chemical_formula_sum "Si O2"
_cell_formula_units_Z 64
_cell_length_a 14.315623
_cell_length_b 30.483551
_cell_length_c 9.072398
_cell_angle_alpha 90.000000
_cell_angle_beta 90.000000
_cell_angle_gamma 90.000000
_cell_volume 3959.113052
_symmetry_space_group_name_H-M "P B A M"
_symmetry_group_IT_number 55
_symmetry_cell_setting 'orthorhombic'
loop_
_space_group_symop_operation_xyz
x,y,z
-x,-y,z
1/2+x,1/2-y,-z
1/2-x,1/2+y,-z
-x,-y,-z
x,y,-z
1/2-x,1/2+y,z
1/2+x,1/2-y,z
loop_
_atom_site_type_symbol
_atom_site_label
_atom_site_fract_x
_atom_site_fract_y
_atom_site_fract_z
Si Si1 0.103863 0.051393 0.326150
Si Si2 0.650516 0.365300 0.828242
Si Si3 0.206709 0.870305 0.670006
Si Si4 0.957122 0.274297 0.333785
Si Si5 0.658126 0.201371 0.325376
Si Si6 0.890662 0.045714 0.324595
Si Si7 0.234408 0.718697 0.825954
Si Si8 0.984901 0.173986 0.664171
O O1 0.115313 0.055136 0.500000
O O2 0.169528 0.088156 0.251609
O O3 0.996097 0.058192 0.276652
O O4 0.136927 0.003076 0.270624
O O5 0.724811 0.328608 0.778153
O O6 0.547756 0.349036 0.785661
O O7 0.655444 0.373945 0.000000
O O8 0.225688 0.879433 0.500000
O O9 0.296313 0.844355 0.735080
O O10 0.181451 0.917860 0.742393
O O11 0.121982 0.836979 0.695913
O O12 0.922862 0.284940 0.500000
O O13 0.873505 0.282048 0.221276
O O14 0.997097 0.225561 0.324088
O O15 0.047951 0.303027 0.289345
O O16 0.675796 0.206919 0.500000
O O17 0.706887 0.242910 0.249635
O O18 0.888915 0.047009 0.500000
O O19 0.241102 0.725695 0.000000
O O20 0.013837 0.157277 0.500000
#
# Coordination Sequence:
#
# PCOD8224300 Si02
#       8
#     8   8   8   8   8   8   8   8
#     4   9  16  28  47  68  90 123 160 191 227 282
#     4  11  22  32  43  66  97 129 161 195 234 274
#     4   9  15  26  46  71  94 119 150 187 232 278
#     4  10  20  33  49  69  93 123 162 203 233 269
#     4  10  19  32  51  73  94 121 160 199 236 279
#     4   8  14  25  45  71  95 118 151 190 232 284
#     4  11  23  34  46  66  96 131 162 194 236 282
#     4  10  17  28  49  69  91 125 159 192 230 274
#
# _framework density 16.165237000000001
#
# number of rings (size 3 to 8) (size 9 to 14) (size 15 to 20)
#    0.000    2.250    3.750    1.500    0.000    2.500 
#    0.000    1.250    0.000    0.000    0.000    0.875 
#    0.000    7.000    0.000    0.000    0.000    0.000 
#
# Total GULP energy -793115.686503 kJ/mol
# GULP energy per Si atom -12392.432602 kJ/mol
# Density = 1.612844 g / cm^3
# Si number density = 16.165237 Si / 1000 Ang^3
#
#
#
# Elastic Constant Matrix: (Units=GPa)
#
#
# Indices 1 2 3 4 5 6 
#
# 1 56.2397 39.8029 22.3833 0.0000 0.0000 0.0000
# 2 39.8029 102.3478 31.4378 0.0000 0.0000 0.0000
# 3 22.3833 31.4378 35.0088 0.0000 0.0000 0.0000
# 4 0.0000 0.0000 0.0000 15.6647 0.0000 0.0000
# 5 0.0000 0.0000 0.0000 0.0000 17.7250 0.0000
# 6 0.0000 0.0000 0.0000 0.0000 0.0000 26.6862
#
#
#
# Elastic Compliance Matrix: (Units=1/GPa)
#
#
# Indices 1 2 3 4 5 6 
#
# 1 0.027255 -0.007245 -0.010919 0.000000 0.000000 0.000000
# 2 -0.007245 0.015418 -0.009213 0.000000 0.000000 0.000000
# 3 -0.010919 -0.009213 0.043819 0.000000 0.000000 0.000000
# 4 0.000000 0.000000 0.000000 0.063838 0.000000 0.000000
# 5 0.000000 0.000000 0.000000 0.000000 0.056417 0.000000
# 6 0.000000 0.000000 0.000000 0.000000 0.000000 0.037473
#
#
# Mechanical properties :
#
#
# Convention : Reuss Voigt Hill
#
# Bulk Modulus (GPa) = 31.50961 42.31603 36.91282
# Shear Modulus (GPa) = 16.15226 18.68000 17.41613
#
# Velocity S-wave (km/s) = 3.16444 3.40305 3.28591
# Velocity P-wave (km/s) = 5.73464 6.45562 6.10578
#
# Compressibility (1/GPa) = 0.03173635
#
# Stress axis : x y z
#
# Youngs Moduli (GPa) = 36.69107 64.85823 22.82112
#
# Poissons Ratio (x) = 0.46991 0.24919
# Poissons Ratio (y) = 0.26583 0.21026
# Poissons Ratio (z) = 0.40064 0.59755
#
# Static dielectric constant tensor:
#      x y z
#    x 2.973320 0.000000 0.000000 
#    y 0.000000 3.472620 0.000000 
#    z 0.000000 0.000000 2.811260 
# 
# 
# High freq. dielectric constant tensor:
#      x y z
#    x 1.593600 0.000000 0.000000 
#    y 0.000000 1.625140 0.000000 
#    z 0.000000 0.000000 1.594410 
# 
# From -- ./inp_files/6948.got.cif
#   From: 2010.03.12/outbox.cif.g09.slc.cpg/sg55_4_cif.got.tgz:6948.got - 2010.04.16 15:19:21.
