data_PCOD8224718
_publ_section_title
;
Structure prediction by ZEFSAII (Michael W. Deem and Ramdas Pophale) SiO2 
 PCOD8224718
Probable space group: P B A M
;
_chemical_formula_sum "Si O2"
_cell_formula_units_Z 64
_cell_length_a 16.779451
_cell_length_b 22.158617
_cell_length_c 8.592846
_cell_angle_alpha 90.000000
_cell_angle_beta 90.000000
_cell_angle_gamma 90.000000
_cell_volume 3194.901158
_symmetry_space_group_name_H-M "P B A M"
_symmetry_group_IT_number 55
_symmetry_cell_setting 'orthorhombic'
loop_
_space_group_symop_operation_xyz
x,y,z
-x,-y,z
1/2+x,1/2-y,-z
1/2-x,1/2+y,-z
-x,-y,-z
x,y,-z
1/2-x,1/2+y,z
1/2+x,1/2-y,z
loop_
_atom_site_type_symbol
_atom_site_label
_atom_site_fract_x
_atom_site_fract_y
_atom_site_fract_z
Si Si1 0.234985 0.896350 0.182488
Si Si2 0.067803 0.114931 0.827161
Si Si3 0.296043 0.532049 0.815648
Si Si4 0.626315 0.169364 0.678943
Si Si5 0.193231 0.217834 0.173410
Si Si6 0.956495 0.312327 0.817394
Si Si7 0.083324 0.822044 0.814782
Si Si8 0.813744 0.372646 0.317770
O O1 0.318333 0.887034 0.271776
O O2 0.169927 0.846395 0.235547
O O3 0.201493 0.962043 0.227626
O O4 0.251646 0.892272 0.000000
O O5 0.123115 0.063619 0.745730
O O6 0.114763 0.177655 0.831956
O O7 0.983801 0.131571 0.743971
O O8 0.049263 0.090904 0.000000
O O9 0.218198 0.562440 0.739011
O O10 0.291616 0.544235 0.000000
O O11 0.601368 0.163774 0.500000
O O12 0.680206 0.228055 0.707365
O O13 0.548290 0.173105 0.784675
O O14 0.268749 0.180558 0.228606
O O15 0.211627 0.243508 0.000000
O O16 0.931352 0.245882 0.753009
O O17 0.906039 0.363793 0.727896
O O18 0.940692 0.317172 0.000000
O O19 0.072941 0.822478 0.000000
O O20 0.800403 0.366901 0.500000
#
# Coordination Sequence:
#
# PCOD8224718 Si02
#       8
#     8   8   8   8   8   8   8   8
#     4  10  21  37  58  84 114 153 199 241 283 342
#     4   8  14  28  53  85 114 144 183 230 280 327
#     4   9  19  36  58  83 114 155 201 240 277 338
#     4  12  24  37  55  82 117 153 191 241 302 353
#     4  10  18  34  58  83 113 151 193 235 285 347
#     4  11  21  37  60  86 116 152 192 237 290 356
#     4   9  17  31  56  89 118 145 183 233 287 338
#     4  11  22  36  57  86 117 151 191 240 293 344
#
# _framework density 20.031918999999998
#
# number of rings (size 3 to 8) (size 9 to 14) (size 15 to 20)
#    0.000    2.000    1.250    4.500    0.000    2.000 
#    0.000    3.750    0.000    3.750    0.000    2.625 
#    0.000    0.000    0.000    0.000    0.000    0.000 
#
# Total GULP energy -793447.018869 kJ/mol
# GULP energy per Si atom -12397.609670 kJ/mol
# Density = 1.998633 g / cm^3
# Si number density = 20.031919 Si / 1000 Ang^3
#
#
#
# Elastic Constant Matrix: (Units=GPa)
#
#
# Indices 1 2 3 4 5 6 
#
# 1 107.4825 38.4906 18.2041 0.0000 0.0000 0.0000
# 2 38.4906 61.0910 16.5199 0.0000 0.0000 0.0000
# 3 18.2041 16.5199 57.8475 0.0000 0.0000 0.0000
# 4 0.0000 0.0000 0.0000 17.3606 0.0000 0.0000
# 5 0.0000 0.0000 0.0000 0.0000 17.9915 0.0000
# 6 0.0000 0.0000 0.0000 0.0000 0.0000 24.5313
#
#
#
# Elastic Compliance Matrix: (Units=1/GPa)
#
#
# Indices 1 2 3 4 5 6 
#
# 1 0.012181 -0.007194 -0.001779 0.000000 0.000000 0.000000
# 2 -0.007194 0.021987 -0.004015 0.000000 0.000000 0.000000
# 3 -0.001779 -0.004015 0.018993 0.000000 0.000000 0.000000
# 4 0.000000 0.000000 0.000000 0.057602 0.000000 0.000000
# 5 0.000000 0.000000 0.000000 0.000000 0.055582 0.000000
# 6 0.000000 0.000000 0.000000 0.000000 0.000000 0.040764
#
#
# Mechanical properties :
#
#
# Convention : Reuss Voigt Hill
#
# Bulk Modulus (GPa) = 36.78379 41.42781 39.10580
# Shear Modulus (GPa) = 20.64857 22.19045 21.41951
#
# Velocity S-wave (km/s) = 3.21407 3.33191 3.27352
# Velocity P-wave (km/s) = 5.67240 5.96053 5.81825
#
# Compressibility (1/GPa) = 0.02718589
#
# Stress axis : x y z
#
# Youngs Moduli (GPa) = 82.09287 45.48086 52.65012
#
# Poissons Ratio (x) = 0.32718 0.09366
# Poissons Ratio (y) = 0.59056 0.21140
# Poissons Ratio (z) = 0.14604 0.18262
#
# Static dielectric constant tensor:
#      x y z
#    x 3.788330 0.000000 0.000000 
#    y 0.000000 3.594050 0.000000 
#    z 0.000000 0.000000 3.276580 
# 
# 
# High freq. dielectric constant tensor:
#      x y z
#    x 1.790860 0.000000 0.000000 
#    y 0.000000 1.767430 0.000000 
#    z 0.000000 0.000000 1.746280 
# 
# From -- ./inp_files/6705.got.cif
#   From: 2010.03.12/outbox.cif.g09.slc.cpg/sg55_4_cif.got.tgz:6705.got - 2010.04.16 15:19:21.
