data_PCOD8224994
_publ_section_title
;
Structure prediction by ZEFSAII (Michael W. Deem and Ramdas Pophale) SiO2 
 PCOD8224994
Probable space group: P B A M
;
_chemical_formula_sum "Si O2"
_cell_formula_units_Z 64
_cell_length_a 14.707555
_cell_length_b 25.274382
_cell_length_c 9.822379
_cell_angle_alpha 90.000000
_cell_angle_beta 90.000000
_cell_angle_gamma 90.000000
_cell_volume 3651.217580
_symmetry_space_group_name_H-M "P B A M"
_symmetry_group_IT_number 55
_symmetry_cell_setting 'orthorhombic'
loop_
_space_group_symop_operation_xyz
x,y,z
-x,-y,z
1/2+x,1/2-y,-z
1/2-x,1/2+y,-z
-x,-y,-z
x,y,-z
1/2-x,1/2+y,z
1/2+x,1/2-y,z
loop_
_atom_site_type_symbol
_atom_site_label
_atom_site_fract_x
_atom_site_fract_y
_atom_site_fract_z
Si Si1 0.905337 0.290463 0.162169
Si Si2 0.776216 0.974581 0.658015
Si Si3 0.840750 0.085327 0.346086
Si Si4 0.392163 0.660857 0.148944
Si Si5 0.107393 0.278137 0.160044
Si Si6 0.200972 0.815921 0.162578
Si Si7 0.957948 0.916638 0.651293
Si Si8 0.700264 0.892439 0.848425
O O1 0.854139 0.236738 0.210460
O O2 0.858392 0.344396 0.216048
O O3 0.008468 0.292944 0.221213
O O4 0.901130 0.291211 0.000000
O O5 0.754241 0.963559 0.500000
O O6 0.878844 0.956737 0.696330
O O7 0.700899 0.943484 0.748478
O O8 0.771259 0.037494 0.690146
O O9 0.821709 0.106155 0.500000
O O10 0.836055 0.132671 0.238926
O O11 0.941441 0.058424 0.341364
O O12 0.367716 0.718694 0.202814
O O13 0.462381 0.634452 0.251591
O O14 0.302182 0.627023 0.138658
O O15 0.439590 0.664479 0.000000
O O16 0.193004 0.312708 0.209956
O O17 0.099917 0.283942 0.000000
O O18 0.192179 0.823404 0.000000
O O19 0.936224 0.896020 0.500000
O O20 0.664833 0.908708 0.000000
#
# Coordination Sequence:
#
# PCOD8224994 Si02
#       8
#     8   8   8   8   8   8   8   8
#     4   9  16  28  48  73  99 126 155 193 238 281
#     4   9  18  32  49  67  91 127 163 195 236 284
#     4  10  20  33  47  66  96 129 159 194 239 285
#     4   9  15  26  44  68  96 123 152 190 231 273
#     4   9  16  27  46  70  97 128 158 187 231 287
#     4  10  19  32  50  73  99 128 161 193 231 284
#     4   9  17  29  46  68  93 124 160 192 229 284
#     4   9  16  28  47  70  95 120 154 197 235 271
#
# _framework density 17.528399
#
# number of rings (size 3 to 8) (size 9 to 14) (size 15 to 20)
#    0.000    2.750    1.250    1.125    0.000    3.500 
#    0.000    1.250    0.000    6.750    0.000    5.250 
#    0.000    0.000    0.000    0.000    0.000    0.000 
#
# Total GULP energy -792860.979023 kJ/mol
# GULP energy per Si atom -12388.452797 kJ/mol
# Density = 1.748850 g / cm^3
# Si number density = 17.528399 Si / 1000 Ang^3
#
#
#
# Elastic Constant Matrix: (Units=GPa)
#
#
# Indices 1 2 3 4 5 6 
#
# 1 71.3784 24.3415 15.7283 0.0000 0.0000 0.0000
# 2 24.3415 62.0684 25.0999 0.0000 0.0000 0.0000
# 3 15.7283 25.0999 40.6495 0.0000 0.0000 0.0000
# 4 0.0000 0.0000 0.0000 10.6042 0.0000 0.0000
# 5 0.0000 0.0000 0.0000 0.0000 13.4262 0.0000
# 6 0.0000 0.0000 0.0000 0.0000 0.0000 20.4671
#
#
#
# Elastic Compliance Matrix: (Units=1/GPa)
#
#
# Indices 1 2 3 4 5 6 
#
# 1 0.016475 -0.005176 -0.003179 0.000000 0.000000 0.000000
# 2 -0.005176 0.023099 -0.012260 0.000000 0.000000 0.000000
# 3 -0.003179 -0.012260 0.033401 0.000000 0.000000 0.000000
# 4 0.000000 0.000000 0.000000 0.094302 0.000000 0.000000
# 5 0.000000 0.000000 0.000000 0.000000 0.074481 0.000000
# 6 0.000000 0.000000 0.000000 0.000000 0.000000 0.048859
#
#
# Mechanical properties :
#
#
# Convention : Reuss Voigt Hill
#
# Bulk Modulus (GPa) = 31.50058 33.82619 32.66338
# Shear Modulus (GPa) = 14.60156 16.16127 15.38142
#
# Velocity S-wave (km/s) = 2.88935 3.03975 2.96550
# Velocity P-wave (km/s) = 5.39827 5.62671 5.51367
#
# Compressibility (1/GPa) = 0.03174545
#
# Stress axis : x y z
#
# Youngs Moduli (GPa) = 60.69686 43.29198 29.93921
#
# Poissons Ratio (x) = 0.22406 0.09517
# Poissons Ratio (y) = 0.31414 0.36707
# Poissons Ratio (z) = 0.19295 0.53078
#
# Static dielectric constant tensor:
#      x y z
#    x 3.327410 0.000000 0.000000 
#    y 0.000000 3.208840 0.000000 
#    z 0.000000 0.000000 3.190380 
# 
# 
# High freq. dielectric constant tensor:
#      x y z
#    x 1.659420 0.000000 0.000000 
#    y 0.000000 1.668870 0.000000 
#    z 0.000000 0.000000 1.646650 
# 
# From -- ./inp_files/6601.got.cif
#   From: 2010.03.12/outbox.cif.g09.slc.cpg/sg55_4_cif.got.tgz:6601.got - 2010.04.16 15:19:21.
