data_PCOD8224146
_publ_section_title
;
Structure prediction by ZEFSAII (Michael W. Deem and Ramdas Pophale) SiO2 
 PCOD8224146
Probable space group: P C C A
;
_chemical_formula_sum "Si O2"
_cell_formula_units_Z 40
_cell_length_a 19.321538
_cell_length_b 4.931856
_cell_length_c 18.859565
_cell_angle_alpha 90.000000
_cell_angle_beta 90.000000
_cell_angle_gamma 90.000000
_cell_volume 1797.147622
_symmetry_space_group_name_H-M "P C C A"
_symmetry_group_IT_number 54
_symmetry_cell_setting 'orthorhombic'
loop_
_space_group_symop_operation_xyz
x,y,z
1/2-x,-y,z
1/2+x,-y,1/2-z
-x,y,1/2-z
-x,-y,-z
1/2+x,y,-z
1/2-x,y,1/2+z
x,-y,1/2+z
loop_
_atom_site_type_symbol
_atom_site_label
_atom_site_fract_x
_atom_site_fract_y
_atom_site_fract_z
Si Si1 0.324403 0.882090 0.303650
Si Si2 0.116696 0.832742 0.652650
Si Si3 0.703531 0.245447 0.983163
Si Si4 0.024689 0.665164 0.169614
Si Si5 0.119740 0.632425 0.379825
O O1 0.333767 0.879749 0.219610
O O2 0.334490 0.585701 0.337124
O O3 0.250000 0.000000 0.324009
O O4 0.380038 0.082817 0.338131
O O5 0.163010 0.876090 0.583541
O O6 0.089558 0.527164 0.654934
O O7 0.050796 0.032583 0.652700
O O8 0.750000 0.500000 0.959864
O O9 0.750000 0.000000 0.014471
O O10 0.648510 0.342608 0.041265
O O11 0.000000 0.634311 0.250000
O O12 0.962144 0.568148 0.118068
#
# Coordination Sequence:
#
# PCOD8224146 Si02
#       5
#     8   8   8   8   8
#     4  12  23  40  66  99 128 176 230 272 330 402
#     4  12  25  43  71  98 136 180 221 283 342 394
#     4  12  27  48  66  98 141 178 223 283 338 404
#     4  12  23  44  70 104 137 172 228 287 331 402
#     4  12  25  42  70  96 137 178 221 279 337 395
#
# _framework density 22.257494000000001
#
# number of rings (size 3 to 8) (size 9 to 14) (size 15 to 20)
#    0.000    0.000    4.000    7.200    0.000    3.200 
#    0.000    0.000    0.000    0.000    0.000    0.000 
#    0.000    0.000    0.000    0.000    0.000    0.000 
#
# Total GULP energy -496338.019833 kJ/mol
# GULP energy per Si atom -12408.450496 kJ/mol
# Density = 2.220684 g / cm^3
# Si number density = 22.257494 Si / 1000 Ang^3
#
#
#
# Elastic Constant Matrix: (Units=GPa)
#
#
# Indices 1 2 3 4 5 6 
#
# 1 73.7014 21.3016 28.6569 0.0000 0.0000 0.0000
# 2 21.3016 92.4465 23.3128 0.0000 0.0000 0.0000
# 3 28.6569 23.3128 127.0146 0.0000 0.0000 0.0000
# 4 0.0000 0.0000 0.0000 24.6085 0.0000 0.0000
# 5 0.0000 0.0000 0.0000 0.0000 27.8551 0.0000
# 6 0.0000 0.0000 0.0000 0.0000 0.0000 44.1683
#
#
#
# Elastic Compliance Matrix: (Units=1/GPa)
#
#
# Indices 1 2 3 4 5 6 
#
# 1 0.015548 -0.002829 -0.002989 0.000000 0.000000 0.000000
# 2 -0.002829 0.011857 -0.001538 0.000000 0.000000 0.000000
# 3 -0.002989 -0.001538 0.008830 0.000000 0.000000 0.000000
# 4 0.000000 0.000000 0.000000 0.040636 0.000000 0.000000
# 5 0.000000 0.000000 0.000000 0.000000 0.035900 0.000000
# 6 0.000000 0.000000 0.000000 0.000000 0.000000 0.022641
#
#
# Mechanical properties :
#
#
# Convention : Reuss Voigt Hill
#
# Bulk Modulus (GPa) = 46.46135 48.85613 47.65874
# Shear Modulus (GPa) = 31.78699 33.98580 32.88639
#
# Velocity S-wave (km/s) = 3.78318 3.91184 3.84805
# Velocity P-wave (km/s) = 6.32480 6.51164 6.41890
#
# Compressibility (1/GPa) = 0.02152327
#
# Stress axis : x y z
#
# Youngs Moduli (GPa) = 64.31714 84.34016 113.25406
#
# Poissons Ratio (x) = 0.23859 0.33848
# Poissons Ratio (y) = 0.18195 0.17418
# Poissons Ratio (z) = 0.19222 0.12971
#
# Static dielectric constant tensor:
#      x y z
#    x 4.338750 0.000000 0.000000 
#    y 0.000000 4.139080 0.000000 
#    z 0.000000 0.000000 3.824270 
# 
# 
# High freq. dielectric constant tensor:
#      x y z
#    x 1.885810 0.000000 0.000000 
#    y 0.000000 1.892310 0.000000 
#    z 0.000000 0.000000 1.870480 
# 
# From -- ./inp_files/18342.got.cif
#   From: 2010.03.12/outbox.cif.g09.slc.cpg/sg54_10_cif.got.tgz:18342.got - 2010.04.16 15:00:50.
