data_PCOD8224931
_publ_section_title
;
Structure prediction by ZEFSAII (Michael W. Deem and Ramdas Pophale) SiO2 
 PCOD8224931
Probable space group: P B A M
;
_chemical_formula_sum "Si O2"
_cell_formula_units_Z 52
_cell_length_a 8.101164
_cell_length_b 22.384606
_cell_length_c 15.426674
_cell_angle_alpha 90.000000
_cell_angle_beta 90.000000
_cell_angle_gamma 90.000000
_cell_volume 2797.494109
_symmetry_space_group_name_H-M "P B A M"
_symmetry_group_IT_number 55
_symmetry_cell_setting 'orthorhombic'
loop_
_space_group_symop_operation_xyz
x,y,z
-x,-y,z
1/2+x,1/2-y,-z
1/2-x,1/2+y,-z
-x,-y,-z
x,y,-z
1/2-x,1/2+y,z
1/2+x,1/2-y,z
loop_
_atom_site_type_symbol
_atom_site_label
_atom_site_fract_x
_atom_site_fract_y
_atom_site_fract_z
Si Si1 0.131046 0.662870 0.902267
Si Si2 0.829926 0.727433 0.168488
Si Si3 0.157710 0.891367 0.598895
Si Si4 0.258603 0.588880 0.755847
Si Si5 0.500000 0.500000 0.701668
Si Si6 0.471491 0.313582 0.264962
Si Si7 0.975021 0.430669 0.401009
O O1 0.264246 0.714492 0.882278
O O2 0.146032 0.604711 0.839115
O O3 0.947101 0.689276 0.893611
O O4 0.157229 0.640252 0.000000
O O5 0.682479 0.684996 0.198782
O O6 0.934720 0.750017 0.253896
O O7 0.105126 0.890834 0.500000
O O8 0.062770 0.946519 0.641725
O O9 0.097652 0.827935 0.639099
O O10 0.353415 0.896455 0.611479
O O11 0.345028 0.523334 0.759819
O O12 0.407137 0.634608 0.762055
O O13 0.156298 0.596618 0.666364
O O14 0.909424 0.423004 0.500000
O O15 0.000000 0.500000 0.379285
#
# Coordination Sequence:
#
# PCOD8224931 Si02
#       7
#     8   8   8   8   4   8   8
#     4  10  19  33  56  83 106 135 175 218 267 319
#     4   9  18  35  55  77 106 135 174 219 265 317
#     4  10  19  31  50  77 105 136 178 221 261 312
#     4  10  20  33  52  79 109 141 174 221 267 312
#     4  10  19  32  49  74 104 144 176 214 266 306
#     4   9  19  33  53  78 104 141 176 214 270 317
#     4  10  19  32  52  79 105 137 176 219 259 303
#
# _framework density 18.588065
#
# number of rings (size 3 to 8) (size 9 to 14) (size 15 to 20)
#    0.000    2.308    1.538    1.615    0.000    2.462 
#    0.000    1.923    0.000    6.000    0.000    0.000 
#    0.000    0.000    0.000    0.000    0.000    0.000 
#
# Total GULP energy -644361.620315 kJ/mol
# GULP energy per Si atom -12391.569621 kJ/mol
# Density = 1.854576 g / cm^3
# Si number density = 18.588065 Si / 1000 Ang^3
#
#
#
# Elastic Constant Matrix: (Units=GPa)
#
#
# Indices 1 2 3 4 5 6 
#
# 1 96.0733 25.2158 50.7791 0.0000 0.0000 0.0000
# 2 25.2158 36.9930 51.7969 0.0000 0.0000 0.0000
# 3 50.7791 51.7969 129.7145 0.0000 0.0000 0.0000
# 4 0.0000 0.0000 0.0000 23.9252 0.0000 0.0000
# 5 0.0000 0.0000 0.0000 0.0000 19.4500 0.0000
# 6 0.0000 0.0000 0.0000 0.0000 0.0000 35.0627
#
#
#
# Elastic Compliance Matrix: (Units=1/GPa)
#
#
# Indices 1 2 3 4 5 6 
#
# 1 0.013387 -0.004054 -0.003622 0.000000 0.000000 0.000000
# 2 -0.004054 0.062541 -0.023386 0.000000 0.000000 0.000000
# 3 -0.003622 -0.023386 0.018466 0.000000 0.000000 0.000000
# 4 0.000000 0.000000 0.000000 0.041797 0.000000 0.000000
# 5 0.000000 0.000000 0.000000 0.000000 0.051414 0.000000
# 6 0.000000 0.000000 0.000000 0.000000 0.000000 0.028520
#
#
# Mechanical properties :
#
#
# Convention : Reuss Voigt Hill
#
# Bulk Modulus (GPa) = 30.98949 57.59605 44.29277
# Shear Modulus (GPa) = 17.30075 24.68686 20.99380
#
# Velocity S-wave (km/s) = 3.05412 3.64827 3.36434
# Velocity P-wave (km/s) = 5.39859 6.98565 6.24276
#
# Compressibility (1/GPa) = 0.03226900
#
# Stress axis : x y z
#
# Youngs Moduli (GPa) = 74.69936 15.98961 54.15473
#
# Poissons Ratio (x) = 0.06482 0.19614
# Poissons Ratio (y) = 0.30282 1.26649
# Poissons Ratio (z) = 0.27055 0.37394
#
# Static dielectric constant tensor:
#      x y z
#    x 3.725890 0.000000 0.000000 
#    y 0.000000 3.548980 0.000000 
#    z 0.000000 0.000000 3.414040 
# 
# 
# High freq. dielectric constant tensor:
#      x y z
#    x 1.742630 0.000000 0.000000 
#    y 0.000000 1.696500 0.000000 
#    z 0.000000 0.000000 1.698970 
# 
# From -- ./inp_files/17752.got.cif
#   From: 2010.03.12/outbox.cif.g09.slc.cpg/sg55_9_cif.got.tgz:17752.got - 2010.04.16 15:19:21.
