data_PCOD8224403
_publ_section_title
;
Structure prediction by ZEFSAII (Michael W. Deem and Ramdas Pophale) SiO2 
 PCOD8224403
Probable space group: P B A M
;
_chemical_formula_sum "Si O2"
_cell_formula_units_Z 56
_cell_length_a 13.695935
_cell_length_b 29.101228
_cell_length_c 8.901633
_cell_angle_alpha 90.000000
_cell_angle_beta 90.000000
_cell_angle_gamma 90.000000
_cell_volume 3547.910754
_symmetry_space_group_name_H-M "P B A M"
_symmetry_group_IT_number 55
_symmetry_cell_setting 'orthorhombic'
loop_
_space_group_symop_operation_xyz
x,y,z
-x,-y,z
1/2+x,1/2-y,-z
1/2-x,1/2+y,-z
-x,-y,-z
x,y,-z
1/2-x,1/2+y,z
1/2+x,1/2-y,z
loop_
_atom_site_type_symbol
_atom_site_label
_atom_site_fract_x
_atom_site_fract_y
_atom_site_fract_z
Si Si1 0.215133 0.180468 0.324483
Si Si2 0.615840 0.502781 0.831083
Si Si3 0.108475 0.905092 0.674597
Si Si4 0.619966 0.410825 0.675333
Si Si5 0.699376 0.682663 0.822429
Si Si6 0.877664 0.726168 0.322843
Si Si7 0.902544 0.267361 0.675371
O O1 0.196686 0.175941 0.500000
O O2 0.180451 0.132148 0.254265
O O3 0.149282 0.222650 0.264867
O O4 0.328505 0.190919 0.286459
O O5 0.500000 0.500000 0.829688
O O6 0.649568 0.545997 0.731487
O O7 0.658298 0.456065 0.760146
O O8 0.656036 0.508351 0.000000
O O9 0.133291 0.899603 0.500000
O O10 0.162629 0.866340 0.768155
O O11 0.993466 0.900979 0.705369
O O12 0.640098 0.418559 0.500000
O O13 0.808971 0.689742 0.760488
O O14 0.625976 0.721797 0.764637
O O15 0.701548 0.683934 0.000000
O O16 0.858269 0.721814 0.500000
O O17 0.989586 0.715969 0.279557
O O18 0.896990 0.254301 0.500000
#
# Coordination Sequence:
#
# PCOD8224403 Si02
#       7
#     8   8   8   8   8   8   8
#     4   8  14  25  43  66  87 110 145 183 215 250
#     4   9  17  28  41  61  89 116 143 179 222 263
#     4  10  18  29  45  63  86 119 155 184 214 259
#     4   9  16  27  44  65  89 117 147 178 214 261
#     4  11  21  30  43  66  94 120 147 182 226 271
#     4   9  17  31  48  64  86 118 155 189 218 254
#     4   9  17  31  49  66  87 118 154 189 220 255
#
# _framework density 15.783937999999999
#
# number of rings (size 3 to 8) (size 9 to 14) (size 15 to 20)
#    0.000    2.714    0.000    3.857    0.000    5.143 
#    0.000    2.857    0.000    0.000    0.000    1.000 
#    0.000    8.000    0.000    0.000    0.000    0.000 
#
# Total GULP energy -694281.998659 kJ/mol
# GULP energy per Si atom -12397.892833 kJ/mol
# Density = 1.574801 g / cm^3
# Si number density = 15.783938 Si / 1000 Ang^3
#
#
#
# Elastic Constant Matrix: (Units=GPa)
#
#
# Indices 1 2 3 4 5 6 
#
# 1 88.8174 45.8593 39.9465 0.0000 0.0000 0.0000
# 2 45.8593 112.0507 42.3100 0.0000 0.0000 0.0000
# 3 39.9465 42.3100 71.2254 0.0000 0.0000 0.0000
# 4 0.0000 0.0000 0.0000 19.4465 0.0000 0.0000
# 5 0.0000 0.0000 0.0000 0.0000 12.3724 0.0000
# 6 0.0000 0.0000 0.0000 0.0000 0.0000 21.4116
#
#
#
# Elastic Compliance Matrix: (Units=1/GPa)
#
#
# Indices 1 2 3 4 5 6 
#
# 1 0.016453 -0.004189 -0.006739 0.000000 0.000000 0.000000
# 2 -0.004189 0.012572 -0.005119 0.000000 0.000000 0.000000
# 3 -0.006739 -0.005119 0.020860 0.000000 0.000000 0.000000
# 4 0.000000 0.000000 0.000000 0.051423 0.000000 0.000000
# 5 0.000000 0.000000 0.000000 0.000000 0.080825 0.000000
# 6 0.000000 0.000000 0.000000 0.000000 0.000000 0.046704
#
#
# Mechanical properties :
#
#
# Convention : Reuss Voigt Hill
#
# Bulk Modulus (GPa) = 56.20730 58.70280 57.45505
# Shear Modulus (GPa) = 18.73635 20.24462 19.49048
#
# Velocity S-wave (km/s) = 3.44910 3.58524 3.51783
# Velocity P-wave (km/s) = 7.17980 7.37637 7.27874
#
# Compressibility (1/GPa) = 0.01779128
#
# Stress axis : x y z
#
# Youngs Moduli (GPa) = 60.77916 79.54333 47.93831
#
# Poissons Ratio (x) = 0.33321 0.32306
# Poissons Ratio (y) = 0.25461 0.24538
# Poissons Ratio (z) = 0.40960 0.40715
#
# Static dielectric constant tensor:
#      x y z
#    x 2.923800 0.000000 0.000000 
#    y 0.000000 3.123730 0.000000 
#    z 0.000000 0.000000 2.927590 
# 
# 
# High freq. dielectric constant tensor:
#      x y z
#    x 1.576860 0.000000 0.000000 
#    y 0.000000 1.604140 0.000000 
#    z 0.000000 0.000000 1.598150 
# 
# From -- ./inp_files/6848.got.cif
#   From: 2010.03.12/outbox.cif.g09.slc.cpg/sg55_4_cif.got.tgz:6848.got - 2010.04.16 15:19:21.
