data_PCOD8224822
_publ_section_title
;
Structure prediction by ZEFSAII (Michael W. Deem and Ramdas Pophale) SiO2 
 PCOD8224822
Probable space group: P B A M
;
_chemical_formula_sum "Si O2"
_cell_formula_units_Z 48
_cell_length_a 23.975102
_cell_length_b 13.525107
_cell_length_c 8.981430
_cell_angle_alpha 90.000000
_cell_angle_beta 90.000000
_cell_angle_gamma 90.000000
_cell_volume 2912.370763
_symmetry_space_group_name_H-M "P B A M"
_symmetry_group_IT_number 55
_symmetry_cell_setting 'orthorhombic'
loop_
_space_group_symop_operation_xyz
x,y,z
-x,-y,z
1/2+x,1/2-y,-z
1/2-x,1/2+y,-z
-x,-y,-z
x,y,-z
1/2-x,1/2+y,z
1/2+x,1/2-y,z
loop_
_atom_site_type_symbol
_atom_site_label
_atom_site_fract_x
_atom_site_fract_y
_atom_site_fract_z
Si Si1 0.667292 0.200171 0.174097
Si Si2 0.229047 0.101173 0.173488
Si Si3 0.936539 0.615083 0.323509
Si Si4 0.171531 0.704221 0.326181
Si Si5 0.731773 0.597622 0.325911
Si Si6 0.059965 0.607746 0.324716
O O1 0.684881 0.312659 0.208451
O O2 0.605481 0.187124 0.237976
O O3 0.708862 0.124360 0.254586
O O4 0.669149 0.176992 0.000000
O O5 0.289551 0.130702 0.234352
O O6 0.207814 0.002623 0.255321
O O7 0.234310 0.079480 0.000000
O O8 0.928261 0.628291 0.500000
O O9 0.925333 0.502676 0.269370
O O10 0.999210 0.644318 0.269641
O O11 0.179895 0.679937 0.500000
O O12 0.186254 0.817729 0.291120
O O13 0.107925 0.684326 0.274173
O O14 0.741288 0.582946 0.500000
O O15 0.055716 0.600437 0.500000
#
# Coordination Sequence:
#
# PCOD8224822 Si02
#       6
#     8   8   8   8   8   8
#     4  10  20  32  46  67  95 123 151 185 227 272
#     4  10  20  32  46  66  94 124 151 185 229 272
#     4   9  16  28  48  70  92 120 151 183 224 273
#     4   9  17  30  48  69  93 120 151 187 227 273
#     4  10  19  30  47  69  91 119 155 190 224 268
#     4   8  15  28  46  69  94 118 146 184 229 272
#
# _framework density 16.481418999999999
#
# number of rings (size 3 to 8) (size 9 to 14) (size 15 to 20)
#    0.000    2.667    0.000    3.500    0.000    4.000 
#    0.000    2.500    0.000    1.000    0.000    7.000 
#    0.000    0.000    0.000    0.000    0.000    0.000 
#
# Total GULP energy -595146.398984 kJ/mol
# GULP energy per Si atom -12398.883312 kJ/mol
# Density = 1.644391 g / cm^3
# Si number density = 16.481419 Si / 1000 Ang^3
#
#
#
# Elastic Constant Matrix: (Units=GPa)
#
#
# Indices 1 2 3 4 5 6 
#
# 1 135.7398 63.6968 43.9307 0.0000 0.0000 0.0000
# 2 63.6968 103.3391 47.2028 0.0000 0.0000 0.0000
# 3 43.9307 47.2028 66.9132 0.0000 0.0000 0.0000
# 4 0.0000 0.0000 0.0000 26.2658 0.0000 0.0000
# 5 0.0000 0.0000 0.0000 0.0000 15.0120 0.0000
# 6 0.0000 0.0000 0.0000 0.0000 0.0000 24.2503
#
#
#
# Elastic Compliance Matrix: (Units=1/GPa)
#
#
# Indices 1 2 3 4 5 6 
#
# 1 0.010914 -0.005096 -0.003570 0.000000 0.000000 0.000000
# 2 -0.005096 0.016657 -0.008405 0.000000 0.000000 0.000000
# 3 -0.003570 -0.008405 0.023218 0.000000 0.000000 0.000000
# 4 0.000000 0.000000 0.000000 0.038072 0.000000 0.000000
# 5 0.000000 0.000000 0.000000 0.000000 0.066613 0.000000
# 6 0.000000 0.000000 0.000000 0.000000 0.000000 0.041237
#
#
# Mechanical properties :
#
#
# Convention : Reuss Voigt Hill
#
# Bulk Modulus (GPa) = 60.07324 68.40585 64.23955
# Shear Modulus (GPa) = 21.15037 23.18309 22.16673
#
# Velocity S-wave (km/s) = 3.58618 3.75456 3.67134
# Velocity P-wave (km/s) = 7.32638 7.77114 7.55203
#
# Compressibility (1/GPa) = 0.01664635
#
# Stress axis : x y z
#
# Youngs Moduli (GPa) = 91.62495 60.03367 43.07078
#
# Poissons Ratio (x) = 0.30596 0.15377
# Poissons Ratio (y) = 0.46697 0.36199
# Poissons Ratio (z) = 0.32712 0.50456
#
# Static dielectric constant tensor:
#      x y z
#    x 3.229040 0.000000 0.000000 
#    y 0.000000 3.089220 0.000000 
#    z 0.000000 0.000000 3.005590 
# 
# 
# High freq. dielectric constant tensor:
#      x y z
#    x 1.626900 0.000000 0.000000 
#    y 0.000000 1.624350 0.000000 
#    z 0.000000 0.000000 1.627770 
# 
# From -- ./inp_files/4026.got.cif
#   From: 2010.03.12/outbox.cif.g09.slc.cpg/sg55_3_cif.got.tgz:4026.got - 2010.04.16 15:19:21.
