data_PCOD8224770
_publ_section_title
;
Structure prediction by ZEFSAII (Michael W. Deem and Ramdas Pophale) SiO2 
 PCOD8224770
Probable space group: P B A M
;
_chemical_formula_sum "Si O2"
_cell_formula_units_Z 64
_cell_length_a 26.031124
_cell_length_b 18.294048
_cell_length_c 8.930781
_cell_angle_alpha 90.000000
_cell_angle_beta 90.000000
_cell_angle_gamma 90.000000
_cell_volume 4252.968587
_symmetry_space_group_name_H-M "P B A M"
_symmetry_group_IT_number 55
_symmetry_cell_setting 'orthorhombic'
loop_
_space_group_symop_operation_xyz
x,y,z
-x,-y,z
1/2+x,1/2-y,-z
1/2-x,1/2+y,-z
-x,-y,-z
x,y,-z
1/2-x,1/2+y,z
1/2+x,1/2-y,z
loop_
_atom_site_type_symbol
_atom_site_label
_atom_site_fract_x
_atom_site_fract_y
_atom_site_fract_z
Si Si1 0.853116 0.667905 0.174675
Si Si2 0.802256 0.207927 0.331515
Si Si3 0.058348 0.416238 0.672292
Si Si4 0.849843 0.339701 0.177357
Si Si5 0.748540 0.082224 0.822354
Si Si6 0.559536 0.916623 0.326288
Si Si7 0.241571 0.573149 0.321773
Si Si8 0.695943 0.292842 0.664869
O O1 0.906611 0.638464 0.235082
O O2 0.806535 0.615462 0.225808
O O3 0.844023 0.751262 0.228650
O O4 0.856968 0.671049 0.000000
O O5 0.821963 0.190766 0.500000
O O6 0.842979 0.258677 0.245011
O O7 0.794416 0.133374 0.238574
O O8 0.749255 0.250467 0.339113
O O9 0.073015 0.407147 0.500000
O O10 0.068392 0.499478 0.722034
O O11 0.999438 0.394605 0.700590
O O12 0.906832 0.365517 0.219736
O O13 0.810277 0.397946 0.245915
O O14 0.842509 0.336833 0.000000
O O15 0.755280 0.005352 0.742085
O O16 0.753380 0.074019 0.000000
O O17 0.574572 0.905556 0.500000
O O18 0.232791 0.570897 0.500000
O O19 0.290152 0.625268 0.280054
O O20 0.671123 0.294946 0.500000
#
# Coordination Sequence:
#
# PCOD8224770 Si02
#       8
#     8   8   8   8   8   8   8   8
#     4  10  19  28  41  61  85 112 141 172 212 255
#     4   9  17  30  45  60  81 112 145 176 208 250
#     4   9  18  31  46  61  81 110 145 181 212 246
#     4  11  20  29  43  63  86 113 143 179 219 255
#     4  10  19  29  42  64  90 114 141 176 215 254
#     4   9  18  32  46  61  81 110 146 180 213 251
#     4  10  19  30  44  62  84 114 148 178 209 253
#     4   8  16  29  43  58  78 107 143 176 206 242
#
# _framework density 15.048313
#
# number of rings (size 3 to 8) (size 9 to 14) (size 15 to 20)
#    0.000    2.500    0.000    4.875    0.000    8.000 
#    0.000    1.250    0.000    0.000    0.000    0.000 
#    0.000    1.000    0.000   10.500    0.000    5.000 
#
# Total GULP energy -793500.168025 kJ/mol
# GULP energy per Si atom -12398.440125 kJ/mol
# Density = 1.501406 g / cm^3
# Si number density = 15.048313 Si / 1000 Ang^3
#
#
#
# Elastic Constant Matrix: (Units=GPa)
#
#
# Indices 1 2 3 4 5 6 
#
# 1 60.5018 45.9026 35.8365 0.0000 0.0000 0.0000
# 2 45.9026 101.7135 47.3012 0.0000 0.0000 0.0000
# 3 35.8365 47.3012 81.0579 0.0000 0.0000 0.0000
# 4 0.0000 0.0000 0.0000 23.6745 0.0000 0.0000
# 5 0.0000 0.0000 0.0000 0.0000 20.6317 0.0000
# 6 0.0000 0.0000 0.0000 0.0000 0.0000 25.6182
#
#
#
# Elastic Compliance Matrix: (Units=1/GPa)
#
#
# Indices 1 2 3 4 5 6 
#
# 1 0.027600 -0.009307 -0.006771 0.000000 0.000000 0.000000
# 2 -0.009307 0.016632 -0.005591 0.000000 0.000000 0.000000
# 3 -0.006771 -0.005591 0.018593 0.000000 0.000000 0.000000
# 4 0.000000 0.000000 0.000000 0.042239 0.000000 0.000000
# 5 0.000000 0.000000 0.000000 0.000000 0.048469 0.000000
# 6 0.000000 0.000000 0.000000 0.000000 0.000000 0.039035
#
#
# Mechanical properties :
#
#
# Convention : Reuss Voigt Hill
#
# Bulk Modulus (GPa) = 51.31605 55.70598 53.51102
# Shear Modulus (GPa) = 20.62690 21.60040 21.11365
#
# Velocity S-wave (km/s) = 3.70633 3.79278 3.74980
# Velocity P-wave (km/s) = 7.24505 7.50191 7.37460
#
# Compressibility (1/GPa) = 0.01948708
#
# Stress axis : x y z
#
# Youngs Moduli (GPa) = 36.23138 60.12658 53.78369
#
# Poissons Ratio (x) = 0.55959 0.36419
# Poissons Ratio (y) = 0.33720 0.30069
# Poissons Ratio (z) = 0.24534 0.33615
#
# Static dielectric constant tensor:
#      x y z
#    x 2.698370 0.000000 0.000000 
#    y 0.000000 2.996830 0.000000 
#    z 0.000000 0.000000 2.977640 
# 
# 
# High freq. dielectric constant tensor:
#      x y z
#    x 1.539830 0.000000 0.000000 
#    y 0.000000 1.567490 0.000000 
#    z 0.000000 0.000000 1.588240 
# 
# From -- ./inp_files/8162.got.cif
#   From: 2010.03.12/outbox.cif.g09.slc.cpg/sg55_5_cif.got.tgz:8162.got - 2010.04.16 15:19:21.
