data_PCOD8224350
_publ_section_title
;
Structure prediction by ZEFSAII (Michael W. Deem and Ramdas Pophale) SiO2 
 PCOD8224350
Probable space group: P B A M
;
_chemical_formula_sum "Si O2"
_cell_formula_units_Z 64
_cell_length_a 33.894996
_cell_length_b 13.598933
_cell_length_c 9.412774
_cell_angle_alpha 90.000000
_cell_angle_beta 90.000000
_cell_angle_gamma 90.000000
_cell_volume 4338.684322
_symmetry_space_group_name_H-M "P B A M"
_symmetry_group_IT_number 55
_symmetry_cell_setting 'orthorhombic'
loop_
_space_group_symop_operation_xyz
x,y,z
-x,-y,z
1/2+x,1/2-y,-z
1/2-x,1/2+y,-z
-x,-y,-z
x,y,-z
1/2-x,1/2+y,z
1/2+x,1/2-y,z
loop_
_atom_site_type_symbol
_atom_site_label
_atom_site_fract_x
_atom_site_fract_y
_atom_site_fract_z
Si Si1 0.043254 0.117467 0.660360
Si Si2 0.264316 0.892832 0.337126
Si Si3 0.382503 0.617317 0.832777
Si Si4 0.229355 0.614614 0.663515
Si Si5 0.802339 0.211082 0.832316
Si Si6 0.616402 0.609264 0.164336
Si Si7 0.543448 0.616139 0.659242
Si Si8 0.812690 0.794951 0.339105
O O1 0.052229 0.153566 0.500000
O O2 0.076668 0.158276 0.766236
O O3 0.999748 0.155182 0.709265
O O4 0.043267 0.000665 0.665422
O O5 0.249012 0.887833 0.500000
O O6 0.228471 0.865125 0.234609
O O7 0.300716 0.818662 0.315523
O O8 0.279535 0.001549 0.299375
O O9 0.375763 0.503572 0.790714
O O10 0.346821 0.680360 0.770716
O O11 0.384107 0.633753 0.000000
O O12 0.219388 0.639976 0.500000
O O13 0.202115 0.681042 0.764315
O O14 0.275232 0.636171 0.693786
O O15 0.845801 0.173268 0.795160
O O16 0.794847 0.216565 0.000000
O O17 0.578583 0.656569 0.242609
O O18 0.606320 0.614566 0.000000
O O19 0.551684 0.653011 0.500000
O O20 0.827616 0.812607 0.500000
#
# Coordination Sequence:
#
# PCOD8224350 Si02
#       8
#     8   8   8   8   8   8   8   8
#     4   8  14  25  38  54  77 103 133 167 200 233
#     4   9  18  32  47  61  79 106 140 175 210 245
#     4  10  18  26  38  57  81 110 140 166 195 235
#     4   9  18  32  47  61  79 106 140 175 209 245
#     4  10  19  29  42  62  86 110 137 169 206 246
#     4   9  18  28  37  55  84 112 136 165 199 235
#     4   8  14  24  39  56  74 102 137 167 196 233
#     4   9  17  28  42  60  80 103 132 168 207 240
#
# _framework density 14.751016
#
# number of rings (size 3 to 8) (size 9 to 14) (size 15 to 20)
#    0.000    3.000    0.000    3.000    0.000    4.500 
#    0.000    2.500    0.000    0.000    0.000    0.000 
#    0.000    1.000    0.000   11.250    0.000    6.125 
#
# Total GULP energy -793392.564211 kJ/mol
# GULP energy per Si atom -12396.758816 kJ/mol
# Density = 1.471744 g / cm^3
# Si number density = 14.751016 Si / 1000 Ang^3
#
#
#
# Elastic Constant Matrix: (Units=GPa)
#
#
# Indices 1 2 3 4 5 6 
#
# 1 118.6028 42.9846 70.8052 0.0000 0.0000 0.0000
# 2 42.9846 71.8921 37.5008 0.0000 0.0000 0.0000
# 3 70.8052 37.5008 84.1003 0.0000 0.0000 0.0000
# 4 0.0000 0.0000 0.0000 18.1779 0.0000 0.0000
# 5 0.0000 0.0000 0.0000 0.0000 28.7660 0.0000
# 6 0.0000 0.0000 0.0000 0.0000 0.0000 15.4064
#
#
#
# Elastic Compliance Matrix: (Units=1/GPa)
#
#
# Indices 1 2 3 4 5 6 
#
# 1 0.017658 -0.003653 -0.013238 0.000000 0.000000 0.000000
# 2 -0.003653 0.018881 -0.005344 0.000000 0.000000 0.000000
# 3 -0.013238 -0.005344 0.025419 0.000000 0.000000 0.000000
# 4 0.000000 0.000000 0.000000 0.055012 0.000000 0.000000
# 5 0.000000 0.000000 0.000000 0.000000 0.034763 0.000000
# 6 0.000000 0.000000 0.000000 0.000000 0.000000 0.064908
#
#
# Mechanical properties :
#
#
# Convention : Reuss Voigt Hill
#
# Bulk Modulus (GPa) = 57.17915 64.13072 60.65493
# Shear Modulus (GPa) = 18.73075 20.69038 19.71057
#
# Velocity S-wave (km/s) = 3.56728 3.74925 3.65940
# Velocity P-wave (km/s) = 7.47090 7.89382 7.68527
#
# Compressibility (1/GPa) = 0.01748889
#
# Stress axis : x y z
#
# Youngs Moduli (GPa) = 56.63034 52.96248 39.34095
#
# Poissons Ratio (x) = 0.19346 0.52080
# Poissons Ratio (y) = 0.20685 0.21024
# Poissons Ratio (z) = 0.74968 0.28303
#
# Static dielectric constant tensor:
#      x y z
#    x 2.986970 0.000000 0.000000 
#    y 0.000000 2.634220 0.000000 
#    z 0.000000 0.000000 2.914420 
# 
# 
# High freq. dielectric constant tensor:
#      x y z
#    x 1.560550 0.000000 0.000000 
#    y 0.000000 1.522090 0.000000 
#    z 0.000000 0.000000 1.570620 
# 
# From -- ./inp_files/10899.got.cif
#   From: 2010.03.12/outbox.cif.g09.slc.cpg/sg55_6_cif.got.tgz:10899.got - 2010.04.16 15:19:21.
