data_PCOD8224791
_publ_section_title
;
Structure prediction by ZEFSAII (Michael W. Deem and Ramdas Pophale) SiO2 
 PCOD8224791
Probable space group: P B A M
;
_chemical_formula_sum "Si O2"
_cell_formula_units_Z 52
_cell_length_a 26.462846
_cell_length_b 5.153884
_cell_length_c 21.682759
_cell_angle_alpha 90.000000
_cell_angle_beta 90.000000
_cell_angle_gamma 90.000000
_cell_volume 2957.234279
_symmetry_space_group_name_H-M "P B A M"
_symmetry_group_IT_number 55
_symmetry_cell_setting 'orthorhombic'
loop_
_space_group_symop_operation_xyz
x,y,z
-x,-y,z
1/2+x,1/2-y,-z
1/2-x,1/2+y,-z
-x,-y,-z
x,y,-z
1/2-x,1/2+y,z
1/2+x,1/2-y,z
loop_
_atom_site_type_symbol
_atom_site_label
_atom_site_fract_x
_atom_site_fract_y
_atom_site_fract_z
Si Si1 0.283954 0.967235 0.132695
Si Si2 0.443246 0.491054 0.209574
Si Si3 0.056516 0.987998 0.356140
Si Si4 0.116432 0.486782 0.643610
Si Si5 0.780953 0.440867 0.000000
Si Si6 0.382851 0.989433 0.790056
Si Si7 0.718028 0.038697 0.429233
O O1 0.241237 0.186299 0.141614
O O2 0.326829 0.003296 0.183244
O O3 0.309682 0.993610 0.064185
O O4 0.500000 0.500000 0.182187
O O5 0.446130 0.497969 0.282849
O O6 0.415336 0.233165 0.186511
O O7 0.411612 0.735817 0.185114
O O8 0.088963 0.229135 0.380932
O O9 0.082709 0.726353 0.379337
O O10 0.000000 0.000000 0.383681
O O11 0.122699 0.487530 0.716803
O O12 0.171160 0.511061 0.614606
O O13 0.732434 0.635453 0.000000
O O14 0.700280 0.017891 0.500000
O O15 0.740404 0.320691 0.414365
#
# Coordination Sequence:
#
# PCOD8224791 Si02
#       7
#     8   8   8   8   4   8   8
#     4  10  19  31  46  67  96 124 151 186 225 273
#     4   9  17  30  46  67  95 123 154 189 222 268
#     4   9  17  30  49  71  95 122 149 183 230 278
#     4  10  19  31  49  71  95 120 151 191 229 269
#     4   8  16  30  46  62  85 122 159 184 216 266
#     4  10  19  29  46  73  95 119 152 186 234 273
#     4  10  21  36  52  68  89 123 162 191 220 266
#
# _framework density 17.583995999999999
#
# number of rings (size 3 to 8) (size 9 to 14) (size 15 to 20)
#    0.000    2.462    0.000    2.769    0.000    4.923 
#    0.000    0.000    0.000    2.769    0.000    3.231 
#    0.000    0.000    0.000    0.000    0.000    0.000 
#
# Total GULP energy -644713.871989 kJ/mol
# GULP energy per Si atom -12398.343692 kJ/mol
# Density = 1.754397 g / cm^3
# Si number density = 17.583996 Si / 1000 Ang^3
#
#
#
# Elastic Constant Matrix: (Units=GPa)
#
#
# Indices 1 2 3 4 5 6 
#
# 1 98.8359 30.3961 36.3842 0.0000 0.0000 0.0000
# 2 30.3961 113.3506 24.3520 0.0000 0.0000 0.0000
# 3 36.3842 24.3520 34.4876 0.0000 0.0000 0.0000
# 4 0.0000 0.0000 0.0000 11.3203 0.0000 0.0000
# 5 0.0000 0.0000 0.0000 0.0000 -1.0570 0.0000
# 6 0.0000 0.0000 0.0000 0.0000 0.0000 29.5114
#
#
#
# Elastic Compliance Matrix: (Units=1/GPa)
#
#
# Indices 1 2 3 4 5 6 
#
# 1 0.016606 -0.000813 -0.016945 0.000000 0.000000 0.000000
# 2 -0.000813 0.010440 -0.006514 0.000000 0.000000 0.000000
# 3 -0.016945 -0.006514 0.051473 0.000000 0.000000 0.000000
# 4 0.000000 0.000000 0.000000 0.088337 0.000000 0.000000
# 5 0.000000 0.000000 0.000000 0.000000 -0.946041 0.000000
# 6 0.000000 0.000000 0.000000 0.000000 0.000000 0.033885
#
#
# Mechanical properties :
#
#
# Convention : Reuss Voigt Hill
#
# Bulk Modulus (GPa) = 33.36211 47.65985 40.51098
# Shear Modulus (GPa) = -7.28050 18.32439 5.52195
#
# Velocity S-wave (km/s) = -2.03701 3.23167 1.77402
# Velocity P-wave (km/s) = 3.67174 6.40998 5.22348
#
# Compressibility (1/GPa) = 0.02997413
#
# Stress axis : x y z
#
# Youngs Moduli (GPa) = 60.22064 95.78923 19.42777
#
# Poissons Ratio (x) = 0.07783 0.32921
# Poissons Ratio (y) = 0.04893 0.12656
# Poissons Ratio (z) = 1.02044 0.62400
#
# Static dielectric constant tensor:
#      x y z
#    x 3.165240 0.000000 0.000000 
#    y 0.000000 3.625390 0.000000 
#    z 0.000000 0.000000 3.001480 
# 
# 
# High freq. dielectric constant tensor:
#      x y z
#    x 1.671410 0.000000 0.000000 
#    y 0.000000 1.706290 0.000000 
#    z 0.000000 0.000000 1.638800 
# 
# From -- ./inp_files/22351.got.cif
#   From: 2010.03.12/outbox.cif.g09.slc.cpg/sg55_12_cif.got.tgz:22351.got - 2010.04.16 15:19:21.
