data_PCOD8224397
_publ_section_title
;
Structure prediction by ZEFSAII (Michael W. Deem and Ramdas Pophale) SiO2 
 PCOD8224397
Probable space group: P B A M
;
_chemical_formula_sum "Si O2"
_cell_formula_units_Z 64
_cell_length_a 18.396095
_cell_length_b 26.552002
_cell_length_c 8.915384
_cell_angle_alpha 90.000000
_cell_angle_beta 90.000000
_cell_angle_gamma 90.000000
_cell_volume 4354.747409
_symmetry_space_group_name_H-M "P B A M"
_symmetry_group_IT_number 55
_symmetry_cell_setting 'orthorhombic'
loop_
_space_group_symop_operation_xyz
x,y,z
-x,-y,z
1/2+x,1/2-y,-z
1/2-x,1/2+y,-z
-x,-y,-z
x,y,-z
1/2-x,1/2+y,z
1/2+x,1/2-y,z
loop_
_atom_site_type_symbol
_atom_site_label
_atom_site_fract_x
_atom_site_fract_y
_atom_site_fract_z
Si Si1 0.918696 0.058238 0.325833
Si Si2 0.915789 0.943387 0.325202
Si Si3 0.794086 0.704121 0.165292
Si Si4 0.156797 0.851192 0.822680
Si Si5 0.160649 0.146316 0.179366
Si Si6 0.568502 0.745410 0.819740
Si Si7 0.700933 0.804138 0.163191
Si Si8 0.084666 0.240028 0.677207
O O1 0.912201 0.070317 0.500000
O O2 0.864691 0.094501 0.238418
O O3 0.001605 0.066926 0.273567
O O4 0.894914 0.001073 0.292183
O O5 0.906412 0.930724 0.500000
O O6 0.862144 0.909302 0.227599
O O7 0.739631 0.661193 0.230566
O O8 0.745439 0.753066 0.144900
O O9 0.860157 0.715004 0.278558
O O10 0.824954 0.689245 0.000000
O O11 0.099362 0.808935 0.767748
O O12 0.156124 0.852626 0.000000
O O13 0.243391 0.156400 0.242602
O O14 0.105541 0.186851 0.248796
O O15 0.158376 0.152167 0.000000
O O16 0.624182 0.789460 0.759470
O O17 0.493560 0.756200 0.737693
O O18 0.560497 0.747680 0.000000
O O19 0.682000 0.826367 0.000000
O O20 0.083380 0.233494 0.500000
#
# Coordination Sequence:
#
# PCOD8224397 Si02
#       8
#     8   8   8   8   8   8   8   8
#     4   9  18  30  42  56  82 113 138 167 203 237
#     4   9  18  31  42  57  81 110 140 169 200 236
#     4   8  15  29  43  56  77 105 134 167 201 235
#     4   9  17  28  44  62  79 103 140 175 202 235
#     4  10  18  29  44  60  78 105 138 171 204 238
#     4   9  16  28  43  58  79 108 135 163 198 237
#     4   7  13  26  42  57  75 100 132 164 197 235
#     4  11  20  27  38  60  85 108 135 166 196 237
#
# _framework density 14.696605
#
# number of rings (size 3 to 8) (size 9 to 14) (size 15 to 20)
#    0.000    3.000    0.000    5.250    0.000    4.000 
#    0.000    6.875    0.000    0.000    0.000    0.000 
#    0.000    1.000    0.000   11.250    0.000    5.625 
#
# Total GULP energy -792941.117105 kJ/mol
# GULP energy per Si atom -12389.704955 kJ/mol
# Density = 1.466316 g / cm^3
# Si number density = 14.696605 Si / 1000 Ang^3
#
#
#
# Elastic Constant Matrix: (Units=GPa)
#
#
# Indices 1 2 3 4 5 6 
#
# 1 104.2222 53.0698 38.9579 0.0000 0.0000 0.0000
# 2 53.0698 72.4276 26.8832 0.0000 0.0000 0.0000
# 3 38.9579 26.8832 51.2752 0.0000 0.0000 0.0000
# 4 0.0000 0.0000 0.0000 21.8589 0.0000 0.0000
# 5 0.0000 0.0000 0.0000 0.0000 13.0712 0.0000
# 6 0.0000 0.0000 0.0000 0.0000 0.0000 27.5973
#
#
#
# Elastic Compliance Matrix: (Units=1/GPa)
#
#
# Indices 1 2 3 4 5 6 
#
# 1 0.017745 -0.009930 -0.008276 0.000000 0.000000 0.000000
# 2 -0.009930 0.022700 -0.004357 0.000000 0.000000 0.000000
# 3 -0.008276 -0.004357 0.028075 0.000000 0.000000 0.000000
# 4 0.000000 0.000000 0.000000 0.045748 0.000000 0.000000
# 5 0.000000 0.000000 0.000000 0.000000 0.076504 0.000000
# 6 0.000000 0.000000 0.000000 0.000000 0.000000 0.036235
#
#
# Mechanical properties :
#
#
# Convention : Reuss Voigt Hill
#
# Bulk Modulus (GPa) = 42.74599 51.74965 47.24782
# Shear Modulus (GPa) = 17.86154 19.77308 18.81731
#
# Velocity S-wave (km/s) = 3.48997 3.67197 3.58213
# Velocity P-wave (km/s) = 6.73711 7.29837 7.02335
#
# Compressibility (1/GPa) = 0.02339400
#
# Stress axis : x y z
#
# Youngs Moduli (GPa) = 56.35423 44.05236 35.61951
#
# Poissons Ratio (x) = 0.43746 0.29478
# Poissons Ratio (y) = 0.55962 0.15518
# Poissons Ratio (z) = 0.46637 0.19192
#
# Static dielectric constant tensor:
#      x y z
#    x 3.097430 0.000000 0.000000 
#    y 0.000000 2.808270 0.000000 
#    z 0.000000 0.000000 2.696720 
# 
# 
# High freq. dielectric constant tensor:
#      x y z
#    x 1.555510 0.000000 0.000000 
#    y 0.000000 1.530860 0.000000 
#    z 0.000000 0.000000 1.551280 
# 
# From -- ./inp_files/8218.got.cif
#   From: 2010.03.12/outbox.cif.g09.slc.cpg/sg55_5_cif.got.tgz:8218.got - 2010.04.16 15:19:21.
