data_PCOD8224538
_publ_section_title
;
Structure prediction by ZEFSAII (Michael W. Deem and Ramdas Pophale) SiO2 
 PCOD8224538
Probable space group: P B A M
;
_chemical_formula_sum "Si O2"
_cell_formula_units_Z 64
_cell_length_a 16.694069
_cell_length_b 22.445836
_cell_length_c 9.057532
_cell_angle_alpha 90.000000
_cell_angle_beta 90.000000
_cell_angle_gamma 90.000000
_cell_volume 3393.968965
_symmetry_space_group_name_H-M "P B A M"
_symmetry_group_IT_number 55
_symmetry_cell_setting 'orthorhombic'
loop_
_space_group_symop_operation_xyz
x,y,z
-x,-y,z
1/2+x,1/2-y,-z
1/2-x,1/2+y,-z
-x,-y,-z
x,y,-z
1/2-x,1/2+y,z
1/2+x,1/2-y,z
loop_
_atom_site_type_symbol
_atom_site_label
_atom_site_fract_x
_atom_site_fract_y
_atom_site_fract_z
Si Si1 0.469515 0.300680 0.674648
Si Si2 0.081686 0.678800 0.830181
Si Si3 0.190388 0.281113 0.667621
Si Si4 0.288221 0.965251 0.172352
Si Si5 0.176939 0.876740 0.667373
Si Si6 0.278776 0.096835 0.827861
Si Si7 0.634697 0.325354 0.170352
Si Si8 0.585687 0.130647 0.167526
O O1 0.472449 0.291263 0.500000
O O2 0.439378 0.238956 0.743829
O O3 0.411375 0.355986 0.716675
O O4 0.555499 0.321936 0.731985
O O5 0.159232 0.645496 0.759903
O O6 0.010133 0.629665 0.818424
O O7 0.095454 0.697445 0.000000
O O8 0.175575 0.260086 0.500000
O O9 0.271510 0.317099 0.684873
O O10 0.196419 0.225539 0.777480
O O11 0.114675 0.320088 0.717315
O O12 0.211618 0.929624 0.233894
O O13 0.372507 0.932392 0.208737
O O14 0.291611 0.031357 0.243245
O O15 0.272606 0.970647 0.000000
O O16 0.178407 0.900006 0.500000
O O17 0.185447 0.114277 0.803571
O O18 0.300165 0.094394 0.000000
O O19 0.611021 0.316667 0.000000
O O20 0.611452 0.148101 0.000000
#
# Coordination Sequence:
#
# PCOD8224538 Si02
#       8
#     8   8   8   8   8   8   8   8
#     4  11  22  36  54  79 109 139 175 221 270 322
#     4  10  19  33  54  82 114 141 171 214 266 320
#     4  10  18  31  52  76 105 137 169 211 264 318
#     4   9  18  35  56  78 106 142 184 219 256 308
#     4   9  20  36  54  77 104 137 177 219 265 315
#     4   9  20  36  54  78 108 143 180 220 260 311
#     4  11  21  34  52  75 106 140 177 219 266 315
#     4   9  17  29  51  81 109 139 173 211 255 311
#
# _framework density 18.856978000000002
#
# number of rings (size 3 to 8) (size 9 to 14) (size 15 to 20)
#    0.000    2.250    1.250    1.875    0.000    2.000 
#    0.000    5.625    0.000    3.750    0.000    4.375 
#    0.000    0.000    0.000    0.000    0.000    0.000 
#
# Total GULP energy -793293.088508 kJ/mol
# GULP energy per Si atom -12395.204508 kJ/mol
# Density = 1.881406 g / cm^3
# Si number density = 18.856978 Si / 1000 Ang^3
#
#
#
# Elastic Constant Matrix: (Units=GPa)
#
#
# Indices 1 2 3 4 5 6 
#
# 1 99.6585 54.5172 35.8101 0.0000 0.0000 0.0000
# 2 54.5172 89.7695 30.3146 0.0000 0.0000 0.0000
# 3 35.8101 30.3146 57.0262 0.0000 0.0000 0.0000
# 4 0.0000 0.0000 0.0000 11.4580 0.0000 0.0000
# 5 0.0000 0.0000 0.0000 0.0000 21.6052 0.0000
# 6 0.0000 0.0000 0.0000 0.0000 0.0000 21.6657
#
#
#
# Elastic Compliance Matrix: (Units=1/GPa)
#
#
# Indices 1 2 3 4 5 6 
#
# 1 0.016645 -0.008018 -0.006190 0.000000 0.000000 0.000000
# 2 -0.008018 0.017439 -0.004236 0.000000 0.000000 0.000000
# 3 -0.006190 -0.004236 0.023674 0.000000 0.000000 0.000000
# 4 0.000000 0.000000 0.000000 0.087275 0.000000 0.000000
# 5 0.000000 0.000000 0.000000 0.000000 0.046285 0.000000
# 6 0.000000 0.000000 0.000000 0.000000 0.000000 0.046156
#
#
# Mechanical properties :
#
#
# Convention : Reuss Voigt Hill
#
# Bulk Modulus (GPa) = 47.91244 54.19312 51.05278
# Shear Modulus (GPa) = 17.77343 19.33326 18.55334
#
# Velocity S-wave (km/s) = 3.07341 3.20544 3.14012
# Velocity P-wave (km/s) = 6.16911 6.51929 6.34662
#
# Compressibility (1/GPa) = 0.02087141
#
# Stress axis : x y z
#
# Youngs Moduli (GPa) = 60.07932 57.34148 42.23975
#
# Poissons Ratio (x) = 0.45977 0.26146
# Poissons Ratio (y) = 0.48172 0.17891
# Poissons Ratio (z) = 0.37188 0.24288
#
# Static dielectric constant tensor:
#      x y z
#    x 3.540620 0.000000 0.000000 
#    y 0.000000 3.476480 0.000000 
#    z 0.000000 0.000000 3.392940 
# 
# 
# High freq. dielectric constant tensor:
#      x y z
#    x 1.737080 0.000000 0.000000 
#    y 0.000000 1.717520 0.000000 
#    z 0.000000 0.000000 1.718640 
# 
# From -- ./inp_files/8017.got.cif
#   From: 2010.03.12/outbox.cif.g09.slc.cpg/sg55_5_cif.got.tgz:8017.got - 2010.04.16 15:19:21.
