data_PCOD8224366
_publ_section_title
;
Structure prediction by ZEFSAII (Michael W. Deem and Ramdas Pophale) SiO2 
 PCOD8224366
Probable space group: P B A M
;
_chemical_formula_sum "Si O2"
_cell_formula_units_Z 64
_cell_length_a 20.834191
_cell_length_b 8.942684
_cell_length_c 17.699167
_cell_angle_alpha 90.000000
_cell_angle_beta 90.000000
_cell_angle_gamma 90.000000
_cell_volume 3297.595282
_symmetry_space_group_name_H-M "P B A M"
_symmetry_group_IT_number 55
_symmetry_cell_setting 'orthorhombic'
loop_
_space_group_symop_operation_xyz
x,y,z
-x,-y,z
1/2+x,1/2-y,-z
1/2-x,1/2+y,-z
-x,-y,-z
x,y,-z
1/2-x,1/2+y,z
1/2+x,1/2-y,z
loop_
_atom_site_type_symbol
_atom_site_label
_atom_site_fract_x
_atom_site_fract_y
_atom_site_fract_z
Si Si1 0.633784 0.190544 0.585651
Si Si2 0.439983 0.088214 0.414412
Si Si3 0.744081 0.446762 0.170686
Si Si4 0.492196 0.672188 0.349658
Si Si5 0.475917 0.336797 0.088358
Si Si6 0.671894 0.704019 0.911157
Si Si7 0.962350 0.651019 0.209206
Si Si8 0.679111 0.184797 0.254151
O O1 0.660115 0.226839 0.500000
O O2 0.565930 0.273423 0.596221
O O3 0.680880 0.227426 0.655759
O O4 0.624033 0.010150 0.593821
O O5 0.456662 0.122236 0.500000
O O6 0.439866 0.248876 0.373017
O O7 0.500000 0.000000 0.376344
O O8 0.799576 0.349842 0.130416
O O9 0.708738 0.550926 0.109511
O O10 0.693293 0.336438 0.209161
O O11 0.770561 0.553733 0.237042
O O12 0.500000 0.500000 0.362040
O O13 0.480744 0.710388 0.262849
O O14 0.500000 0.500000 0.113487
O O15 0.402158 0.313428 0.113222
O O16 0.520376 0.208781 0.125660
O O17 0.484870 0.313846 0.000000
O O18 0.679096 0.729244 0.000000
O O19 0.887631 0.619300 0.222820
O O20 0.000000 0.500000 0.228319
#
# Coordination Sequence:
#
# PCOD8224366 Si02
#       8
#     8   8   8   8   8   8   8   8
#     4   9  18  34  53  73 103 140 180 225 274 330
#     4   8  14  26  44  67  98 135 167 200 253 319
#     4  10  21  37  58  80 108 145 190 234 269 315
#     4  10  18  27  46  75 108 141 175 218 268 323
#     4  10  21  36  54  80 115 148 177 221 283 338
#     4  10  20  36  58  84 113 146 185 228 273 323
#     4  11  21  35  55  80 110 144 181 220 272 339
#     4  10  21  38  57  80 106 143 187 230 276 322
#
# _framework density 19.408082
#
# number of rings (size 3 to 8) (size 9 to 14) (size 15 to 20)
#    0.000    2.250    0.000    5.250    0.000    2.250 
#    0.000    6.250    0.000    0.000    0.000    0.000 
#    0.000    0.000    0.000    0.000    0.000    0.000 
#
# Total GULP energy -793111.482246 kJ/mol
# GULP energy per Si atom -12392.366910 kJ/mol
# Density = 1.936391 g / cm^3
# Si number density = 19.408082 Si / 1000 Ang^3
#
#
#
# Elastic Constant Matrix: (Units=GPa)
#
#
# Indices 1 2 3 4 5 6 
#
# 1 53.0962 12.9673 26.7126 0.0000 0.0000 0.0000
# 2 12.9673 103.3619 28.7641 0.0000 0.0000 0.0000
# 3 26.7126 28.7641 95.7899 0.0000 0.0000 0.0000
# 4 0.0000 0.0000 0.0000 23.4328 0.0000 0.0000
# 5 0.0000 0.0000 0.0000 0.0000 24.1668 0.0000
# 6 0.0000 0.0000 0.0000 0.0000 0.0000 24.7319
#
#
#
# Elastic Compliance Matrix: (Units=1/GPa)
#
#
# Indices 1 2 3 4 5 6 
#
# 1 0.022032 -0.001150 -0.005799 0.000000 0.000000 0.000000
# 2 -0.001150 0.010617 -0.002867 0.000000 0.000000 0.000000
# 3 -0.005799 -0.002867 0.012918 0.000000 0.000000 0.000000
# 4 0.000000 0.000000 0.000000 0.042675 0.000000 0.000000
# 5 0.000000 0.000000 0.000000 0.000000 0.041379 0.000000
# 6 0.000000 0.000000 0.000000 0.000000 0.000000 0.040434
#
#
# Mechanical properties :
#
#
# Convention : Reuss Voigt Hill
#
# Bulk Modulus (GPa) = 38.55938 43.23734 40.89836
# Shear Modulus (GPa) = 25.21033 26.71990 25.96512
#
# Velocity S-wave (km/s) = 3.60802 3.71447 3.66163
# Velocity P-wave (km/s) = 6.10474 6.38144 6.24462
#
# Compressibility (1/GPa) = 0.02593403
#
# Stress axis : x y z
#
# Youngs Moduli (GPa) = 45.38869 94.18862 77.41415
#
# Poissons Ratio (x) = 0.10835 0.44889
# Poissons Ratio (y) = 0.05221 0.22197
# Poissons Ratio (z) = 0.26319 0.27007
#
# Static dielectric constant tensor:
#      x y z
#    x 3.340740 0.000000 0.000000 
#    y 0.000000 3.559440 0.000000 
#    z 0.000000 0.000000 3.613550 
# 
# 
# High freq. dielectric constant tensor:
#      x y z
#    x 1.722230 0.000000 0.000000 
#    y 0.000000 1.758030 0.000000 
#    z 0.000000 0.000000 1.765610 
# 
# From -- ./inp_files/21963.got.cif
#   From: 2010.03.12/outbox.cif.g09.slc.cpg/sg55_11_cif.got.tgz:21963.got - 2010.04.16 15:19:21.
