data_PCOD8224757
_publ_section_title
;
Structure prediction by ZEFSAII (Michael W. Deem and Ramdas Pophale) SiO2 
 PCOD8224757
Probable space group: P B A M
;
_chemical_formula_sum "Si O2"
_cell_formula_units_Z 52
_cell_length_a 13.411828
_cell_length_b 16.417454
_cell_length_c 11.114675
_cell_angle_alpha 90.000000
_cell_angle_beta 90.000000
_cell_angle_gamma 90.000000
_cell_volume 2447.318829
_symmetry_space_group_name_H-M "P B A M"
_symmetry_group_IT_number 55
_symmetry_cell_setting 'orthorhombic'
loop_
_space_group_symop_operation_xyz
x,y,z
-x,-y,z
1/2+x,1/2-y,-z
1/2-x,1/2+y,-z
-x,-y,-z
x,y,-z
1/2-x,1/2+y,z
1/2+x,1/2-y,z
loop_
_atom_site_type_symbol
_atom_site_label
_atom_site_fract_x
_atom_site_fract_y
_atom_site_fract_z
Si Si1 0.129990 0.216809 0.242565
Si Si2 0.995624 0.351179 0.863095
Si Si3 0.511872 0.592933 0.358675
Si Si4 0.269689 0.105501 0.868039
Si Si5 0.793826 0.487787 0.630813
Si Si6 0.500000 0.000000 0.288918
Si Si7 0.717529 0.663218 0.634437
O O1 0.038485 0.271178 0.199547
O O2 0.084483 0.148125 0.331072
O O3 0.182022 0.172334 0.129440
O O4 0.221993 0.265093 0.301561
O O5 0.042839 0.429641 0.798233
O O6 0.876230 0.351171 0.850307
O O7 0.031437 0.353644 0.000000
O O8 0.500000 0.500000 0.307002
O O9 0.528139 0.585350 0.500000
O O10 0.611597 0.636852 0.304537
O O11 0.244922 0.048870 0.751997
O O12 0.267719 0.060937 0.000000
O O13 0.749345 0.456592 0.500000
O O14 0.787314 0.584467 0.635002
O O15 0.911154 0.465935 0.629169
O O16 0.697021 0.695082 0.500000
#
# Coordination Sequence:
#
# PCOD8224757 Si02
#       7
#     8   8   8   8   8   4   8
#     4  12  21  38  61  89 122 163 213 273 315 369
#     4  10  21  37  59  87 123 166 209 255 316 384
#     4  10  22  40  63  89 124 171 216 260 324 398
#     4  10  23  40  59  87 123 162 209 256 314 387
#     4  10  20  37  61  88 122 157 201 259 314 375
#     4  10  18  36  58  92 121 160 199 256 315 382
#     4  10  21  37  58  92 127 159 207 262 320 386
#
# _framework density 21.247743
#
# number of rings (size 3 to 8) (size 9 to 14) (size 15 to 20)
#    0.000    1.692    1.538    3.231    0.000    3.077 
#    0.000    2.308    0.000   10.154    0.000    0.000 
#    0.000    0.000    0.000    0.000    0.000    0.000 
#
# Total GULP energy -644185.107201 kJ/mol
# GULP energy per Si atom -12388.175138 kJ/mol
# Density = 2.119938 g / cm^3
# Si number density = 21.247743 Si / 1000 Ang^3
#
#
#
# Elastic Constant Matrix: (Units=GPa)
#
#
# Indices 1 2 3 4 5 6 
#
# 1 80.0469 34.8093 22.7701 0.0000 0.0000 0.0000
# 2 34.8093 101.2043 48.8271 0.0000 0.0000 0.0000
# 3 22.7701 48.8271 117.7840 0.0000 0.0000 0.0000
# 4 0.0000 0.0000 0.0000 26.2678 0.0000 0.0000
# 5 0.0000 0.0000 0.0000 0.0000 18.9039 0.0000
# 6 0.0000 0.0000 0.0000 0.0000 0.0000 35.1068
#
#
#
# Elastic Compliance Matrix: (Units=1/GPa)
#
#
# Indices 1 2 3 4 5 6 
#
# 1 0.014772 -0.004629 -0.000937 0.000000 0.000000 0.000000
# 2 -0.004629 0.013802 -0.004827 0.000000 0.000000 0.000000
# 3 -0.000937 -0.004827 0.010672 0.000000 0.000000 0.000000
# 4 0.000000 0.000000 0.000000 0.038069 0.000000 0.000000
# 5 0.000000 0.000000 0.000000 0.000000 0.052899 0.000000
# 6 0.000000 0.000000 0.000000 0.000000 0.000000 0.028485
#
#
# Mechanical properties :
#
#
# Convention : Reuss Voigt Hill
#
# Bulk Modulus (GPa) = 54.16759 56.87202 55.51980
# Shear Modulus (GPa) = 26.93424 28.89763 27.91594
#
# Velocity S-wave (km/s) = 3.56424 3.69186 3.62861
# Velocity P-wave (km/s) = 6.51821 6.70801 6.61379
#
# Compressibility (1/GPa) = 0.01846122
#
# Stress axis : x y z
#
# Youngs Moduli (GPa) = 67.69520 72.45456 93.70220
#
# Poissons Ratio (x) = 0.33538 0.08779
# Poissons Ratio (y) = 0.31335 0.45227
# Poissons Ratio (z) = 0.06342 0.34971
#
# Static dielectric constant tensor:
#      x y z
#    x 3.900560 0.000000 0.000000 
#    y 0.000000 3.746320 0.000000 
#    z 0.000000 0.000000 3.788240 
# 
# 
# High freq. dielectric constant tensor:
#      x y z
#    x 1.843450 0.000000 0.000000 
#    y 0.000000 1.822970 0.000000 
#    z 0.000000 0.000000 1.818530 
# 
# From -- ./inp_files/14216.got.cif
#   From: 2010.03.12/outbox.cif.g09.slc.cpg/sg55_8_cif.got.tgz:14216.got - 2010.04.16 15:19:21.
