data_PCOD8224688
_publ_section_title
;
Structure prediction by ZEFSAII (Michael W. Deem and Ramdas Pophale) SiO2 
 PCOD8224688
Probable space group: P B A M
;
_chemical_formula_sum "Si O2"
_cell_formula_units_Z 64
_cell_length_a 30.940267
_cell_length_b 12.053349
_cell_length_c 8.669769
_cell_angle_alpha 90.000000
_cell_angle_beta 90.000000
_cell_angle_gamma 90.000000
_cell_volume 3233.250213
_symmetry_space_group_name_H-M "P B A M"
_symmetry_group_IT_number 55
_symmetry_cell_setting 'orthorhombic'
loop_
_space_group_symop_operation_xyz
x,y,z
-x,-y,z
1/2+x,1/2-y,-z
1/2-x,1/2+y,-z
-x,-y,-z
x,y,-z
1/2-x,1/2+y,z
1/2+x,1/2-y,z
loop_
_atom_site_type_symbol
_atom_site_label
_atom_site_fract_x
_atom_site_fract_y
_atom_site_fract_z
Si Si1 0.701116 0.735917 0.182020
Si Si2 0.954042 0.774667 0.317974
Si Si3 0.662939 0.504392 0.824750
Si Si4 0.624995 0.891765 0.182573
Si Si5 0.449912 0.251676 0.317734
Si Si6 0.926366 0.007704 0.679479
Si Si7 0.296643 0.728304 0.822944
Si Si8 0.626842 0.134745 0.318032
O O1 0.688172 0.612615 0.231590
O O2 0.665734 0.821978 0.249470
O O3 0.748938 0.756218 0.249111
O O4 0.703138 0.750904 0.000000
O O5 0.947342 0.782639 0.500000
O O6 0.952095 0.901236 0.251637
O O7 0.915378 0.698912 0.250699
O O8 0.000403 0.721561 0.276490
O O9 0.623666 0.484210 0.709788
O O10 0.695232 0.402247 0.812267
O O11 0.645753 0.519538 0.000000
O O12 0.580227 0.839252 0.239835
O O13 0.629224 0.016255 0.239017
O O14 0.624931 0.888777 0.000000
O O15 0.441727 0.248558 0.500000
O O16 0.440286 0.374379 0.247360
O O17 0.936122 0.016165 0.500000
O O18 0.330432 0.796606 0.721720
O O19 0.299668 0.770209 0.000000
O O20 0.623397 0.118272 0.500000
#
# Coordination Sequence:
#
# PCOD8224688 Si02
#       8
#     8   8   8   8   8   8   8   8
#     4   9  20  37  59  84 113 150 189 228 276 335
#     4   9  19  36  58  83 113 151 188 227 283 346
#     4  10  19  34  58  86 115 145 184 230 280 333
#     4  11  23  40  60  82 114 153 194 238 283 337
#     4  10  20  36  60  86 112 147 192 236 281 339
#     4  10  18  33  58  86 116 146 184 230 281 338
#     4  10  21  37  61  87 111 147 192 233 274 331
#     4  11  23  40  59  82 115 150 188 236 286 338
#
# _framework density 19.794324
#
# number of rings (size 3 to 8) (size 9 to 14) (size 15 to 20)
#    0.000    2.000    2.500    1.125    1.750    2.000 
#    0.000    6.250    0.000    1.500    0.000    0.000 
#    0.000    0.000    0.000    0.000    0.000    0.000 
#
# Total GULP energy -793536.723702 kJ/mol
# GULP energy per Si atom -12399.011308 kJ/mol
# Density = 1.974927 g / cm^3
# Si number density = 19.794324 Si / 1000 Ang^3
#
#
#
# Elastic Constant Matrix: (Units=GPa)
#
#
# Indices 1 2 3 4 5 6 
#
# 1 142.2590 55.2333 19.6693 0.0000 0.0000 0.0000
# 2 55.2333 131.5260 19.0510 0.0000 0.0000 0.0000
# 3 19.6693 19.0510 27.8851 0.0000 0.0000 0.0000
# 4 0.0000 0.0000 0.0000 26.2511 0.0000 0.0000
# 5 0.0000 0.0000 0.0000 0.0000 21.2470 0.0000
# 6 0.0000 0.0000 0.0000 0.0000 0.0000 30.1299
#
#
#
# Elastic Compliance Matrix: (Units=1/GPa)
#
#
# Indices 1 2 3 4 5 6 
#
# 1 0.008799 -0.003103 -0.004087 0.000000 0.000000 0.000000
# 2 -0.003103 0.009533 -0.004324 0.000000 0.000000 0.000000
# 3 -0.004087 -0.004324 0.041698 0.000000 0.000000 0.000000
# 4 0.000000 0.000000 0.000000 0.038094 0.000000 0.000000
# 5 0.000000 0.000000 0.000000 0.000000 0.047065 0.000000
# 6 0.000000 0.000000 0.000000 0.000000 0.000000 0.033190
#
#
# Mechanical properties :
#
#
# Convention : Reuss Voigt Hill
#
# Bulk Modulus (GPa) = 27.02507 54.39749 40.71128
# Shear Modulus (GPa) = 23.39293 29.37337 26.38315
#
# Velocity S-wave (km/s) = 3.44146 3.85636 3.65480
# Velocity P-wave (km/s) = 5.42901 6.88256 6.19854
#
# Compressibility (1/GPa) = 0.03700268
#
# Stress axis : x y z
#
# Youngs Moduli (GPa) = 113.64492 104.90408 23.98202
#
# Poissons Ratio (x) = 0.32555 0.09801
# Poissons Ratio (y) = 0.35267 0.10369
# Poissons Ratio (z) = 0.46442 0.45357
#
# Static dielectric constant tensor:
#      x y z
#    x 3.790610 0.000000 0.000000 
#    y 0.000000 3.771750 0.000000 
#    z 0.000000 0.000000 3.281810 
# 
# 
# High freq. dielectric constant tensor:
#      x y z
#    x 1.782540 0.000000 0.000000 
#    y 0.000000 1.783070 0.000000 
#    z 0.000000 0.000000 1.734060 
# 
# From -- ./inp_files/10753.got.cif
#   From: 2010.03.12/outbox.cif.g09.slc.cpg/sg55_6_cif.got.tgz:10753.got - 2010.04.16 15:19:21.
