data_PCOD8224956
_publ_section_title
;
Structure prediction by ZEFSAII (Michael W. Deem and Ramdas Pophale) SiO2 
 PCOD8224956
Probable space group: P B A M
;
_chemical_formula_sum "Si O2"
_cell_formula_units_Z 56
_cell_length_a 23.937799
_cell_length_b 11.788893
_cell_length_c 11.593464
_cell_angle_alpha 90.000000
_cell_angle_beta 90.000000
_cell_angle_gamma 90.000000
_cell_volume 3271.677292
_symmetry_space_group_name_H-M "P B A M"
_symmetry_group_IT_number 55
_symmetry_cell_setting 'orthorhombic'
loop_
_space_group_symop_operation_xyz
x,y,z
-x,-y,z
1/2+x,1/2-y,-z
1/2-x,1/2+y,-z
-x,-y,-z
x,y,-z
1/2-x,1/2+y,z
1/2+x,1/2-y,z
loop_
_atom_site_type_symbol
_atom_site_label
_atom_site_fract_x
_atom_site_fract_y
_atom_site_fract_z
Si Si1 0.667956 0.381197 0.863309
Si Si2 0.991360 0.311908 0.500000
Si Si3 0.366854 0.370909 0.134509
Si Si4 0.423138 0.794842 0.863485
Si Si5 0.412189 0.973576 0.500000
Si Si6 0.385157 0.022248 0.747177
Si Si7 0.792213 0.342176 0.865802
Si Si8 0.538761 0.759874 0.253780
O O1 0.654047 0.507758 0.820558
O O2 0.622351 0.293913 0.813805
O O3 0.729042 0.344157 0.818536
O O4 0.667519 0.377985 0.000000
O O5 0.956032 0.425604 0.500000
O O6 0.977407 0.237386 0.612793
O O7 0.056110 0.351992 0.500000
O O8 0.316819 0.282519 0.156627
O O9 0.420864 0.339410 0.209780
O O10 0.383907 0.372344 0.000000
O O11 0.483755 0.756136 0.823058
O O12 0.408900 0.918844 0.819426
O O13 0.422280 0.796296 0.000000
O O14 0.374702 0.984850 0.614702
O O15 0.326217 0.062559 0.796856
O O16 0.431659 0.119081 0.760379
O O17 0.795316 0.375179 0.000000
#
# Coordination Sequence:
#
# PCOD8224956 Si02
#       8
#     8   4   8   8   4   8   8   8
#     4   9  20  34  49  73 103 138 172 203 245 309
#     4   9  16  30  50  72  99 134 170 201 248 303
#     4   9  18  33  51  72 101 135 168 204 253 305
#     4  11  21  30  47  77 108 134 164 204 254 302
#     4   9  16  30  50  73 102 131 167 204 250 308
#     4  10  19  31  52  78 102 131 168 211 259 298
#     4   9  18  32  52  76 101 129 166 210 254 299
#     4  10  19  32  51  75 103 135 166 210 254 302
#
# _framework density 17.116603000000001
#
# number of rings (size 3 to 8) (size 9 to 14) (size 15 to 20)
#    0.000    2.429    1.429    1.286    2.000    2.857 
#    0.000    2.143    0.000    5.143    0.000    0.000 
#    0.000    0.000    0.000    0.000    0.000    0.000 
#
# Total GULP energy -694394.602917 kJ/mol
# GULP energy per Si atom -12399.903624 kJ/mol
# Density = 1.707764 g / cm^3
# Si number density = 17.116603 Si / 1000 Ang^3
#
#
#
# Elastic Constant Matrix: (Units=GPa)
#
#
# Indices 1 2 3 4 5 6 
#
# 1 121.3480 40.8797 37.4087 0.0000 0.0000 0.0000
# 2 40.8797 55.8726 20.2354 0.0000 0.0000 0.0000
# 3 37.4087 20.2354 76.7209 0.0000 0.0000 0.0000
# 4 0.0000 0.0000 0.0000 10.5371 0.0000 0.0000
# 5 0.0000 0.0000 0.0000 0.0000 5.5436 0.0000
# 6 0.0000 0.0000 0.0000 0.0000 0.0000 20.7002
#
#
#
# Elastic Compliance Matrix: (Units=1/GPa)
#
#
# Indices 1 2 3 4 5 6 
#
# 1 0.011894 -0.007299 -0.003874 0.000000 0.000000 0.000000
# 2 -0.007299 0.024268 -0.002842 0.000000 0.000000 0.000000
# 3 -0.003874 -0.002842 0.015673 0.000000 0.000000 0.000000
# 4 0.000000 0.000000 0.000000 0.094903 0.000000 0.000000
# 5 0.000000 0.000000 0.000000 0.000000 0.180389 0.000000
# 6 0.000000 0.000000 0.000000 0.000000 0.000000 0.048309
#
#
# Mechanical properties :
#
#
# Convention : Reuss Voigt Hill
#
# Bulk Modulus (GPa) = 42.00934 50.10988 46.05961
# Shear Modulus (GPa) = 12.15361 17.71735 14.93548
#
# Velocity S-wave (km/s) = 2.66756 3.22078 2.95714
# Velocity P-wave (km/s) = 5.83817 6.57042 6.21509
#
# Compressibility (1/GPa) = 0.02380423
#
# Stress axis : x y z
#
# Youngs Moduli (GPa) = 84.07545 41.20730 63.80473
#
# Poissons Ratio (x) = 0.30078 0.24720
# Poissons Ratio (y) = 0.61369 0.18131
# Poissons Ratio (z) = 0.32573 0.11709
#
# Static dielectric constant tensor:
#      x y z
#    x 3.370120 0.000000 0.000000 
#    y 0.000000 3.155300 0.000000 
#    z 0.000000 0.000000 3.272220 
# 
# 
# High freq. dielectric constant tensor:
#      x y z
#    x 1.660110 0.000000 0.000000 
#    y 0.000000 1.651660 0.000000 
#    z 0.000000 0.000000 1.642540 
# 
# From -- ./inp_files/15720.got.cif
#   From: 2010.03.12/outbox.cif.g09.slc.cpg/sg55_8_cif.got.tgz:15720.got - 2010.04.16 15:19:21.
