data_PCOD8224216
_publ_section_title
;
Structure prediction by ZEFSAII (Michael W. Deem and Ramdas Pophale) SiO2 
 PCOD8224216
Probable space group: P C C A
;
_chemical_formula_sum "Si O2"
_cell_formula_units_Z 24
_cell_length_a 8.899395
_cell_length_b 12.343218
_cell_length_c 8.186146
_cell_angle_alpha 90.000000
_cell_angle_beta 90.000000
_cell_angle_gamma 90.000000
_cell_volume 899.224992
_symmetry_space_group_name_H-M "P C C A"
_symmetry_group_IT_number 54
_symmetry_cell_setting 'orthorhombic'
loop_
_space_group_symop_operation_xyz
x,y,z
1/2-x,-y,z
1/2+x,-y,1/2-z
-x,y,1/2-z
-x,-y,-z
1/2+x,y,-z
1/2-x,y,1/2+z
x,-y,1/2+z
loop_
_atom_site_type_symbol
_atom_site_label
_atom_site_fract_x
_atom_site_fract_y
_atom_site_fract_z
Si Si1 0.362644 0.260830 0.865245
Si Si2 0.608463 0.929059 0.894249
Si Si3 0.353643 0.602961 0.659936
O O1 0.500000 0.227591 0.750000
O O2 0.221106 0.293517 0.752354
O O3 0.321644 0.162752 0.986880
O O4 0.403096 0.363739 0.977477
O O5 0.500000 0.882093 0.750000
O O6 0.750000 0.000000 0.825029
O O7 0.500000 0.000000 0.000000
O O8 0.250000 0.500000 0.645010
O O9 0.500000 0.562282 0.750000
#
# Coordination Sequence:
#
# PCOD8224216 Si02
#       3
#     8   8   8
#     4  12  29  52  82 120 167 218 276 343 418 497
#     4  12  30  53  84 123 169 223 284 350 421 503
#     4  12  28  52  84 122 166 218 275 340 417 501
#
# _framework density 26.689648999999999
#
# number of rings (size 3 to 8) (size 9 to 14) (size 15 to 20)
#    0.000    0.000    0.000    7.000   18.667    4.000 
#    0.000    1.667    0.000    0.000    0.000    0.000 
#    0.000    0.000    0.000    0.000    0.000    0.000 
#
# Total GULP energy -297624.615748 kJ/mol
# GULP energy per Si atom -12401.025656 kJ/mol
# Density = 2.662890 g / cm^3
# Si number density = 26.689649 Si / 1000 Ang^3
#
#
#
# Elastic Constant Matrix: (Units=GPa)
#
#
# Indices 1 2 3 4 5 6 
#
# 1 115.6770 41.7639 34.2617 0.0000 0.0000 0.0000
# 2 41.7639 112.8712 47.2198 0.0000 0.0000 0.0000
# 3 34.2617 47.2198 140.4235 0.0000 0.0000 0.0000
# 4 0.0000 0.0000 0.0000 -33.2395 0.0000 0.0000
# 5 0.0000 0.0000 0.0000 0.0000 50.8052 0.0000
# 6 0.0000 0.0000 0.0000 0.0000 0.0000 46.7983
#
#
#
# Elastic Compliance Matrix: (Units=1/GPa)
#
#
# Indices 1 2 3 4 5 6 
#
# 1 0.010216 -0.003185 -0.001421 0.000000 0.000000 0.000000
# 2 -0.003185 0.011303 -0.003024 0.000000 0.000000 0.000000
# 3 -0.001421 -0.003024 0.008485 0.000000 0.000000 0.000000
# 4 0.000000 0.000000 0.000000 -0.030085 0.000000 0.000000
# 5 0.000000 0.000000 0.000000 0.000000 0.019683 0.000000
# 6 0.000000 0.000000 0.000000 0.000000 0.000000 0.021368
#
#
# Mechanical properties :
#
#
# Convention : Reuss Voigt Hill
#
# Bulk Modulus (GPa) = 67.82882 68.38475 68.10678
# Shear Modulus (GPa) = 81.77170 29.25456 55.51313
#
# Velocity S-wave (km/s) = 5.54116 3.31433 4.56559
# Velocity P-wave (km/s) = 8.14914 6.35014 7.30523
#
# Compressibility (1/GPa) = 0.01474300
#
# Stress axis : x y z
#
# Youngs Moduli (GPa) = 97.88768 88.47013 117.85643
#
# Poissons Ratio (x) = 0.28181 0.16752
# Poissons Ratio (y) = 0.31181 0.35637
# Poissons Ratio (z) = 0.13914 0.26751
#
# Static dielectric constant tensor:
#      x y z
#    x 4.925320 0.000000 0.000000 
#    y 0.000000 5.432500 0.000000 
#    z 0.000000 0.000000 5.382570 
# 
# 
# High freq. dielectric constant tensor:
#      x y z
#    x 2.072800 0.000000 0.000000 
#    y 0.000000 2.080790 0.000000 
#    z 0.000000 0.000000 2.096400 
# 
# From -- ./inp_files/2418.got.cif
#   From: 2010.03.12/outbox.cif.g09.slc.cpg/sg54_2_cif.got.tgz:2418.got - 2010.04.16 15:00:50.
