data_PCOD8224492
_publ_section_title
;
Structure prediction by ZEFSAII (Michael W. Deem and Ramdas Pophale) SiO2 
 PCOD8224492
Probable space group: P B A M
;
_chemical_formula_sum "Si O2"
_cell_formula_units_Z 64
_cell_length_a 15.210486
_cell_length_b 25.070198
_cell_length_c 9.134569
_cell_angle_alpha 90.000000
_cell_angle_beta 90.000000
_cell_angle_gamma 90.000000
_cell_volume 3483.284244
_symmetry_space_group_name_H-M "P B A M"
_symmetry_group_IT_number 55
_symmetry_cell_setting 'orthorhombic'
loop_
_space_group_symop_operation_xyz
x,y,z
-x,-y,z
1/2+x,1/2-y,-z
1/2-x,1/2+y,-z
-x,-y,-z
x,y,-z
1/2-x,1/2+y,z
1/2+x,1/2-y,z
loop_
_atom_site_type_symbol
_atom_site_label
_atom_site_fract_x
_atom_site_fract_y
_atom_site_fract_z
Si Si1 0.530977 0.719102 0.831217
Si Si2 0.317517 0.438864 0.674007
Si Si3 0.323944 0.557265 0.673400
Si Si4 0.700563 0.849336 0.328049
Si Si5 0.731602 0.741795 0.169549
Si Si6 0.992770 0.324290 0.666646
Si Si7 0.998313 0.112994 0.673111
Si Si8 0.818730 0.647750 0.668524
O O1 0.635131 0.717881 0.805953
O O2 0.491401 0.773619 0.769216
O O3 0.487478 0.670129 0.746689
O O4 0.505028 0.715065 0.000000
O O5 0.319740 0.441723 0.500000
O O6 0.306210 0.498394 0.739514
O O7 0.408827 0.414010 0.731533
O O8 0.235759 0.402887 0.729349
O O9 0.318660 0.554650 0.500000
O O10 0.249517 0.597932 0.731838
O O11 0.420843 0.575847 0.721781
O O12 0.717324 0.841605 0.500000
O O13 0.741964 0.798637 0.247288
O O14 0.596753 0.855415 0.290814
O O15 0.798981 0.700677 0.240422
O O16 0.754297 0.749400 0.000000
O O17 0.985270 0.303553 0.500000
O O18 0.076622 0.363655 0.684597
O O19 0.995706 0.121540 0.500000
O O20 0.792423 0.658261 0.500000
#
# Coordination Sequence:
#
# PCOD8224492 Si02
#       8
#     8   8   8   8   8   8   8   8
#     4  10  20  33  49  73 105 136 166 205 254 304
#     4   9  17  31  51  76 104 131 168 215 255 298
#     4   9  18  31  51  77 101 131 173 214 253 300
#     4   9  18  34  52  72 102 135 170 213 253 295
#     4  10  20  33  50  73 103 135 167 207 257 307
#     4   9  19  33  50  72 102 137 171 206 252 306
#     4  10  18  30  51  76 102 135 169 205 250 305
#     4  10  19  32  52  76 101 133 172 209 251 302
#
# _framework density 18.373464999999999
#
# number of rings (size 3 to 8) (size 9 to 14) (size 15 to 20)
#    0.000    2.500    1.250    1.125    1.750    3.000 
#    0.000    0.625    0.000    7.500    0.000    0.000 
#    0.000    5.000    0.000    0.000    0.000    0.000 
#
# Total GULP energy -793552.259682 kJ/mol
# GULP energy per Si atom -12399.254058 kJ/mol
# Density = 1.833165 g / cm^3
# Si number density = 18.373465 Si / 1000 Ang^3
#
#
#
# Elastic Constant Matrix: (Units=GPa)
#
#
# Indices 1 2 3 4 5 6 
#
# 1 112.4587 82.7795 27.1678 0.0000 0.0000 0.0000
# 2 82.7795 136.1862 32.3840 0.0000 0.0000 0.0000
# 3 27.1678 32.3840 44.1139 0.0000 0.0000 0.0000
# 4 0.0000 0.0000 0.0000 0.8956 0.0000 0.0000
# 5 0.0000 0.0000 0.0000 0.0000 12.9232 0.0000
# 6 0.0000 0.0000 0.0000 0.0000 0.0000 27.6811
#
#
#
# Elastic Compliance Matrix: (Units=1/GPa)
#
#
# Indices 1 2 3 4 5 6 
#
# 1 0.016501 -0.009223 -0.003391 0.000000 0.000000 0.000000
# 2 -0.009223 0.014051 -0.004635 0.000000 0.000000 0.000000
# 3 -0.003391 -0.004635 0.028159 0.000000 0.000000 0.000000
# 4 0.000000 0.000000 0.000000 1.116550 0.000000 0.000000
# 5 0.000000 0.000000 0.000000 0.000000 0.077380 0.000000
# 6 0.000000 0.000000 0.000000 0.000000 0.000000 0.036126
#
#
# Mechanical properties :
#
#
# Convention : Reuss Voigt Hill
#
# Bulk Modulus (GPa) = 41.30048 64.15793 52.72921
# Shear Modulus (GPa) = 3.75562 18.32849 11.04205
#
# Velocity S-wave (km/s) = 1.43125 3.16183 2.45415
# Velocity P-wave (km/s) = 5.02578 6.95156 6.06558
#
# Compressibility (1/GPa) = 0.02421279
#
# Stress axis : x y z
#
# Youngs Moduli (GPa) = 60.60404 71.16760 35.51201
#
# Poissons Ratio (x) = 0.65640 0.12042
# Poissons Ratio (y) = 0.55897 0.16459
# Poissons Ratio (z) = 0.20551 0.32985
#
# Static dielectric constant tensor:
#      x y z
#    x 3.516180 0.000000 0.000000 
#    y 0.000000 3.449720 0.000000 
#    z 0.000000 0.000000 3.073200 
# 
# 
# High freq. dielectric constant tensor:
#      x y z
#    x 1.720280 0.000000 0.000000 
#    y 0.000000 1.701510 0.000000 
#    z 0.000000 0.000000 1.678990 
# 
# From -- ./inp_files/6610.got.cif
#   From: 2010.03.12/outbox.cif.g09.slc.cpg/sg55_4_cif.got.tgz:6610.got - 2010.04.16 15:19:21.
