data_PCOD8224045
_publ_section_title
;
Structure prediction by ZEFSAII (Michael W. Deem and Ramdas Pophale) SiO2 
 PCOD8224045
Probable space group: P C C A
;
_chemical_formula_sum "Si O2"
_cell_formula_units_Z 56
_cell_length_a 9.186712
_cell_length_b 14.894611
_cell_length_c 19.734455
_cell_angle_alpha 90.000000
_cell_angle_beta 90.000000
_cell_angle_gamma 90.000000
_cell_volume 2700.314846
_symmetry_space_group_name_H-M "P C C A"
_symmetry_group_IT_number 54
_symmetry_cell_setting 'orthorhombic'
loop_
_space_group_symop_operation_xyz
x,y,z
1/2-x,-y,z
1/2+x,-y,1/2-z
-x,y,1/2-z
-x,-y,-z
1/2+x,y,-z
1/2-x,y,1/2+z
x,-y,1/2+z
loop_
_atom_site_type_symbol
_atom_site_label
_atom_site_fract_x
_atom_site_fract_y
_atom_site_fract_z
Si Si1 0.500000 0.216127 0.250000
Si Si2 0.573488 0.335834 0.618541
Si Si3 0.592117 0.324495 0.123647
Si Si4 0.295912 0.096730 0.552866
Si Si5 0.075808 0.493084 0.572696
Si Si6 0.029485 0.208220 0.508115
Si Si7 0.500000 0.224686 0.750000
Si Si8 0.242840 0.099905 0.208046
O O1 0.578784 0.281616 0.197614
O O2 0.396810 0.149666 0.207811
O O3 0.743603 0.361800 0.621160
O O4 0.479604 0.426033 0.618872
O O5 0.545763 0.281765 0.549984
O O6 0.509986 0.283849 0.682846
O O7 0.472071 0.401692 0.110401
O O8 0.568656 0.247766 0.068069
O O9 0.449996 0.119913 0.519820
O O10 0.319880 0.091448 0.632874
O O11 0.185043 0.176814 0.535414
O O12 0.250000 0.000000 0.523722
O O13 0.250000 0.500000 0.564709
O O14 0.000000 0.500000 0.500000
O O15 0.639251 0.160857 0.746661
O O16 0.250000 0.000000 0.240354
#
# Coordination Sequence:
#
# PCOD8224045 Si02
#       8
#     4   8   8   8   8   8   4   8
#     4  12  25  45  70 100 140 184 234 281 343 414
#     4  12  26  45  71 100 140 179 226 281 341 412
#     4  12  26  45  71 100 140 179 226 281 341 412
#     4  11  24  41  65 100 139 177 228 284 339 395
#     4  12  28  45  74 107 138 176 224 282 342 413
#     4  12  23  41  68  98 134 178 222 277 339 398
#     4  12  25  45  70 100 140 184 234 281 343 414
#     4  11  24  43  67 100 139 185 232 288 345 407
#
# _framework density 20.738322
#
# number of rings (size 3 to 8) (size 9 to 14) (size 15 to 20)
#    0.000    0.286    7.143    2.143    4.000    0.571 
#    0.000    1.429    0.000    0.000    0.000    0.000 
#    0.000    0.000    0.000    0.000    0.000    0.000 
#
# Total GULP energy -694647.790579 kJ/mol
# GULP energy per Si atom -12404.424832 kJ/mol
# Density = 2.069112 g / cm^3
# Si number density = 20.738322 Si / 1000 Ang^3
#
#
#
# Elastic Constant Matrix: (Units=GPa)
#
#
# Indices 1 2 3 4 5 6 
#
# 1 118.9637 32.8495 16.6770 0.0000 0.0000 0.0000
# 2 32.8495 116.7211 33.9859 0.0000 0.0000 0.0000
# 3 16.6770 33.9859 95.4074 0.0000 0.0000 0.0000
# 4 0.0000 0.0000 0.0000 14.6543 0.0000 0.0000
# 5 0.0000 0.0000 0.0000 0.0000 27.5664 0.0000
# 6 0.0000 0.0000 0.0000 0.0000 0.0000 21.2461
#
#
#
# Elastic Compliance Matrix: (Units=1/GPa)
#
#
# Indices 1 2 3 4 5 6 
#
# 1 0.009164 -0.002357 -0.000762 0.000000 0.000000 0.000000
# 2 -0.002357 0.010165 -0.003209 0.000000 0.000000 0.000000
# 3 -0.000762 -0.003209 0.011758 0.000000 0.000000 0.000000
# 4 0.000000 0.000000 0.000000 0.068239 0.000000 0.000000
# 5 0.000000 0.000000 0.000000 0.000000 0.036276 0.000000
# 6 0.000000 0.000000 0.000000 0.000000 0.000000 0.047068
#
#
# Mechanical properties :
#
#
# Convention : Reuss Voigt Hill
#
# Bulk Modulus (GPa) = 54.25926 55.34637 54.80282
# Shear Modulus (GPa) = 24.81768 29.19867 27.00817
#
# Velocity S-wave (km/s) = 3.46310 3.75635 3.61270
# Velocity P-wave (km/s) = 6.49702 6.74977 6.62460
#
# Compressibility (1/GPa) = 0.01843003
#
# Stress axis : x y z
#
# Youngs Moduli (GPa) = 109.12716 98.37516 85.05063
#
# Poissons Ratio (x) = 0.23188 0.06482
# Poissons Ratio (y) = 0.25722 0.27293
# Poissons Ratio (z) = 0.08317 0.31569
#
# Static dielectric constant tensor:
#      x y z
#    x 3.617950 0.000000 0.000000 
#    y 0.000000 3.944560 0.000000 
#    z 0.000000 0.000000 3.781220 
# 
# 
# High freq. dielectric constant tensor:
#      x y z
#    x 1.820920 0.000000 0.000000 
#    y 0.000000 1.823910 0.000000 
#    z 0.000000 0.000000 1.810670 
# 
# From -- ./inp_files/20580.got.cif
#   From: 2010.03.12/outbox.cif.g09.slc.cpg/sg54_11_cif.got.tgz:20580.got - 2010.04.16 15:00:50.
