data_PCOD8224469
_publ_section_title
;
Structure prediction by ZEFSAII (Michael W. Deem and Ramdas Pophale) SiO2 
 PCOD8224469
Probable space group: P B A M
;
_chemical_formula_sum "Si O2"
_cell_formula_units_Z 64
_cell_length_a 28.435088
_cell_length_b 14.339838
_cell_length_c 8.959582
_cell_angle_alpha 90.000000
_cell_angle_beta 90.000000
_cell_angle_gamma 90.000000
_cell_volume 3653.310375
_symmetry_space_group_name_H-M "P B A M"
_symmetry_group_IT_number 55
_symmetry_cell_setting 'orthorhombic'
loop_
_space_group_symop_operation_xyz
x,y,z
-x,-y,z
1/2+x,1/2-y,-z
1/2-x,1/2+y,-z
-x,-y,-z
x,y,-z
1/2-x,1/2+y,z
1/2+x,1/2-y,z
loop_
_atom_site_type_symbol
_atom_site_label
_atom_site_fract_x
_atom_site_fract_y
_atom_site_fract_z
Si Si1 0.552268 0.099558 0.323959
Si Si2 0.367087 0.226115 0.177301
Si Si3 0.052841 0.609988 0.677063
Si Si4 0.314769 0.600935 0.670738
Si Si5 0.779588 0.394455 0.173329
Si Si6 0.724464 0.108827 0.174152
Si Si7 0.178608 0.892094 0.323295
Si Si8 0.359169 0.787715 0.327177
O O1 0.549415 0.097412 0.500000
O O2 0.500606 0.129079 0.267521
O O3 0.590683 0.174588 0.267925
O O4 0.566446 0.995240 0.271799
O O5 0.415270 0.183447 0.236986
O O6 0.323804 0.162933 0.236441
O O7 0.361212 0.329378 0.245403
O O8 0.369027 0.231499 0.000000
O O9 0.058841 0.623429 0.500000
O O10 0.299653 0.590829 0.500000
O O11 0.268813 0.640156 0.753808
O O12 0.330909 0.499140 0.728608
O O13 0.357061 0.675316 0.691770
O O14 0.788305 0.502306 0.210470
O O15 0.774105 0.375185 0.000000
O O16 0.770393 0.140467 0.265093
O O17 0.680801 0.169219 0.225219
O O18 0.734610 0.125037 0.000000
O O19 0.175770 0.879328 0.500000
O O20 0.351217 0.816295 0.500000
#
# Coordination Sequence:
#
# PCOD8224469 Si02
#       8
#     8   8   8   8   8   8   8   8
#     4   8  16  31  52  75  99 124 155 192 234 284
#     4  11  21  32  48  72  97 125 160 198 237 282
#     4   9  17  32  52  74  98 126 155 189 235 288
#     4   9  19  32  47  67  92 121 158 197 232 269
#     4   9  19  32  45  64  96 129 155 185 228 277
#     4  10  19  31  46  69  99 128 155 188 229 278
#     4  10  20  34  48  65  91 126 163 198 232 272
#     4  10  18  30  49  72  95 123 157 195 234 278
#
# _framework density 17.518357999999999
#
# number of rings (size 3 to 8) (size 9 to 14) (size 15 to 20)
#    0.000    2.500    0.000    3.375    0.000    4.500 
#    0.000    1.875    0.000    0.750    0.000    5.250 
#    0.000    0.000    0.000    0.000    0.000    0.000 
#
# Total GULP energy -793532.080845 kJ/mol
# GULP energy per Si atom -12398.938763 kJ/mol
# Density = 1.747849 g / cm^3
# Si number density = 17.518358 Si / 1000 Ang^3
#
#
#
# Elastic Constant Matrix: (Units=GPa)
#
#
# Indices 1 2 3 4 5 6 
#
# 1 109.9297 74.5604 29.9091 0.0000 0.0000 0.0000
# 2 74.5604 98.5795 32.2617 0.0000 0.0000 0.0000
# 3 29.9091 32.2617 47.5401 0.0000 0.0000 0.0000
# 4 0.0000 0.0000 0.0000 20.0975 0.0000 0.0000
# 5 0.0000 0.0000 0.0000 0.0000 13.5415 0.0000
# 6 0.0000 0.0000 0.0000 0.0000 0.0000 33.1337
#
#
#
# Elastic Compliance Matrix: (Units=1/GPa)
#
#
# Indices 1 2 3 4 5 6 
#
# 1 0.018970 -0.013423 -0.002825 0.000000 0.000000 0.000000
# 2 -0.013423 0.022538 -0.006850 0.000000 0.000000 0.000000
# 3 -0.002825 -0.006850 0.027461 0.000000 0.000000 0.000000
# 4 0.000000 0.000000 0.000000 0.049758 0.000000 0.000000
# 5 0.000000 0.000000 0.000000 0.000000 0.073847 0.000000
# 6 0.000000 0.000000 0.000000 0.000000 0.000000 0.030181
#
#
# Mechanical properties :
#
#
# Convention : Reuss Voigt Hill
#
# Bulk Modulus (GPa) = 43.91335 58.83464 51.37400
# Shear Modulus (GPa) = 18.08043 21.30908 19.69475
#
# Velocity S-wave (km/s) = 3.21609 3.49146 3.35660
# Velocity P-wave (km/s) = 6.23799 7.06478 6.66422
#
# Compressibility (1/GPa) = 0.02277212
#
# Stress axis : x y z
#
# Youngs Moduli (GPa) = 52.71569 44.36871 36.41522
#
# Poissons Ratio (x) = 0.59556 0.10289
# Poissons Ratio (y) = 0.70761 0.24945
# Poissons Ratio (z) = 0.14894 0.30393
#
# Static dielectric constant tensor:
#      x y z
#    x 3.343950 0.000000 0.000000 
#    y 0.000000 3.475070 0.000000 
#    z 0.000000 0.000000 3.098360 
# 
# 
# High freq. dielectric constant tensor:
#      x y z
#    x 1.656920 0.000000 0.000000 
#    y 0.000000 1.680650 0.000000 
#    z 0.000000 0.000000 1.666640 
# 
# From -- ./inp_files/6924.got.cif
#   From: 2010.03.12/outbox.cif.g09.slc.cpg/sg55_4_cif.got.tgz:6924.got - 2010.04.16 15:19:21.
