data_PCOD8224334
_publ_section_title
;
Structure prediction by ZEFSAII (Michael W. Deem and Ramdas Pophale) SiO2 
 PCOD8224334
Probable space group: P B A M
;
_chemical_formula_sum "Si O2"
_cell_formula_units_Z 64
_cell_length_a 19.401372
_cell_length_b 19.401374
_cell_length_c 8.249066
_cell_angle_alpha 90.000000
_cell_angle_beta 90.000000
_cell_angle_gamma 90.000000
_cell_volume 3105.057943
_symmetry_space_group_name_H-M "P B A M"
_symmetry_group_IT_number 55
_symmetry_cell_setting 'orthorhombic'
loop_
_space_group_symop_operation_xyz
x,y,z
-x,-y,z
1/2+x,1/2-y,-z
1/2-x,1/2+y,-z
-x,-y,-z
x,y,-z
1/2-x,1/2+y,z
1/2+x,1/2-y,z
loop_
_atom_site_type_symbol
_atom_site_label
_atom_site_fract_x
_atom_site_fract_y
_atom_site_fract_z
Si Si1 0.126608 0.335328 0.807169
Si Si2 0.804445 0.526373 0.807901
Si Si3 0.596904 0.403096 0.189158
Si Si4 0.544947 0.652700 0.193551
Si Si5 0.295528 0.704472 0.311005
Si Si6 0.526372 0.804445 0.192099
Si Si7 0.664672 0.873392 0.807169
Si Si8 0.652700 0.544947 0.806449
O O1 0.143194 0.413774 0.752007
O O2 0.183764 0.282782 0.735672
O O3 0.049550 0.321903 0.737932
O O4 0.129852 0.327717 0.000000
O O5 0.821903 0.450450 0.737932
O O6 0.730215 0.549957 0.741571
O O7 0.804353 0.520088 0.000000
O O8 0.524521 0.380525 0.266873
O O9 0.654333 0.345667 0.214010
O O10 0.619475 0.475479 0.266873
O O11 0.586294 0.413706 0.000000
O O12 0.549957 0.730215 0.258429
O O13 0.610475 0.610475 0.259529
O O14 0.542752 0.651644 0.000000
O O15 0.306420 0.693579 0.500000
O O16 0.217218 0.683764 0.264328
O O17 0.586226 0.856806 0.247994
O O18 0.520088 0.804354 0.000000
O O19 0.672283 0.870148 0.000000
O O20 0.651644 0.542751 0.000000
#
# Coordination Sequence:
#
# PCOD8224334 Si02
#       8
#     8   8   8   8   8   8   8   8
#     4  10  20  37  59  84 111 143 183 230 282 336
#     4   9  18  31  54  85 112 139 177 229 283 332
#     4  10  17  32  56  78 108 144 179 227 277 330
#     4   9  16  26  46  82 114 138 174 222 275 330
#     4  12  24  37  55  81 112 151 189 228 273 328
#     4   9  18  31  54  85 112 139 177 229 283 332
#     4  10  20  37  59  84 111 143 183 230 282 336
#     4   9  16  26  46  82 114 138 174 222 275 330
#
# _framework density 20.611533000000001
#
# number of rings (size 3 to 8) (size 9 to 14) (size 15 to 20)
#    0.000    2.250    2.500    1.500    1.750    2.000 
#    0.000    3.750    0.000    1.500    0.000    1.750 
#    0.000    0.000    0.000    0.000    0.000    0.000 
#
# Total GULP energy -793283.933249 kJ/mol
# GULP energy per Si atom -12395.061457 kJ/mol
# Density = 2.056462 g / cm^3
# Si number density = 20.611533 Si / 1000 Ang^3
#
#
#
# Elastic Constant Matrix: (Units=GPa)
#
#
# Indices 1 2 3 4 5 6 
#
# 1 149.2285 89.7710 7.6434 0.0000 0.0000 0.0000
# 2 89.7710 149.2295 7.6433 0.0000 0.0000 0.0000
# 3 7.6434 7.6433 11.8793 0.0000 0.0000 0.0000
# 4 0.0000 0.0000 0.0000 2.8532 0.0000 0.0000
# 5 0.0000 0.0000 0.0000 0.0000 2.8532 0.0000
# 6 0.0000 0.0000 0.0000 0.0000 0.0000 42.7242
#
#
#
# Elastic Compliance Matrix: (Units=1/GPa)
#
#
# Indices 1 2 3 4 5 6 
#
# 1 0.010591 -0.006227 -0.002808 0.000000 0.000000 0.000000
# 2 -0.006227 0.010591 -0.002808 0.000000 0.000000 0.000000
# 3 -0.002808 -0.002808 0.087793 0.000000 0.000000 0.000000
# 4 0.000000 0.000000 0.000000 0.350478 0.000000 0.000000
# 5 0.000000 0.000000 0.000000 0.000000 0.350487 0.000000
# 6 0.000000 0.000000 0.000000 0.000000 0.000000 0.023406
#
#
# Mechanical properties :
#
#
# Convention : Reuss Voigt Hill
#
# Bulk Modulus (GPa) = 11.72470 57.82808 34.77639
# Shear Modulus (GPa) = 5.64677 23.37143 14.50910
#
# Velocity S-wave (km/s) = 1.65697 3.37100 2.65605
# Velocity P-wave (km/s) = 3.05966 6.57789 5.12982
#
# Compressibility (1/GPa) = 0.08529004
#
# Stress axis : x y z
#
# Youngs Moduli (GPa) = 94.41822 94.41886 11.39038
#
# Poissons Ratio (x) = 0.58799 0.03198
# Poissons Ratio (y) = 0.58799 0.03198
# Poissons Ratio (z) = 0.26510 0.26509
#
# Static dielectric constant tensor:
#      x y z
#    x 3.999170 0.000000 0.000000 
#    y 0.000000 3.999170 0.000000 
#    z 0.000000 0.000000 3.029920 
# 
# 
# High freq. dielectric constant tensor:
#      x y z
#    x 1.816190 0.000000 0.000000 
#    y 0.000000 1.816190 0.000000 
#    z 0.000000 0.000000 1.739020 
# 
# From -- ./inp_files/8072.got.cif
#   From: 2010.03.12/outbox.cif.g09.slc.cpg/sg55_5_cif.got.tgz:8072.got - 2010.04.16 15:19:21.
