data_PCOD8224954
_publ_section_title
;
Structure prediction by ZEFSAII (Michael W. Deem and Ramdas Pophale) SiO2 
 PCOD8224954
Probable space group: P B A M
;
_chemical_formula_sum "Si O2"
_cell_formula_units_Z 64
_cell_length_a 11.867373
_cell_length_b 28.976052
_cell_length_c 8.975617
_cell_angle_alpha 90.000000
_cell_angle_beta 90.000000
_cell_angle_gamma 90.000000
_cell_volume 3086.441981
_symmetry_space_group_name_H-M "P B A M"
_symmetry_group_IT_number 55
_symmetry_cell_setting 'orthorhombic'
loop_
_space_group_symop_operation_xyz
x,y,z
-x,-y,z
1/2+x,1/2-y,-z
1/2-x,1/2+y,-z
-x,-y,-z
x,y,-z
1/2-x,1/2+y,z
1/2+x,1/2-y,z
loop_
_atom_site_type_symbol
_atom_site_label
_atom_site_fract_x
_atom_site_fract_y
_atom_site_fract_z
Si Si1 0.754176 0.835134 0.326386
Si Si2 0.802804 0.940118 0.674670
Si Si3 0.873714 0.151806 0.331438
Si Si4 0.731908 0.026030 0.828447
Si Si5 0.536888 0.270424 0.330652
Si Si6 0.473782 0.181141 0.175342
Si Si7 0.472522 0.430482 0.830132
Si Si8 0.634912 0.113185 0.673329
O O1 0.723851 0.830995 0.500000
O O2 0.770993 0.888205 0.279582
O O3 0.866236 0.806678 0.287406
O O4 0.653821 0.813627 0.230483
O O5 0.794939 0.948409 0.500000
O O6 0.929314 0.951045 0.728267
O O7 0.716385 0.975511 0.755046
O O8 0.900160 0.134445 0.500000
O O9 0.741005 0.147311 0.298594
O O10 0.915174 0.204425 0.312671
O O11 0.944834 0.121577 0.216764
O O12 0.654915 0.062998 0.743545
O O13 0.862543 0.038604 0.809087
O O14 0.694510 0.024850 0.000000
O O15 0.552557 0.252886 0.500000
O O16 0.542782 0.226657 0.222907
O O17 0.527341 0.135745 0.248958
O O18 0.479025 0.175720 0.000000
O O19 0.514641 0.430788 0.000000
O O20 0.609076 0.106642 0.500000
#
# Coordination Sequence:
#
# PCOD8224954 Si02
#       8
#     8   8   8   8   8   8   8   8
#     4  10  23  44  67  90 121 161 208 257 304 361
#     4  11  21  36  59  88 120 161 212 261 304 362
#     4   9  18  35  60  89 117 153 201 247 296 355
#     4  10  21  36  56  88 127 166 204 252 314 372
#     4  10  21  41  66  91 120 158 204 252 304 367
#     4  12  27  43  62  91 126 161 202 255 311 370
#     4  10  19  31  51  83 126 165 196 241 305 366
#     4  10  21  40  65  90 120 163 211 256 301 361
#
# _framework density 20.735849999999999
#
# number of rings (size 3 to 8) (size 9 to 14) (size 15 to 20)
#    0.000    1.750    1.250    3.000    1.750    5.500 
#    0.000    0.625    0.000    3.750    0.000    0.000 
#    0.000    0.000    0.000    0.000    0.000    0.000 
#
# Total GULP energy -793812.446950 kJ/mol
# GULP energy per Si atom -12403.319484 kJ/mol
# Density = 2.068865 g / cm^3
# Si number density = 20.735850 Si / 1000 Ang^3
#
#
#
# Elastic Constant Matrix: (Units=GPa)
#
#
# Indices 1 2 3 4 5 6 
#
# 1 49.1038 16.2677 25.8895 0.0000 0.0000 0.0000
# 2 16.2677 100.6252 47.8102 0.0000 0.0000 0.0000
# 3 25.8895 47.8102 108.2457 0.0000 0.0000 0.0000
# 4 0.0000 0.0000 0.0000 29.7038 0.0000 0.0000
# 5 0.0000 0.0000 0.0000 0.0000 25.5603 0.0000
# 6 0.0000 0.0000 0.0000 0.0000 0.0000 15.2370
#
#
#
# Elastic Compliance Matrix: (Units=1/GPa)
#
#
# Indices 1 2 3 4 5 6 
#
# 1 0.023464 -0.001426 -0.004982 0.000000 0.000000 0.000000
# 2 -0.001426 0.012664 -0.005252 0.000000 0.000000 0.000000
# 3 -0.004982 -0.005252 0.012750 0.000000 0.000000 0.000000
# 4 0.000000 0.000000 0.000000 0.033666 0.000000 0.000000
# 5 0.000000 0.000000 0.000000 0.000000 0.039123 0.000000
# 6 0.000000 0.000000 0.000000 0.000000 0.000000 0.065630
#
#
# Mechanical properties :
#
#
# Convention : Reuss Voigt Hill
#
# Bulk Modulus (GPa) = 39.12878 48.65660 43.89269
# Shear Modulus (GPa) = 22.81682 25.30072 24.05877
#
# Velocity S-wave (km/s) = 3.32076 3.49685 3.40994
# Velocity P-wave (km/s) = 5.79779 6.31029 6.05946
#
# Compressibility (1/GPa) = 0.02555664
#
# Stress axis : x y z
#
# Youngs Moduli (GPa) = 42.61794 78.96406 78.43330
#
# Poissons Ratio (x) = 0.11262 0.39076
# Poissons Ratio (y) = 0.06078 0.41196
# Poissons Ratio (z) = 0.21233 0.41475
#
# Static dielectric constant tensor:
#      x y z
#    x 3.590000 0.000000 0.000000 
#    y 0.000000 3.745840 0.000000 
#    z 0.000000 0.000000 3.717510 
# 
# 
# High freq. dielectric constant tensor:
#      x y z
#    x 1.795450 0.000000 0.000000 
#    y 0.000000 1.815850 0.000000 
#    z 0.000000 0.000000 1.808940 
# 
# From -- ./inp_files/4572.got.cif
#   From: 2010.03.12/outbox.cif.g09.slc.cpg/sg55_3_cif.got.tgz:4572.got - 2010.04.16 15:19:21.
