data_PCOD8224801
_publ_section_title
;
Structure prediction by ZEFSAII (Michael W. Deem and Ramdas Pophale) SiO2 
 PCOD8224801
Probable space group: P B A M
;
_chemical_formula_sum "Si O2"
_cell_formula_units_Z 56
_cell_length_a 9.498241
_cell_length_b 25.651862
_cell_length_c 14.283724
_cell_angle_alpha 90.000000
_cell_angle_beta 90.000000
_cell_angle_gamma 90.000000
_cell_volume 3480.194606
_symmetry_space_group_name_H-M "P B A M"
_symmetry_group_IT_number 55
_symmetry_cell_setting 'orthorhombic'
loop_
_space_group_symop_operation_xyz
x,y,z
-x,-y,z
1/2+x,1/2-y,-z
1/2-x,1/2+y,-z
-x,-y,-z
x,y,-z
1/2-x,1/2+y,z
1/2+x,1/2-y,z
loop_
_atom_site_type_symbol
_atom_site_label
_atom_site_fract_x
_atom_site_fract_y
_atom_site_fract_z
Si Si1 0.514531 0.787656 0.796133
Si Si2 0.498574 0.336807 0.203478
Si Si3 0.009307 0.557026 0.108013
Si Si4 0.720569 0.858426 0.889906
Si Si5 0.059524 0.185131 0.398697
Si Si6 0.623671 0.783612 0.601902
Si Si7 0.712822 0.142967 0.890719
O O1 0.503387 0.725650 0.801657
O O2 0.650806 0.804687 0.855127
O O3 0.539484 0.808992 0.689368
O O4 0.374511 0.811544 0.840321
O O5 0.619014 0.361739 0.140040
O O6 0.528078 0.353684 0.311869
O O7 0.358428 0.362324 0.163688
O O8 0.862105 0.587196 0.119916
O O9 0.000000 0.500000 0.157214
O O10 0.134001 0.592226 0.152716
O O11 0.046676 0.548480 0.000000
O O12 0.707017 0.858805 0.000000
O O13 0.067771 0.155826 0.500000
O O14 0.207901 0.215165 0.379694
O O15 0.927531 0.224153 0.402814
O O16 0.589562 0.810288 0.500000
O O17 0.733780 0.157586 0.000000
#
# Coordination Sequence:
#
# PCOD8224801 Si02
#       7
#     8   8   8   8   8   8   8
#     4  10  19  30  43  63  93 136 161 183 219 264
#     4  11  20  29  43  67  99 129 154 192 224 262
#     4   8  16  34  54  66  83 115 151 194 244 281
#     4  10  19  30  45  67  92 122 161 189 220 276
#     4   9  18  30  44  62  88 124 162 199 233 262
#     4   9  17  29  44  62  85 119 164 202 231 261
#     4  10  21  32  45  67  95 125 160 191 222 271
#
# _framework density 16.091054
#
# number of rings (size 3 to 8) (size 9 to 14) (size 15 to 20)
#    0.000    2.429    1.429    2.571    6.000    3.429 
#    0.000    0.714    0.000    3.429    0.000    0.000 
#    0.000   21.714    0.000    0.000    0.000    0.000 
#
# Total GULP energy -693804.683704 kJ/mol
# GULP energy per Si atom -12389.369352 kJ/mol
# Density = 1.605443 g / cm^3
# Si number density = 16.091054 Si / 1000 Ang^3
#
#
#
# Elastic Constant Matrix: (Units=GPa)
#
#
# Indices 1 2 3 4 5 6 
#
# 1 88.8210 20.4719 32.2102 0.0000 0.0000 0.0000
# 2 20.4719 59.7043 23.6187 0.0000 0.0000 0.0000
# 3 32.2102 23.6187 106.9381 0.0000 0.0000 0.0000
# 4 0.0000 0.0000 0.0000 3.5365 0.0000 0.0000
# 5 0.0000 0.0000 0.0000 0.0000 27.8056 0.0000
# 6 0.0000 0.0000 0.0000 0.0000 0.0000 4.4423
#
#
#
# Elastic Compliance Matrix: (Units=1/GPa)
#
#
# Indices 1 2 3 4 5 6 
#
# 1 0.013185 -0.003232 -0.003257 0.000000 0.000000 0.000000
# 2 -0.003232 0.019145 -0.003255 0.000000 0.000000 0.000000
# 3 -0.003257 -0.003255 0.011051 0.000000 0.000000 0.000000
# 4 0.000000 0.000000 0.000000 0.282765 0.000000 0.000000
# 5 0.000000 0.000000 0.000000 0.000000 0.035964 0.000000
# 6 0.000000 0.000000 0.000000 0.000000 0.000000 0.225109
#
#
# Mechanical properties :
#
#
# Convention : Reuss Voigt Hill
#
# Bulk Modulus (GPa) = 41.85501 45.34056 43.59778
# Shear Modulus (GPa) = 8.13441 19.10105 13.61773
#
# Velocity S-wave (km/s) = 2.25082 3.44911 2.91227
# Velocity P-wave (km/s) = 5.72912 6.64082 6.20174
#
# Compressibility (1/GPa) = 0.02389200
#
# Stress axis : x y z
#
# Youngs Moduli (GPa) = 75.84442 52.23262 90.48756
#
# Poissons Ratio (x) = 0.16883 0.29476
# Poissons Ratio (y) = 0.24515 0.29452
# Poissons Ratio (z) = 0.24706 0.17001
#
# Static dielectric constant tensor:
#      x y z
#    x 3.178690 0.000000 0.000000 
#    y 0.000000 2.776970 0.000000 
#    z 0.000000 0.000000 3.481390 
# 
# 
# High freq. dielectric constant tensor:
#      x y z
#    x 1.631830 0.000000 0.000000 
#    y 0.000000 1.556320 0.000000 
#    z 0.000000 0.000000 1.626940 
# 
# From -- ./inp_files/17897.got.cif
#   From: 2010.03.12/outbox.cif.g09.slc.cpg/sg55_9_cif.got.tgz:17897.got - 2010.04.16 15:19:21.
