data_PCOD8224619
_publ_section_title
;
Structure prediction by ZEFSAII (Michael W. Deem and Ramdas Pophale) SiO2 
 PCOD8224619
Probable space group: P B A M
;
_chemical_formula_sum "Si O2"
_cell_formula_units_Z 64
_cell_length_a 8.845695
_cell_length_b 20.061730
_cell_length_c 19.295480
_cell_angle_alpha 90.000000
_cell_angle_beta 90.000000
_cell_angle_gamma 90.000000
_cell_volume 3424.174815
_symmetry_space_group_name_H-M "P B A M"
_symmetry_group_IT_number 55
_symmetry_cell_setting 'orthorhombic'
loop_
_space_group_symop_operation_xyz
x,y,z
-x,-y,z
1/2+x,1/2-y,-z
1/2-x,1/2+y,-z
-x,-y,-z
x,y,-z
1/2-x,1/2+y,z
1/2+x,1/2-y,z
loop_
_atom_site_type_symbol
_atom_site_label
_atom_site_fract_x
_atom_site_fract_y
_atom_site_fract_z
Si Si1 0.553760 0.341375 0.777317
Si Si2 0.091333 0.314187 0.633976
Si Si3 0.423864 0.309243 0.420663
Si Si4 0.213552 0.295071 0.776392
Si Si5 0.902011 0.436526 0.419258
Si Si6 0.920061 0.929593 0.352985
Si Si7 0.559895 0.338586 0.926693
Si Si8 0.727716 0.207978 0.073544
O O1 0.390854 0.307580 0.764306
O O2 0.681469 0.284157 0.770872
O O3 0.583799 0.399740 0.723745
O O4 0.565827 0.377954 0.853582
O O5 0.246094 0.308371 0.592007
O O6 0.121852 0.331927 0.714921
O O7 0.005847 0.243551 0.629338
O O8 0.990503 0.369910 0.599022
O O9 0.456472 0.290207 0.500000
O O10 0.489732 0.382231 0.405604
O O11 0.163125 0.322443 0.853434
O O12 0.862551 0.437025 0.500000
O O13 0.749738 0.439818 0.376610
O O14 0.000000 0.500000 0.397579
O O15 0.000000 0.000000 0.351119
O O16 0.407604 0.295429 0.924918
O O17 0.696234 0.286419 0.927820
O O18 0.566094 0.381052 0.000000
O O19 0.667638 0.175005 0.000000
#
# Coordination Sequence:
#
# PCOD8224619 Si02
#       8
#     8   8   8   8   8   8   8   8
#     4  10  20  34  53  84 114 146 185 227 275 332
#     4  12  22  39  59  86 115 145 184 230 275 336
#     4  12  24  38  59  84 112 146 184 232 283 334
#     4  10  18  32  54  80 113 147 180 223 274 321
#     4  11  26  45  63  82 108 143 185 233 286 343
#     4  12  25  41  59  81 109 145 186 236 286 340
#     4   8  14  26  46  72 108 145 178 217 264 320
#     4   8  14  24  42  72 108 143 176 212 261 317
#
# _framework density 18.690633999999999
#
# number of rings (size 3 to 8) (size 9 to 14) (size 15 to 20)
#    0.000    1.625    2.500    3.000    1.750    2.000 
#    0.000    0.000    0.000    0.375    0.000    0.000 
#    0.000    1.000    0.000    0.000    0.000    0.000 
#
# Total GULP energy -792929.421171 kJ/mol
# GULP energy per Si atom -12389.522206 kJ/mol
# Density = 1.864809 g / cm^3
# Si number density = 18.690634 Si / 1000 Ang^3
#
#
#
# Elastic Constant Matrix: (Units=GPa)
#
#
# Indices 1 2 3 4 5 6 
#
# 1 104.1541 46.2465 53.5295 0.0000 0.0000 0.0000
# 2 46.2465 79.9502 30.2613 0.0000 0.0000 0.0000
# 3 53.5295 30.2613 157.3103 0.0000 0.0000 0.0000
# 4 0.0000 0.0000 0.0000 16.7813 0.0000 0.0000
# 5 0.0000 0.0000 0.0000 0.0000 18.4663 0.0000
# 6 0.0000 0.0000 0.0000 0.0000 0.0000 22.4790
#
#
#
# Elastic Compliance Matrix: (Units=1/GPa)
#
#
# Indices 1 2 3 4 5 6 
#
# 1 0.014597 -0.007079 -0.003605 0.000000 0.000000 0.000000
# 2 -0.007079 0.016923 -0.000847 0.000000 0.000000 0.000000
# 3 -0.003605 -0.000847 0.007747 0.000000 0.000000 0.000000
# 4 0.000000 0.000000 0.000000 0.059590 0.000000 0.000000
# 5 0.000000 0.000000 0.000000 0.000000 0.054153 0.000000
# 6 0.000000 0.000000 0.000000 0.000000 0.000000 0.044486
#
#
# Mechanical properties :
#
#
# Convention : Reuss Voigt Hill
#
# Bulk Modulus (GPa) = 61.70979 66.83211 64.27095
# Shear Modulus (GPa) = 22.12785 25.63713 23.88249
#
# Velocity S-wave (km/s) = 3.44452 3.70761 3.57848
# Velocity P-wave (km/s) = 6.99340 7.35956 7.17882
#
# Compressibility (1/GPa) = 0.01620489
#
# Stress axis : x y z
#
# Youngs Moduli (GPa) = 68.50536 59.09101 129.08949
#
# Poissons Ratio (x) = 0.41831 0.46542
# Poissons Ratio (y) = 0.48495 0.10928
# Poissons Ratio (z) = 0.24699 0.05002
#
# Static dielectric constant tensor:
#      x y z
#    x 3.601080 0.000000 0.000000 
#    y 0.000000 2.998080 0.000000 
#    z 0.000000 0.000000 4.212540 
# 
# 
# High freq. dielectric constant tensor:
#      x y z
#    x 1.733260 0.000000 0.000000 
#    y 0.000000 1.664270 0.000000 
#    z 0.000000 0.000000 1.763520 
# 
# From -- ./inp_files/22704.got.cif
#   From: 2010.03.12/outbox.cif.g09.slc.cpg/sg55_12_cif.got.tgz:22704.got - 2010.04.16 15:19:21.
