data_PCOD8224746
_publ_section_title
;
Structure prediction by ZEFSAII (Michael W. Deem and Ramdas Pophale) SiO2 
 PCOD8224746
Probable space group: P B A M
;
_chemical_formula_sum "Si O2"
_cell_formula_units_Z 64
_cell_length_a 18.923794
_cell_length_b 19.724564
_cell_length_c 9.098760
_cell_angle_alpha 90.000000
_cell_angle_beta 90.000000
_cell_angle_gamma 90.000000
_cell_volume 3396.235785
_symmetry_space_group_name_H-M "P B A M"
_symmetry_group_IT_number 55
_symmetry_cell_setting 'orthorhombic'
loop_
_space_group_symop_operation_xyz
x,y,z
-x,-y,z
1/2+x,1/2-y,-z
1/2-x,1/2+y,-z
-x,-y,-z
x,y,-z
1/2-x,1/2+y,z
1/2+x,1/2-y,z
loop_
_atom_site_type_symbol
_atom_site_label
_atom_site_fract_x
_atom_site_fract_y
_atom_site_fract_z
Si Si1 0.811250 0.417135 0.828944
Si Si2 0.045913 0.566796 0.331958
Si Si3 0.180322 0.739754 0.828702
Si Si4 0.287442 0.838608 0.326918
Si Si5 0.546305 0.704126 0.329238
Si Si6 0.442272 0.448101 0.674525
Si Si7 0.284707 0.479850 0.327655
Si Si8 0.443998 0.819024 0.329721
O O1 0.883603 0.444409 0.760164
O O2 0.800645 0.337963 0.797407
O O3 0.745340 0.455510 0.756735
O O4 0.813006 0.433778 0.000000
O O5 0.067753 0.582694 0.500000
O O6 0.000000 0.500000 0.321526
O O7 0.000413 0.628306 0.261381
O O8 0.239274 0.784904 0.753911
O O9 0.104530 0.755274 0.760460
O O10 0.177530 0.756402 0.000000
O O11 0.283065 0.823860 0.500000
O O12 0.262037 0.914169 0.290204
O O13 0.366280 0.828442 0.261422
O O14 0.569076 0.704535 0.500000
O O15 0.538794 0.627539 0.270237
O O16 0.471479 0.742235 0.305691
O O17 0.500000 0.500000 0.741243
O O18 0.444897 0.450236 0.500000
O O19 0.364350 0.467869 0.729854
O O20 0.283717 0.495504 0.500000
O O21 0.437631 0.838215 0.500000
#
# Coordination Sequence:
#
# PCOD8224746 Si02
#       8
#     8   8   8   8   8   8   8   8
#     4  11  24  38  54  81 118 157 194 233 278 342
#     4  10  19  34  57  83 112 146 185 234 286 337
#     4  11  23  38  56  81 114 156 197 234 280 341
#     4  10  20  37  60  89 116 146 191 240 292 349
#     4  10  18  35  60  83 110 148 188 237 291 340
#     4   9  18  33  57  88 115 141 185 241 292 342
#     4  10  20  36  59  85 116 154 193 241 294 343
#     4   9  18  31  55  87 113 139 184 238 287 339
#
# _framework density 18.844391000000002
#
# number of rings (size 3 to 8) (size 9 to 14) (size 15 to 20)
#    0.000    2.000    2.500    1.500    0.000    5.250 
#    0.000    3.750    0.000    1.500    0.000    0.000 
#    0.000    0.000    0.000    0.000    0.000    0.000 
#
# Total GULP energy -793713.096614 kJ/mol
# GULP energy per Si atom -12401.767135 kJ/mol
# Density = 1.880150 g / cm^3
# Si number density = 18.844391 Si / 1000 Ang^3
#
#
#
# Elastic Constant Matrix: (Units=GPa)
#
#
# Indices 1 2 3 4 5 6 
#
# 1 122.2799 55.9042 38.0462 0.0000 0.0000 0.0000
# 2 55.9042 118.5540 51.9601 0.0000 0.0000 0.0000
# 3 38.0462 51.9601 52.0121 0.0000 0.0000 0.0000
# 4 0.0000 0.0000 0.0000 19.7079 0.0000 0.0000
# 5 0.0000 0.0000 0.0000 0.0000 3.1893 0.0000
# 6 0.0000 0.0000 0.0000 0.0000 0.0000 38.4765
#
#
#
# Elastic Compliance Matrix: (Units=1/GPa)
#
#
# Indices 1 2 3 4 5 6 
#
# 1 0.011155 -0.002995 -0.005167 0.000000 0.000000 0.000000
# 2 -0.002995 0.015809 -0.013602 0.000000 0.000000 0.000000
# 3 -0.005167 -0.013602 0.036595 0.000000 0.000000 0.000000
# 4 0.000000 0.000000 0.000000 0.050741 0.000000 0.000000
# 5 0.000000 0.000000 0.000000 0.000000 0.313553 0.000000
# 6 0.000000 0.000000 0.000000 0.000000 0.000000 0.025990
#
#
# Mechanical properties :
#
#
# Convention : Reuss Voigt Hill
#
# Bulk Modulus (GPa) = 49.92761 64.96299 57.44530
# Shear Modulus (GPa) = 9.91966 22.07042 15.99504
#
# Velocity S-wave (km/s) = 2.29683 3.42598 2.91657
# Velocity P-wave (km/s) = 5.79535 7.08506 6.47241
#
# Compressibility (1/GPa) = 0.02002900
#
# Stress axis : x y z
#
# Youngs Moduli (GPa) = 89.64411 63.25497 27.32632
#
# Poissons Ratio (x) = 0.18948 0.14121
# Poissons Ratio (y) = 0.26852 0.37170
# Poissons Ratio (z) = 0.46323 0.86040
#
# Static dielectric constant tensor:
#      x y z
#    x 3.628970 0.000000 0.000000 
#    y 0.000000 3.603240 0.000000 
#    z 0.000000 0.000000 3.174930 
# 
# 
# High freq. dielectric constant tensor:
#      x y z
#    x 1.739290 0.000000 0.000000 
#    y 0.000000 1.744900 0.000000 
#    z 0.000000 0.000000 1.696100 
# 
# From -- ./inp_files/8067.got.cif
#   From: 2010.03.12/outbox.cif.g09.slc.cpg/sg55_5_cif.got.tgz:8067.got - 2010.04.16 15:19:21.
