data_PCOD8224121
_publ_section_title
;
Structure prediction by ZEFSAII (Michael W. Deem and Ramdas Pophale) SiO2 
 PCOD8224121
Probable space group: P C C A
;
_chemical_formula_sum "Si O2"
_cell_formula_units_Z 36
_cell_length_a 8.935407
_cell_length_b 8.933290
_cell_length_c 19.869804
_cell_angle_alpha 90.000000
_cell_angle_beta 90.000000
_cell_angle_gamma 90.000000
_cell_volume 1586.059059
_symmetry_space_group_name_H-M "P C C A"
_symmetry_group_IT_number 54
_symmetry_cell_setting 'orthorhombic'
loop_
_space_group_symop_operation_xyz
x,y,z
1/2-x,-y,z
1/2+x,-y,1/2-z
-x,y,1/2-z
-x,-y,-z
1/2+x,y,-z
1/2-x,y,1/2+z
x,-y,1/2+z
loop_
_atom_site_type_symbol
_atom_site_label
_atom_site_fract_x
_atom_site_fract_y
_atom_site_fract_z
Si Si1 0.586534 0.960540 0.313905
Si Si2 0.291590 0.335699 0.440548
Si Si3 0.015690 0.292418 0.673743
Si Si4 0.043200 0.262358 0.066418
Si Si5 0.250000 0.500000 0.617839
O O1 0.500000 0.885871 0.250000
O O2 0.601055 0.854716 0.378534
O O3 0.750000 0.000000 0.286398
O O4 0.506503 0.114153 0.335742
O O5 0.250000 0.500000 0.470114
O O6 0.379131 0.357320 0.370455
O O7 0.392041 0.233051 0.491201
O O8 0.135200 0.250370 0.430918
O O9 0.178691 0.359284 0.656415
O O10 0.000000 0.343820 0.750000
O O11 0.107456 0.429616 0.079265
#
# Coordination Sequence:
#
# PCOD8224121 Si02
#       5
#     8   8   8   8   4
#     4  11  27  49  72 102 148 190 238 299 363 432
#     4  12  25  46  72 109 147 190 238 306 359 423
#     4  11  27  45  71 105 148 185 243 298 359 432
#     4  12  26  44  76 100 147 191 242 293 368 419
#     4  12  22  44  70 106 136 190 236 304 352 428
#
# _framework density 22.697768
#
# number of rings (size 3 to 8) (size 9 to 14) (size 15 to 20)
#    0.000    0.444    5.556    2.000    7.778    1.778 
#    0.000    0.000    0.000    0.000    0.000    0.000 
#    0.000    0.000    0.000    0.000    0.000    0.000 
#
# Total GULP energy -446205.204723 kJ/mol
# GULP energy per Si atom -12394.589020 kJ/mol
# Density = 2.264611 g / cm^3
# Si number density = 22.697768 Si / 1000 Ang^3
#
#
#
# Elastic Constant Matrix: (Units=GPa)
#
#
# Indices 1 2 3 4 5 6 
#
# 1 162.4672 16.8963 71.7964 0.0000 0.0000 0.0000
# 2 16.8963 62.1058 33.6600 0.0000 0.0000 0.0000
# 3 71.7964 33.6600 164.6435 0.0000 0.0000 0.0000
# 4 0.0000 0.0000 0.0000 27.1505 0.0000 0.0000
# 5 0.0000 0.0000 0.0000 0.0000 30.0273 0.0000
# 6 0.0000 0.0000 0.0000 0.0000 0.0000 28.4809
#
#
#
# Elastic Compliance Matrix: (Units=1/GPa)
#
#
# Indices 1 2 3 4 5 6 
#
# 1 0.007630 -0.000306 -0.003264 0.000000 0.000000 0.000000
# 2 -0.000306 0.018120 -0.003571 0.000000 0.000000 0.000000
# 3 -0.003264 -0.003571 0.008227 0.000000 0.000000 0.000000
# 4 0.000000 0.000000 0.000000 0.036832 0.000000 0.000000
# 5 0.000000 0.000000 0.000000 0.000000 0.033303 0.000000
# 6 0.000000 0.000000 0.000000 0.000000 0.000000 0.035111
#
#
# Mechanical properties :
#
#
# Convention : Reuss Voigt Hill
#
# Bulk Modulus (GPa) = 50.77787 70.43577 60.60682
# Shear Modulus (GPa) = 31.23614 34.92267 33.07940
#
# Velocity S-wave (km/s) = 3.71371 3.92675 3.82171
# Velocity P-wave (km/s) = 6.38817 7.18739 6.79953
#
# Compressibility (1/GPa) = 0.01969362
#
# Stress axis : x y z
#
# Youngs Moduli (GPa) = 131.06973 55.18684 121.54699
#
# Poissons Ratio (x) = 0.01691 0.39677
# Poissons Ratio (y) = 0.04017 0.43403
# Poissons Ratio (z) = 0.42786 0.19707
#
# Static dielectric constant tensor:
#      x y z
#    x 4.208580 0.000000 0.000000 
#    y 0.000000 3.891000 0.000000 
#    z 0.000000 0.000000 4.040480 
# 
# 
# High freq. dielectric constant tensor:
#      x y z
#    x 1.914220 0.000000 0.000000 
#    y 0.000000 1.879160 0.000000 
#    z 0.000000 0.000000 1.895900 
# 
# From -- ./inp_files/20098.got.cif
#   From: 2010.03.12/outbox.cif.g09.slc.cpg/sg54_11_cif.got.tgz:20098.got - 2010.04.16 15:00:50.
