data_PCOD8224904
_publ_section_title
;
Structure prediction by ZEFSAII (Michael W. Deem and Ramdas Pophale) SiO2 
 PCOD8224904
Probable space group: P B A M
;
_chemical_formula_sum "Si O2"
_cell_formula_units_Z 48
_cell_length_a 5.040310
_cell_length_b 16.905099
_cell_length_c 30.873330
_cell_angle_alpha 90.000000
_cell_angle_beta 90.000000
_cell_angle_gamma 90.000000
_cell_volume 2630.621963
_symmetry_space_group_name_H-M "P B A M"
_symmetry_group_IT_number 55
_symmetry_cell_setting 'orthorhombic'
loop_
_space_group_symop_operation_xyz
x,y,z
-x,-y,z
1/2+x,1/2-y,-z
1/2-x,1/2+y,-z
-x,-y,-z
x,y,-z
1/2-x,1/2+y,z
1/2+x,1/2-y,z
loop_
_atom_site_type_symbol
_atom_site_label
_atom_site_fract_x
_atom_site_fract_y
_atom_site_fract_z
Si Si1 0.177492 0.802774 0.000000
Si Si2 0.216745 0.803570 0.592653
Si Si3 0.312964 0.801258 0.910680
Si Si4 0.216328 0.803480 0.182510
Si Si5 0.257435 0.448145 0.244989
Si Si6 0.821203 0.700032 0.500000
Si Si7 0.242564 0.948146 0.344801
O O1 0.241965 0.850760 0.954980
O O2 0.374093 0.726002 0.000000
O O3 0.422831 0.731404 0.597842
O O4 0.252794 0.845208 0.545005
O O5 0.269509 0.867468 0.629212
O O6 0.620578 0.776204 0.911688
O O7 0.251745 0.845114 0.865084
O O8 0.422192 0.731316 0.187762
O O9 0.269598 0.867461 0.219006
O O10 0.500000 0.500000 0.227137
O O11 0.301944 0.424685 0.294896
O O12 0.000000 0.500000 0.238101
O O13 0.632311 0.778239 0.500000
O O14 0.500000 0.000000 0.351691
O O15 0.000000 0.000000 0.362657
#
# Coordination Sequence:
#
# PCOD8224904 Si02
#       7
#     4   8   8   8   8   4   8
#     4   8  12  20  34  54  84 116 140 170 226 282
#     4  10  19  33  54  76  98 128 164 196 232 281
#     4   8  14  23  37  60  88 114 142 184 231 269
#     4  10  19  31  49  73  96 118 156 205 237 267
#     4  10  21  36  51  68  96 132 160 188 239 296
#     4   8  16  30  48  72 100 126 154 192 234 278
#     4  10  21  36  51  71 100 128 158 199 241 280
#
# _framework density 18.246632999999999
#
# number of rings (size 3 to 8) (size 9 to 14) (size 15 to 20)
#    0.000    2.667    0.000    2.000    0.000    1.333 
#    0.000    0.833    0.000    0.000    0.000    1.167 
#    0.000    0.000    0.000    0.000    0.000    0.000 
#
# Total GULP energy -594725.012002 kJ/mol
# GULP energy per Si atom -12390.104417 kJ/mol
# Density = 1.820510 g / cm^3
# Si number density = 18.246633 Si / 1000 Ang^3
#
#
#
# Elastic Constant Matrix: (Units=GPa)
#
#
# Indices 1 2 3 4 5 6 
#
# 1 80.4731 2.8267 17.2048 0.0000 0.0000 0.0000
# 2 2.8267 44.5741 51.0229 0.0000 0.0000 0.0000
# 3 17.2048 51.0229 122.6310 0.0000 0.0000 0.0000
# 4 0.0000 0.0000 0.0000 -1.0763 0.0000 0.0000
# 5 0.0000 0.0000 0.0000 0.0000 29.5933 0.0000
# 6 0.0000 0.0000 0.0000 0.0000 0.0000 13.7460
#
#
#
# Elastic Compliance Matrix: (Units=1/GPa)
#
#
# Indices 1 2 3 4 5 6 
#
# 1 0.012944 0.002402 -0.002815 0.000000 0.000000 0.000000
# 2 0.002402 0.043281 -0.018345 0.000000 0.000000 0.000000
# 3 -0.002815 -0.018345 0.016182 0.000000 0.000000 0.000000
# 4 0.000000 0.000000 0.000000 -0.929143 0.000000 0.000000
# 5 0.000000 0.000000 0.000000 0.000000 0.033791 0.000000
# 6 0.000000 0.000000 0.000000 0.000000 0.000000 0.072749
#
#
# Mechanical properties :
#
#
# Convention : Reuss Voigt Hill
#
# Bulk Modulus (GPa) = 28.66100 43.30966 35.98533
# Shear Modulus (GPa) = -7.13218 20.22753 6.54768
#
# Velocity S-wave (km/s) = -1.97920 3.33312 1.89637
# Velocity P-wave (km/s) = 3.24325 6.21290 4.95574
#
# Compressibility (1/GPa) = 0.03489061
#
# Stress axis : x y z
#
# Youngs Moduli (GPa) = 77.25553 23.10475 61.79615
#
# Poissons Ratio (x) = -0.05549 0.17398
# Poissons Ratio (y) = -0.18555 1.13364
# Poissons Ratio (z) = 0.21750 0.42385
#
# Static dielectric constant tensor:
#      x y z
#    x 3.574060 0.000000 0.000000 
#    y 0.000000 2.657520 0.000000 
#    z 0.000000 0.000000 3.918340 
# 
# 
# High freq. dielectric constant tensor:
#      x y z
#    x 1.736700 0.000000 0.000000 
#    y 0.000000 1.625530 0.000000 
#    z 0.000000 0.000000 1.734610 
# 
# From -- ./inp_files/23816.got.cif
#   From: 2010.03.12/outbox.cif.g09.slc.cpg/sg55_12_cif.got.tgz:23816.got - 2010.04.16 15:19:21.
