data_PCOD8224766
_publ_section_title
;
Structure prediction by ZEFSAII (Michael W. Deem and Ramdas Pophale) SiO2 
 PCOD8224766
Probable space group: P B A M
;
_chemical_formula_sum "Si O2"
_cell_formula_units_Z 56
_cell_length_a 13.777986
_cell_length_b 29.099517
_cell_length_c 9.112769
_cell_angle_alpha 90.000000
_cell_angle_beta 90.000000
_cell_angle_gamma 90.000000
_cell_volume 3653.607424
_symmetry_space_group_name_H-M "P B A M"
_symmetry_group_IT_number 55
_symmetry_cell_setting 'orthorhombic'
loop_
_space_group_symop_operation_xyz
x,y,z
-x,-y,z
1/2+x,1/2-y,-z
1/2-x,1/2+y,-z
-x,-y,-z
x,y,-z
1/2-x,1/2+y,z
1/2+x,1/2-y,z
loop_
_atom_site_type_symbol
_atom_site_label
_atom_site_fract_x
_atom_site_fract_y
_atom_site_fract_z
Si Si1 0.590355 0.093007 0.169153
Si Si2 0.273784 0.180245 0.328205
Si Si3 0.695958 0.186772 0.830043
Si Si4 0.614903 0.005794 0.662321
Si Si5 0.387838 0.094321 0.674704
Si Si6 0.371753 0.273829 0.671807
Si Si7 0.909486 0.767023 0.673540
O O1 0.664821 0.134383 0.193270
O O2 0.492229 0.103765 0.255418
O O3 0.643477 0.046802 0.228029
O O4 0.564034 0.085691 0.000000
O O5 0.271645 0.173236 0.500000
O O6 0.313379 0.132524 0.260517
O O7 0.346095 0.221505 0.285124
O O8 0.165022 0.192947 0.274138
O O9 0.803021 0.191654 0.760801
O O10 0.617872 0.219482 0.751483
O O11 0.700012 0.200357 0.000000
O O12 0.655100 0.017702 0.500000
O O13 0.655252 0.956073 0.716496
O O14 0.500000 0.000000 0.656220
O O15 0.401957 0.097895 0.500000
O O16 0.354282 0.282415 0.500000
O O17 0.482853 0.282912 0.717760
O O18 0.901021 0.758019 0.500000
#
# Coordination Sequence:
#
# PCOD8224766 Si02
#       7
#     8   8   8   8   8   8   8
#     4  10  19  28  39  58  84 112 140 171 205 240
#     4   8  14  25  42  63  84 106 133 165 202 242
#     4  10  20  30  41  61  87 114 142 171 208 249
#     4   8  15  26  40  59  81 107 137 166 203 249
#     4   9  16  27  43  62  85 111 136 165 204 250
#     4   9  17  29  45  63  83 110 142 173 204 241
#     4   9  17  30  47  65  84 109 142 175 207 245
#
# _framework density 15.327318
#
# number of rings (size 3 to 8) (size 9 to 14) (size 15 to 20)
#    0.000    3.000    0.000    3.429    0.000    6.571 
#    0.000    4.286    0.000    0.000    0.000    1.000 
#    0.000    8.000    0.000    0.000    0.000    0.000 
#
# Total GULP energy -694071.117959 kJ/mol
# GULP energy per Si atom -12394.127106 kJ/mol
# Density = 1.529243 g / cm^3
# Si number density = 15.327318 Si / 1000 Ang^3
#
#
#
# Elastic Constant Matrix: (Units=GPa)
#
#
# Indices 1 2 3 4 5 6 
#
# 1 95.9679 50.4955 38.8918 0.0000 0.0000 0.0000
# 2 50.4955 114.0301 46.6143 0.0000 0.0000 0.0000
# 3 38.8918 46.6143 55.0499 0.0000 0.0000 0.0000
# 4 0.0000 0.0000 0.0000 20.3579 0.0000 0.0000
# 5 0.0000 0.0000 0.0000 0.0000 11.4465 0.0000
# 6 0.0000 0.0000 0.0000 0.0000 0.0000 20.3766
#
#
#
# Elastic Compliance Matrix: (Units=1/GPa)
#
#
# Indices 1 2 3 4 5 6 
#
# 1 0.015539 -0.003660 -0.007879 0.000000 0.000000 0.000000
# 2 -0.003660 0.014275 -0.009501 0.000000 0.000000 0.000000
# 3 -0.007879 -0.009501 0.031777 0.000000 0.000000 0.000000
# 4 0.000000 0.000000 0.000000 0.049121 0.000000 0.000000
# 5 0.000000 0.000000 0.000000 0.000000 0.087363 0.000000
# 6 0.000000 0.000000 0.000000 0.000000 0.000000 0.049076
#
#
# Mechanical properties :
#
#
# Convention : Reuss Voigt Hill
#
# Bulk Modulus (GPa) = 51.25584 59.67234 55.46409
# Shear Modulus (GPa) = 16.90711 19.03927 17.97319
#
# Velocity S-wave (km/s) = 3.32485 3.52828 3.42808
# Velocity P-wave (km/s) = 6.94644 7.45754 7.20652
#
# Compressibility (1/GPa) = 0.01950997
#
# Stress axis : x y z
#
# Youngs Moduli (GPa) = 64.35427 70.05498 31.46972
#
# Poissons Ratio (x) = 0.25643 0.24793
# Poissons Ratio (y) = 0.23556 0.29900
# Poissons Ratio (z) = 0.50702 0.66560
#
# Static dielectric constant tensor:
#      x y z
#    x 2.885020 0.000000 0.000000 
#    y 0.000000 3.318310 0.000000 
#    z 0.000000 0.000000 2.867380 
# 
# 
# High freq. dielectric constant tensor:
#      x y z
#    x 1.558630 0.000000 0.000000 
#    y 0.000000 1.585940 0.000000 
#    z 0.000000 0.000000 1.577720 
# 
# From -- ./inp_files/6844.got.cif
#   From: 2010.03.12/outbox.cif.g09.slc.cpg/sg55_4_cif.got.tgz:6844.got - 2010.04.16 15:19:21.
