data_PCOD8224137
_publ_section_title
;
Structure prediction by ZEFSAII (Michael W. Deem and Ramdas Pophale) SiO2 
 PCOD8224137
Probable space group: P C C A
;
_chemical_formula_sum "Si O2"
_cell_formula_units_Z 48
_cell_length_a 15.996163
_cell_length_b 8.716317
_cell_length_c 16.442232
_cell_angle_alpha 90.000000
_cell_angle_beta 90.000000
_cell_angle_gamma 90.000000
_cell_volume 2292.501398
_symmetry_space_group_name_H-M "P C C A"
_symmetry_group_IT_number 54
_symmetry_cell_setting 'orthorhombic'
loop_
_space_group_symop_operation_xyz
x,y,z
1/2-x,-y,z
1/2+x,-y,1/2-z
-x,y,1/2-z
-x,-y,-z
1/2+x,y,-z
1/2-x,y,1/2+z
x,-y,1/2+z
loop_
_atom_site_type_symbol
_atom_site_label
_atom_site_fract_x
_atom_site_fract_y
_atom_site_fract_z
Si Si1 0.250000 0.500000 0.558891
Si Si2 0.974136 0.173009 0.982196
Si Si3 0.356585 0.335204 0.443300
Si Si4 0.234613 0.822616 0.302105
Si Si5 0.500000 0.494250 0.750000
Si Si6 0.891231 0.338321 0.126645
Si Si7 0.630212 0.303697 0.339072
O O1 0.283991 0.348100 0.511061
O O2 0.326679 0.561766 0.610837
O O3 0.055015 0.282836 0.979919
O O4 0.923291 0.190362 0.897414
O O5 0.914948 0.218994 0.056727
O O6 0.000000 0.000000 0.000000
O O7 0.332142 0.220978 0.371356
O O8 0.357100 0.509445 0.413980
O O9 0.320687 0.730297 0.313884
O O10 0.197927 0.792527 0.212251
O O11 0.250000 0.000000 0.311957
O O12 0.472932 0.381350 0.822022
O O13 0.426470 0.607968 0.725291
#
# Coordination Sequence:
#
# PCOD8224137 Si02
#       7
#     4   8   8   8   4   8   8
#     4  12  24  38  74  98 130 170 240 284 328 402
#     4  12  26  44  70 100 145 180 226 283 350 408
#     4  12  22  44  69  99 129 179 231 282 332 408
#     4  12  26  43  67  98 142 175 220 284 356 409
#     4  12  24  40  74  96 136 172 240 288 328 400
#     4  12  23  45  68 102 128 183 227 281 338 404
#     4  12  24  42  65 102 133 181 227 285 340 408
#
# _framework density 20.937829000000001
#
# number of rings (size 3 to 8) (size 9 to 14) (size 15 to 20)
#    0.000    0.000    6.667    3.500    0.000    2.667 
#    0.000    0.833    0.000    0.000    0.000    0.000 
#    0.000    0.000    0.000    0.000    0.000    0.000 
#
# Total GULP energy -595373.855650 kJ/mol
# GULP energy per Si atom -12403.621993 kJ/mol
# Density = 2.089017 g / cm^3
# Si number density = 20.937829 Si / 1000 Ang^3
#
#
#
# Elastic Constant Matrix: (Units=GPa)
#
#
# Indices 1 2 3 4 5 6 
#
# 1 107.2658 47.1250 43.3281 0.0000 0.0000 0.0000
# 2 47.1250 139.5574 47.9332 0.0000 0.0000 0.0000
# 3 43.3281 47.9332 111.9343 0.0000 0.0000 0.0000
# 4 0.0000 0.0000 0.0000 25.9874 0.0000 0.0000
# 5 0.0000 0.0000 0.0000 0.0000 58.6487 0.0000
# 6 0.0000 0.0000 0.0000 0.0000 0.0000 38.8092
#
#
#
# Elastic Compliance Matrix: (Units=1/GPa)
#
#
# Indices 1 2 3 4 5 6 
#
# 1 0.011957 -0.002870 -0.003399 0.000000 0.000000 0.000000
# 2 -0.002870 0.009090 -0.002782 0.000000 0.000000 0.000000
# 3 -0.003399 -0.002782 0.011441 0.000000 0.000000 0.000000
# 4 0.000000 0.000000 0.000000 0.038480 0.000000 0.000000
# 5 0.000000 0.000000 0.000000 0.000000 0.017051 0.000000
# 6 0.000000 0.000000 0.000000 0.000000 0.000000 0.025767
#
#
# Mechanical properties :
#
#
# Convention : Reuss Voigt Hill
#
# Bulk Modulus (GPa) = 69.51344 70.61446 70.06395
# Shear Modulus (GPa) = 36.58120 39.38046 37.98083
#
# Velocity S-wave (km/s) = 4.18441 4.34156 4.26371
# Velocity P-wave (km/s) = 7.52447 7.67666 7.60095
#
# Compressibility (1/GPa) = 0.01438571
#
# Stress axis : x y z
#
# Youngs Moduli (GPa) = 83.63632 110.01088 87.40653
#
# Poissons Ratio (x) = 0.31572 0.29712
# Poissons Ratio (y) = 0.24003 0.24314
# Poissons Ratio (z) = 0.28430 0.30602
#
# Static dielectric constant tensor:
#      x y z
#    x 3.869610 0.000000 0.000000 
#    y 0.000000 3.632000 0.000000 
#    z 0.000000 0.000000 4.304750 
# 
# 
# High freq. dielectric constant tensor:
#      x y z
#    x 1.839050 0.000000 0.000000 
#    y 0.000000 1.808630 0.000000 
#    z 0.000000 0.000000 1.833630 
# 
# From -- ./inp_files/14193.got.cif
#   From: 2010.03.12/outbox.cif.g09.slc.cpg/sg54_8_cif.got.tgz:14193.got - 2010.04.16 15:00:50.
