data_PCOD8224943
_publ_section_title
;
Structure prediction by ZEFSAII (Michael W. Deem and Ramdas Pophale) SiO2 
 PCOD8224943
Probable space group: P B A M
;
_chemical_formula_sum "Si O2"
_cell_formula_units_Z 64
_cell_length_a 14.939621
_cell_length_b 24.357389
_cell_length_c 9.245991
_cell_angle_alpha 90.000000
_cell_angle_beta 90.000000
_cell_angle_gamma 90.000000
_cell_volume 3364.525146
_symmetry_space_group_name_H-M "P B A M"
_symmetry_group_IT_number 55
_symmetry_cell_setting 'orthorhombic'
loop_
_space_group_symop_operation_xyz
x,y,z
-x,-y,z
1/2+x,1/2-y,-z
1/2-x,1/2+y,-z
-x,-y,-z
x,y,-z
1/2-x,1/2+y,z
1/2+x,1/2-y,z
loop_
_atom_site_type_symbol
_atom_site_label
_atom_site_fract_x
_atom_site_fract_y
_atom_site_fract_z
Si Si1 0.636816 0.699958 0.171184
Si Si2 0.818731 0.098308 0.659032
Si Si3 0.484565 0.560563 0.659505
Si Si4 0.306427 0.969946 0.832106
Si Si5 0.747166 0.804046 0.170458
Si Si6 0.060716 0.163189 0.170334
Si Si7 0.635835 0.907141 0.167402
Si Si8 0.028961 0.437214 0.337441
O O1 0.695801 0.653330 0.248418
O O2 0.682688 0.755854 0.230460
O O3 0.530653 0.695889 0.213193
O O4 0.647713 0.693057 0.000000
O O5 0.772676 0.102729 0.500000
O O6 0.922502 0.090432 0.637116
O O7 0.783769 0.046226 0.749663
O O8 0.500000 0.500000 0.729585
O O9 0.438581 0.553953 0.500000
O O10 0.429115 0.602017 0.761221
O O11 0.382990 0.932171 0.760268
O O12 0.319679 0.034079 0.806015
O O13 0.301079 0.955084 0.000000
O O14 0.851635 0.801711 0.221779
O O15 0.705899 0.861866 0.221149
O O16 0.745103 0.799782 0.000000
O O17 0.063551 0.153169 0.000000
O O18 0.547020 0.900260 0.263167
O O19 0.608648 0.899760 0.000000
O O20 0.046678 0.415745 0.500000
O O21 0.000000 0.500000 0.339606
#
# Coordination Sequence:
#
# PCOD8224943 Si02
#       8
#     8   8   8   8   8   8   8   8
#     4   9  18  36  56  75 103 138 181 223 266 321
#     4  10  20  34  52  74 105 139 174 220 268 319
#     4   9  19  34  51  75 108 143 174 211 266 329
#     4  10  19  31  51  77 106 139 178 217 264 323
#     4   9  18  34  55  80 110 139 178 230 274 317
#     4   9  18  33  55  79 104 139 179 224 272 316
#     4   9  18  32  50  75 107 139 174 221 271 318
#     4   9  17  31  49  70 102 140 173 211 260 312
#
# _framework density 19.022000999999999
#
# number of rings (size 3 to 8) (size 9 to 14) (size 15 to 20)
#    0.000    2.750    0.000    1.125    1.750    2.750 
#    2.250    1.875    0.000    0.000    0.000    0.000 
#    0.000    0.000    0.000    0.000    0.000    0.000 
#
# Total GULP energy -793131.668803 kJ/mol
# GULP energy per Si atom -12392.682325 kJ/mol
# Density = 1.897871 g / cm^3
# Si number density = 19.022001 Si / 1000 Ang^3
#
#
#
# Elastic Constant Matrix: (Units=GPa)
#
#
# Indices 1 2 3 4 5 6 
#
# 1 61.1169 49.8177 26.8480 0.0000 0.0000 0.0000
# 2 49.8177 105.0455 37.6664 0.0000 0.0000 0.0000
# 3 26.8480 37.6664 78.6505 0.0000 0.0000 0.0000
# 4 0.0000 0.0000 0.0000 18.6939 0.0000 0.0000
# 5 0.0000 0.0000 0.0000 0.0000 17.1650 0.0000
# 6 0.0000 0.0000 0.0000 0.0000 0.0000 28.4566
#
#
#
# Elastic Compliance Matrix: (Units=1/GPa)
#
#
# Indices 1 2 3 4 5 6 
#
# 1 0.027585 -0.011718 -0.003805 0.000000 0.000000 0.000000
# 2 -0.011718 0.016471 -0.003888 0.000000 0.000000 0.000000
# 3 -0.003805 -0.003888 0.015875 0.000000 0.000000 0.000000
# 4 0.000000 0.000000 0.000000 0.053493 0.000000 0.000000
# 5 0.000000 0.000000 0.000000 0.000000 0.058258 0.000000
# 6 0.000000 0.000000 0.000000 0.000000 0.000000 0.035141
#
#
# Mechanical properties :
#
#
# Convention : Reuss Voigt Hill
#
# Bulk Modulus (GPa) = 47.37074 52.60855 49.98964
# Shear Modulus (GPa) = 19.78773 21.56181 20.67477
#
# Velocity S-wave (km/s) = 3.22880 3.37043 3.30037
# Velocity P-wave (km/s) = 6.23357 6.54699 6.39220
#
# Compressibility (1/GPa) = 0.02111008
#
# Stress axis : x y z
#
# Youngs Moduli (GPa) = 36.25175 60.71254 62.99114
#
# Poissons Ratio (x) = 0.71142 0.23965
# Poissons Ratio (y) = 0.42479 0.24492
# Poissons Ratio (z) = 0.13792 0.23606
#
# Static dielectric constant tensor:
#      x y z
#    x 3.591810 0.000000 0.000000 
#    y 0.000000 3.423420 0.000000 
#    z 0.000000 0.000000 3.634790 
# 
# 
# High freq. dielectric constant tensor:
#      x y z
#    x 1.736420 0.000000 0.000000 
#    y 0.000000 1.719880 0.000000 
#    z 0.000000 0.000000 1.728420 
# 
# From -- ./inp_files/6568.got.cif
#   From: 2010.03.12/outbox.cif.g09.slc.cpg/sg55_4_cif.got.tgz:6568.got - 2010.04.16 15:19:21.
