data_PCOD8224981
_publ_section_title
;
Structure prediction by ZEFSAII (Michael W. Deem and Ramdas Pophale) SiO2 
 PCOD8224981
Probable space group: P B A M
;
_chemical_formula_sum "Si O2"
_cell_formula_units_Z 48
_cell_length_a 18.244556
_cell_length_b 17.023365
_cell_length_c 8.917077
_cell_angle_alpha 90.000000
_cell_angle_beta 90.000000
_cell_angle_gamma 90.000000
_cell_volume 2769.499089
_symmetry_space_group_name_H-M "P B A M"
_symmetry_group_IT_number 55
_symmetry_cell_setting 'orthorhombic'
loop_
_space_group_symop_operation_xyz
x,y,z
-x,-y,z
1/2+x,1/2-y,-z
1/2-x,1/2+y,-z
-x,-y,-z
x,y,-z
1/2-x,1/2+y,z
1/2+x,1/2-y,z
loop_
_atom_site_type_symbol
_atom_site_label
_atom_site_fract_x
_atom_site_fract_y
_atom_site_fract_z
Si Si1 0.698759 0.322434 0.831138
Si Si2 0.581807 0.770981 0.324646
Si Si3 0.182062 0.584485 0.677972
Si Si4 0.194170 0.824767 0.834622
Si Si5 0.828066 0.579723 0.820890
Si Si6 0.915355 0.719968 0.321183
O O1 0.737906 0.393440 0.742716
O O2 0.752816 0.249502 0.836990
O O3 0.626110 0.296732 0.741629
O O4 0.678481 0.349734 0.000000
O O5 0.583582 0.764169 0.500000
O O6 0.622925 0.850090 0.272704
O O7 0.623418 0.692988 0.266129
O O8 0.499009 0.772454 0.266189
O O9 0.187183 0.574929 0.500000
O O10 0.154077 0.504834 0.753389
O O11 0.244242 0.896904 0.775370
O O12 0.164440 0.843494 0.000000
O O13 0.885223 0.639918 0.748968
O O14 0.837522 0.581037 0.000000
O O15 0.907307 0.716557 0.500000
#
# Coordination Sequence:
#
# PCOD8224981 Si02
#       6
#     8   8   8   8   8   8
#     4   9  17  31  49  70  94 123 160 200 235 279
#     4   9  19  32  48  71  98 125 158 196 236 282
#     4  10  19  32  50  72  97 129 162 196 239 286
#     4   8  16  30  48  67  90 121 159 196 233 277
#     4  10  20  33  48  71  99 128 161 199 239 283
#     4  10  19  32  49  71  98 128 159 195 236 283
#
# _framework density 17.331654
#
# number of rings (size 3 to 8) (size 9 to 14) (size 15 to 20)
#    0.000    2.667    0.000    3.000    0.000    7.333 
#    0.000    3.333    0.000    1.000    0.000    7.000 
#    0.000    0.000    0.000    0.000    0.000    0.000 
#
# Total GULP energy -595039.009847 kJ/mol
# GULP energy per Si atom -12396.646038 kJ/mol
# Density = 1.729221 g / cm^3
# Si number density = 17.331654 Si / 1000 Ang^3
#
#
#
# Elastic Constant Matrix: (Units=GPa)
#
#
# Indices 1 2 3 4 5 6 
#
# 1 128.6972 33.2467 46.7527 0.0000 0.0000 0.0000
# 2 33.2467 17.6770 15.0745 0.0000 0.0000 0.0000
# 3 46.7527 15.0745 69.7551 0.0000 0.0000 0.0000
# 4 0.0000 0.0000 0.0000 28.1568 0.0000 0.0000
# 5 0.0000 0.0000 0.0000 0.0000 23.5754 0.0000
# 6 0.0000 0.0000 0.0000 0.0000 0.0000 18.3187
#
#
#
# Elastic Compliance Matrix: (Units=1/GPa)
#
#
# Indices 1 2 3 4 5 6 
#
# 1 0.016607 -0.026654 -0.005370 0.000000 0.000000 0.000000
# 2 -0.026654 0.112131 -0.006368 0.000000 0.000000 0.000000
# 3 -0.005370 -0.006368 0.019311 0.000000 0.000000 0.000000
# 4 0.000000 0.000000 0.000000 0.035515 0.000000 0.000000
# 5 0.000000 0.000000 0.000000 0.000000 0.042417 0.000000
# 6 0.000000 0.000000 0.000000 0.000000 0.000000 0.054589
#
#
# Mechanical properties :
#
#
# Convention : Reuss Voigt Hill
#
# Bulk Modulus (GPa) = 14.03207 45.14188 29.58698
# Shear Modulus (GPa) = 13.11958 22.08055 17.60006
#
# Velocity S-wave (km/s) = 2.75430 3.57319 3.19013
# Velocity P-wave (km/s) = 4.26950 6.56704 5.53871
#
# Compressibility (1/GPa) = 0.07126532
#
# Stress axis : x y z
#
# Youngs Moduli (GPa) = 60.21669 8.91813 51.78277
#
# Poissons Ratio (x) = 0.23770 0.27810
# Poissons Ratio (y) = 1.60501 0.32973
# Poissons Ratio (z) = 0.32339 0.05679
#
# Static dielectric constant tensor:
#      x y z
#    x 3.413980 0.000000 0.000000 
#    y 0.000000 3.150300 0.000000 
#    z 0.000000 0.000000 3.326250 
# 
# 
# High freq. dielectric constant tensor:
#      x y z
#    x 1.658400 0.000000 0.000000 
#    y 0.000000 1.646360 0.000000 
#    z 0.000000 0.000000 1.680170 
# 
# From -- ./inp_files/5687.got.cif
#   From: 2010.03.12/outbox.cif.g09.slc.cpg/sg55_3_cif.got.tgz:5687.got - 2010.04.16 15:19:21.
