data_PCOD8224808
_publ_section_title
;
Structure prediction by ZEFSAII (Michael W. Deem and Ramdas Pophale) SiO2 
 PCOD8224808
Probable space group: P B A M
;
_chemical_formula_sum "Si O2"
_cell_formula_units_Z 48
_cell_length_a 18.359065
_cell_length_b 16.294444
_cell_length_c 9.437719
_cell_angle_alpha 90.000000
_cell_angle_beta 90.000000
_cell_angle_gamma 90.000000
_cell_volume 2823.300779
_symmetry_space_group_name_H-M "P B A M"
_symmetry_group_IT_number 55
_symmetry_cell_setting 'orthorhombic'
loop_
_space_group_symop_operation_xyz
x,y,z
-x,-y,z
1/2+x,1/2-y,-z
1/2-x,1/2+y,-z
-x,-y,-z
x,y,-z
1/2-x,1/2+y,z
1/2+x,1/2-y,z
loop_
_atom_site_type_symbol
_atom_site_label
_atom_site_fract_x
_atom_site_fract_y
_atom_site_fract_z
Si Si1 0.696300 0.581357 0.655891
Si Si2 0.671285 0.334572 0.165790
Si Si3 0.836008 0.675307 0.667694
Si Si4 0.712609 0.915906 0.342336
Si Si5 0.917618 0.997872 0.835490
Si Si6 0.920221 0.515974 0.668407
O O1 0.665032 0.601950 0.500000
O O2 0.751799 0.652951 0.705122
O O3 0.742339 0.498939 0.647885
O O4 0.628357 0.570297 0.761040
O O5 0.639758 0.255104 0.244830
O O6 0.750700 0.354167 0.231287
O O7 0.615511 0.408492 0.196149
O O8 0.680413 0.317326 0.000000
O O9 0.844819 0.690894 0.500000
O O10 0.889138 0.602920 0.722226
O O11 0.710001 0.875439 0.500000
O O12 0.631987 0.940049 0.286589
O O13 0.915452 0.019163 0.000000
O O14 0.000000 0.000000 0.777205
O O15 0.922692 0.518945 0.500000
O O16 0.000000 0.500000 0.734097
#
# Coordination Sequence:
#
# PCOD8224808 Si02
#       6
#     8   8   8   8   8   8
#     4   8  15  28  46  67  87 112 149 186 220 262
#     4  10  19  30  46  67  90 119 155 190 226 271
#     4   9  17  30  48  69  93 119 149 189 232 269
#     4   8  14  27  47  67  88 114 145 183 221 260
#     4   9  18  32  48  66  91 123 154 186 228 273
#     4   8  14  27  49  73  93 117 150 185 225 274
#
# _framework density 17.001377000000002
#
# number of rings (size 3 to 8) (size 9 to 14) (size 15 to 20)
#    0.000    3.333    0.000    2.500    0.000    1.667 
#    0.000    4.167    0.000    8.000    0.000    0.000 
#    0.000    0.000    0.000    0.000    0.000    0.000 
#
# Total GULP energy -594905.386816 kJ/mol
# GULP energy per Si atom -12393.862225 kJ/mol
# Density = 1.696268 g / cm^3
# Si number density = 17.001377 Si / 1000 Ang^3
#
#
#
# Elastic Constant Matrix: (Units=GPa)
#
#
# Indices 1 2 3 4 5 6 
#
# 1 127.6908 35.6996 43.0629 0.0000 0.0000 0.0000
# 2 35.6996 68.4401 36.4480 0.0000 0.0000 0.0000
# 3 43.0629 36.4480 64.4831 0.0000 0.0000 0.0000
# 4 0.0000 0.0000 0.0000 22.5781 0.0000 0.0000
# 5 0.0000 0.0000 0.0000 0.0000 17.7464 0.0000
# 6 0.0000 0.0000 0.0000 0.0000 0.0000 17.0788
#
#
#
# Elastic Compliance Matrix: (Units=1/GPa)
#
#
# Indices 1 2 3 4 5 6 
#
# 1 0.010391 -0.002467 -0.005545 0.000000 0.000000 0.000000
# 2 -0.002467 0.021490 -0.010499 0.000000 0.000000 0.000000
# 3 -0.005545 -0.010499 0.025145 0.000000 0.000000 0.000000
# 4 0.000000 0.000000 0.000000 0.044291 0.000000 0.000000
# 5 0.000000 0.000000 0.000000 0.000000 0.056349 0.000000
# 6 0.000000 0.000000 0.000000 0.000000 0.000000 0.058552
#
#
# Mechanical properties :
#
#
# Convention : Reuss Voigt Hill
#
# Bulk Modulus (GPa) = 49.99030 54.55943 52.27487
# Shear Modulus (GPa) = 19.23758 21.17424 20.20591
#
# Velocity S-wave (km/s) = 3.36747 3.53291 3.45118
# Velocity P-wave (km/s) = 6.67738 6.98590 6.83338
#
# Compressibility (1/GPa) = 0.02000388
#
# Stress axis : x y z
#
# Youngs Moduli (GPa) = 96.23559 46.53426 39.76908
#
# Poissons Ratio (x) = 0.11482 0.22051
# Poissons Ratio (y) = 0.23744 0.41753
# Poissons Ratio (z) = 0.53360 0.48856
#
# Static dielectric constant tensor:
#      x y z
#    x 3.474220 0.000000 0.000000 
#    y 0.000000 3.050660 0.000000 
#    z 0.000000 0.000000 3.061890 
# 
# 
# High freq. dielectric constant tensor:
#      x y z
#    x 1.647340 0.000000 0.000000 
#    y 0.000000 1.638440 0.000000 
#    z 0.000000 0.000000 1.635470 
# 
# From -- ./inp_files/7540.got.cif
#   From: 2010.03.12/outbox.cif.g09.slc.cpg/sg55_4_cif.got.tgz:7540.got - 2010.04.16 15:19:21.
