data_PCOD8224999
_publ_section_title
;
Structure prediction by ZEFSAII (Michael W. Deem and Ramdas Pophale) SiO2 
 PCOD8224999
Probable space group: P B A M
;
_chemical_formula_sum "Si O2"
_cell_formula_units_Z 64
_cell_length_a 19.857400
_cell_length_b 20.199691
_cell_length_c 8.776341
_cell_angle_alpha 90.000000
_cell_angle_beta 90.000000
_cell_angle_gamma 90.000000
_cell_volume 3520.307487
_symmetry_space_group_name_H-M "P B A M"
_symmetry_group_IT_number 55
_symmetry_cell_setting 'orthorhombic'
loop_
_space_group_symop_operation_xyz
x,y,z
-x,-y,z
1/2+x,1/2-y,-z
1/2-x,1/2+y,-z
-x,-y,-z
x,y,-z
1/2-x,1/2+y,z
1/2+x,1/2-y,z
loop_
_atom_site_type_symbol
_atom_site_label
_atom_site_fract_x
_atom_site_fract_y
_atom_site_fract_z
Si Si1 0.690267 0.988248 0.319047
Si Si2 0.842722 0.354879 0.181351
Si Si3 0.558794 0.051372 0.178153
Si Si4 0.480490 0.302100 0.829056
Si Si5 0.038331 0.934686 0.680719
Si Si6 0.189374 0.920042 0.321364
Si Si7 0.320944 0.288954 0.831234
Si Si8 0.987056 0.331848 0.320376
O O1 0.680108 0.992078 0.500000
O O2 0.698462 0.912526 0.265365
O O3 0.628054 0.020655 0.233750
O O4 0.757014 0.026496 0.262660
O O5 0.805525 0.285782 0.226398
O O6 0.919716 0.355625 0.235777
O O7 0.843169 0.365411 0.000000
O O8 0.546365 0.118393 0.272668
O O9 0.500000 0.000000 0.215396
O O10 0.562772 0.067991 0.000000
O O11 0.500334 0.371661 0.751598
O O12 0.400752 0.295654 0.831126
O O13 0.510275 0.241396 0.731300
O O14 0.510035 0.299455 0.000000
O O15 0.036297 0.927405 0.500000
O O16 0.115281 0.938403 0.742305
O O17 0.000000 0.000000 0.737043
O O18 0.187213 0.920937 0.500000
O O19 0.211765 0.845813 0.272701
O O20 0.291610 0.299037 0.000000
O O21 0.974696 0.332973 0.500000
#
# Coordination Sequence:
#
# PCOD8224999 Si02
#       8
#     8   8   8   8   8   8   8   8
#     4  11  22  34  51  76 105 138 176 215 262 315
#     4  10  19  32  50  76 104 133 173 217 257 303
#     4  11  22  35  52  74 104 140 177 217 260 304
#     4   9  17  30  49  76 107 135 170 213 259 308
#     4   9  17  32  56  82 107 137 175 217 265 315
#     4   9  19  34  52  77 106 133 171 216 259 311
#     4   8  16  30  50  73  97 128 169 213 254 301
#     4  11  20  31  51  76 104 135 173 216 259 306
#
# _framework density 18.180230000000002
#
# number of rings (size 3 to 8) (size 9 to 14) (size 15 to 20)
#    0.000    2.250    1.250    3.375    0.000    5.250 
#    0.000    0.000    2.750    0.000    0.000    0.000 
#    0.000    0.000    0.000    0.000    0.000    0.000 
#
# Total GULP energy -793498.859806 kJ/mol
# GULP energy per Si atom -12398.419684 kJ/mol
# Density = 1.813885 g / cm^3
# Si number density = 18.180230 Si / 1000 Ang^3
#
#
#
# Elastic Constant Matrix: (Units=GPa)
#
#
# Indices 1 2 3 4 5 6 
#
# 1 55.2809 47.6827 18.3521 0.0000 0.0000 0.0000
# 2 47.6827 161.7554 32.1685 0.0000 0.0000 0.0000
# 3 18.3521 32.1685 50.6842 0.0000 0.0000 0.0000
# 4 0.0000 0.0000 0.0000 36.3729 0.0000 0.0000
# 5 0.0000 0.0000 0.0000 0.0000 12.8587 0.0000
# 6 0.0000 0.0000 0.0000 0.0000 0.0000 27.6895
#
#
#
# Elastic Compliance Matrix: (Units=1/GPa)
#
#
# Indices 1 2 3 4 5 6 
#
# 1 0.025349 -0.006463 -0.005077 0.000000 0.000000 0.000000
# 2 -0.006463 0.008723 -0.003196 0.000000 0.000000 0.000000
# 3 -0.005077 -0.003196 0.023597 0.000000 0.000000 0.000000
# 4 0.000000 0.000000 0.000000 0.027493 0.000000 0.000000
# 5 0.000000 0.000000 0.000000 0.000000 0.077768 0.000000
# 6 0.000000 0.000000 0.000000 0.000000 0.000000 0.036115
#
#
# Mechanical properties :
#
#
# Convention : Reuss Voigt Hill
#
# Bulk Modulus (GPa) = 35.46425 51.56968 43.51697
# Shear Modulus (GPa) = 21.01582 26.68539 23.85061
#
# Velocity S-wave (km/s) = 3.40365 3.83538 3.62594
# Velocity P-wave (km/s) = 5.91572 6.93115 6.44347
#
# Compressibility (1/GPa) = 0.02819741
#
# Stress axis : x y z
#
# Youngs Moduli (GPa) = 39.44860 114.63985 42.37861
#
# Poissons Ratio (x) = 0.74091 0.21515
# Poissons Ratio (y) = 0.25495 0.13545
# Poissons Ratio (z) = 0.20027 0.36641
#
# Static dielectric constant tensor:
#      x y z
#    x 3.261810 0.000000 0.000000 
#    y 0.000000 3.834220 0.000000 
#    z 0.000000 0.000000 3.383540 
# 
# 
# High freq. dielectric constant tensor:
#      x y z
#    x 1.653740 0.000000 0.000000 
#    y 0.000000 1.723320 0.000000 
#    z 0.000000 0.000000 1.709540 
# 
# From -- ./inp_files/8048.got.cif
#   From: 2010.03.12/outbox.cif.g09.slc.cpg/sg55_5_cif.got.tgz:8048.got - 2010.04.16 15:19:21.
