data_PCOD8224087
_publ_section_title
;
Structure prediction by ZEFSAII (Michael W. Deem and Ramdas Pophale) SiO2 
 PCOD8224087
Probable space group: P C C A
;
_chemical_formula_sum "Si O2"
_cell_formula_units_Z 40
_cell_length_a 16.317367
_cell_length_b 11.868325
_cell_length_c 9.527977
_cell_angle_alpha 90.000000
_cell_angle_beta 90.000000
_cell_angle_gamma 90.000000
_cell_volume 1845.186260
_symmetry_space_group_name_H-M "P C C A"
_symmetry_group_IT_number 54
_symmetry_cell_setting 'orthorhombic'
loop_
_space_group_symop_operation_xyz
x,y,z
1/2-x,-y,z
1/2+x,-y,1/2-z
-x,y,1/2-z
-x,-y,-z
1/2+x,y,-z
1/2-x,y,1/2+z
x,-y,1/2+z
loop_
_atom_site_type_symbol
_atom_site_label
_atom_site_fract_x
_atom_site_fract_y
_atom_site_fract_z
Si Si1 0.176497 0.285911 0.517732
Si Si2 0.833579 0.344309 0.662555
Si Si3 0.444038 0.553516 0.383813
Si Si4 0.107208 0.935643 0.105321
Si Si5 0.419314 0.877607 0.905926
O O1 0.186840 0.331915 0.674494
O O2 0.252898 0.326849 0.428114
O O3 0.094493 0.331597 0.442819
O O4 0.169483 0.150196 0.527815
O O5 0.869563 0.468705 0.647957
O O6 0.899553 0.254370 0.604130
O O7 0.500000 0.581684 0.250000
O O8 0.500000 0.500000 0.500000
O O9 0.120943 0.941690 0.272170
O O10 0.016315 0.887252 0.083052
O O11 0.119666 0.060504 0.041733
#
# Coordination Sequence:
#
# PCOD8224087 Si02
#       5
#     8   8   8   8   8
#     4  11  25  43  62  94 130 166 208 259 319 375
#     4  11  25  42  64  91 132 167 205 263 318 375
#     4  12  25  44  69  92 120 164 212 261 318 379
#     4   9  19  39  62  91 124 162 210 256 305 365
#     4   9  19  38  64  89 123 165 207 257 306 364
#
# _framework density 21.678028999999999
#
# number of rings (size 3 to 8) (size 9 to 14) (size 15 to 20)
#    0.000    1.600    2.000    1.800    5.600    4.000 
#    7.200    4.000    0.000    0.000    0.000    0.000 
#    0.000    0.000    0.000    0.000    0.000    0.000 
#
# Total GULP energy -495963.870448 kJ/mol
# GULP energy per Si atom -12399.096761 kJ/mol
# Density = 2.162869 g / cm^3
# Si number density = 21.678029 Si / 1000 Ang^3
#
#
#
# Elastic Constant Matrix: (Units=GPa)
#
#
# Indices 1 2 3 4 5 6 
#
# 1 76.5993 1.3299 34.4139 0.0000 0.0000 0.0000
# 2 1.3299 53.2062 21.0754 0.0000 0.0000 0.0000
# 3 34.4139 21.0754 106.6742 0.0000 0.0000 0.0000
# 4 0.0000 0.0000 0.0000 33.3589 0.0000 0.0000
# 5 0.0000 0.0000 0.0000 0.0000 46.1900 0.0000
# 6 0.0000 0.0000 0.0000 0.0000 0.0000 -67.6615
#
#
#
# Elastic Compliance Matrix: (Units=1/GPa)
#
#
# Indices 1 2 3 4 5 6 
#
# 1 0.015411 0.001719 -0.005311 0.000000 0.000000 0.000000
# 2 0.001719 0.020582 -0.004621 0.000000 0.000000 0.000000
# 3 -0.005311 -0.004621 0.012001 0.000000 0.000000 0.000000
# 4 0.000000 0.000000 0.000000 0.029977 0.000000 0.000000
# 5 0.000000 0.000000 0.000000 0.000000 0.021650 0.000000
# 6 0.000000 0.000000 0.000000 0.000000 0.000000 -0.014779
#
#
# Mechanical properties :
#
#
# Convention : Reuss Voigt Hill
#
# Bulk Modulus (GPa) = 31.67843 38.90200 35.29022
# Shear Modulus (GPa) = 44.72631 14.35485 29.54058
#
# Velocity S-wave (km/s) = 4.54718 2.57609 3.69548
# Velocity P-wave (km/s) = 6.49723 5.18002 5.87566
#
# Compressibility (1/GPa) = 0.03156722
#
# Stress axis : x y z
#
# Youngs Moduli (GPa) = 64.88723 48.58571 83.32805
#
# Poissons Ratio (x) = -0.08350 0.44259
# Poissons Ratio (y) = -0.11152 0.38505
# Poissons Ratio (z) = 0.34464 0.22451
#
# Static dielectric constant tensor:
#      x y z
#    x 3.677820 0.000000 0.000000 
#    y 0.000000 4.239740 0.000000 
#    z 0.000000 0.000000 4.205610 
# 
# 
# High freq. dielectric constant tensor:
#      x y z
#    x 1.846590 0.000000 0.000000 
#    y 0.000000 1.848470 0.000000 
#    z 0.000000 0.000000 1.862760 
# 
# From -- ./inp_files/3954.got.cif
#   From: 2010.03.12/outbox.cif.g09.slc.cpg/sg54_2_cif.got.tgz:3954.got - 2010.04.16 15:00:50.
