data_PCOD8224060
_publ_section_title
;
Structure prediction by ZEFSAII (Michael W. Deem and Ramdas Pophale) SiO2 
 PCOD8224060
Probable space group: P C C A
;
_chemical_formula_sum "Si O2"
_cell_formula_units_Z 56
_cell_length_a 13.306881
_cell_length_b 15.029214
_cell_length_c 14.168350
_cell_angle_alpha 90.000000
_cell_angle_beta 90.000000
_cell_angle_gamma 90.000000
_cell_volume 2833.556118
_symmetry_space_group_name_H-M "P C C A"
_symmetry_group_IT_number 54
_symmetry_cell_setting 'orthorhombic'
loop_
_space_group_symop_operation_xyz
x,y,z
1/2-x,-y,z
1/2+x,-y,1/2-z
-x,y,1/2-z
-x,-y,-z
1/2+x,y,-z
1/2-x,y,1/2+z
x,-y,1/2+z
loop_
_atom_site_type_symbol
_atom_site_label
_atom_site_fract_x
_atom_site_fract_y
_atom_site_fract_z
Si Si1 0.500000 0.471357 0.250000
Si Si2 0.250000 0.000000 0.006563
Si Si3 0.669019 0.698317 0.409111
Si Si4 0.979922 0.580741 0.567834
Si Si5 0.700200 0.296446 0.585713
Si Si6 0.113546 0.109016 0.363544
Si Si7 0.788371 0.597243 0.254199
Si Si8 0.881270 0.112101 0.350030
O O1 0.468549 0.540496 0.329399
O O2 0.592572 0.406860 0.275578
O O3 0.190571 0.066445 0.074318
O O4 0.327373 0.051204 0.939730
O O5 0.569397 0.649987 0.443798
O O6 0.728219 0.732513 0.500622
O O7 0.734332 0.629555 0.348715
O O8 0.639985 0.782850 0.346625
O O9 0.876352 0.630340 0.544843
O O10 0.000000 0.500000 0.500000
O O11 0.639561 0.212358 0.624408
O O12 0.769123 0.335662 0.668648
O O13 0.139764 0.077568 0.256592
O O14 0.995533 0.094329 0.381196
O O15 0.750000 0.500000 0.226039
#
# Coordination Sequence:
#
# PCOD8224060 Si02
#       8
#     4   4   8   8   8   8   8   8
#     4  12  24  40  60  92 124 176 216 280 314 382
#     4  12  24  48  68 108 134 164 212 284 356 388
#     4  12  24  40  63  94 127 174 223 271 325 385
#     4  12  24  38  62  89 128 175 227 266 319 382
#     4  12  24  40  63  94 127 174 223 271 325 385
#     4  11  24  44  73  99 130 174 221 270 333 418
#     4  12  24  40  62  89 128 170 220 271 321 377
#     4  11  24  44  73  99 130 174 221 270 333 418
#
# _framework density 19.763152999999999
#
# number of rings (size 3 to 8) (size 9 to 14) (size 15 to 20)
#    0.000    0.286    7.143    2.571    0.000    0.000 
#    0.000    0.000    0.000    0.000    0.000    0.000 
#    0.000    0.000    0.000    0.000    0.000    0.000 
#
# Total GULP energy -694629.046216 kJ/mol
# GULP energy per Si atom -12404.090111 kJ/mol
# Density = 1.971817 g / cm^3
# Si number density = 19.763153 Si / 1000 Ang^3
#
#
#
# Elastic Constant Matrix: (Units=GPa)
#
#
# Indices 1 2 3 4 5 6 
#
# 1 110.5583 25.6975 24.6380 0.0000 0.0000 0.0000
# 2 25.6975 82.2468 21.8218 0.0000 0.0000 0.0000
# 3 24.6380 21.8218 95.1646 0.0000 0.0000 0.0000
# 4 0.0000 0.0000 0.0000 35.7583 0.0000 0.0000
# 5 0.0000 0.0000 0.0000 0.0000 36.0412 0.0000
# 6 0.0000 0.0000 0.0000 0.0000 0.0000 34.7718
#
#
#
# Elastic Compliance Matrix: (Units=1/GPa)
#
#
# Indices 1 2 3 4 5 6 
#
# 1 0.010103 -0.002622 -0.002014 0.000000 0.000000 0.000000
# 2 -0.002622 0.013627 -0.002446 0.000000 0.000000 0.000000
# 3 -0.002014 -0.002446 0.011590 0.000000 0.000000 0.000000
# 4 0.000000 0.000000 0.000000 0.027965 0.000000 0.000000
# 5 0.000000 0.000000 0.000000 0.000000 0.027746 0.000000
# 6 0.000000 0.000000 0.000000 0.000000 0.000000 0.028759
#
#
# Mechanical properties :
#
#
# Convention : Reuss Voigt Hill
#
# Bulk Modulus (GPa) = 47.26879 48.03161 47.65020
# Shear Modulus (GPa) = 35.45895 35.70176 35.58035
#
# Velocity S-wave (km/s) = 4.24039 4.25488 4.24764
# Velocity P-wave (km/s) = 6.92417 6.96384 6.94403
#
# Compressibility (1/GPa) = 0.02115561
#
# Stress axis : x y z
#
# Youngs Moduli (GPa) = 98.97629 73.38495 86.27768
#
# Poissons Ratio (x) = 0.19244 0.17380
# Poissons Ratio (y) = 0.25954 0.21102
# Poissons Ratio (z) = 0.19938 0.17948
#
# Static dielectric constant tensor:
#      x y z
#    x 3.737170 0.000000 0.000000 
#    y 0.000000 3.482160 0.000000 
#    z 0.000000 0.000000 3.620590 
# 
# 
# High freq. dielectric constant tensor:
#      x y z
#    x 1.784590 0.000000 0.000000 
#    y 0.000000 1.765260 0.000000 
#    z 0.000000 0.000000 1.782270 
# 
# From -- ./inp_files/8493.got.cif
#   From: 2010.03.12/outbox.cif.g09.slc.cpg/sg54_5_cif.got.tgz:8493.got - 2010.04.16 15:00:50.
