data_PCOD8224016
_publ_section_title
;
Structure prediction by ZEFSAII (Michael W. Deem and Ramdas Pophale) SiO2 
 PCOD8224016
Probable space group: P C C A
;
_chemical_formula_sum "Si O2"
_cell_formula_units_Z 40
_cell_length_a 9.111144
_cell_length_b 20.556870
_cell_length_c 9.583700
_cell_angle_alpha 90.000000
_cell_angle_beta 90.000000
_cell_angle_gamma 90.000000
_cell_volume 1794.994452
_symmetry_space_group_name_H-M "P C C A"
_symmetry_group_IT_number 54
_symmetry_cell_setting 'orthorhombic'
loop_
_space_group_symop_operation_xyz
x,y,z
1/2-x,-y,z
1/2+x,-y,1/2-z
-x,y,1/2-z
-x,-y,-z
1/2+x,y,-z
1/2-x,y,1/2+z
x,-y,1/2+z
loop_
_atom_site_type_symbol
_atom_site_label
_atom_site_fract_x
_atom_site_fract_y
_atom_site_fract_z
Si Si1 0.037506 0.268421 0.588744
Si Si2 0.178233 0.567870 0.253380
Si Si3 0.787545 0.073457 0.672806
Si Si4 0.208364 0.650154 0.511548
Si Si5 0.425773 0.878719 0.555282
O O1 0.204164 0.285058 0.554266
O O2 0.008244 0.193767 0.550638
O O3 0.000000 0.282303 0.750000
O O4 0.955202 0.320204 0.487988
O O5 0.250000 0.500000 0.297808
O O6 0.235088 0.623274 0.357128
O O7 0.253434 0.588908 0.108652
O O8 0.000000 0.563039 0.250000
O O9 0.812048 0.113704 0.815614
O O10 0.651883 0.105042 0.590136
O O11 0.935077 0.073897 0.578682
O O12 0.750000 0.000000 0.713228
#
# Coordination Sequence:
#
# PCOD8224016 Si02
#       5
#     8   8   8   8   8
#     4  12  24  47  69 100 142 179 234 292 342 414
#     4  12  28  48  71 106 144 177 231 281 338 412
#     4  11  23  43  70 100 142 185 233 289 351 417
#     4  12  24  47  72  99 140 184 227 286 344 408
#     4  11  25  44  68 102 142 180 235 294 346 413
#
# _framework density 22.284189999999999
#
# number of rings (size 3 to 8) (size 9 to 14) (size 15 to 20)
#    0.000    0.400    6.000    3.000    2.800    4.000 
#    0.000    2.000    0.000    0.000    0.000    0.000 
#    0.000    0.000    0.000    0.000    0.000    0.000 
#
# Total GULP energy -495839.363135 kJ/mol
# GULP energy per Si atom -12395.984078 kJ/mol
# Density = 2.223347 g / cm^3
# Si number density = 22.284190 Si / 1000 Ang^3
#
#
#
# Elastic Constant Matrix: (Units=GPa)
#
#
# Indices 1 2 3 4 5 6 
#
# 1 59.6699 37.2781 27.5296 0.0000 0.0000 0.0000
# 2 37.2781 126.1454 27.9966 0.0000 0.0000 0.0000
# 3 27.5296 27.9966 63.2915 0.0000 0.0000 0.0000
# 4 0.0000 0.0000 0.0000 17.1230 0.0000 0.0000
# 5 0.0000 0.0000 0.0000 0.0000 39.6335 0.0000
# 6 0.0000 0.0000 0.0000 0.0000 0.0000 44.5939
#
#
#
# Elastic Compliance Matrix: (Units=1/GPa)
#
#
# Indices 1 2 3 4 5 6 
#
# 1 0.023721 -0.005234 -0.008003 0.000000 0.000000 0.000000
# 2 -0.005234 0.009945 -0.002123 0.000000 0.000000 0.000000
# 3 -0.008003 -0.002123 0.020220 0.000000 0.000000 0.000000
# 4 0.000000 0.000000 0.000000 0.058401 0.000000 0.000000
# 5 0.000000 0.000000 0.000000 0.000000 0.025231 0.000000
# 6 0.000000 0.000000 0.000000 0.000000 0.000000 0.022425
#
#
# Mechanical properties :
#
#
# Convention : Reuss Voigt Hill
#
# Bulk Modulus (GPa) = 43.16383 48.30171 45.73277
# Shear Modulus (GPa) = 25.20378 30.69024 27.94701
#
# Velocity S-wave (km/s) = 3.36671 3.71512 3.54520
# Velocity P-wave (km/s) = 5.87577 6.33444 6.10941
#
# Compressibility (1/GPa) = 0.02316754
#
# Stress axis : x y z
#
# Youngs Moduli (GPa) = 42.15719 100.55167 49.45669
#
# Poissons Ratio (x) = 0.52627 0.39578
# Poissons Ratio (y) = 0.22064 0.10498
# Poissons Ratio (z) = 0.33737 0.21344
#
# Static dielectric constant tensor:
#      x y z
#    x 4.065650 0.000000 0.000000 
#    y 0.000000 4.033330 0.000000 
#    z 0.000000 0.000000 3.957050 
# 
# 
# High freq. dielectric constant tensor:
#      x y z
#    x 1.880510 0.000000 0.000000 
#    y 0.000000 1.890030 0.000000 
#    z 0.000000 0.000000 1.873950 
# 
# From -- ./inp_files/6865.got.cif
#   From: 2010.03.12/outbox.cif.g09.slc.cpg/sg54_4_cif.got.tgz:6865.got - 2010.04.16 15:00:50.
