data_PCOD8224465
_publ_section_title
;
Structure prediction by ZEFSAII (Michael W. Deem and Ramdas Pophale) SiO2 
 PCOD8224465
Probable space group: P B A M
;
_chemical_formula_sum "Si O2"
_cell_formula_units_Z 64
_cell_length_a 10.124187
_cell_length_b 19.110436
_cell_length_c 16.604030
_cell_angle_alpha 90.000000
_cell_angle_beta 90.000000
_cell_angle_gamma 90.000000
_cell_volume 3212.508335
_symmetry_space_group_name_H-M "P B A M"
_symmetry_group_IT_number 55
_symmetry_cell_setting 'orthorhombic'
loop_
_space_group_symop_operation_xyz
x,y,z
-x,-y,z
1/2+x,1/2-y,-z
1/2-x,1/2+y,-z
-x,-y,-z
x,y,-z
1/2-x,1/2+y,z
1/2+x,1/2-y,z
loop_
_atom_site_type_symbol
_atom_site_label
_atom_site_fract_x
_atom_site_fract_y
_atom_site_fract_z
Si Si1 0.869714 0.071129 0.739966
Si Si2 0.682469 0.719912 0.313147
Si Si3 0.922864 0.816518 0.091349
Si Si4 0.184472 0.653047 0.799180
Si Si5 0.347357 0.574212 0.315889
Si Si6 0.411947 0.703631 0.593360
Si Si7 0.045082 0.340783 0.910089
Si Si8 0.826268 0.088674 0.088452
O O1 0.787513 0.141132 0.719148
O O2 0.837902 0.041171 0.830847
O O3 0.024608 0.089604 0.739654
O O4 0.836544 0.010200 0.673748
O O5 0.659057 0.769263 0.235854
O O6 0.809091 0.745459 0.362692
O O7 0.555690 0.719460 0.370898
O O8 0.812376 0.852851 0.144669
O O9 0.933420 0.737326 0.121077
O O10 0.067488 0.849991 0.100249
O O11 0.872491 0.820087 0.000000
O O12 0.212447 0.600553 0.725416
O O13 0.058938 0.624440 0.848662
O O14 0.370609 0.621271 0.395964
O O15 0.413621 0.721937 0.500000
O O16 0.180637 0.381443 0.910490
O O17 0.983699 0.340486 0.000000
O O18 0.849578 0.051229 0.000000
#
# Coordination Sequence:
#
# PCOD8224465 Si02
#       8
#     8   8   8   8   8   8   8   8
#     4  10  18  38  57  81 116 146 199 233 268 336
#     4  10  22  34  63  89 113 150 182 225 285 336
#     4  10  18  30  48  75 108 148 193 239 284 323
#     4  11  20  33  53  82 111 145 190 237 281 330
#     4   9  21  36  58  84 108 148 185 236 281 327
#     4  10  21  41  62  91 118 141 176 228 286 350
#     4  10  20  30  46  75 111 149 187 241 292 328
#     4  10  20  32  50  75 110 156 196 238 282 319
#
# _framework density 19.922127
#
# number of rings (size 3 to 8) (size 9 to 14) (size 15 to 20)
#    0.000    2.000    1.250    3.000    5.250    2.000 
#    0.000    8.750    0.000    1.500    0.000    2.625 
#    0.000    0.000    0.000    0.000    0.000    0.000 
#
# Total GULP energy -793011.070459 kJ/mol
# GULP energy per Si atom -12390.797976 kJ/mol
# Density = 1.987678 g / cm^3
# Si number density = 19.922127 Si / 1000 Ang^3
#
#
#
# Elastic Constant Matrix: (Units=GPa)
#
#
# Indices 1 2 3 4 5 6 
#
# 1 70.4072 5.2755 24.8966 0.0000 0.0000 0.0000
# 2 5.2755 75.6424 7.9986 0.0000 0.0000 0.0000
# 3 24.8966 7.9986 79.2586 0.0000 0.0000 0.0000
# 4 0.0000 0.0000 0.0000 18.2264 0.0000 0.0000
# 5 0.0000 0.0000 0.0000 0.0000 24.2798 0.0000
# 6 0.0000 0.0000 0.0000 0.0000 0.0000 19.6799
#
#
#
# Elastic Compliance Matrix: (Units=1/GPa)
#
#
# Indices 1 2 3 4 5 6 
#
# 1 0.016004 -0.000591 -0.004967 0.000000 0.000000 0.000000
# 2 -0.000591 0.013385 -0.001165 0.000000 0.000000 0.000000
# 3 -0.004967 -0.001165 0.014295 0.000000 0.000000 0.000000
# 4 0.000000 0.000000 0.000000 0.054865 0.000000 0.000000
# 5 0.000000 0.000000 0.000000 0.000000 0.041187 0.000000
# 6 0.000000 0.000000 0.000000 0.000000 0.000000 0.050813
#
#
# Mechanical properties :
#
#
# Convention : Reuss Voigt Hill
#
# Bulk Modulus (GPa) = 33.07283 33.51663 33.29473
# Shear Modulus (GPa) = 23.35638 24.91305 24.13471
#
# Velocity S-wave (km/s) = 3.42772 3.54011 3.48437
# Velocity P-wave (km/s) = 5.68356 5.79398 5.73903
#
# Compressibility (1/GPa) = 0.03023630
#
# Stress axis : x y z
#
# Youngs Moduli (GPa) = 62.48472 74.71322 69.95510
#
# Poissons Ratio (x) = 0.04415 0.34750
# Poissons Ratio (y) = 0.03692 0.08151
# Poissons Ratio (z) = 0.31039 0.08705
#
# Static dielectric constant tensor:
#      x y z
#    x 3.578070 0.000000 0.000000 
#    y 0.000000 3.571200 0.000000 
#    z 0.000000 0.000000 3.670180 
# 
# 
# High freq. dielectric constant tensor:
#      x y z
#    x 1.776520 0.000000 0.000000 
#    y 0.000000 1.751920 0.000000 
#    z 0.000000 0.000000 1.767070 
# 
# From -- ./inp_files/21093.got.cif
#   From: 2010.03.12/outbox.cif.g09.slc.cpg/sg55_11_cif.got.tgz:21093.got - 2010.04.16 15:19:21.
