data_PCOD8224837
_publ_section_title
;
Structure prediction by ZEFSAII (Michael W. Deem and Ramdas Pophale) SiO2 
 PCOD8224837
Probable space group: P B A M
;
_chemical_formula_sum "Si O2"
_cell_formula_units_Z 64
_cell_length_a 14.628650
_cell_length_b 24.963079
_cell_length_c 9.434693
_cell_angle_alpha 90.000000
_cell_angle_beta 90.000000
_cell_angle_gamma 90.000000
_cell_volume 3445.324825
_symmetry_space_group_name_H-M "P B A M"
_symmetry_group_IT_number 55
_symmetry_cell_setting 'orthorhombic'
loop_
_space_group_symop_operation_xyz
x,y,z
-x,-y,z
1/2+x,1/2-y,-z
1/2-x,1/2+y,-z
-x,-y,-z
x,y,-z
1/2-x,1/2+y,z
1/2+x,1/2-y,z
loop_
_atom_site_type_symbol
_atom_site_label
_atom_site_fract_x
_atom_site_fract_y
_atom_site_fract_z
Si Si1 0.013177 0.330263 0.336201
Si Si2 0.811664 0.317413 0.339414
Si Si3 0.057424 0.947348 0.664761
Si Si4 0.253650 0.586317 0.840076
Si Si5 0.953872 0.553445 0.337811
Si Si6 0.257052 0.984657 0.659559
Si Si7 0.127311 0.232982 0.665831
Si Si8 0.947103 0.866436 0.837193
O O1 0.034851 0.339986 0.500000
O O2 0.014195 0.389986 0.265241
O O3 0.091869 0.290540 0.276846
O O4 0.916313 0.299206 0.314959
O O5 0.798438 0.338595 0.500000
O O6 0.797007 0.365037 0.232256
O O7 0.737440 0.270363 0.309926
O O8 0.040003 0.934011 0.500000
O O9 0.164256 0.954247 0.699853
O O10 0.029386 0.896566 0.758976
O O11 0.000000 0.000000 0.708380
O O12 0.223292 0.532854 0.763932
O O13 0.362189 0.593085 0.830336
O O14 0.218924 0.583453 0.000000
O O15 0.987599 0.553170 0.500000
O O16 0.843877 0.554208 0.326042
O O17 0.000000 0.500000 0.266097
O O18 0.248149 0.007476 0.500000
O O19 0.102538 0.225050 0.500000
O O20 0.075750 0.187923 0.755465
O O21 0.973219 0.853274 0.000000
#
# Coordination Sequence:
#
# PCOD8224837 Si02
#       8
#     8   8   8   8   8   8   8   8
#     4   9  17  32  53  80 106 131 170 216 261 309
#     4   9  17  31  53  76  98 131 168 209 260 307
#     4  10  19  31  48  74 107 139 172 213 261 312
#     4  10  19  30  48  74 102 134 173 215 250 297
#     4   9  17  30  51  79 107 133 166 212 260 311
#     4  10  19  31  49  75 104 138 171 206 258 311
#     4   9  18  33  53  77 103 129 168 219 260 301
#     4  10  20  33  50  72 101 139 178 214 256 306
#
# _framework density 18.575897000000001
#
# number of rings (size 3 to 8) (size 9 to 14) (size 15 to 20)
#    0.000    2.500    1.250    1.500    0.000    3.750 
#    2.250    0.625    0.000    4.125    0.000    0.000 
#    0.000    0.000    0.000    0.000    0.000    0.000 
#
# Total GULP energy -793209.905040 kJ/mol
# GULP energy per Si atom -12393.904766 kJ/mol
# Density = 1.853362 g / cm^3
# Si number density = 18.575897 Si / 1000 Ang^3
#
#
#
# Elastic Constant Matrix: (Units=GPa)
#
#
# Indices 1 2 3 4 5 6 
#
# 1 113.4015 58.2082 21.0289 0.0000 0.0000 0.0000
# 2 58.2082 117.7366 28.0576 0.0000 0.0000 0.0000
# 3 21.0289 28.0576 57.0928 0.0000 0.0000 0.0000
# 4 0.0000 0.0000 0.0000 30.4371 0.0000 0.0000
# 5 0.0000 0.0000 0.0000 0.0000 10.2559 0.0000
# 6 0.0000 0.0000 0.0000 0.0000 0.0000 25.3665
#
#
#
# Elastic Compliance Matrix: (Units=1/GPa)
#
#
# Indices 1 2 3 4 5 6 
#
# 1 0.011961 -0.005509 -0.001698 0.000000 0.000000 0.000000
# 2 -0.005509 0.012157 -0.003946 0.000000 0.000000 0.000000
# 3 -0.001698 -0.003946 0.020080 0.000000 0.000000 0.000000
# 4 0.000000 0.000000 0.000000 0.032855 0.000000 0.000000
# 5 0.000000 0.000000 0.000000 0.000000 0.097504 0.000000
# 6 0.000000 0.000000 0.000000 0.000000 0.000000 0.039422
#
#
# Mechanical properties :
#
#
# Convention : Reuss Voigt Hill
#
# Bulk Modulus (GPa) = 45.67700 55.86892 50.77296
# Shear Modulus (GPa) = 20.52702 25.27432 22.90067
#
# Velocity S-wave (km/s) = 3.32781 3.69263 3.51496
# Velocity P-wave (km/s) = 6.27762 6.95140 6.62309
#
# Compressibility (1/GPa) = 0.02189286
#
# Stress axis : x y z
#
# Youngs Moduli (GPa) = 83.60743 82.25586 49.80104
#
# Poissons Ratio (x) = 0.45311 0.08458
# Poissons Ratio (y) = 0.46056 0.19649
# Poissons Ratio (z) = 0.14199 0.32455
#
# Static dielectric constant tensor:
#      x y z
#    x 3.511730 0.000000 0.000000 
#    y 0.000000 3.469900 0.000000 
#    z 0.000000 0.000000 3.196710 
# 
# 
# High freq. dielectric constant tensor:
#      x y z
#    x 1.726190 0.000000 0.000000 
#    y 0.000000 1.704810 0.000000 
#    z 0.000000 0.000000 1.687240 
# 
# From -- ./inp_files/6543.got.cif
#   From: 2010.03.12/outbox.cif.g09.slc.cpg/sg55_4_cif.got.tgz:6543.got - 2010.04.16 15:19:21.
