data_PCOD8224713
_publ_section_title
;
Structure prediction by ZEFSAII (Michael W. Deem and Ramdas Pophale) SiO2 
 PCOD8224713
Probable space group: P B A M
;
_chemical_formula_sum "Si O2"
_cell_formula_units_Z 64
_cell_length_a 20.016746
_cell_length_b 18.983416
_cell_length_c 8.763030
_cell_angle_alpha 90.000000
_cell_angle_beta 90.000000
_cell_angle_gamma 90.000000
_cell_volume 3329.830613
_symmetry_space_group_name_H-M "P B A M"
_symmetry_group_IT_number 55
_symmetry_cell_setting 'orthorhombic'
loop_
_space_group_symop_operation_xyz
x,y,z
-x,-y,z
1/2+x,1/2-y,-z
1/2-x,1/2+y,-z
-x,-y,-z
x,y,-z
1/2-x,1/2+y,z
1/2+x,1/2-y,z
loop_
_atom_site_type_symbol
_atom_site_label
_atom_site_fract_x
_atom_site_fract_y
_atom_site_fract_z
Si Si1 0.232275 0.186151 0.181103
Si Si2 0.201147 0.542768 0.819126
Si Si3 0.155080 0.793356 0.181390
Si Si4 0.522989 0.785085 0.818665
Si Si5 0.947411 0.443322 0.181678
Si Si6 0.318145 0.448049 0.181115
Si Si7 0.564212 0.453114 0.177582
Si Si8 0.411922 0.692640 0.320193
O O1 0.261268 0.112169 0.241627
O O2 0.283205 0.246160 0.235727
O O3 0.162198 0.202079 0.257859
O O4 0.222493 0.185227 0.000000
O O5 0.126209 0.537739 0.752307
O O6 0.244177 0.474194 0.769470
O O7 0.196704 0.548654 0.000000
O O8 0.085828 0.760621 0.241832
O O9 0.166065 0.871391 0.251214
O O10 0.152784 0.795552 0.000000
O O11 0.532208 0.865465 0.764119
O O12 0.455629 0.756556 0.744464
O O13 0.517162 0.780359 0.000000
O O14 0.000000 0.500000 0.247909
O O15 0.946206 0.446701 0.000000
O O16 0.371812 0.504693 0.240779
O O17 0.324126 0.443474 0.000000
O O18 0.500000 0.500000 0.208091
O O19 0.555830 0.380958 0.268347
O O20 0.572476 0.434107 0.000000
O O21 0.411184 0.696715 0.500000
#
# Coordination Sequence:
#
# PCOD8224713 Si02
#       8
#     8   8   8   8   8   8   8   8
#     4  10  18  34  58  80 105 141 183 230 286 334
#     4   9  15  27  48  75 108 138 168 221 283 336
#     4   9  17  30  54  86 110 137 181 232 283 333
#     4  10  19  35  57  81 112 149 190 238 289 342
#     4   9  17  29  51  85 116 141 176 233 296 341
#     4   9  16  26  47  81 112 133 169 224 278 331
#     4  10  19  34  57  82 108 141 182 231 284 336
#     4  12  25  37  52  79 116 155 192 228 272 335
#
# _framework density 19.220196999999999
#
# number of rings (size 3 to 8) (size 9 to 14) (size 15 to 20)
#    0.000    2.250    2.500    1.875    0.000    3.250 
#    0.000    4.375    0.000    1.125    0.000    0.000 
#    0.000    0.000    0.000    0.000    0.000    0.000 
#
# Total GULP energy -793547.779809 kJ/mol
# GULP energy per Si atom -12399.184060 kJ/mol
# Density = 1.917645 g / cm^3
# Si number density = 19.220197 Si / 1000 Ang^3
#
#
#
# Elastic Constant Matrix: (Units=GPa)
#
#
# Indices 1 2 3 4 5 6 
#
# 1 176.2024 82.7777 26.9959 0.0000 0.0000 0.0000
# 2 82.7777 142.8449 19.0676 0.0000 0.0000 0.0000
# 3 26.9959 19.0676 31.3904 0.0000 0.0000 0.0000
# 4 0.0000 0.0000 0.0000 5.7257 0.0000 0.0000
# 5 0.0000 0.0000 0.0000 0.0000 1.6849 0.0000
# 6 0.0000 0.0000 0.0000 0.0000 0.0000 38.3481
#
#
#
# Elastic Compliance Matrix: (Units=1/GPa)
#
#
# Indices 1 2 3 4 5 6 
#
# 1 0.008374 -0.004235 -0.004629 0.000000 0.000000 0.000000
# 2 -0.004235 0.009760 -0.002287 0.000000 0.000000 0.000000
# 3 -0.004629 -0.002287 0.037227 0.000000 0.000000 0.000000
# 4 0.000000 0.000000 0.000000 0.174650 0.000000 0.000000
# 5 0.000000 0.000000 0.000000 0.000000 0.593520 0.000000
# 6 0.000000 0.000000 0.000000 0.000000 0.000000 0.026077
#
#
# Mechanical properties :
#
#
# Convention : Reuss Voigt Hill
#
# Bulk Modulus (GPa) = 30.24840 67.56891 48.90865
# Shear Modulus (GPa) = 5.66297 23.92484 14.79390
#
# Velocity S-wave (km/s) = 1.71836 3.53197 2.77737
# Velocity P-wave (km/s) = 4.43948 7.20170 5.98220
#
# Compressibility (1/GPa) = 0.03305960
#
# Stress axis : x y z
#
# Youngs Moduli (GPa) = 119.41771 102.46094 26.86217
#
# Poissons Ratio (x) = 0.43389 0.12435
# Poissons Ratio (y) = 0.50570 0.06142
# Poissons Ratio (z) = 0.55282 0.23429
#
# Static dielectric constant tensor:
#      x y z
#    x 3.769460 0.000000 0.000000 
#    y 0.000000 3.738730 0.000000 
#    z 0.000000 0.000000 2.845890 
# 
# 
# High freq. dielectric constant tensor:
#      x y z
#    x 1.765380 0.000000 0.000000 
#    y 0.000000 1.757190 0.000000 
#    z 0.000000 0.000000 1.677110 
# 
# From -- ./inp_files/9031.got.cif
#   From: 2010.03.12/outbox.cif.g09.slc.cpg/sg55_5_cif.got.tgz:9031.got - 2010.04.16 15:19:21.
