data_PCOD8224122
_publ_section_title
;
Structure prediction by ZEFSAII (Michael W. Deem and Ramdas Pophale) SiO2 
 PCOD8224122
Probable space group: P C C A
;
_chemical_formula_sum "Si O2"
_cell_formula_units_Z 40
_cell_length_a 8.827754
_cell_length_b 21.467419
_cell_length_c 8.819543
_cell_angle_alpha 90.000000
_cell_angle_beta 90.000000
_cell_angle_gamma 90.000000
_cell_volume 1671.383603
_symmetry_space_group_name_H-M "P C C A"
_symmetry_group_IT_number 54
_symmetry_cell_setting 'orthorhombic'
loop_
_space_group_symop_operation_xyz
x,y,z
1/2-x,-y,z
1/2+x,-y,1/2-z
-x,y,1/2-z
-x,-y,-z
1/2+x,y,-z
1/2-x,y,1/2+z
x,-y,1/2+z
loop_
_atom_site_type_symbol
_atom_site_label
_atom_site_fract_x
_atom_site_fract_y
_atom_site_fract_z
Si Si1 0.602130 0.960325 0.892111
Si Si2 0.855149 0.442097 0.335968
Si Si3 0.362581 0.632494 0.864519
Si Si4 0.913284 0.847397 0.604458
Si Si5 0.115886 0.227102 0.886732
O O1 0.500000 0.939834 0.750000
O O2 0.750000 0.000000 0.841229
O O3 0.646230 0.898682 0.985035
O O4 0.500000 0.000000 0.000000
O O5 0.750000 0.500000 0.375299
O O6 0.902721 0.410249 0.492674
O O7 0.784538 0.391296 0.223228
O O8 0.000000 0.470053 0.250000
O O9 0.500000 0.630027 0.750000
O O10 0.331690 0.702538 0.922137
O O11 0.763033 0.812307 0.659574
O O12 0.000000 0.877882 0.750000
O O13 0.033093 0.799378 0.534413
O O14 0.000000 0.224401 0.750000
#
# Coordination Sequence:
#
# PCOD8224122 Si02
#       5
#     8   8   8   8   8
#     4  12  27  49  77 110 151 201 252 311 376 449
#     4  12  27  48  76 107 153 200 254 321 389 462
#     4  11  27  46  74 110 147 200 255 315 392 466
#     4  12  27  48  77 109 153 200 249 316 379 450
#     4  11  27  46  73 110 150 197 255 311 383 460
#
# _framework density 23.932265999999998
#
# number of rings (size 3 to 8) (size 9 to 14) (size 15 to 20)
#    0.000    0.400    0.000    6.600   11.200    7.200 
#    0.000    5.000    0.000    0.000    0.000    0.000 
#    0.000    0.000    0.000    0.000    0.000    0.000 
#
# Total GULP energy -496282.303194 kJ/mol
# GULP energy per Si atom -12407.057580 kJ/mol
# Density = 2.387780 g / cm^3
# Si number density = 23.932266 Si / 1000 Ang^3
#
#
#
# Elastic Constant Matrix: (Units=GPa)
#
#
# Indices 1 2 3 4 5 6 
#
# 1 128.5252 49.5568 36.4898 0.0000 0.0000 0.0000
# 2 49.5568 154.8695 49.9563 0.0000 0.0000 0.0000
# 3 36.4898 49.9563 129.6346 0.0000 0.0000 0.0000
# 4 0.0000 0.0000 0.0000 42.9174 0.0000 0.0000
# 5 0.0000 0.0000 0.0000 0.0000 42.2597 0.0000
# 6 0.0000 0.0000 0.0000 0.0000 0.0000 40.6827
#
#
#
# Elastic Compliance Matrix: (Units=1/GPa)
#
#
# Indices 1 2 3 4 5 6 
#
# 1 0.009177 -0.002402 -0.001658 0.000000 0.000000 0.000000
# 2 -0.002402 0.008002 -0.002408 0.000000 0.000000 0.000000
# 3 -0.001658 -0.002408 0.009108 0.000000 0.000000 0.000000
# 4 0.000000 0.000000 0.000000 0.023301 0.000000 0.000000
# 5 0.000000 0.000000 0.000000 0.000000 0.023663 0.000000
# 6 0.000000 0.000000 0.000000 0.000000 0.000000 0.024580
#
#
# Mechanical properties :
#
#
# Convention : Reuss Voigt Hill
#
# Bulk Modulus (GPa) = 74.88665 76.11501 75.50083
# Shear Modulus (GPa) = 43.39599 43.64039 43.51819
#
# Velocity S-wave (km/s) = 4.26289 4.27487 4.26888
# Velocity P-wave (km/s) = 7.45578 7.49930 7.47757
#
# Compressibility (1/GPa) = 0.01335352
#
# Stress axis : x y z
#
# Youngs Moduli (GPa) = 108.96396 124.96405 109.78860
#
# Poissons Ratio (x) = 0.30016 0.18199
# Poissons Ratio (y) = 0.26173 0.26434
# Poissons Ratio (z) = 0.18062 0.30087
#
# Static dielectric constant tensor:
#      x y z
#    x 4.725500 0.000000 0.000000 
#    y 0.000000 4.911800 0.000000 
#    z 0.000000 0.000000 3.790580 
# 
# 
# High freq. dielectric constant tensor:
#      x y z
#    x 1.961220 0.000000 0.000000 
#    y 0.000000 1.961550 0.000000 
#    z 0.000000 0.000000 1.962160 
# 
# From -- ./inp_files/2528.got.cif
#   From: 2010.03.12/outbox.cif.g09.slc.cpg/sg54_2_cif.got.tgz:2528.got - 2010.04.16 15:00:50.
