data_PCOD8224425
_publ_section_title
;
Structure prediction by ZEFSAII (Michael W. Deem and Ramdas Pophale) SiO2 
 PCOD8224425
Probable space group: P B A M
;
_chemical_formula_sum "Si O2"
_cell_formula_units_Z 56
_cell_length_a 22.637263
_cell_length_b 10.872722
_cell_length_c 12.307838
_cell_angle_alpha 90.000000
_cell_angle_beta 90.000000
_cell_angle_gamma 90.000000
_cell_volume 3029.311766
_symmetry_space_group_name_H-M "P B A M"
_symmetry_group_IT_number 55
_symmetry_cell_setting 'orthorhombic'
loop_
_space_group_symop_operation_xyz
x,y,z
-x,-y,z
1/2+x,1/2-y,-z
1/2-x,1/2+y,-z
-x,-y,-z
x,y,-z
1/2-x,1/2+y,z
1/2+x,1/2-y,z
loop_
_atom_site_type_symbol
_atom_site_label
_atom_site_fract_x
_atom_site_fract_y
_atom_site_fract_z
Si Si1 0.727777 0.394771 0.721173
Si Si2 0.628251 0.432641 0.122196
Si Si3 0.792746 0.162054 0.373873
Si Si4 0.055693 0.431573 0.875319
Si Si5 0.507910 0.330774 0.877086
Si Si6 0.382494 0.311130 0.192999
Si Si7 0.834131 0.434926 0.878161
O O1 0.666834 0.363175 0.785900
O O2 0.724584 0.518209 0.646540
O O3 0.744242 0.267343 0.659272
O O4 0.775259 0.431588 0.810353
O O5 0.556898 0.435443 0.148455
O O6 0.646566 0.574971 0.128904
O O7 0.639705 0.380299 0.000000
O O8 0.805257 0.177656 0.500000
O O9 0.853579 0.195717 0.312479
O O10 0.049737 0.287232 0.864392
O O11 0.118885 0.469600 0.824138
O O12 0.000000 0.500000 0.818201
O O13 0.058232 0.477647 0.000000
O O14 0.453491 0.324303 0.793955
O O15 0.482690 0.343034 0.000000
O O16 0.367689 0.194713 0.120165
O O17 0.815980 0.472658 0.000000
#
# Coordination Sequence:
#
# PCOD8224425 Si02
#       7
#     8   8   8   8   8   8   8
#     4  10  22  36  57  82 104 139 180 218 270 321
#     4  10  20  32  48  78 117 146 169 203 253 320
#     4  10  22  41  60  76  98 133 184 239 277 307
#     4   9  16  26  43  68 102 143 176 201 237 292
#     4  10  18  29  48  75 110 145 172 201 247 315
#     4  10  19  32  52  76  99 142 183 213 261 316
#     4  10  18  30  49  77 112 143 173 208 252 317
#
# _framework density 18.486048
#
# number of rings (size 3 to 8) (size 9 to 14) (size 15 to 20)
#    0.000    2.143    1.429    2.571    2.000    1.143 
#    0.000    1.429    0.000    7.714    0.000    2.000 
#    0.000    0.000    0.000    0.000    0.000    0.000 
#
# Total GULP energy -693862.356256 kJ/mol
# GULP energy per Si atom -12390.399219 kJ/mol
# Density = 1.844397 g / cm^3
# Si number density = 18.486048 Si / 1000 Ang^3
#
#
#
# Elastic Constant Matrix: (Units=GPa)
#
#
# Indices 1 2 3 4 5 6 
#
# 1 95.5981 9.2477 44.5518 0.0000 0.0000 0.0000
# 2 9.2477 62.5763 20.7892 0.0000 0.0000 0.0000
# 3 44.5518 20.7892 86.6276 0.0000 0.0000 0.0000
# 4 0.0000 0.0000 0.0000 19.7555 0.0000 0.0000
# 5 0.0000 0.0000 0.0000 0.0000 14.6747 0.0000
# 6 0.0000 0.0000 0.0000 0.0000 0.0000 28.2061
#
#
#
# Elastic Compliance Matrix: (Units=1/GPa)
#
#
# Indices 1 2 3 4 5 6 
#
# 1 0.013765 0.000345 -0.007162 0.000000 0.000000 0.000000
# 2 0.000345 0.017374 -0.004347 0.000000 0.000000 0.000000
# 3 -0.007162 -0.004347 0.016270 0.000000 0.000000 0.000000
# 4 0.000000 0.000000 0.000000 0.050619 0.000000 0.000000
# 5 0.000000 0.000000 0.000000 0.000000 0.068145 0.000000
# 6 0.000000 0.000000 0.000000 0.000000 0.000000 0.035453
#
#
# Mechanical properties :
#
#
# Convention : Reuss Voigt Hill
#
# Bulk Modulus (GPa) = 39.87047 43.77549 41.82298
# Shear Modulus (GPa) = 21.52268 23.87480 22.69874
#
# Velocity S-wave (km/s) = 3.41584 3.59765 3.50792
# Velocity P-wave (km/s) = 6.09688 6.40228 6.25144
#
# Compressibility (1/GPa) = 0.02508122
#
# Stress axis : x y z
#
# Youngs Moduli (GPa) = 72.64922 57.55853 61.46218
#
# Poissons Ratio (x) = -0.01987 0.44019
# Poissons Ratio (y) = -0.02507 0.26717
# Poissons Ratio (z) = 0.52031 0.25020
#
# Static dielectric constant tensor:
#      x y z
#    x 3.537030 0.000000 0.000000 
#    y 0.000000 3.637800 0.000000 
#    z 0.000000 0.000000 2.948600 
# 
# 
# High freq. dielectric constant tensor:
#      x y z
#    x 1.726060 0.000000 0.000000 
#    y 0.000000 1.737460 0.000000 
#    z 0.000000 0.000000 1.656250 
# 
# From -- ./inp_files/13343.got.cif
#   From: 2010.03.12/outbox.cif.g09.slc.cpg/sg55_7_cif.got.tgz:13343.got - 2010.04.16 15:19:21.
