data_PCOD8224860
_publ_section_title
;
Structure prediction by ZEFSAII (Michael W. Deem and Ramdas Pophale) SiO2 
 PCOD8224860
Probable space group: P B A M
;
_chemical_formula_sum "Si O2"
_cell_formula_units_Z 64
_cell_length_a 19.413771
_cell_length_b 19.488462
_cell_length_c 8.830848
_cell_angle_alpha 90.000000
_cell_angle_beta 90.000000
_cell_angle_gamma 90.000000
_cell_volume 3341.103110
_symmetry_space_group_name_H-M "P B A M"
_symmetry_group_IT_number 55
_symmetry_cell_setting 'orthorhombic'
loop_
_space_group_symop_operation_xyz
x,y,z
-x,-y,z
1/2+x,1/2-y,-z
1/2-x,1/2+y,-z
-x,-y,-z
x,y,-z
1/2-x,1/2+y,z
1/2+x,1/2-y,z
loop_
_atom_site_type_symbol
_atom_site_label
_atom_site_fract_x
_atom_site_fract_y
_atom_site_fract_z
Si Si1 0.408530 0.482087 0.667859
Si Si2 0.019132 0.098282 0.824266
Si Si3 0.733900 0.121640 0.823913
Si Si4 0.382441 0.770057 0.821887
Si Si5 0.832056 0.225486 0.675836
Si Si6 0.282598 0.664678 0.321854
Si Si7 0.744256 0.488420 0.331191
Si Si8 0.988803 0.236127 0.678585
O O1 0.439395 0.469785 0.500000
O O2 0.424611 0.558891 0.723982
O O3 0.442665 0.428946 0.784030
O O4 0.328016 0.472349 0.663497
O O5 0.022418 0.176227 0.778167
O O6 0.034743 0.087277 0.000000
O O7 0.668874 0.168280 0.781391
O O8 0.802902 0.157303 0.756109
O O9 0.713806 0.044530 0.766121
O O10 0.747352 0.116547 0.000000
O O11 0.347512 0.698386 0.764115
O O12 0.454139 0.791752 0.733845
O O13 0.395772 0.763758 0.000000
O O14 0.833322 0.207115 0.500000
O O15 0.785509 0.291162 0.711900
O O16 0.909617 0.246768 0.729230
O O17 0.300403 0.661182 0.500000
O O18 0.264396 0.587825 0.260168
O O19 0.776105 0.481733 0.500000
O O20 0.993274 0.223534 0.500000
#
# Coordination Sequence:
#
# PCOD8224860 Si02
#       8
#     8   8   8   8   8   8   8   8
#     4  10  19  31  45  66  98 133 167 202 240 295
#     4  11  21  31  44  66  97 133 167 202 245 296
#     4  10  21  35  53  77 106 136 169 208 253 303
#     4  10  21  36  53  77 105 135 171 211 253 304
#     4   9  19  35  55  77 103 134 172 213 255 303
#     4   9  18  35  56  78 104 135 170 212 257 304
#     4  10  20  32  51  75  98 128 167 206 250 300
#     4  11  21  33  51  74  98 130 169 210 255 303
#
# _framework density 19.155349000000001
#
# number of rings (size 3 to 8) (size 9 to 14) (size 15 to 20)
#    0.000    2.000    0.000    4.875    0.000    8.000 
#    0.000    0.000    0.000    0.750    0.000    5.250 
#    0.000    0.000    0.000    0.000    0.000    0.000 
#
# Total GULP energy -793034.764208 kJ/mol
# GULP energy per Si atom -12391.168191 kJ/mol
# Density = 1.911175 g / cm^3
# Si number density = 19.155349 Si / 1000 Ang^3
#
#
#
# Elastic Constant Matrix: (Units=GPa)
#
#
# Indices 1 2 3 4 5 6 
#
# 1 93.3533 14.4854 25.4133 0.0000 0.0000 0.0000
# 2 14.4854 82.6067 17.8092 0.0000 0.0000 0.0000
# 3 25.4133 17.8092 61.0644 0.0000 0.0000 0.0000
# 4 0.0000 0.0000 0.0000 24.8813 0.0000 0.0000
# 5 0.0000 0.0000 0.0000 0.0000 19.5102 0.0000
# 6 0.0000 0.0000 0.0000 0.0000 0.0000 7.7859
#
#
#
# Elastic Compliance Matrix: (Units=1/GPa)
#
#
# Indices 1 2 3 4 5 6 
#
# 1 0.012176 -0.001113 -0.004743 0.000000 0.000000 0.000000
# 2 -0.001113 0.013019 -0.003334 0.000000 0.000000 0.000000
# 3 -0.004743 -0.003334 0.019322 0.000000 0.000000 0.000000
# 4 0.000000 0.000000 0.000000 0.040191 0.000000 0.000000
# 5 0.000000 0.000000 0.000000 0.000000 0.051255 0.000000
# 6 0.000000 0.000000 0.000000 0.000000 0.000000 0.128437
#
#
# Mechanical properties :
#
#
# Convention : Reuss Voigt Hill
#
# Bulk Modulus (GPa) = 38.25731 39.16001 38.70866
# Shear Modulus (GPa) = 17.15312 22.38992 19.77152
#
# Velocity S-wave (km/s) = 2.99569 3.42257 3.21622
# Velocity P-wave (km/s) = 5.65518 6.00886 5.83470
#
# Compressibility (1/GPa) = 0.02613880
#
# Stress axis : x y z
#
# Youngs Moduli (GPa) = 82.13063 76.80828 51.75367
#
# Poissons Ratio (x) = 0.08546 0.24545
# Poissons Ratio (y) = 0.09138 0.17255
# Poissons Ratio (z) = 0.38952 0.25608
#
# Static dielectric constant tensor:
#      x y z
#    x 3.600880 0.000000 0.000000 
#    y 0.000000 3.515050 0.000000 
#    z 0.000000 0.000000 3.507530 
# 
# 
# High freq. dielectric constant tensor:
#      x y z
#    x 1.735270 0.000000 0.000000 
#    y 0.000000 1.731390 0.000000 
#    z 0.000000 0.000000 1.743280 
# 
# From -- ./inp_files/9165.got.cif
#   From: 2010.03.12/outbox.cif.g09.slc.cpg/sg55_5_cif.got.tgz:9165.got - 2010.04.16 15:19:21.
