data_PCOD8224426
_publ_section_title
;
Structure prediction by ZEFSAII (Michael W. Deem and Ramdas Pophale) SiO2 
 PCOD8224426
Probable space group: P B A M
;
_chemical_formula_sum "Si O2"
_cell_formula_units_Z 56
_cell_length_a 13.564383
_cell_length_b 17.450065
_cell_length_c 14.427351
_cell_angle_alpha 90.000000
_cell_angle_beta 90.000000
_cell_angle_gamma 90.000000
_cell_volume 3414.944821
_symmetry_space_group_name_H-M "P B A M"
_symmetry_group_IT_number 55
_symmetry_cell_setting 'orthorhombic'
loop_
_space_group_symop_operation_xyz
x,y,z
-x,-y,z
1/2+x,1/2-y,-z
1/2-x,1/2+y,-z
-x,-y,-z
x,y,-z
1/2-x,1/2+y,z
1/2+x,1/2-y,z
loop_
_atom_site_type_symbol
_atom_site_label
_atom_site_fract_x
_atom_site_fract_y
_atom_site_fract_z
Si Si1 0.843917 0.019163 0.600741
Si Si2 0.516082 0.373585 0.601040
Si Si3 0.612939 0.621661 0.107942
Si Si4 0.705899 0.481406 0.793278
Si Si5 0.081069 0.171105 0.208281
Si Si6 0.319641 0.807165 0.105536
Si Si7 0.105414 0.474824 0.892652
O O1 0.789114 0.020209 0.500000
O O2 0.903093 0.098947 0.614026
O O3 0.919125 0.949322 0.603801
O O4 0.770541 0.007489 0.687124
O O5 0.528307 0.332614 0.500000
O O6 0.547050 0.317316 0.684654
O O7 0.631527 0.542004 0.160401
O O8 0.514200 0.661258 0.143972
O O9 0.703946 0.679504 0.124406
O O10 0.602148 0.602158 0.000000
O O11 0.654064 0.400007 0.801356
O O12 0.810576 0.475627 0.843039
O O13 0.140336 0.245689 0.177670
O O14 0.379309 0.885051 0.124111
O O15 0.336539 0.779086 0.000000
O O16 0.000000 0.500000 0.851873
O O17 0.113164 0.496195 0.000000
#
# Coordination Sequence:
#
# PCOD8224426 Si02
#       7
#     8   8   8   8   8   8   8
#     4   8  13  24  43  69  99 124 151 188 233 290
#     4   8  14  25  43  69  99 126 152 188 234 288
#     4  10  20  32  44  65 100 128 150 195 245 283
#     4  10  18  29  48  75  97 119 158 200 246 293
#     4  11  19  29  50  74  96 125 157 197 245 292
#     4   9  20  34  45  65  96 127 160 198 238 284
#     4   9  19  36  53  66  90 132 174 205 231 280
#
# _framework density 16.398506999999999
#
# number of rings (size 3 to 8) (size 9 to 14) (size 15 to 20)
#    0.000    2.714    1.429    3.000    0.000    4.000 
#    0.000    2.857    0.000    4.714    0.000    2.000 
#    0.000    0.000    0.000    0.000    0.000    0.000 
#
# Total GULP energy -694100.996457 kJ/mol
# GULP energy per Si atom -12394.660651 kJ/mol
# Density = 1.636118 g / cm^3
# Si number density = 16.398507 Si / 1000 Ang^3
#
#
#
# Elastic Constant Matrix: (Units=GPa)
#
#
# Indices 1 2 3 4 5 6 
#
# 1 87.4351 36.8808 46.3312 0.0000 0.0000 0.0000
# 2 36.8808 56.5380 44.0385 0.0000 0.0000 0.0000
# 3 46.3312 44.0385 119.7327 0.0000 0.0000 0.0000
# 4 0.0000 0.0000 0.0000 19.0578 0.0000 0.0000
# 5 0.0000 0.0000 0.0000 0.0000 18.1684 0.0000
# 6 0.0000 0.0000 0.0000 0.0000 0.0000 16.0797
#
#
#
# Elastic Compliance Matrix: (Units=1/GPa)
#
#
# Indices 1 2 3 4 5 6 
#
# 1 0.016737 -0.008231 -0.003449 0.000000 0.000000 0.000000
# 2 -0.008231 0.028837 -0.007421 0.000000 0.000000 0.000000
# 3 -0.003449 -0.007421 0.012416 0.000000 0.000000 0.000000
# 4 0.000000 0.000000 0.000000 0.052472 0.000000 0.000000
# 5 0.000000 0.000000 0.000000 0.000000 0.055041 0.000000
# 6 0.000000 0.000000 0.000000 0.000000 0.000000 0.062190
#
#
# Mechanical properties :
#
#
# Convention : Reuss Voigt Hill
#
# Bulk Modulus (GPa) = 50.53813 57.57854 54.05834
# Shear Modulus (GPa) = 18.34921 19.75820 19.05370
#
# Velocity S-wave (km/s) = 3.34871 3.47490 3.41239
# Velocity P-wave (km/s) = 6.77034 7.16158 6.96870
#
# Compressibility (1/GPa) = 0.01978704
#
# Stress axis : x y z
#
# Youngs Moduli (GPa) = 59.74952 34.67736 80.54053
#
# Poissons Ratio (x) = 0.28544 0.27777
# Poissons Ratio (y) = 0.49181 0.59772
# Poissons Ratio (z) = 0.20606 0.25736
#
# Static dielectric constant tensor:
#      x y z
#    x 3.000890 0.000000 0.000000 
#    y 0.000000 2.762480 0.000000 
#    z 0.000000 0.000000 3.527110 
# 
# 
# High freq. dielectric constant tensor:
#      x y z
#    x 1.612030 0.000000 0.000000 
#    y 0.000000 1.598570 0.000000 
#    z 0.000000 0.000000 1.643290 
# 
# From -- ./inp_files/19050.got.cif
#   From: 2010.03.12/outbox.cif.g09.slc.cpg/sg55_10_cif.got.tgz:19050.got - 2010.04.16 15:19:21.
