data_PCOD8224639
_publ_section_title
;
Structure prediction by ZEFSAII (Michael W. Deem and Ramdas Pophale) SiO2 
 PCOD8224639
Probable space group: P B A M
;
_chemical_formula_sum "Si O2"
_cell_formula_units_Z 64
_cell_length_a 25.107413
_cell_length_b 14.553541
_cell_length_c 8.930693
_cell_angle_alpha 90.000000
_cell_angle_beta 90.000000
_cell_angle_gamma 90.000000
_cell_volume 3263.290980
_symmetry_space_group_name_H-M "P B A M"
_symmetry_group_IT_number 55
_symmetry_cell_setting 'orthorhombic'
loop_
_space_group_symop_operation_xyz
x,y,z
-x,-y,z
1/2+x,1/2-y,-z
1/2-x,1/2+y,-z
-x,-y,-z
x,y,-z
1/2-x,1/2+y,z
1/2+x,1/2-y,z
loop_
_atom_site_type_symbol
_atom_site_label
_atom_site_fract_x
_atom_site_fract_y
_atom_site_fract_z
Si Si1 0.869127 0.914352 0.822409
Si Si2 0.497544 0.894174 0.822048
Si Si3 0.717500 0.139713 0.178271
Si Si4 0.923947 0.254989 0.324900
Si Si5 0.687345 0.770133 0.825139
Si Si6 0.251252 0.554621 0.175448
Si Si7 0.605951 0.213498 0.821925
Si Si8 0.447053 0.450101 0.324730
O O1 0.897867 0.819929 0.769143
O O2 0.808467 0.913562 0.760642
O O3 0.897276 0.004150 0.757612
O O4 0.870389 0.921107 0.000000
O O5 0.547885 0.838571 0.760225
O O6 0.443864 0.845425 0.760060
O O7 0.500000 0.000000 0.766450
O O8 0.500126 0.890466 0.000000
O O9 0.763983 0.207581 0.229570
O O10 0.731867 0.040770 0.247152
O O11 0.660540 0.171122 0.243944
O O12 0.713563 0.138657 0.000000
O O13 0.926688 0.275423 0.500000
O O14 0.863277 0.246837 0.273904
O O15 0.951514 0.157679 0.284819
O O16 0.704654 0.873804 0.790545
O O17 0.674123 0.754682 0.000000
O O18 0.259074 0.541426 0.000000
O O19 0.606728 0.208649 0.000000
O O20 0.500000 0.500000 0.265760
O O21 0.438808 0.465313 0.500000
#
# Coordination Sequence:
#
# PCOD8224639 Si02
#       8
#     8   8   8   8   8   8   8   8
#     4  10  18  32  55  86 114 138 177 229 282 330
#     4  10  22  38  59  86 111 146 196 240 280 333
#     4   9  16  28  50  81 113 142 173 222 278 326
#     4  11  24  40  57  79 113 151 187 233 284 334
#     4  10  19  34  57  84 112 144 185 226 274 338
#     4   9  17  28  49  80 110 141 176 217 273 336
#     4   9  17  31  52  81 115 141 174 230 284 328
#     4  10  22  39  57  78 107 148 190 225 275 340
#
# _framework density 19.612103000000001
#
# number of rings (size 3 to 8) (size 9 to 14) (size 15 to 20)
#    0.000    2.250    1.250    1.875    1.750    2.500 
#    0.000    0.625    0.000    1.500    0.000    0.000 
#    0.000    0.000    0.000    0.000    0.000    0.000 
#
# Total GULP energy -793558.525749 kJ/mol
# GULP energy per Si atom -12399.351965 kJ/mol
# Density = 1.956746 g / cm^3
# Si number density = 19.612103 Si / 1000 Ang^3
#
#
#
# Elastic Constant Matrix: (Units=GPa)
#
#
# Indices 1 2 3 4 5 6 
#
# 1 101.0923 33.2066 16.0608 0.0000 0.0000 0.0000
# 2 33.2066 128.9345 22.7038 0.0000 0.0000 0.0000
# 3 16.0608 22.7038 17.4890 0.0000 0.0000 0.0000
# 4 0.0000 0.0000 0.0000 18.2091 0.0000 0.0000
# 5 0.0000 0.0000 0.0000 0.0000 7.3346 0.0000
# 6 0.0000 0.0000 0.0000 0.0000 0.0000 36.0522
#
#
#
# Elastic Compliance Matrix: (Units=1/GPa)
#
#
# Indices 1 2 3 4 5 6 
#
# 1 0.011791 -0.001465 -0.008927 0.000000 0.000000 0.000000
# 2 -0.001465 0.010236 -0.011943 0.000000 0.000000 0.000000
# 3 -0.008927 -0.011943 0.080881 0.000000 0.000000 0.000000
# 4 0.000000 0.000000 0.000000 0.054918 0.000000 0.000000
# 5 0.000000 0.000000 0.000000 0.000000 0.136340 0.000000
# 6 0.000000 0.000000 0.000000 0.000000 0.000000 0.027738
#
#
# Mechanical properties :
#
#
# Convention : Reuss Voigt Hill
#
# Bulk Modulus (GPa) = 17.17067 43.49536 30.33302
# Shear Modulus (GPa) = 12.95386 24.02217 18.48801
#
# Velocity S-wave (km/s) = 2.57281 3.50360 3.07365
# Velocity P-wave (km/s) = 4.19523 6.21232 5.30061
#
# Compressibility (1/GPa) = 0.05823883
#
# Stress axis : x y z
#
# Youngs Moduli (GPa) = 84.80794 97.69252 12.36390
#
# Poissons Ratio (x) = 0.14311 0.11037
# Poissons Ratio (y) = 0.12424 0.14766
# Poissons Ratio (z) = 0.75705 1.16675
#
# Static dielectric constant tensor:
#      x y z
#    x 3.702820 0.000000 0.000000 
#    y 0.000000 3.894600 0.000000 
#    z 0.000000 0.000000 3.020330 
# 
# 
# High freq. dielectric constant tensor:
#      x y z
#    x 1.775260 0.000000 0.000000 
#    y 0.000000 1.782270 0.000000 
#    z 0.000000 0.000000 1.707300 
# 
# From -- ./inp_files/9730.got.cif
#   From: 2010.03.12/outbox.cif.g09.slc.cpg/sg55_5_cif.got.tgz:9730.got - 2010.04.16 15:19:21.
