data_PCOD8224220
_publ_section_title
;
Structure prediction by ZEFSAII (Michael W. Deem and Ramdas Pophale) SiO2 
 PCOD8224220
Probable space group: P B A M
;
_chemical_formula_sum "Si O2"
_cell_formula_units_Z 44
_cell_length_a 5.245311
_cell_length_b 17.237650
_cell_length_c 26.321919
_cell_angle_alpha 90.000000
_cell_angle_beta 90.000000
_cell_angle_gamma 90.000000
_cell_volume 2379.944611
_symmetry_space_group_name_H-M "P B A M"
_symmetry_group_IT_number 55
_symmetry_cell_setting 'orthorhombic'
loop_
_space_group_symop_operation_xyz
x,y,z
-x,-y,z
1/2+x,1/2-y,-z
1/2-x,1/2+y,-z
-x,-y,-z
x,y,-z
1/2-x,1/2+y,z
1/2+x,1/2-y,z
loop_
_atom_site_type_symbol
_atom_site_label
_atom_site_fract_x
_atom_site_fract_y
_atom_site_fract_z
Si Si1 0.225654 0.297590 0.122893
Si Si2 0.219481 0.158495 0.715744
Si Si3 0.832473 0.798735 0.500000
Si Si4 0.280139 0.831091 0.241216
Si Si5 0.747807 0.048016 0.059093
Si Si6 0.727486 0.799869 0.393083
O O1 0.455289 0.239954 0.108779
O O2 0.259660 0.373774 0.090291
O O3 0.241527 0.317957 0.181814
O O4 0.205138 0.250134 0.728436
O O5 0.963637 0.119997 0.738850
O O6 0.233310 0.143800 0.655150
O O7 0.464131 0.121353 0.744246
O O8 0.128461 0.772918 0.500000
O O9 0.773410 0.845031 0.447161
O O10 0.500000 0.000000 0.076111
O O11 0.733544 0.069654 0.000000
O O12 0.000000 0.000000 0.072103
O O13 0.939264 0.731820 0.390556
#
# Coordination Sequence:
#
# PCOD8224220 Si02
#       6
#     8   8   4   8   8   8
#     4  12  21  33  56  84 107 127 164 219 257 279
#     4  10  14  23  36  51  84 116 138 176 244 290
#     4   8  16  20  24  38  56  82 144 194 208 240
#     4  10  16  25  37  62  90 111 138 184 241 276
#     4  10  23  43  60  76 105 143 172 198 246 312
#     4  10  14  20  29  40  60 100 138 182 220 264
#
# _framework density 18.487826999999999
#
# number of rings (size 3 to 8) (size 9 to 14) (size 15 to 20)
#    0.000    1.818    7.273    1.091    0.000    0.727 
#    0.000    0.000    0.000    0.000    0.000    0.000 
#    0.000    0.000    0.000    0.000    0.000    0.000 
#
# Total GULP energy -545127.502760 kJ/mol
# GULP energy per Si atom -12389.261426 kJ/mol
# Density = 1.844575 g / cm^3
# Si number density = 18.487827 Si / 1000 Ang^3
#
#
#
# Elastic Constant Matrix: (Units=GPa)
#
#
# Indices 1 2 3 4 5 6 
#
# 1 135.3994 2.7986 15.7191 0.0000 0.0000 0.0000
# 2 2.7986 22.7966 36.3663 0.0000 0.0000 0.0000
# 3 15.7191 36.3663 95.8288 0.0000 0.0000 0.0000
# 4 0.0000 0.0000 0.0000 0.0879 0.0000 0.0000
# 5 0.0000 0.0000 0.0000 0.0000 27.9262 0.0000
# 6 0.0000 0.0000 0.0000 0.0000 0.0000 9.4152
#
#
#
# Elastic Compliance Matrix: (Units=1/GPa)
#
#
# Indices 1 2 3 4 5 6 
#
# 1 0.007593 0.002673 -0.002260 0.000000 0.000000 0.000000
# 2 0.002673 0.112103 -0.042981 0.000000 0.000000 0.000000
# 3 -0.002260 -0.042981 0.027117 0.000000 0.000000 0.000000
# 4 0.000000 0.000000 0.000000 11.374881 0.000000 0.000000
# 5 0.000000 0.000000 0.000000 0.000000 0.035809 0.000000
# 6 0.000000 0.000000 0.000000 0.000000 0.000000 0.106212
#
#
# Mechanical properties :
#
#
# Convention : Reuss Voigt Hill
#
# Bulk Modulus (GPa) = 16.21348 40.42141 28.31744
# Shear Modulus (GPa) = 0.42483 20.76191 10.59337
#
# Velocity S-wave (km/s) = 0.47988 3.35476 2.39632
# Velocity P-wave (km/s) = 3.01594 6.07595 4.79651
#
# Compressibility (1/GPa) = 0.06167709
#
# Stress axis : x y z
#
# Youngs Moduli (GPa) = 131.70626 8.92038 36.87758
#
# Poissons Ratio (x) = -0.02384 0.08333
# Poissons Ratio (y) = -0.35201 1.58502
# Poissons Ratio (z) = 0.29762 0.38340
#
# Static dielectric constant tensor:
#      x y z
#    x 5.562920 0.000000 0.000000 
#    y 0.000000 2.535200 0.000000 
#    z 0.000000 0.000000 3.860540 
# 
# 
# High freq. dielectric constant tensor:
#      x y z
#    x 1.760970 0.000000 0.000000 
#    y 0.000000 1.606260 0.000000 
#    z 0.000000 0.000000 1.741440 
# 
# From -- ./inp_files/23299.got.cif
#   From: 2010.03.12/outbox.cif.g09.slc.cpg/sg55_12_cif.got.tgz:23299.got - 2010.04.16 15:19:21.
