data_PCOD8224308
_publ_section_title
;
Structure prediction by ZEFSAII (Michael W. Deem and Ramdas Pophale) SiO2 
 PCOD8224308
Probable space group: P B A M
;
_chemical_formula_sum "Si O2"
_cell_formula_units_Z 56
_cell_length_a 15.480381
_cell_length_b 21.179580
_cell_length_c 9.505162
_cell_angle_alpha 90.000000
_cell_angle_beta 90.000000
_cell_angle_gamma 90.000000
_cell_volume 3116.438149
_symmetry_space_group_name_H-M "P B A M"
_symmetry_group_IT_number 55
_symmetry_cell_setting 'orthorhombic'
loop_
_space_group_symop_operation_xyz
x,y,z
-x,-y,z
1/2+x,1/2-y,-z
1/2-x,1/2+y,-z
-x,-y,-z
x,y,-z
1/2-x,1/2+y,z
1/2+x,1/2-y,z
loop_
_atom_site_type_symbol
_atom_site_label
_atom_site_fract_x
_atom_site_fract_y
_atom_site_fract_z
Si Si1 0.167957 0.723957 0.331634
Si Si2 0.232093 0.961212 0.663328
Si Si3 0.556388 0.371558 0.656929
Si Si4 0.305137 0.827976 0.666854
Si Si5 0.066142 0.943182 0.842203
Si Si6 0.976199 0.728916 0.656389
Si Si7 0.742483 0.400921 0.663388
O O1 0.165122 0.728310 0.500000
O O2 0.229789 0.780858 0.274638
O O3 0.200221 0.655745 0.272609
O O4 0.070349 0.730226 0.268426
O O5 0.204287 0.955161 0.500000
O O6 0.287897 0.900682 0.709198
O O7 0.149687 0.965481 0.760857
O O8 0.282233 0.028491 0.687939
O O9 0.538302 0.399332 0.500000
O O10 0.476161 0.385512 0.758082
O O11 0.566609 0.297129 0.648456
O O12 0.644719 0.399337 0.723446
O O13 0.309103 0.819000 0.500000
O O14 0.400517 0.812591 0.731339
O O15 0.089790 0.921281 0.000000
O O16 0.000000 0.000000 0.844374
O O17 0.991954 0.701604 0.500000
O O18 0.733975 0.385040 0.500000
#
# Coordination Sequence:
#
# PCOD8224308 Si02
#       7
#     8   8   8   8   8   8   8
#     4   9  15  25  40  63  97 129 155 193 244 286
#     4  10  19  31  48  69  95 127 161 199 238 283
#     4  10  17  29  49  70  93 125 161 197 236 284
#     4   9  16  27  43  69  98 122 158 202 240 284
#     4  11  22  32  44  68 100 127 154 193 243 295
#     4   9  16  26  45  72  98 125 159 200 243 283
#     4   9  16  26  42  65  93 123 158 195 233 282
#
# _framework density 17.969232000000002
#
# number of rings (size 3 to 8) (size 9 to 14) (size 15 to 20)
#    0.000    2.429    2.857    1.286    0.000    2.857 
#    0.000    0.714    0.000    5.143    0.000    1.000 
#    0.000    1.143    0.000    0.000    0.000    0.000 
#
# Total GULP energy -693758.795120 kJ/mol
# GULP energy per Si atom -12388.549913 kJ/mol
# Density = 1.792833 g / cm^3
# Si number density = 17.969232 Si / 1000 Ang^3
#
#
#
# Elastic Constant Matrix: (Units=GPa)
#
#
# Indices 1 2 3 4 5 6 
#
# 1 99.0941 48.0057 8.1425 0.0000 0.0000 0.0000
# 2 48.0057 126.5936 11.4087 0.0000 0.0000 0.0000
# 3 8.1425 11.4087 33.4017 0.0000 0.0000 0.0000
# 4 0.0000 0.0000 0.0000 0.8602 0.0000 0.0000
# 5 0.0000 0.0000 0.0000 0.0000 -0.9331 0.0000
# 6 0.0000 0.0000 0.0000 0.0000 0.0000 31.1708
#
#
#
# Elastic Compliance Matrix: (Units=1/GPa)
#
#
# Indices 1 2 3 4 5 6 
#
# 1 0.012432 -0.004582 -0.001465 0.000000 0.000000 0.000000
# 2 -0.004582 0.009839 -0.002244 0.000000 0.000000 0.000000
# 3 -0.001465 -0.002244 0.031062 0.000000 0.000000 0.000000
# 4 0.000000 0.000000 0.000000 1.162467 0.000000 0.000000
# 5 0.000000 0.000000 0.000000 0.000000 -1.071752 0.000000
# 6 0.000000 0.000000 0.000000 0.000000 0.000000 0.032081
#
#
# Mechanical properties :
#
#
# Convention : Reuss Voigt Hill
#
# Bulk Modulus (GPa) = 27.21053 43.80035 35.50544
# Shear Modulus (GPa) = 24.39469 18.98841 21.69155
#
# Velocity S-wave (km/s) = 3.68853 3.25425 3.47818
# Velocity P-wave (km/s) = 5.77201 6.20873 5.99435
#
# Compressibility (1/GPa) = 0.03675048
#
# Stress axis : x y z
#
# Youngs Moduli (GPa) = 80.43992 101.63536 32.19346
#
# Poissons Ratio (x) = 0.46571 0.04718
# Poissons Ratio (y) = 0.36859 0.07223
# Poissons Ratio (z) = 0.11788 0.22803
#
# Static dielectric constant tensor:
#      x y z
#    x 3.497810 0.000000 0.000000 
#    y 0.000000 3.488500 0.000000 
#    z 0.000000 0.000000 2.808770 
# 
# 
# High freq. dielectric constant tensor:
#      x y z
#    x 1.688100 0.000000 0.000000 
#    y 0.000000 1.705710 0.000000 
#    z 0.000000 0.000000 1.617450 
# 
# From -- ./inp_files/7889.got.cif
#   From: 2010.03.12/outbox.cif.g09.slc.cpg/sg55_4_cif.got.tgz:7889.got - 2010.04.16 15:19:21.
