data_PCOD8224351
_publ_section_title
;
Structure prediction by ZEFSAII (Michael W. Deem and Ramdas Pophale) SiO2 
 PCOD8224351
Probable space group: P B A M
;
_chemical_formula_sum "Si O2"
_cell_formula_units_Z 56
_cell_length_a 21.798201
_cell_length_b 17.927428
_cell_length_c 8.915189
_cell_angle_alpha 90.000000
_cell_angle_beta 90.000000
_cell_angle_gamma 90.000000
_cell_volume 3483.928186
_symmetry_space_group_name_H-M "P B A M"
_symmetry_group_IT_number 55
_symmetry_cell_setting 'orthorhombic'
loop_
_space_group_symop_operation_xyz
x,y,z
-x,-y,z
1/2+x,1/2-y,-z
1/2-x,1/2+y,-z
-x,-y,-z
x,y,-z
1/2-x,1/2+y,z
1/2+x,1/2-y,z
loop_
_atom_site_type_symbol
_atom_site_label
_atom_site_fract_x
_atom_site_fract_y
_atom_site_fract_z
Si Si1 0.570041 0.014184 0.674322
Si Si2 0.793004 0.927728 0.828045
Si Si3 0.803282 0.245616 0.827414
Si Si4 0.277588 0.412299 0.173934
Si Si5 0.320509 0.716227 0.675344
Si Si6 0.355131 0.859928 0.177649
Si Si7 0.649365 0.895768 0.168147
O O1 0.578972 0.031016 0.500000
O O2 0.591274 0.085994 0.767087
O O3 0.500000 0.000000 0.716997
O O4 0.608487 0.940314 0.714667
O O5 0.833026 0.867634 0.735762
O O6 0.720620 0.913888 0.810667
O O7 0.805212 0.010946 0.758096
O O8 0.814021 0.920969 0.000000
O O9 0.822949 0.159009 0.798714
O O10 0.749399 0.263850 0.712700
O O11 0.858077 0.305672 0.804049
O O12 0.778260 0.252629 0.000000
O O13 0.209805 0.393104 0.236850
O O14 0.268705 0.430109 0.000000
O O15 0.332712 0.718233 0.500000
O O16 0.364804 0.777226 0.753554
O O17 0.357363 0.853424 0.000000
O O18 0.628076 0.917296 0.000000
#
# Coordination Sequence:
#
# PCOD8224351 Si02
#       7
#     8   8   8   8   8   8   8
#     4  11  23  34  44  62  87 114 147 188 230 267
#     4   9  15  26  42  62  86 115 147 173 203 251
#     4   8  15  27  42  60  82 112 147 178 209 254
#     4   8  13  24  43  63  83 109 142 176 208 245
#     4  10  18  26  38  61  87 113 141 173 215 257
#     4  10  18  32  48  60  78 111 150 185 219 256
#     4   9  16  28  44  61  82 112 151 185 214 252
#
# _framework density 16.073809000000001
#
# number of rings (size 3 to 8) (size 9 to 14) (size 15 to 20)
#    0.000    2.714    1.429    3.857    0.000    3.429 
#    0.000    0.714    0.000    0.000    0.000    0.000 
#    0.000    1.143    0.000   13.143    0.000    3.286 
#
# Total GULP energy -693818.269586 kJ/mol
# GULP energy per Si atom -12389.611957 kJ/mol
# Density = 1.603722 g / cm^3
# Si number density = 16.073809 Si / 1000 Ang^3
#
#
#
# Elastic Constant Matrix: (Units=GPa)
#
#
# Indices 1 2 3 4 5 6 
#
# 1 27.4489 19.7315 15.4041 0.0000 0.0000 0.0000
# 2 19.7315 152.1640 34.0975 0.0000 0.0000 0.0000
# 3 15.4041 34.0975 64.1008 0.0000 0.0000 0.0000
# 4 0.0000 0.0000 0.0000 17.7278 0.0000 0.0000
# 5 0.0000 0.0000 0.0000 0.0000 14.9855 0.0000
# 6 0.0000 0.0000 0.0000 0.0000 0.0000 11.2069
#
#
#
# Elastic Compliance Matrix: (Units=1/GPa)
#
#
# Indices 1 2 3 4 5 6 
#
# 1 0.043948 -0.003783 -0.008549 0.000000 0.000000 0.000000
# 2 -0.003783 0.007787 -0.003233 0.000000 0.000000 0.000000
# 3 -0.008549 -0.003233 0.019375 0.000000 0.000000 0.000000
# 4 0.000000 0.000000 0.000000 0.056408 0.000000 0.000000
# 5 0.000000 0.000000 0.000000 0.000000 0.066731 0.000000
# 6 0.000000 0.000000 0.000000 0.000000 0.000000 0.089231
#
#
# Mechanical properties :
#
#
# Convention : Reuss Voigt Hill
#
# Bulk Modulus (GPa) = 25.01262 42.46443 33.73853
# Shear Modulus (GPa) = 15.24684 20.41610 17.83147
#
# Velocity S-wave (km/s) = 3.08320 3.56778 3.33430
# Velocity P-wave (km/s) = 5.31693 6.59149 5.98822
#
# Compressibility (1/GPa) = 0.03997981
#
# Stress axis : x y z
#
# Youngs Moduli (GPa) = 22.75391 128.42083 51.61416
#
# Poissons Ratio (x) = 0.48585 0.44124
# Poissons Ratio (y) = 0.08608 0.16687
# Poissons Ratio (z) = 0.19452 0.41518
#
# Static dielectric constant tensor:
#      x y z
#    x 2.482320 0.000000 0.000000 
#    y 0.000000 3.776130 0.000000 
#    z 0.000000 0.000000 2.890870 
# 
# 
# High freq. dielectric constant tensor:
#      x y z
#    x 1.533270 0.000000 0.000000 
#    y 0.000000 1.647430 0.000000 
#    z 0.000000 0.000000 1.607550 
# 
# From -- ./inp_files/8110.got.cif
#   From: 2010.03.12/outbox.cif.g09.slc.cpg/sg55_5_cif.got.tgz:8110.got - 2010.04.16 15:19:21.
