data_PCOD8224590
_publ_section_title
;
Structure prediction by ZEFSAII (Michael W. Deem and Ramdas Pophale) SiO2 
 PCOD8224590
Probable space group: P B A M
;
_chemical_formula_sum "Si O2"
_cell_formula_units_Z 52
_cell_length_a 20.868427
_cell_length_b 14.296413
_cell_length_c 9.343266
_cell_angle_alpha 90.000000
_cell_angle_beta 90.000000
_cell_angle_gamma 90.000000
_cell_volume 2787.504091
_symmetry_space_group_name_H-M "P B A M"
_symmetry_group_IT_number 55
_symmetry_cell_setting 'orthorhombic'
loop_
_space_group_symop_operation_xyz
x,y,z
-x,-y,z
1/2+x,1/2-y,-z
1/2-x,1/2+y,-z
-x,-y,-z
x,y,-z
1/2-x,1/2+y,z
1/2+x,1/2-y,z
loop_
_atom_site_type_symbol
_atom_site_label
_atom_site_fract_x
_atom_site_fract_y
_atom_site_fract_z
Si Si1 0.073967 0.816729 0.167595
Si Si2 0.108034 0.633900 0.660772
Si Si3 0.070507 0.161446 0.168337
Si Si4 0.346032 0.492571 0.169740
Si Si5 0.200370 0.509884 0.170990
Si Si6 0.500000 0.000000 0.741566
Si Si7 0.601919 0.138395 0.838512
O O1 0.081902 0.725041 0.261313
O O2 0.125001 0.893844 0.220320
O O3 0.003866 0.859257 0.198284
O O4 0.082195 0.791371 0.000000
O O5 0.130203 0.658148 0.500000
O O6 0.169040 0.598945 0.751692
O O7 0.051874 0.556257 0.648003
O O8 0.090821 0.261579 0.239358
O O9 0.113244 0.078545 0.236381
O O10 0.082706 0.165805 0.000000
O O11 0.273195 0.500438 0.222702
O O12 0.350080 0.497164 0.000000
O O13 0.162574 0.417445 0.226399
O O14 0.193951 0.523300 0.000000
O O15 0.537829 0.075246 0.837609
O O16 0.619242 0.161448 0.000000
#
# Coordination Sequence:
#
# PCOD8224590 Si02
#       7
#     8   8   8   8   8   4   8
#     4  10  19  33  55  83 107 138 176 220 268 316
#     4  11  22  35  53  78 107 139 177 222 270 319
#     4   9  16  28  50  81 109 136 171 220 268 311
#     4   9  18  32  52  78 110 141 177 218 262 314
#     4   9  19  34  52  78 107 141 176 216 263 317
#     4  10  18  32  50  72 101 138 169 214 267 320
#     4   9  16  26  47  77 106 131 168 215 265 314
#
# _framework density 18.654679999999999
#
# number of rings (size 3 to 8) (size 9 to 14) (size 15 to 20)
#    0.000    2.462    1.538    1.385    0.000    4.308 
#    0.000    5.385    0.000    2.769    0.000    0.000 
#    0.000    0.000    0.000    0.000    0.000    0.000 
#
# Total GULP energy -644503.367723 kJ/mol
# GULP energy per Si atom -12394.295533 kJ/mol
# Density = 1.861222 g / cm^3
# Si number density = 18.654680 Si / 1000 Ang^3
#
#
#
# Elastic Constant Matrix: (Units=GPa)
#
#
# Indices 1 2 3 4 5 6 
#
# 1 138.8026 59.6612 29.2733 0.0000 0.0000 0.0000
# 2 59.6612 114.9139 27.1130 0.0000 0.0000 0.0000
# 3 29.2733 27.1130 47.0917 0.0000 0.0000 0.0000
# 4 0.0000 0.0000 0.0000 5.8440 0.0000 0.0000
# 5 0.0000 0.0000 0.0000 0.0000 6.3477 0.0000
# 6 0.0000 0.0000 0.0000 0.0000 0.0000 29.2230
#
#
#
# Elastic Compliance Matrix: (Units=1/GPa)
#
#
# Indices 1 2 3 4 5 6 
#
# 1 0.009789 -0.004220 -0.003656 0.000000 0.000000 0.000000
# 2 -0.004220 0.011889 -0.004222 0.000000 0.000000 0.000000
# 3 -0.003656 -0.004222 0.025938 0.000000 0.000000 0.000000
# 4 0.000000 0.000000 0.000000 0.171115 0.000000 0.000000
# 5 0.000000 0.000000 0.000000 0.000000 0.157537 0.000000
# 6 0.000000 0.000000 0.000000 0.000000 0.000000 0.034220
#
#
# Mechanical properties :
#
#
# Convention : Reuss Voigt Hill
#
# Bulk Modulus (GPa) = 42.69527 59.21145 50.95336
# Shear Modulus (GPa) = 11.29967 20.60034 15.95000
#
# Velocity S-wave (km/s) = 2.46383 3.32670 2.92723
# Velocity P-wave (km/s) = 5.57053 6.82390 6.22882
#
# Compressibility (1/GPa) = 0.02342180
#
# Stress axis : x y z
#
# Youngs Moduli (GPa) = 102.15261 84.10986 38.55288
#
# Poissons Ratio (x) = 0.35493 0.14094
# Poissons Ratio (y) = 0.43107 0.16277
# Poissons Ratio (z) = 0.37343 0.35511
#
# Static dielectric constant tensor:
#      x y z
#    x 3.544200 0.000000 0.000000 
#    y 0.000000 3.751330 0.000000 
#    z 0.000000 0.000000 2.842340 
# 
# 
# High freq. dielectric constant tensor:
#      x y z
#    x 1.728180 0.000000 0.000000 
#    y 0.000000 1.735040 0.000000 
#    z 0.000000 0.000000 1.660870 
# 
# From -- ./inp_files/5929.got.cif
#   From: 2010.03.12/outbox.cif.g09.slc.cpg/sg55_3_cif.got.tgz:5929.got - 2010.04.16 15:19:21.
