data_PCOD8224714
_publ_section_title
;
Structure prediction by ZEFSAII (Michael W. Deem and Ramdas Pophale) SiO2 
 PCOD8224714
Probable space group: P B A M
;
_chemical_formula_sum "Si O2"
_cell_formula_units_Z 64
_cell_length_a 19.698201
_cell_length_b 19.563360
_cell_length_c 8.941185
_cell_angle_alpha 90.000000
_cell_angle_beta 90.000000
_cell_angle_gamma 90.000000
_cell_volume 3445.601853
_symmetry_space_group_name_H-M "P B A M"
_symmetry_group_IT_number 55
_symmetry_cell_setting 'orthorhombic'
loop_
_space_group_symop_operation_xyz
x,y,z
-x,-y,z
1/2+x,1/2-y,-z
1/2-x,1/2+y,-z
-x,-y,-z
x,y,-z
1/2-x,1/2+y,z
1/2+x,1/2-y,z
loop_
_atom_site_type_symbol
_atom_site_label
_atom_site_fract_x
_atom_site_fract_y
_atom_site_fract_z
Si Si1 0.485358 0.209328 0.177463
Si Si2 0.331157 0.426272 0.671760
Si Si3 0.045962 0.435654 0.824076
Si Si4 0.588725 0.321122 0.827550
Si Si5 0.144671 0.771421 0.676119
Si Si6 0.070847 0.028983 0.177543
Si Si7 0.282195 0.760659 0.827517
Si Si8 0.821536 0.603720 0.674333
O O1 0.507581 0.133423 0.226873
O O2 0.539597 0.263703 0.243921
O O3 0.413075 0.227067 0.246950
O O4 0.479448 0.213180 0.000000
O O5 0.349329 0.439431 0.500000
O O6 0.358367 0.351455 0.720859
O O7 0.366907 0.482799 0.771168
O O8 0.250578 0.433454 0.699599
O O9 0.117427 0.442921 0.736916
O O10 0.000000 0.500000 0.778160
O O11 0.061448 0.435053 0.000000
O O12 0.577588 0.395101 0.752770
O O13 0.667471 0.302955 0.808275
O O14 0.568318 0.325412 0.000000
O O15 0.140620 0.761674 0.500000
O O16 0.216079 0.741894 0.732910
O O17 0.072718 0.030857 0.000000
O O18 0.000000 0.000000 0.238684
O O19 0.322269 0.826126 0.766111
O O20 0.262850 0.773597 0.000000
O O21 0.832287 0.619951 0.500000
#
# Coordination Sequence:
#
# PCOD8224714 Si02
#       8
#     8   8   8   8   8   8   8   8
#     4  10  19  36  59  83 111 143 180 227 280 332
#     4   9  20  37  54  77 112 149 185 225 267 324
#     4  10  21  38  60  85 110 142 190 238 281 336
#     4   9  18  33  55  82 109 138 181 230 273 323
#     4  10  21  36  54  82 114 144 185 230 272 330
#     4  10  20  34  54  81 110 141 182 227 272 327
#     4  10  18  34  58  80 107 143 184 230 278 324
#     4  10  20  36  58  82 112 146 186 228 275 337
#
# _framework density 18.574404999999999
#
# number of rings (size 3 to 8) (size 9 to 14) (size 15 to 20)
#    0.000    2.250    1.250    2.625    0.000    5.000 
#    2.250    1.875    0.000    0.000    0.000    0.000 
#    0.000    0.000    0.000    0.000    0.000    0.000 
#
# Total GULP energy -793643.859102 kJ/mol
# GULP energy per Si atom -12400.685298 kJ/mol
# Density = 1.853213 g / cm^3
# Si number density = 18.574405 Si / 1000 Ang^3
#
#
#
# Elastic Constant Matrix: (Units=GPa)
#
#
# Indices 1 2 3 4 5 6 
#
# 1 117.3943 69.4931 27.0334 0.0000 0.0000 0.0000
# 2 69.4931 133.5211 31.8912 0.0000 0.0000 0.0000
# 3 27.0334 31.8912 32.2998 0.0000 0.0000 0.0000
# 4 0.0000 0.0000 0.0000 16.5419 0.0000 0.0000
# 5 0.0000 0.0000 0.0000 0.0000 23.9891 0.0000
# 6 0.0000 0.0000 0.0000 0.0000 0.0000 28.1427
#
#
#
# Elastic Compliance Matrix: (Units=1/GPa)
#
#
# Indices 1 2 3 4 5 6 
#
# 1 0.013018 -0.005461 -0.005504 0.000000 0.000000 0.000000
# 2 -0.005461 0.012092 -0.007368 0.000000 0.000000 0.000000
# 3 -0.005504 -0.007368 0.042841 0.000000 0.000000 0.000000
# 4 0.000000 0.000000 0.000000 0.060452 0.000000 0.000000
# 5 0.000000 0.000000 0.000000 0.000000 0.041686 0.000000
# 6 0.000000 0.000000 0.000000 0.000000 0.000000 0.035533
#
#
# Mechanical properties :
#
#
# Convention : Reuss Voigt Hill
#
# Bulk Modulus (GPa) = 31.96374 60.00562 45.98468
# Shear Modulus (GPa) = 19.78501 24.05458 21.91979
#
# Velocity S-wave (km/s) = 3.26724 3.60257 3.43900
# Velocity P-wave (km/s) = 5.61062 7.04843 6.37022
#
# Compressibility (1/GPa) = 0.03128545
#
# Stress axis : x y z
#
# Youngs Moduli (GPa) = 76.81386 82.70218 23.34205
#
# Poissons Ratio (x) = 0.45164 0.12847
# Poissons Ratio (y) = 0.41949 0.17198
# Poissons Ratio (z) = 0.42277 0.60934
#
# Static dielectric constant tensor:
#      x y z
#    x 3.466680 0.000000 0.000000 
#    y 0.000000 3.448260 0.000000 
#    z 0.000000 0.000000 3.241890 
# 
# 
# High freq. dielectric constant tensor:
#      x y z
#    x 1.731820 0.000000 0.000000 
#    y 0.000000 1.710750 0.000000 
#    z 0.000000 0.000000 1.707550 
# 
# From -- ./inp_files/8020.got.cif
#   From: 2010.03.12/outbox.cif.g09.slc.cpg/sg55_5_cif.got.tgz:8020.got - 2010.04.16 15:19:21.
