data_PCOD8224717
_publ_section_title
;
Structure prediction by ZEFSAII (Michael W. Deem and Ramdas Pophale) SiO2 
 PCOD8224717
Probable space group: P B A M
;
_chemical_formula_sum "Si O2"
_cell_formula_units_Z 64
_cell_length_a 12.030428
_cell_length_b 31.098501
_cell_length_c 8.710200
_cell_angle_alpha 90.000000
_cell_angle_beta 90.000000
_cell_angle_gamma 90.000000
_cell_volume 3258.732120
_symmetry_space_group_name_H-M "P B A M"
_symmetry_group_IT_number 55
_symmetry_cell_setting 'orthorhombic'
loop_
_space_group_symop_operation_xyz
x,y,z
-x,-y,z
1/2+x,1/2-y,-z
1/2-x,1/2+y,-z
-x,-y,-z
x,y,-z
1/2-x,1/2+y,z
1/2+x,1/2-y,z
loop_
_atom_site_type_symbol
_atom_site_label
_atom_site_fract_x
_atom_site_fract_y
_atom_site_fract_z
Si Si1 0.506445 0.665166 0.817503
Si Si2 0.282004 0.705561 0.182702
Si Si3 0.390275 0.877385 0.817356
Si Si4 0.999377 0.931861 0.819060
Si Si5 0.752988 0.041917 0.181188
Si Si6 0.274896 0.545437 0.680451
Si Si7 0.761880 0.199561 0.183468
Si Si8 0.857926 0.375155 0.817515
O O1 0.403351 0.692682 0.755237
O O2 0.491334 0.616808 0.760205
O O3 0.619687 0.684574 0.750237
O O4 0.511979 0.665569 0.000000
O O5 0.257730 0.752746 0.250345
O O6 0.191444 0.670621 0.238980
O O7 0.281720 0.706930 0.000000
O O8 0.323445 0.919057 0.756889
O O9 0.331850 0.833683 0.756913
O O10 0.516228 0.878780 0.755125
O O11 0.388258 0.877230 0.000000
O O12 0.903199 0.958134 0.733403
O O13 0.119671 0.949428 0.773196
O O14 0.978533 0.936227 0.000000
O O15 0.713587 0.997992 0.262607
O O16 0.738686 0.036799 0.000000
O O17 0.266199 0.549141 0.500000
O O18 0.215929 0.586455 0.753637
O O19 0.762320 0.200222 0.000000
O O20 0.853782 0.378158 0.000000
#
# Coordination Sequence:
#
# PCOD8224717 Si02
#       8
#     8   8   8   8   8   8   8   8
#     4   9  15  26  46  74 112 147 172 207 262 320
#     4   9  17  26  45  77 113 147 175 211 263 315
#     4   9  18  32  52  79 111 143 178 220 265 317
#     4  10  18  34  58  82 111 143 176 216 268 326
#     4  10  20  36  58  82 108 143 179 219 270 325
#     4  12  25  38  54  78 107 140 180 230 276 320
#     4   9  16  26  44  79 117 142 170 216 267 312
#     4  10  20  36  55  78 109 144 182 221 264 320
#
# _framework density 19.639541000000001
#
# number of rings (size 3 to 8) (size 9 to 14) (size 15 to 20)
#    0.000    2.250    2.500    1.500    1.750    2.500 
#    0.000    3.125    0.000    0.000    0.000    4.375 
#    0.000    0.000    0.000    0.000    0.000    0.000 
#
# Total GULP energy -793511.260258 kJ/mol
# GULP energy per Si atom -12398.613442 kJ/mol
# Density = 1.959484 g / cm^3
# Si number density = 19.639541 Si / 1000 Ang^3
#
#
#
# Elastic Constant Matrix: (Units=GPa)
#
#
# Indices 1 2 3 4 5 6 
#
# 1 129.5148 45.6318 18.0338 0.0000 0.0000 0.0000
# 2 45.6318 129.2253 15.2958 0.0000 0.0000 0.0000
# 3 18.0338 15.2958 18.0938 0.0000 0.0000 0.0000
# 4 0.0000 0.0000 0.0000 1.0170 0.0000 0.0000
# 5 0.0000 0.0000 0.0000 0.0000 2.2440 0.0000
# 6 0.0000 0.0000 0.0000 0.0000 0.0000 27.5179
#
#
#
# Elastic Compliance Matrix: (Units=1/GPa)
#
#
# Indices 1 2 3 4 5 6 
#
# 1 0.009652 -0.002522 -0.007488 0.000000 0.000000 0.000000
# 2 -0.002522 0.009258 -0.005313 0.000000 0.000000 0.000000
# 3 -0.007488 -0.005313 0.067222 0.000000 0.000000 0.000000
# 4 0.000000 0.000000 0.000000 0.983321 0.000000 0.000000
# 5 0.000000 0.000000 0.000000 0.000000 0.445642 0.000000
# 6 0.000000 0.000000 0.000000 0.000000 0.000000 0.036340
#
#
# Mechanical properties :
#
#
# Convention : Reuss Voigt Hill
#
# Bulk Modulus (GPa) = 18.02238 48.30628 33.16433
# Shear Modulus (GPa) = 3.12388 19.34727 11.23557
#
# Velocity S-wave (km/s) = 1.26256 3.14206 2.39443
# Velocity P-wave (km/s) = 3.36481 6.14925 4.95657
#
# Compressibility (1/GPa) = 0.05548656
#
# Stress axis : x y z
#
# Youngs Moduli (GPa) = 103.60113 108.01661 14.87605
#
# Poissons Ratio (x) = 0.27243 0.11140
# Poissons Ratio (y) = 0.26129 0.07903
# Poissons Ratio (z) = 0.77580 0.57384
#
# Static dielectric constant tensor:
#      x y z
#    x 3.799910 0.000000 0.000000 
#    y 0.000000 3.875570 0.000000 
#    z 0.000000 0.000000 2.879250 
# 
# 
# High freq. dielectric constant tensor:
#      x y z
#    x 1.772800 0.000000 0.000000 
#    y 0.000000 1.785320 0.000000 
#    z 0.000000 0.000000 1.692030 
# 
# From -- ./inp_files/4482.got.cif
#   From: 2010.03.12/outbox.cif.g09.slc.cpg/sg55_3_cif.got.tgz:4482.got - 2010.04.16 15:19:21.
