data_PCOD8224446
_publ_section_title
;
Structure prediction by ZEFSAII (Michael W. Deem and Ramdas Pophale) SiO2 
 PCOD8224446
Probable space group: P B A M
;
_chemical_formula_sum "Si O2"
_cell_formula_units_Z 48
_cell_length_a 12.006195
_cell_length_b 22.592271
_cell_length_c 9.802412
_cell_angle_alpha 90.000000
_cell_angle_beta 90.000000
_cell_angle_gamma 90.000000
_cell_volume 2658.876917
_symmetry_space_group_name_H-M "P B A M"
_symmetry_group_IT_number 55
_symmetry_cell_setting 'orthorhombic'
loop_
_space_group_symop_operation_xyz
x,y,z
-x,-y,z
1/2+x,1/2-y,-z
1/2-x,1/2+y,-z
-x,-y,-z
x,y,-z
1/2-x,1/2+y,z
1/2+x,1/2-y,z
loop_
_atom_site_type_symbol
_atom_site_label
_atom_site_fract_x
_atom_site_fract_y
_atom_site_fract_z
Si Si1 0.146847 0.285489 0.348148
Si Si2 0.256210 0.588240 0.651555
Si Si3 0.962415 0.839039 0.655657
Si Si4 0.852478 0.207103 0.158125
Si Si5 0.925412 0.334175 0.754094
Si Si6 0.904101 0.457839 0.848841
O O1 0.196660 0.296265 0.500000
O O2 0.115281 0.217666 0.328645
O O3 0.234590 0.302373 0.231486
O O4 0.036381 0.325085 0.333831
O O5 0.253533 0.561656 0.500000
O O6 0.383056 0.605096 0.690863
O O7 0.177607 0.647236 0.655949
O O8 0.206908 0.538439 0.754283
O O9 0.008650 0.843084 0.500000
O O10 0.062028 0.836597 0.764342
O O11 0.893716 0.274836 0.164580
O O12 0.842729 0.188297 0.000000
O O13 0.946796 0.389603 0.855942
O O14 0.000000 0.500000 0.786691
O O15 0.872662 0.479865 0.000000
#
# Coordination Sequence:
#
# PCOD8224446 Si02
#       6
#     8   8   8   8   8   8
#     4  10  18  30  47  64  90 125 158 192 228 271
#     4   9  17  31  49  68  90 119 155 192 228 269
#     4   9  18  31  46  64  91 125 159 191 227 273
#     4  11  21  30  44  68  97 128 161 191 224 272
#     4   9  19  31  46  68  94 124 156 190 229 273
#     4   9  18  31  47  69  97 125 151 186 235 282
#
# _framework density 18.052734000000001
#
# number of rings (size 3 to 8) (size 9 to 14) (size 15 to 20)
#    1.000    1.500    1.667    1.500    0.000    5.667 
#    0.000    0.000    0.000    0.000    0.000    1.167 
#    0.000    8.000    0.000    0.000    0.000    0.000 
#
# Total GULP energy -594680.103130 kJ/mol
# GULP energy per Si atom -12389.168815 kJ/mol
# Density = 1.801165 g / cm^3
# Si number density = 18.052734 Si / 1000 Ang^3
#
#
#
# Elastic Constant Matrix: (Units=GPa)
#
#
# Indices 1 2 3 4 5 6 
#
# 1 70.6205 -2.3363 36.1237 0.0000 0.0000 0.0000
# 2 -2.3363 13.4525 -8.6598 0.0000 0.0000 0.0000
# 3 36.1237 -8.6598 105.7657 0.0000 0.0000 0.0000
# 4 0.0000 0.0000 0.0000 16.3835 0.0000 0.0000
# 5 0.0000 0.0000 0.0000 0.0000 24.7397 0.0000
# 6 0.0000 0.0000 0.0000 0.0000 0.0000 18.8886
#
#
#
# Elastic Compliance Matrix: (Units=1/GPa)
#
#
# Indices 1 2 3 4 5 6 
#
# 1 0.017167 -0.000837 -0.005932 0.000000 0.000000 0.000000
# 2 -0.000837 0.078512 0.006714 0.000000 0.000000 0.000000
# 3 -0.005932 0.006714 0.012031 0.000000 0.000000 0.000000
# 4 0.000000 0.000000 0.000000 0.061037 0.000000 0.000000
# 5 0.000000 0.000000 0.000000 0.000000 0.040421 0.000000
# 6 0.000000 0.000000 0.000000 0.000000 0.000000 0.052942
#
#
# Mechanical properties :
#
#
# Convention : Reuss Voigt Hill
#
# Bulk Modulus (GPa) = 9.29363 26.67709 17.98536
# Shear Modulus (GPa) = 16.77373 22.98311 19.87842
#
# Velocity S-wave (km/s) = 3.05151 3.57194 3.32193
# Velocity P-wave (km/s) = 4.19223 5.64101 4.96970
#
# Compressibility (1/GPa) = 0.10760057
#
# Stress axis : x y z
#
# Youngs Moduli (GPa) = 58.25239 12.73685 83.12164
#
# Poissons Ratio (x) = 0.01066 0.49305
# Poissons Ratio (y) = 0.04876 -0.55810
# Poissons Ratio (z) = 0.34554 -0.08552
#
# Static dielectric constant tensor:
#      x y z
#    x 3.218200 0.000000 0.000000 
#    y 0.000000 2.904680 0.000000 
#    z 0.000000 0.000000 3.202390 
# 
# 
# High freq. dielectric constant tensor:
#      x y z
#    x 1.693710 0.000000 0.000000 
#    y 0.000000 1.648620 0.000000 
#    z 0.000000 0.000000 1.697520 
# 
# From -- ./inp_files/4181.got.cif
#   From: 2010.03.12/outbox.cif.g09.slc.cpg/sg55_3_cif.got.tgz:4181.got - 2010.04.16 15:19:21.
