data_PCOD8224383
_publ_section_title
;
Structure prediction by ZEFSAII (Michael W. Deem and Ramdas Pophale) SiO2 
 PCOD8224383
Probable space group: P B A M
;
_chemical_formula_sum "Si O2"
_cell_formula_units_Z 56
_cell_length_a 29.087244
_cell_length_b 13.463805
_cell_length_c 8.964457
_cell_angle_alpha 90.000000
_cell_angle_beta 90.000000
_cell_angle_gamma 90.000000
_cell_volume 3510.705304
_symmetry_space_group_name_H-M "P B A M"
_symmetry_group_IT_number 55
_symmetry_cell_setting 'orthorhombic'
loop_
_space_group_symop_operation_xyz
x,y,z
-x,-y,z
1/2+x,1/2-y,-z
1/2-x,1/2+y,-z
-x,-y,-z
x,y,-z
1/2-x,1/2+y,z
1/2+x,1/2-y,z
loop_
_atom_site_type_symbol
_atom_site_label
_atom_site_fract_x
_atom_site_fract_y
_atom_site_fract_z
Si Si1 0.096492 0.883905 0.823295
Si Si2 0.906961 0.906544 0.327880
Si Si3 0.313606 0.696500 0.329054
Si Si4 0.004532 0.117538 0.835855
Si Si5 0.268277 0.898464 0.329344
Si Si6 0.269351 0.101052 0.824666
Si Si7 0.178573 0.774815 0.325853
O O1 0.104741 0.994346 0.762203
O O2 0.131677 0.807637 0.751140
O O3 0.045333 0.843234 0.781481
O O4 0.103262 0.888000 0.000000
O O5 0.911352 0.935986 0.500000
O O6 0.866731 0.827219 0.299286
O O7 0.954356 0.853757 0.276005
O O8 0.299308 0.673530 0.500000
O O9 0.305272 0.812298 0.294575
O O10 0.282327 0.627542 0.225021
O O11 0.016428 0.160137 0.000000
O O12 0.000000 0.000000 0.845071
O O13 0.271909 0.934883 0.500000
O O14 0.217257 0.857712 0.296395
O O15 0.279829 0.987869 0.219007
O O16 0.306333 0.170585 0.744010
O O17 0.274260 0.114806 0.000000
O O18 0.169972 0.759071 0.500000
#
# Coordination Sequence:
#
# PCOD8224383 Si02
#       7
#     8   8   8   8   8   8   8
#     4  10  19  30  44  65  94 123 151 185 225 268
#     4  10  18  28  45  68  92 120 155 189 222 265
#     4   9  19  33  47  65  90 121 153 184 221 263
#     4   8  16  29  42  60  90 123 149 180 225 269
#     4   9  18  33  48  62  87 120 150 181 218 261
#     4  11  21  31  46  68  92 117 148 186 223 262
#     4  10  20  33  49  67  89 120 154 185 221 265
#
# _framework density 15.95121
#
# number of rings (size 3 to 8) (size 9 to 14) (size 15 to 20)
#    0.000    2.429    0.000    5.143    0.000   10.571 
#    0.000    0.000    0.000    0.000    0.000    1.000 
#    0.000    8.000    0.000    0.000    0.000    0.000 
#
# Total GULP energy -694373.603785 kJ/mol
# GULP energy per Si atom -12399.528639 kJ/mol
# Density = 1.591490 g / cm^3
# Si number density = 15.951210 Si / 1000 Ang^3
#
#
#
# Elastic Constant Matrix: (Units=GPa)
#
#
# Indices 1 2 3 4 5 6 
#
# 1 125.9533 49.1905 60.3100 0.0000 0.0000 0.0000
# 2 49.1905 77.3390 45.7288 0.0000 0.0000 0.0000
# 3 60.3100 45.7288 101.4526 0.0000 0.0000 0.0000
# 4 0.0000 0.0000 0.0000 13.8977 0.0000 0.0000
# 5 0.0000 0.0000 0.0000 0.0000 28.1059 0.0000
# 6 0.0000 0.0000 0.0000 0.0000 0.0000 21.2436
#
#
#
# Elastic Compliance Matrix: (Units=1/GPa)
#
#
# Indices 1 2 3 4 5 6 
#
# 1 0.012260 -0.004756 -0.005145 0.000000 0.000000 0.000000
# 2 -0.004756 0.019473 -0.005950 0.000000 0.000000 0.000000
# 3 -0.005145 -0.005950 0.015597 0.000000 0.000000 0.000000
# 4 0.000000 0.000000 0.000000 0.071954 0.000000 0.000000
# 5 0.000000 0.000000 0.000000 0.000000 0.035580 0.000000
# 6 0.000000 0.000000 0.000000 0.000000 0.000000 0.047073
#
#
# Mechanical properties :
#
#
# Convention : Reuss Voigt Hill
#
# Bulk Modulus (GPa) = 63.98305 68.35593 66.16949
# Shear Modulus (GPa) = 20.93374 22.61714 21.77544
#
# Velocity S-wave (km/s) = 3.62658 3.76958 3.69877
# Velocity P-wave (km/s) = 7.59835 7.86718 7.73393
#
# Compressibility (1/GPa) = 0.01562914
#
# Stress axis : x y z
#
# Youngs Moduli (GPa) = 81.56413 51.35240 64.11498
#
# Poissons Ratio (x) = 0.24424 0.32984
# Poissons Ratio (y) = 0.38793 0.38149
# Poissons Ratio (z) = 0.41961 0.30555
#
# Static dielectric constant tensor:
#      x y z
#    x 3.265430 0.000000 0.000000 
#    y 0.000000 2.781570 0.000000 
#    z 0.000000 0.000000 3.122910 
# 
# 
# High freq. dielectric constant tensor:
#      x y z
#    x 1.611240 0.000000 0.000000 
#    y 0.000000 1.579180 0.000000 
#    z 0.000000 0.000000 1.623540 
# 
# From -- ./inp_files/10877.got.cif
#   From: 2010.03.12/outbox.cif.g09.slc.cpg/sg55_6_cif.got.tgz:10877.got - 2010.04.16 15:19:21.
