data_PCOD8224906
_publ_section_title
;
Structure prediction by ZEFSAII (Michael W. Deem and Ramdas Pophale) SiO2 
 PCOD8224906
Probable space group: P B A M
;
_chemical_formula_sum "Si O2"
_cell_formula_units_Z 64
_cell_length_a 20.029617
_cell_length_b 20.007831
_cell_length_c 9.289410
_cell_angle_alpha 90.000000
_cell_angle_beta 90.000000
_cell_angle_gamma 90.000000
_cell_volume 3722.723551
_symmetry_space_group_name_H-M "P B A M"
_symmetry_group_IT_number 55
_symmetry_cell_setting 'orthorhombic'
loop_
_space_group_symop_operation_xyz
x,y,z
-x,-y,z
1/2+x,1/2-y,-z
1/2-x,1/2+y,-z
-x,-y,-z
x,y,-z
1/2-x,1/2+y,z
1/2+x,1/2-y,z
loop_
_atom_site_type_symbol
_atom_site_label
_atom_site_fract_x
_atom_site_fract_y
_atom_site_fract_z
Si Si1 0.074632 0.017110 0.333646
Si Si2 0.675346 0.090043 0.171304
Si Si3 0.956509 0.336841 0.167329
Si Si4 0.079703 0.806895 0.165599
Si Si5 0.326553 0.422320 0.167806
Si Si6 0.427939 0.018717 0.168261
Si Si7 0.089941 0.308272 0.330127
Si Si8 0.450889 0.664040 0.664197
O O1 0.080752 0.996656 0.500000
O O2 0.089985 0.095899 0.309019
O O3 0.130466 0.977889 0.247215
O O4 0.000000 0.000000 0.278006
O O5 0.750486 0.074237 0.220322
O O6 0.652336 0.157584 0.250941
O O7 0.630455 0.028298 0.230406
O O8 0.670636 0.100867 0.000000
O O9 0.911712 0.271738 0.204677
O O10 0.912919 0.403109 0.201279
O O11 0.022186 0.338630 0.264995
O O12 0.979269 0.337121 0.000000
O O13 0.146662 0.847577 0.203632
O O14 0.018801 0.840125 0.247982
O O15 0.061189 0.814682 0.000000
O O16 0.332068 0.438272 0.000000
O O17 0.500000 0.000000 0.236140
O O18 0.430507 0.004264 0.000000
O O19 0.092341 0.322720 0.500000
O O20 0.093468 0.228814 0.295006
O O21 0.474058 0.669652 0.500000
#
# Coordination Sequence:
#
# PCOD8224906 Si02
#       8
#     8   8   8   8   8   8   8   8
#     4  10  19  33  54  76  99 134 174 208 250 307
#     4  10  20  35  51  70 102 138 171 205 252 310
#     4   9  16  29  50  72  94 123 163 204 248 298
#     4   9  17  29  47  72  98 124 157 202 251 295
#     4  10  21  34  49  74 106 135 165 210 258 300
#     4   9  15  27  50  73  91 123 168 206 240 292
#     4  10  19  31  49  74 101 127 161 208 254 295
#     4   9  18  32  50  74 100 125 162 207 248 292
#
# _framework density 17.191714999999999
#
# number of rings (size 3 to 8) (size 9 to 14) (size 15 to 20)
#    0.000    2.500    2.500    0.375    0.000    1.750 
#    0.000    2.500    0.000    3.000    0.000    0.000 
#    0.000    0.000    0.000    0.000    0.000    0.000 
#
# Total GULP energy -793335.844292 kJ/mol
# GULP energy per Si atom -12395.872567 kJ/mol
# Density = 1.715259 g / cm^3
# Si number density = 17.191715 Si / 1000 Ang^3
#
#
#
# Elastic Constant Matrix: (Units=GPa)
#
#
# Indices 1 2 3 4 5 6 
#
# 1 130.2033 76.7689 40.7086 0.0000 0.0000 0.0000
# 2 76.7689 132.3642 37.8486 0.0000 0.0000 0.0000
# 3 40.7086 37.8486 43.0759 0.0000 0.0000 0.0000
# 4 0.0000 0.0000 0.0000 25.0789 0.0000 0.0000
# 5 0.0000 0.0000 0.0000 0.0000 -3.5463 0.0000
# 6 0.0000 0.0000 0.0000 0.0000 0.0000 26.2081
#
#
#
# Elastic Compliance Matrix: (Units=1/GPa)
#
#
# Indices 1 2 3 4 5 6 
#
# 1 0.013374 -0.005533 -0.007778 0.000000 0.000000 0.000000
# 2 -0.005533 0.012379 -0.005648 0.000000 0.000000 0.000000
# 3 -0.007778 -0.005648 0.035528 0.000000 0.000000 0.000000
# 4 0.000000 0.000000 0.000000 0.039874 0.000000 0.000000
# 5 0.000000 0.000000 0.000000 0.000000 -0.281984 0.000000
# 6 0.000000 0.000000 0.000000 0.000000 0.000000 0.038156
#
#
# Mechanical properties :
#
#
# Convention : Reuss Voigt Hill
#
# Bulk Modulus (GPa) = 42.80137 68.47730 55.63934
# Shear Modulus (GPa) = -51.56333 19.56929 -15.99702
#
# Velocity S-wave (km/s) = -5.48254 3.37753 -3.05373
# Velocity P-wave (km/s) = 3.88936 7.42484 4.47220
#
# Compressibility (1/GPa) = 0.02336374
#
# Stress axis : x y z
#
# Youngs Moduli (GPa) = 74.77042 80.78305 28.14695
#
# Poissons Ratio (x) = 0.44696 0.21892
# Poissons Ratio (y) = 0.41369 0.15897
# Poissons Ratio (z) = 0.58155 0.45626
#
# Static dielectric constant tensor:
#      x y z
#    x 3.043110 0.000000 0.000000 
#    y 0.000000 3.581860 0.000000 
#    z 0.000000 0.000000 3.088510 
# 
# 
# High freq. dielectric constant tensor:
#      x y z
#    x 1.630970 0.000000 0.000000 
#    y 0.000000 1.682120 0.000000 
#    z 0.000000 0.000000 1.648610 
# 
# From -- ./inp_files/9134.got.cif
#   From: 2010.03.12/outbox.cif.g09.slc.cpg/sg55_5_cif.got.tgz:9134.got - 2010.04.16 15:19:21.
