data_PCOD8224569
_publ_section_title
;
Structure prediction by ZEFSAII (Michael W. Deem and Ramdas Pophale) SiO2 
 PCOD8224569
Probable space group: P B A M
;
_chemical_formula_sum "Si O2"
_cell_formula_units_Z 64
_cell_length_a 22.231929
_cell_length_b 17.365573
_cell_length_c 8.589097
_cell_angle_alpha 90.000000
_cell_angle_beta 90.000000
_cell_angle_gamma 90.000000
_cell_volume 3315.994276
_symmetry_space_group_name_H-M "P B A M"
_symmetry_group_IT_number 55
_symmetry_cell_setting 'orthorhombic'
loop_
_space_group_symop_operation_xyz
x,y,z
-x,-y,z
1/2+x,1/2-y,-z
1/2-x,1/2+y,-z
-x,-y,-z
x,y,-z
1/2-x,1/2+y,z
1/2+x,1/2-y,z
loop_
_atom_site_type_symbol
_atom_site_label
_atom_site_fract_x
_atom_site_fract_y
_atom_site_fract_z
Si Si1 0.113815 0.741651 0.682016
Si Si2 0.569519 0.084671 0.314651
Si Si3 0.564269 0.916550 0.316262
Si Si4 0.529325 0.640882 0.181882
Si Si5 0.101267 0.128317 0.317277
Si Si6 0.635042 0.526291 0.181235
Si Si7 0.157394 0.287204 0.316904
Si Si8 0.217974 0.835548 0.179890
O O1 0.129292 0.750722 0.500000
O O2 0.107800 0.652601 0.733279
O O3 0.051444 0.785550 0.719083
O O4 0.166587 0.773278 0.788857
O O5 0.571105 0.091314 0.500000
O O6 0.502526 0.097537 0.247654
O O7 0.613063 0.149121 0.240974
O O8 0.591129 0.998885 0.261492
O O9 0.556240 0.917516 0.500000
O O10 0.461582 0.621075 0.227461
O O11 0.572328 0.568693 0.221859
O O12 0.533677 0.660568 0.000000
O O13 0.088637 0.134118 0.500000
O O14 0.138740 0.202425 0.255324
O O15 0.140041 0.052125 0.279665
O O16 0.691641 0.580650 0.227985
O O17 0.637569 0.505595 0.000000
O O18 0.150591 0.286964 0.500000
O O19 0.224776 0.311356 0.278315
O O20 0.235427 0.833934 0.000000
#
# Coordination Sequence:
#
# PCOD8224569 Si02
#       8
#     8   8   8   8   8   8   8   8
#     4  10  18  31  54  82 110 138 177 227 269 310
#     4   8  14  28  50  76 108 140 167 205 264 319
#     4   8  14  26  49  81 110 135 166 209 263 320
#     4  10  20  34  54  81 115 150 180 213 266 331
#     4  11  22  34  54  86 113 137 178 228 275 323
#     4   9  20  38  56  76 106 144 183 220 266 328
#     4  10  21  37  55  78 108 141 182 229 269 317
#     4  10  22  40  57  73 102 144 186 221 268 328
#
# _framework density 19.300395000000002
#
# number of rings (size 3 to 8) (size 9 to 14) (size 15 to 20)
#    0.000    2.500    0.000    4.125    0.000    7.500 
#    2.250    0.000    0.000    0.750    0.000    5.250 
#    0.000    0.000    0.000    0.000    0.000    0.000 
#
# Total GULP energy -793403.949824 kJ/mol
# GULP energy per Si atom -12396.936716 kJ/mol
# Density = 1.925647 g / cm^3
# Si number density = 19.300395 Si / 1000 Ang^3
#
#
#
# Elastic Constant Matrix: (Units=GPa)
#
#
# Indices 1 2 3 4 5 6 
#
# 1 80.7635 57.0405 6.8798 0.0000 0.0000 0.0000
# 2 57.0405 165.5338 25.5920 0.0000 0.0000 0.0000
# 3 6.8798 25.5920 26.2450 0.0000 0.0000 0.0000
# 4 0.0000 0.0000 0.0000 14.6948 0.0000 0.0000
# 5 0.0000 0.0000 0.0000 0.0000 21.2679 0.0000
# 6 0.0000 0.0000 0.0000 0.0000 0.0000 16.7622
#
#
#
# Elastic Compliance Matrix: (Units=1/GPa)
#
#
# Indices 1 2 3 4 5 6 
#
# 1 0.016410 -0.005875 0.001427 0.000000 0.000000 0.000000
# 2 -0.005875 0.009217 -0.007448 0.000000 0.000000 0.000000
# 3 0.001427 -0.007448 0.044991 0.000000 0.000000 0.000000
# 4 0.000000 0.000000 0.000000 0.068051 0.000000 0.000000
# 5 0.000000 0.000000 0.000000 0.000000 0.047019 0.000000
# 6 0.000000 0.000000 0.000000 0.000000 0.000000 0.059658
#
#
# Mechanical properties :
#
#
# Convention : Reuss Voigt Hill
#
# Bulk Modulus (GPa) = 21.35538 50.17409 35.76474
# Shear Modulus (GPa) = 17.55956 22.74699 20.15327
#
# Velocity S-wave (km/s) = 3.01957 3.43676 3.23490
# Velocity P-wave (km/s) = 4.82139 6.46539 5.70294
#
# Compressibility (1/GPa) = 0.04682660
#
# Stress axis : x y z
#
# Youngs Moduli (GPa) = 60.93953 108.49531 22.22689
#
# Poissons Ratio (x) = 0.63743 -0.03173
# Poissons Ratio (y) = 0.35803 0.16554
# Poissons Ratio (z) = -0.08699 0.80802
#
# Static dielectric constant tensor:
#      x y z
#    x 3.397760 0.000000 0.000000 
#    y 0.000000 3.955700 0.000000 
#    z 0.000000 0.000000 3.194860 
# 
# 
# High freq. dielectric constant tensor:
#      x y z
#    x 1.734840 0.000000 0.000000 
#    y 0.000000 1.765250 0.000000 
#    z 0.000000 0.000000 1.724710 
# 
# From -- ./inp_files/9064.got.cif
#   From: 2010.03.12/outbox.cif.g09.slc.cpg/sg55_5_cif.got.tgz:9064.got - 2010.04.16 15:19:21.
