data_PCOD8224225
_publ_section_title
;
Structure prediction by ZEFSAII (Michael W. Deem and Ramdas Pophale) SiO2 
 PCOD8224225
Probable space group: P B A M
;
_chemical_formula_sum "Si O2"
_cell_formula_units_Z 40
_cell_length_a 16.956689
_cell_length_b 5.298725
_cell_length_c 23.599372
_cell_angle_alpha 90.000000
_cell_angle_beta 90.000000
_cell_angle_gamma 90.000000
_cell_volume 2120.376008
_symmetry_space_group_name_H-M "P B A M"
_symmetry_group_IT_number 55
_symmetry_cell_setting 'orthorhombic'
loop_
_space_group_symop_operation_xyz
x,y,z
-x,-y,z
1/2+x,1/2-y,-z
1/2-x,1/2+y,-z
-x,-y,-z
x,y,-z
1/2-x,1/2+y,z
1/2+x,1/2-y,z
loop_
_atom_site_type_symbol
_atom_site_label
_atom_site_fract_x
_atom_site_fract_y
_atom_site_fract_z
Si Si1 0.199283 0.254996 0.767748
Si Si2 0.198494 0.259815 0.642051
Si Si3 0.046812 0.250296 0.433385
Si Si4 0.330769 0.253185 0.933918
Si Si5 0.655331 0.246813 0.112658
O O1 0.249189 0.506695 0.774614
O O2 0.159903 0.253824 0.705284
O O3 0.136954 0.253170 0.819715
O O4 0.245817 0.518662 0.632854
O O5 0.130678 0.247988 0.596178
O O6 0.062607 0.252282 0.500000
O O7 0.000000 0.500000 0.414170
O O8 0.000000 0.000000 0.414766
O O9 0.249488 0.253379 0.898881
O O10 0.380950 0.501729 0.916328
O O11 0.380950 0.004636 0.916343
O O12 0.310825 0.253234 0.000000
#
# Coordination Sequence:
#
# PCOD8224225 Si02
#       5
#     8   8   8   8   8
#     4  10  16  27  39  57  84 117 153 196 239 288
#     4  10  21  33  53  80 106 133 174 222 252 301
#     4  10  21  38  58  79 107 142 174 206 258 318
#     4  10  16  20  29  45  67 102 154 192 218 274
#     4  10  14  22  31  43  68 104 143 190 223 277
#
# _framework density 18.86458
#
# number of rings (size 3 to 8) (size 9 to 14) (size 15 to 20)
#    0.000    2.000    4.000    4.200    0.000    0.800 
#    0.000    0.000    0.000    0.000    0.000    0.000 
#    0.000    0.000    0.000    0.000    0.000   34.000 
#
# Total GULP energy -495640.962471 kJ/mol
# GULP energy per Si atom -12391.024062 kJ/mol
# Density = 1.882164 g / cm^3
# Si number density = 18.864580 Si / 1000 Ang^3
#
#
#
# Elastic Constant Matrix: (Units=GPa)
#
#
# Indices 1 2 3 4 5 6 
#
# 1 28.7186 9.0585 31.1253 0.0000 0.0000 0.0000
# 2 9.0585 176.6906 26.8386 0.0000 0.0000 0.0000
# 3 31.1253 26.8386 77.6832 0.0000 0.0000 0.0000
# 4 0.0000 0.0000 0.0000 21.1184 0.0000 0.0000
# 5 0.0000 0.0000 0.0000 0.0000 -0.9436 0.0000
# 6 0.0000 0.0000 0.0000 0.0000 0.0000 12.3836
#
#
#
# Elastic Compliance Matrix: (Units=1/GPa)
#
#
# Indices 1 2 3 4 5 6 
#
# 1 0.061613 0.000624 -0.024902 0.000000 0.000000 0.000000
# 2 0.000624 0.005979 -0.002316 0.000000 0.000000 0.000000
# 3 -0.024902 -0.002316 0.023650 0.000000 0.000000 0.000000
# 4 0.000000 0.000000 0.000000 0.047352 0.000000 0.000000
# 5 0.000000 0.000000 0.000000 0.000000 -1.059817 0.000000
# 6 0.000000 0.000000 0.000000 0.000000 0.000000 0.080752
#
#
# Mechanical properties :
#
#
# Convention : Reuss Voigt Hill
#
# Bulk Modulus (GPa) = 26.27800 46.34859 36.31329
# Shear Modulus (GPa) = -6.45496 20.91635 7.23070
#
# Velocity S-wave (km/s) = -1.85180 3.33342 1.95992
# Velocity P-wave (km/s) = 3.06396 6.27997 4.94095
#
# Compressibility (1/GPa) = 0.03805465
#
# Stress axis : x y z
#
# Youngs Moduli (GPa) = 16.23046 167.24143 42.28289
#
# Poissons Ratio (x) = -0.10431 1.05292
# Poissons Ratio (y) = -0.01012 0.09791
# Poissons Ratio (z) = 0.40417 0.38728
#
# Static dielectric constant tensor:
#      x y z
#    x 2.565500 0.000000 0.000000 
#    y 0.000000 5.126880 0.000000 
#    z 0.000000 0.000000 3.750280 
# 
# 
# High freq. dielectric constant tensor:
#      x y z
#    x 1.632180 0.000000 0.000000 
#    y 0.000000 1.779180 0.000000 
#    z 0.000000 0.000000 1.751140 
# 
# From -- ./inp_files/23577.got.cif
#   From: 2010.03.12/outbox.cif.g09.slc.cpg/sg55_12_cif.got.tgz:23577.got - 2010.04.16 15:19:21.
