data_PCOD8224513
_publ_section_title
;
Structure prediction by ZEFSAII (Michael W. Deem and Ramdas Pophale) SiO2 
 PCOD8224513
Probable space group: P B A M
;
_chemical_formula_sum "Si O2"
_cell_formula_units_Z 64
_cell_length_a 13.195262
_cell_length_b 24.173629
_cell_length_c 12.996544
_cell_angle_alpha 90.000000
_cell_angle_beta 90.000000
_cell_angle_gamma 90.000000
_cell_volume 4145.603400
_symmetry_space_group_name_H-M "P B A M"
_symmetry_group_IT_number 55
_symmetry_cell_setting 'orthorhombic'
loop_
_space_group_symop_operation_xyz
x,y,z
-x,-y,z
1/2+x,1/2-y,-z
1/2-x,1/2+y,-z
-x,-y,-z
x,y,-z
1/2-x,1/2+y,z
1/2+x,1/2-y,z
loop_
_atom_site_type_symbol
_atom_site_label
_atom_site_fract_x
_atom_site_fract_y
_atom_site_fract_z
Si Si1 0.187152 0.581443 0.379059
Si Si2 0.639820 0.228236 0.256549
Si Si3 0.710772 0.653418 0.381692
Si Si4 0.014978 0.439012 0.263508
Si Si5 0.690846 0.814093 0.744471
Si Si6 0.451506 0.261517 0.380648
Si Si7 0.212375 0.459873 0.382577
Si Si8 0.507341 0.838874 0.878705
O O1 0.198740 0.595815 0.500000
O O2 0.069042 0.576201 0.349029
O O3 0.234893 0.629242 0.306393
O O4 0.243128 0.522732 0.350927
O O5 0.698582 0.178854 0.313827
O O6 0.717836 0.275088 0.218799
O O7 0.561662 0.259022 0.331249
O O8 0.577635 0.204278 0.160121
O O9 0.737019 0.667713 0.500000
O O10 0.602545 0.680150 0.351841
O O11 0.699906 0.586577 0.366635
O O12 0.015592 0.399055 0.166201
O O13 0.000000 0.500000 0.217918
O O14 0.121325 0.434533 0.318750
O O15 0.621551 0.787708 0.655567
O O16 0.620991 0.822495 0.844644
O O17 0.468271 0.254271 0.500000
O O18 0.176147 0.462985 0.500000
O O19 0.501856 0.840901 0.000000
#
# Coordination Sequence:
#
# PCOD8224513 Si02
#       8
#     8   8   8   8   8   8   8   8
#     4   9  16  25  40  64  91 119 150 178 208 256
#     4  10  18  31  46  62  85 117 147 182 221 264
#     4   9  16  26  42  65  90 117 146 176 212 255
#     4   9  16  27  42  63  90 120 146 177 215 268
#     4   9  19  31  44  62  87 116 147 181 217 261
#     4   9  17  27  42  65  90 115 143 176 212 255
#     4   9  15  24  41  63  90 122 149 176 210 253
#     4  10  20  32  45  64  86 111 146 189 231 269
#
# _framework density 15.438041999999999
#
# number of rings (size 3 to 8) (size 9 to 14) (size 15 to 20)
#    0.000    2.750    1.250    1.125    0.000    3.750 
#    0.000    0.000    0.000    0.750    0.000    3.500 
#    0.000    0.000    0.000   11.750    0.000    0.000 
#
# Total GULP energy -793126.831445 kJ/mol
# GULP energy per Si atom -12392.606741 kJ/mol
# Density = 1.540290 g / cm^3
# Si number density = 15.438042 Si / 1000 Ang^3
#
#
#
# Elastic Constant Matrix: (Units=GPa)
#
#
# Indices 1 2 3 4 5 6 
#
# 1 45.3285 29.8169 20.4914 0.0000 0.0000 0.0000
# 2 29.8169 107.4842 33.8726 0.0000 0.0000 0.0000
# 3 20.4914 33.8726 76.8049 0.0000 0.0000 0.0000
# 4 0.0000 0.0000 0.0000 15.5960 0.0000 0.0000
# 5 0.0000 0.0000 0.0000 0.0000 10.5848 0.0000
# 6 0.0000 0.0000 0.0000 0.0000 0.0000 21.4832
#
#
#
# Elastic Compliance Matrix: (Units=1/GPa)
#
#
# Indices 1 2 3 4 5 6 
#
# 1 0.028413 -0.006380 -0.004767 0.000000 0.000000 0.000000
# 2 -0.006380 0.012238 -0.003695 0.000000 0.000000 0.000000
# 3 -0.004767 -0.003695 0.015921 0.000000 0.000000 0.000000
# 4 0.000000 0.000000 0.000000 0.064119 0.000000 0.000000
# 5 0.000000 0.000000 0.000000 0.000000 0.094475 0.000000
# 6 0.000000 0.000000 0.000000 0.000000 0.000000 0.046548
#
#
# Mechanical properties :
#
#
# Convention : Reuss Voigt Hill
#
# Bulk Modulus (GPa) = 37.19031 44.21993 40.70512
# Shear Modulus (GPa) = 16.64669 19.22859 17.93764
#
# Velocity S-wave (km/s) = 3.28729 3.53304 3.41238
# Velocity P-wave (km/s) = 6.20892 6.73415 6.47687
#
# Compressibility (1/GPa) = 0.02688873
#
# Stress axis : x y z
#
# Youngs Moduli (GPa) = 35.19562 81.71316 62.80846
#
# Poissons Ratio (x) = 0.52130 0.29940
# Poissons Ratio (y) = 0.22454 0.23208
# Poissons Ratio (z) = 0.16777 0.30194
#
# Static dielectric constant tensor:
#      x y z
#    x 2.795780 0.000000 0.000000 
#    y 0.000000 3.311610 0.000000 
#    z 0.000000 0.000000 2.628120 
# 
# 
# High freq. dielectric constant tensor:
#      x y z
#    x 1.564950 0.000000 0.000000 
#    y 0.000000 1.607550 0.000000 
#    z 0.000000 0.000000 1.563170 
# 
# From -- ./inp_files/13638.got.cif
#   From: 2010.03.12/outbox.cif.g09.slc.cpg/sg55_7_cif.got.tgz:13638.got - 2010.04.16 15:19:21.
