data_PCOD8224388
_publ_section_title
;
Structure prediction by ZEFSAII (Michael W. Deem and Ramdas Pophale) SiO2 
 PCOD8224388
Probable space group: P B A M
;
_chemical_formula_sum "Si O2"
_cell_formula_units_Z 56
_cell_length_a 29.109267
_cell_length_b 13.386217
_cell_length_c 8.966684
_cell_angle_alpha 90.000000
_cell_angle_beta 90.000000
_cell_angle_gamma 90.000000
_cell_volume 3493.984672
_symmetry_space_group_name_H-M "P B A M"
_symmetry_group_IT_number 55
_symmetry_cell_setting 'orthorhombic'
loop_
_space_group_symop_operation_xyz
x,y,z
-x,-y,z
1/2+x,1/2-y,-z
1/2-x,1/2+y,-z
-x,-y,-z
x,y,-z
1/2-x,1/2+y,z
1/2+x,1/2-y,z
loop_
_atom_site_type_symbol
_atom_site_label
_atom_site_fract_x
_atom_site_fract_y
_atom_site_fract_z
Si Si1 0.767459 0.611701 0.324713
Si Si2 0.817107 0.783082 0.828147
Si Si3 0.269600 0.089549 0.829829
Si Si4 0.181320 0.792831 0.826766
Si Si5 0.592933 0.402492 0.827040
Si Si6 0.403185 0.386354 0.323351
Si Si7 0.004044 0.118221 0.664208
O O1 0.760669 0.619651 0.500000
O O2 0.807528 0.686993 0.273665
O O3 0.782530 0.500305 0.279884
O O4 0.719472 0.636143 0.245448
O O5 0.781241 0.870915 0.790155
O O6 0.868066 0.821072 0.794036
O O7 0.810587 0.750886 0.000000
O O8 0.306307 0.177269 0.802372
O O9 0.271636 0.051730 0.000000
O O10 0.132591 0.810699 0.749655
O O11 0.178438 0.820986 0.000000
O O12 0.604578 0.502038 0.736633
O O13 0.544651 0.352193 0.777459
O O14 0.590488 0.430802 0.000000
O O15 0.396574 0.389941 0.500000
O O16 0.453966 0.343812 0.281110
O O17 0.015754 0.161547 0.500000
O O18 0.000000 0.000000 0.653844
#
# Coordination Sequence:
#
# PCOD8224388 Si02
#       7
#     8   8   8   8   8   8   8
#     4  11  21  31  47  69  92 119 150 186 224 265
#     4   9  19  33  47  65  90 121 154 185 221 263
#     4   9  18  33  49  64  89 122 151 184 224 264
#     4  10  20  33  49  67  89 120 154 186 222 265
#     4  10  18  28  46  69  92 122 157 189 221 263
#     4  10  19  30  45  66  94 124 151 185 227 269
#     4   8  16  29  42  61  92 124 149 180 226 270
#
# _framework density 16.027546999999998
#
# number of rings (size 3 to 8) (size 9 to 14) (size 15 to 20)
#    0.000    2.429    0.000    5.143    0.000    8.286 
#    0.000    0.000    0.000    0.000    0.000    1.000 
#    0.000    8.000    0.000    0.000    0.000    0.000 
#
# Total GULP energy -694395.733621 kJ/mol
# GULP energy per Si atom -12399.923815 kJ/mol
# Density = 1.599107 g / cm^3
# Si number density = 16.027547 Si / 1000 Ang^3
#
#
#
# Elastic Constant Matrix: (Units=GPa)
#
#
# Indices 1 2 3 4 5 6 
#
# 1 126.1250 43.6118 61.5817 0.0000 0.0000 0.0000
# 2 43.6118 71.2098 48.3446 0.0000 0.0000 0.0000
# 3 61.5817 48.3446 107.5449 0.0000 0.0000 0.0000
# 4 0.0000 0.0000 0.0000 15.2349 0.0000 0.0000
# 5 0.0000 0.0000 0.0000 0.0000 29.1718 0.0000
# 6 0.0000 0.0000 0.0000 0.0000 0.0000 18.2162
#
#
#
# Elastic Compliance Matrix: (Units=1/GPa)
#
#
# Indices 1 2 3 4 5 6 
#
# 1 0.011664 -0.003755 -0.004991 0.000000 0.000000 0.000000
# 2 -0.003755 0.021420 -0.007479 0.000000 0.000000 0.000000
# 3 -0.004991 -0.007479 0.015518 0.000000 0.000000 0.000000
# 4 0.000000 0.000000 0.000000 0.065639 0.000000 0.000000
# 5 0.000000 0.000000 0.000000 0.000000 0.034280 0.000000
# 6 0.000000 0.000000 0.000000 0.000000 0.000000 0.054896
#
#
# Mechanical properties :
#
#
# Convention : Reuss Voigt Hill
#
# Bulk Modulus (GPa) = 61.90893 67.99512 64.95202
# Shear Modulus (GPa) = 20.72531 22.61401 21.66966
#
# Velocity S-wave (km/s) = 3.59988 3.76033 3.68098
# Velocity P-wave (km/s) = 7.48260 7.83387 7.66025
#
# Compressibility (1/GPa) = 0.01615276
#
# Stress axis : x y z
#
# Youngs Moduli (GPa) = 85.73423 46.68496 64.44039
#
# Poissons Ratio (x) = 0.17531 0.32162
# Poissons Ratio (y) = 0.32194 0.48193
# Poissons Ratio (z) = 0.42789 0.34915
#
# Static dielectric constant tensor:
#      x y z
#    x 3.296680 0.000000 0.000000 
#    y 0.000000 2.743530 0.000000 
#    z 0.000000 0.000000 3.108630 
# 
# 
# High freq. dielectric constant tensor:
#      x y z
#    x 1.615050 0.000000 0.000000 
#    y 0.000000 1.580600 0.000000 
#    z 0.000000 0.000000 1.626290 
# 
# From -- ./inp_files/10879.got.cif
#   From: 2010.03.12/outbox.cif.g09.slc.cpg/sg55_6_cif.got.tgz:10879.got - 2010.04.16 15:19:21.
