data_PCOD8224553
_publ_section_title
;
Structure prediction by ZEFSAII (Michael W. Deem and Ramdas Pophale) SiO2 
 PCOD8224553
Probable space group: P B A M
;
_chemical_formula_sum "Si O2"
_cell_formula_units_Z 40
_cell_length_a 15.788732
_cell_length_b 15.794347
_cell_length_c 8.964084
_cell_angle_alpha 90.000000
_cell_angle_beta 90.000000
_cell_angle_gamma 90.000000
_cell_volume 2235.397937
_symmetry_space_group_name_H-M "P B A M"
_symmetry_group_IT_number 55
_symmetry_cell_setting 'orthorhombic'
loop_
_space_group_symop_operation_xyz
x,y,z
-x,-y,z
1/2+x,1/2-y,-z
1/2-x,1/2+y,-z
-x,-y,-z
x,y,-z
1/2-x,1/2+y,z
1/2+x,1/2-y,z
loop_
_atom_site_type_symbol
_atom_site_label
_atom_site_fract_x
_atom_site_fract_y
_atom_site_fract_z
Si Si1 0.440459 0.315370 0.323560
Si Si2 0.191688 0.938381 0.823294
Si Si3 0.037212 0.626521 0.676218
Si Si4 0.433543 0.575122 0.835861
Si Si5 0.868311 0.537712 0.323341
O O1 0.430677 0.321322 0.500000
O O2 0.362685 0.363081 0.247985
O O3 0.438331 0.219044 0.263317
O O4 0.531883 0.354809 0.278709
O O5 0.285937 0.931732 0.762983
O O6 0.153470 0.031030 0.779062
O O7 0.189375 0.926201 0.000000
O O8 0.032953 0.627569 0.500000
O O9 0.944037 0.598903 0.731481
O O10 0.107902 0.558249 0.725613
O O11 0.500000 0.500000 0.849182
O O12 0.421220 0.616528 0.000000
O O13 0.852553 0.543858 0.500000
#
# Coordination Sequence:
#
# PCOD8224553 Si02
#       5
#     8   8   8   8   8
#     4  10  18  31  53  79 103 129 168 211 253 301
#     4  10  20  34  50  74 107 137 169 207 249 298
#     4   8  17  34  55  77 100 129 167 213 257 297
#     4   8  16  31  48  67 100 137 163 199 249 294
#     4   9  17  35  58  74  97 134 171 208 254 299
#
# _framework density 17.893905
#
# number of rings (size 3 to 8) (size 9 to 14) (size 15 to 20)
#    0.000    3.000    0.000    3.600    0.000    4.400 
#    3.600    6.000    0.000    0.000    0.000    0.000 
#    0.000    0.000    0.000    0.000    0.000    0.000 
#
# Total GULP energy -495749.877270 kJ/mol
# GULP energy per Si atom -12393.746932 kJ/mol
# Density = 1.785318 g / cm^3
# Si number density = 17.893905 Si / 1000 Ang^3
#
#
#
# Elastic Constant Matrix: (Units=GPa)
#
#
# Indices 1 2 3 4 5 6 
#
# 1 114.5540 61.0478 39.7442 0.0000 0.0000 0.0000
# 2 61.0478 135.0530 47.6051 0.0000 0.0000 0.0000
# 3 39.7442 47.6051 64.5523 0.0000 0.0000 0.0000
# 4 0.0000 0.0000 0.0000 5.5072 0.0000 0.0000
# 5 0.0000 0.0000 0.0000 0.0000 16.6421 0.0000
# 6 0.0000 0.0000 0.0000 0.0000 0.0000 17.9144
#
#
#
# Elastic Compliance Matrix: (Units=1/GPa)
#
#
# Indices 1 2 3 4 5 6 
#
# 1 0.012499 -0.003969 -0.004769 0.000000 0.000000 0.000000
# 2 -0.003969 0.011266 -0.005864 0.000000 0.000000 0.000000
# 3 -0.004769 -0.005864 0.022752 0.000000 0.000000 0.000000
# 4 0.000000 0.000000 0.000000 0.181582 0.000000 0.000000
# 5 0.000000 0.000000 0.000000 0.000000 0.060089 0.000000
# 6 0.000000 0.000000 0.000000 0.000000 0.000000 0.055821
#
#
# Mechanical properties :
#
#
# Convention : Reuss Voigt Hill
#
# Bulk Modulus (GPa) = 57.76029 67.88370 62.82199
# Shear Modulus (GPa) = 13.19317 19.06353 16.12835
#
# Velocity S-wave (km/s) = 2.71827 3.26753 3.00548
# Velocity P-wave (km/s) = 6.49626 7.22875 6.87227
#
# Compressibility (1/GPa) = 0.01731293
#
# Stress axis : x y z
#
# Youngs Moduli (GPa) = 80.00552 88.76422 43.95212
#
# Poissons Ratio (x) = 0.35231 0.20959
# Poissons Ratio (y) = 0.31755 0.25775
# Poissons Ratio (z) = 0.38151 0.52055
#
# Static dielectric constant tensor:
#      x y z
#    x 3.405670 0.000000 0.000000 
#    y 0.000000 3.744920 0.000000 
#    z 0.000000 0.000000 3.124020 
# 
# 
# High freq. dielectric constant tensor:
#      x y z
#    x 1.687700 0.000000 0.000000 
#    y 0.000000 1.685560 0.000000 
#    z 0.000000 0.000000 1.677210 
# 
# From -- ./inp_files/5191.got.cif
#   From: 2010.03.12/outbox.cif.g09.slc.cpg/sg55_3_cif.got.tgz:5191.got - 2010.04.16 15:19:21.
