data_PCOD8224340
_publ_section_title
;
Structure prediction by ZEFSAII (Michael W. Deem and Ramdas Pophale) SiO2 
 PCOD8224340
Probable space group: P B A M
;
_chemical_formula_sum "Si O2"
_cell_formula_units_Z 56
_cell_length_a 15.947630
_cell_length_b 8.073665
_cell_length_c 19.573578
_cell_angle_alpha 90.000000
_cell_angle_beta 90.000000
_cell_angle_gamma 90.000000
_cell_volume 2520.212128
_symmetry_space_group_name_H-M "P B A M"
_symmetry_group_IT_number 55
_symmetry_cell_setting 'orthorhombic'
loop_
_space_group_symop_operation_xyz
x,y,z
-x,-y,z
1/2+x,1/2-y,-z
1/2-x,1/2+y,-z
-x,-y,-z
x,y,-z
1/2-x,1/2+y,z
1/2+x,1/2-y,z
loop_
_atom_site_type_symbol
_atom_site_label
_atom_site_fract_x
_atom_site_fract_y
_atom_site_fract_z
Si Si1 0.865456 0.652727 0.577036
Si Si2 0.188824 0.952341 0.278379
Si Si3 0.796269 0.340985 0.367657
Si Si4 0.824747 0.162620 0.128152
Si Si5 0.344845 0.688318 0.923169
Si Si6 0.958083 0.832552 0.311190
Si Si7 0.499442 0.699176 0.166368
O O1 0.893301 0.692818 0.500000
O O2 0.783102 0.763382 0.592861
O O3 0.851772 0.452652 0.581120
O O4 0.941575 0.705473 0.627142
O O5 0.153158 0.805782 0.328905
O O6 0.206682 0.891034 0.202812
O O7 0.274431 0.021650 0.309964
O O8 0.128208 0.109019 0.275617
O O9 0.749850 0.266654 0.096773
O O10 0.912921 0.265002 0.133359
O O11 0.846047 0.009229 0.079501
O O12 0.417921 0.766288 0.874620
O O13 0.364200 0.747730 0.000000
O O14 0.004233 0.745564 0.246522
O O15 0.000000 0.000000 0.340554
O O16 0.500000 0.500000 0.166366
#
# Coordination Sequence:
#
# PCOD8224340 Si02
#       7
#     8   8   8   8   8   8   8
#     4  10  20  34  55  82 119 159 197 249 314 379
#     4  10  17  33  56  85 111 148 195 257 300 350
#     4   9  20  31  54  85 116 149 196 251 309 365
#     4  11  21  38  63  86 123 156 203 255 306 357
#     4  11  23  37  60  92 124 161 203 244 303 374
#     4  10  18  36  58  81 112 150 209 257 300 360
#     4   9  19  38  61  87 117 159 206 254 294 360
#
# _framework density 22.220351999999998
#
# number of rings (size 3 to 8) (size 9 to 14) (size 15 to 20)
#    0.000    2.000    4.286    1.714    4.000    3.429 
#    0.000    2.143    0.000    2.571    0.000    0.000 
#    0.000    0.000    0.000    0.000    0.000    0.000 
#
# Total GULP energy -693855.625434 kJ/mol
# GULP energy per Si atom -12390.279026 kJ/mol
# Density = 2.216978 g / cm^3
# Si number density = 22.220352 Si / 1000 Ang^3
#
#
#
# Elastic Constant Matrix: (Units=GPa)
#
#
# Indices 1 2 3 4 5 6 
#
# 1 98.7938 8.1752 36.5129 0.0000 0.0000 0.0000
# 2 8.1752 51.7736 19.1680 0.0000 0.0000 0.0000
# 3 36.5129 19.1680 130.7353 0.0000 0.0000 0.0000
# 4 0.0000 0.0000 0.0000 23.8182 0.0000 0.0000
# 5 0.0000 0.0000 0.0000 0.0000 27.1049 0.0000
# 6 0.0000 0.0000 0.0000 0.0000 0.0000 23.2566
#
#
#
# Elastic Compliance Matrix: (Units=1/GPa)
#
#
# Indices 1 2 3 4 5 6 
#
# 1 0.011308 -0.000652 -0.003063 0.000000 0.000000 0.000000
# 2 -0.000652 0.020461 -0.002818 0.000000 0.000000 0.000000
# 3 -0.003063 -0.002818 0.008918 0.000000 0.000000 0.000000
# 4 0.000000 0.000000 0.000000 0.041985 0.000000 0.000000
# 5 0.000000 0.000000 0.000000 0.000000 0.036894 0.000000
# 6 0.000000 0.000000 0.000000 0.000000 0.000000 0.042998
#
#
# Mechanical properties :
#
#
# Convention : Reuss Voigt Hill
#
# Bulk Modulus (GPa) = 36.20298 45.44610 40.82454
# Shear Modulus (GPa) = 27.05111 29.33238 28.19174
#
# Velocity S-wave (km/s) = 3.49291 3.63722 3.56580
# Velocity P-wave (km/s) = 5.70923 6.17543 5.94690
#
# Compressibility (1/GPa) = 0.02762203
#
# Stress axis : x y z
#
# Youngs Moduli (GPa) = 88.43352 48.87338 112.13830
#
# Poissons Ratio (x) = 0.03185 0.34344
# Poissons Ratio (y) = 0.05763 0.31600
# Poissons Ratio (z) = 0.27084 0.13772
#
# Static dielectric constant tensor:
#      x y z
#    x 4.220320 0.000000 0.000000 
#    y 0.000000 3.765670 0.000000 
#    z 0.000000 0.000000 4.104150 
# 
# 
# High freq. dielectric constant tensor:
#      x y z
#    x 1.870390 0.000000 0.000000 
#    y 0.000000 1.840340 0.000000 
#    z 0.000000 0.000000 1.870230 
# 
# From -- ./inp_files/23056.got.cif
#   From: 2010.03.12/outbox.cif.g09.slc.cpg/sg55_12_cif.got.tgz:23056.got - 2010.04.16 15:19:21.
