data_PCOD8224930
_publ_section_title
;
Structure prediction by ZEFSAII (Michael W. Deem and Ramdas Pophale) SiO2 
 PCOD8224930
Probable space group: P B A M
;
_chemical_formula_sum "Si O2"
_cell_formula_units_Z 64
_cell_length_a 14.372720
_cell_length_b 21.219679
_cell_length_c 9.591569
_cell_angle_alpha 90.000000
_cell_angle_beta 90.000000
_cell_angle_gamma 90.000000
_cell_volume 2925.279921
_symmetry_space_group_name_H-M "P B A M"
_symmetry_group_IT_number 55
_symmetry_cell_setting 'orthorhombic'
loop_
_space_group_symop_operation_xyz
x,y,z
-x,-y,z
1/2+x,1/2-y,-z
1/2-x,1/2+y,-z
-x,-y,-z
x,y,-z
1/2-x,1/2+y,z
1/2+x,1/2-y,z
loop_
_atom_site_type_symbol
_atom_site_label
_atom_site_fract_x
_atom_site_fract_y
_atom_site_fract_z
Si Si1 0.801117 0.028164 0.654372
Si Si2 0.963001 0.128969 0.654845
Si Si3 0.023149 0.767390 0.153530
Si Si4 0.150920 0.652873 0.157313
Si Si5 0.159555 0.368564 0.660352
Si Si6 0.917638 0.949789 0.844154
Si Si7 0.809230 0.750568 0.838433
Si Si8 0.032019 0.569062 0.661899
O O1 0.790224 0.997240 0.500000
O O2 0.708398 0.064957 0.697828
O O3 0.885971 0.076337 0.646976
O O4 0.824135 0.976600 0.772029
O O5 0.998832 0.145646 0.500000
O O6 0.922759 0.191246 0.730618
O O7 0.050182 0.108187 0.749757
O O8 0.914331 0.770998 0.187185
O O9 0.059983 0.696814 0.160579
O O10 0.043154 0.795930 0.000000
O O11 0.240375 0.692993 0.211776
O O12 0.124214 0.593148 0.255159
O O13 0.169495 0.628499 0.000000
O O14 0.180252 0.350973 0.500000
O O15 0.205440 0.313782 0.752643
O O16 0.050366 0.380096 0.685871
O O17 0.891384 0.926525 0.000000
O O18 0.000000 0.000000 0.852141
O O19 0.787607 0.735345 0.000000
O O20 0.059894 0.564572 0.500000
O O21 0.000000 0.500000 0.715582
#
# Coordination Sequence:
#
# PCOD8224930 Si02
#       8
#     8   8   8   8   8   8   8   8
#     4   9  18  32  50  76 108 142 185 238 286 339
#     4  10  19  31  50  76 108 148 188 228 285 349
#     4  10  20  35  54  79 114 147 181 235 292 348
#     4  10  21  39  63  89 118 155 196 245 303 359
#     4  10  20  36  59  85 115 150 194 245 296 355
#     4   9  17  30  48  70 101 141 182 224 271 328
#     4  10  21  37  59  87 118 149 189 242 298 357
#     4  10  22  41  63  87 120 161 204 253 303 355
#
# _framework density 21.878247999999999
#
# number of rings (size 3 to 8) (size 9 to 14) (size 15 to 20)
#    0.000    2.250    1.250    1.500    0.000    4.250 
#    2.250    0.000    0.000    0.000    0.000    0.000 
#    0.000    0.000    0.000    0.000    0.000    0.000 
#
# Total GULP energy -793317.007558 kJ/mol
# GULP energy per Si atom -12395.578243 kJ/mol
# Density = 2.182845 g / cm^3
# Si number density = 21.878248 Si / 1000 Ang^3
#
#
#
# Elastic Constant Matrix: (Units=GPa)
#
#
# Indices 1 2 3 4 5 6 
#
# 1 68.2083 -4.4023 3.5085 0.0000 0.0000 0.0000
# 2 -4.4023 36.7951 17.3381 0.0000 0.0000 0.0000
# 3 3.5085 17.3381 99.7020 0.0000 0.0000 0.0000
# 4 0.0000 0.0000 0.0000 36.8753 0.0000 0.0000
# 5 0.0000 0.0000 0.0000 0.0000 20.9490 0.0000
# 6 0.0000 0.0000 0.0000 0.0000 0.0000 27.7829
#
#
#
# Elastic Compliance Matrix: (Units=1/GPa)
#
#
# Indices 1 2 3 4 5 6 
#
# 1 0.014850 0.002203 -0.000906 0.000000 0.000000 0.000000
# 2 0.002203 0.029930 -0.005282 0.000000 0.000000 0.000000
# 3 -0.000906 -0.005282 0.010980 0.000000 0.000000 0.000000
# 4 0.000000 0.000000 0.000000 0.027118 0.000000 0.000000
# 5 0.000000 0.000000 0.000000 0.000000 0.047735 0.000000
# 6 0.000000 0.000000 0.000000 0.000000 0.000000 0.035993
#
#
# Mechanical properties :
#
#
# Convention : Reuss Voigt Hill
#
# Bulk Modulus (GPa) = 20.92443 26.39935 23.66189
# Shear Modulus (GPa) = 26.24578 29.67218 27.95898
#
# Velocity S-wave (km/s) = 3.46732 3.68671 3.57870
# Velocity P-wave (km/s) = 5.06108 5.49683 5.28345
#
# Compressibility (1/GPa) = 0.04779103
#
# Stress axis : x y z
#
# Youngs Moduli (GPa) = 67.34111 33.41104 91.07166
#
# Poissons Ratio (x) = -0.07362 0.08249
# Poissons Ratio (y) = -0.14838 0.48108
# Poissons Ratio (z) = 0.06099 0.17649
#
# Static dielectric constant tensor:
#      x y z
#    x 3.938010 0.000000 0.000000 
#    y 0.000000 3.762430 0.000000 
#    z 0.000000 0.000000 4.106640 
# 
# 
# High freq. dielectric constant tensor:
#      x y z
#    x 1.857030 0.000000 0.000000 
#    y 0.000000 1.848980 0.000000 
#    z 0.000000 0.000000 1.855240 
# 
# From -- ./inp_files/6657.got.cif
#   From: 2010.03.12/outbox.cif.g09.slc.cpg/sg55_4_cif.got.tgz:6657.got - 2010.04.16 15:19:21.
