data_PCOD8224922
_publ_section_title
;
Structure prediction by ZEFSAII (Michael W. Deem and Ramdas Pophale) SiO2 
 PCOD8224922
Probable space group: P B A M
;
_chemical_formula_sum "Si O2"
_cell_formula_units_Z 64
_cell_length_a 22.893948
_cell_length_b 18.880758
_cell_length_c 9.035881
_cell_angle_alpha 90.000000
_cell_angle_beta 90.000000
_cell_angle_gamma 90.000000
_cell_volume 3905.805572
_symmetry_space_group_name_H-M "P B A M"
_symmetry_group_IT_number 55
_symmetry_cell_setting 'orthorhombic'
loop_
_space_group_symop_operation_xyz
x,y,z
-x,-y,z
1/2+x,1/2-y,-z
1/2-x,1/2+y,-z
-x,-y,-z
x,y,-z
1/2-x,1/2+y,z
1/2+x,1/2-y,z
loop_
_atom_site_type_symbol
_atom_site_label
_atom_site_fract_x
_atom_site_fract_y
_atom_site_fract_z
Si Si1 0.650581 0.752111 0.825277
Si Si2 0.246519 0.993262 0.827165
Si Si3 0.713862 0.872232 0.673341
Si Si4 0.265053 0.834184 0.173003
Si Si5 0.327643 0.716614 0.328306
Si Si6 0.611347 0.511716 0.826594
Si Si7 0.933107 0.152008 0.328246
Si Si8 0.066005 0.122630 0.671055
O O1 0.662851 0.829286 0.756490
O O2 0.702949 0.699063 0.781303
O O3 0.591985 0.721315 0.752644
O O4 0.642343 0.759065 0.000000
O O5 0.266128 0.915330 0.774751
O O6 0.178532 0.005171 0.791567
O O7 0.285285 0.047970 0.734050
O O8 0.258763 0.004687 0.000000
O O9 0.700598 0.872562 0.500000
O O10 0.775915 0.837247 0.712453
O O11 0.318109 0.791545 0.247649
O O12 0.274057 0.828074 0.000000
O O13 0.329337 0.733747 0.500000
O O14 0.387989 0.681657 0.274047
O O15 0.593456 0.582295 0.743440
O O16 0.571568 0.447760 0.768678
O O17 0.600689 0.523277 0.000000
O O18 0.915798 0.153248 0.500000
O O19 0.002397 0.154957 0.305913
O O20 0.077944 0.102210 0.500000
#
# Coordination Sequence:
#
# PCOD8224922 Si02
#       8
#     8   8   8   8   8   8   8   8
#     4  10  19  34  51  70  98 129 163 206 248 289
#     4  10  19  32  48  71 100 132 162 196 244 292
#     4  10  19  31  50  74  97 126 164 202 243 294
#     4   9  18  32  49  69  96 126 159 199 246 292
#     4   9  18  32  48  69  95 124 161 202 244 287
#     4  11  21  33  48  69  99 135 173 207 241 287
#     4  11  22  34  50  69  97 135 172 207 246 289
#     4  10  21  36  49  68  99 134 169 209 248 286
#
# _framework density 16.385864000000002
#
# number of rings (size 3 to 8) (size 9 to 14) (size 15 to 20)
#    0.000    2.000    2.500    1.875    0.000    5.000 
#    0.000    0.000    0.000    0.000    0.000    0.875 
#    0.000    7.000    0.000    0.000    0.000    0.000 
#
# Total GULP energy -793813.728003 kJ/mol
# GULP energy per Si atom -12403.339500 kJ/mol
# Density = 1.634857 g / cm^3
# Si number density = 16.385864 Si / 1000 Ang^3
#
#
#
# Elastic Constant Matrix: (Units=GPa)
#
#
# Indices 1 2 3 4 5 6 
#
# 1 32.6178 12.7487 20.8984 0.0000 0.0000 0.0000
# 2 12.7487 77.7984 31.0933 0.0000 0.0000 0.0000
# 3 20.8984 31.0933 63.4423 0.0000 0.0000 0.0000
# 4 0.0000 0.0000 0.0000 33.2262 0.0000 0.0000
# 5 0.0000 0.0000 0.0000 0.0000 22.8189 0.0000
# 6 0.0000 0.0000 0.0000 0.0000 0.0000 16.7066
#
#
#
# Elastic Compliance Matrix: (Units=1/GPa)
#
#
# Indices 1 2 3 4 5 6 
#
# 1 0.039012 -0.001563 -0.012085 0.000000 0.000000 0.000000
# 2 -0.001563 0.016047 -0.007350 0.000000 0.000000 0.000000
# 3 -0.012085 -0.007350 0.023345 0.000000 0.000000 0.000000
# 4 0.000000 0.000000 0.000000 0.030097 0.000000 0.000000
# 5 0.000000 0.000000 0.000000 0.000000 0.043823 0.000000
# 6 0.000000 0.000000 0.000000 0.000000 0.000000 0.059857
#
#
# Mechanical properties :
#
#
# Convention : Reuss Voigt Hill
#
# Bulk Modulus (GPa) = 27.46565 33.70436 30.58501
# Shear Modulus (GPa) = 18.77487 21.82487 20.29987
#
# Velocity S-wave (km/s) = 3.38863 3.65352 3.52357
# Velocity P-wave (km/s) = 5.66645 6.19770 5.93802
#
# Compressibility (1/GPa) = 0.03640912
#
# Stress axis : x y z
#
# Youngs Moduli (GPa) = 25.63322 62.31540 42.83483
#
# Poissons Ratio (x) = 0.09740 0.51765
# Poissons Ratio (y) = 0.04006 0.31484
# Poissons Ratio (z) = 0.30977 0.45802
#
# Static dielectric constant tensor:
#      x y z
#    x 2.979210 0.000000 0.000000 
#    y 0.000000 3.133210 0.000000 
#    z 0.000000 0.000000 3.130300 
# 
# 
# High freq. dielectric constant tensor:
#      x y z
#    x 1.602570 0.000000 0.000000 
#    y 0.000000 1.625790 0.000000 
#    z 0.000000 0.000000 1.639820 
# 
# From -- ./inp_files/7954.got.cif
#   From: 2010.03.12/outbox.cif.g09.slc.cpg/sg55_4_cif.got.tgz:7954.got - 2010.04.16 15:19:21.
