data_PCOD8224131
_publ_section_title
;
Structure prediction by ZEFSAII (Michael W. Deem and Ramdas Pophale) SiO2 
 PCOD8224131
Probable space group: P C C A
;
_chemical_formula_sum "Si O2"
_cell_formula_units_Z 36
_cell_length_a 5.005515
_cell_length_b 13.052792
_cell_length_c 24.918098
_cell_angle_alpha 90.000000
_cell_angle_beta 90.000000
_cell_angle_gamma 90.000000
_cell_volume 1628.047509
_symmetry_space_group_name_H-M "P C C A"
_symmetry_group_IT_number 54
_symmetry_cell_setting 'orthorhombic'
loop_
_space_group_symop_operation_xyz
x,y,z
1/2-x,-y,z
1/2+x,-y,1/2-z
-x,y,1/2-z
-x,-y,-z
1/2+x,y,-z
1/2-x,y,1/2+z
x,-y,1/2+z
loop_
_atom_site_type_symbol
_atom_site_label
_atom_site_fract_x
_atom_site_fract_y
_atom_site_fract_z
Si Si1 0.750000 0.000000 0.414147
Si Si2 0.618434 0.211650 0.193987
Si Si3 0.750000 0.000000 0.661231
Si Si4 0.250000 0.500000 0.710837
Si Si5 0.860698 0.698466 0.854578
Si Si6 0.792295 0.218069 0.465961
O O1 0.499116 0.014967 0.376539
O O2 0.811903 0.098661 0.450448
O O3 0.500000 0.252547 0.250000
O O4 0.360118 0.211888 0.155259
O O5 0.852874 0.285497 0.173358
O O6 0.752370 0.099493 0.199544
O O7 0.500000 0.500116 0.750000
O O8 0.240422 0.405061 0.669713
O O9 0.884701 0.703171 0.918917
O O10 0.491853 0.240920 0.484770
#
# Coordination Sequence:
#
# PCOD8224131 Si02
#       6
#     4   8   4   4   8   8
#     4  12  22  42  64  96 138 186 234 280 320 388
#     4  12  24  41  66  95 137 182 217 272 341 408
#     4  12  22  40  62  96 140 180 224 266 338 404
#     4  12  26  48  76 104 128 174 226 280 352 412
#     4  12  25  46  68  99 136 170 229 288 331 405
#     4  12  24  42  68  99 135 182 230 279 338 392
#
# _framework density 22.112378
#
# number of rings (size 3 to 8) (size 9 to 14) (size 15 to 20)
#    0.000    0.000    4.444    7.333    0.000    2.667 
#    0.000    1.111    0.000    0.000    0.000    0.000 
#    0.000    0.000    0.000    0.000    0.000    0.000 
#
# Total GULP energy -446350.488325 kJ/mol
# GULP energy per Si atom -12398.624676 kJ/mol
# Density = 2.206205 g / cm^3
# Si number density = 22.112378 Si / 1000 Ang^3
#
#
#
# Elastic Constant Matrix: (Units=GPa)
#
#
# Indices 1 2 3 4 5 6 
#
# 1 131.6060 19.3875 35.6221 0.0000 0.0000 0.0000
# 2 19.3875 69.5968 53.9163 0.0000 0.0000 0.0000
# 3 35.6221 53.9163 109.2382 0.0000 0.0000 0.0000
# 4 0.0000 0.0000 0.0000 31.8126 0.0000 0.0000
# 5 0.0000 0.0000 0.0000 0.0000 45.0037 0.0000
# 6 0.0000 0.0000 0.0000 0.0000 0.0000 20.2248
#
#
#
# Elastic Compliance Matrix: (Units=1/GPa)
#
#
# Indices 1 2 3 4 5 6 
#
# 1 0.008339 -0.000350 -0.002547 0.000000 0.000000 0.000000
# 2 -0.000350 0.023278 -0.011375 0.000000 0.000000 0.000000
# 3 -0.002547 -0.011375 0.015599 0.000000 0.000000 0.000000
# 4 0.000000 0.000000 0.000000 0.031434 0.000000 0.000000
# 5 0.000000 0.000000 0.000000 0.000000 0.022220 0.000000
# 6 0.000000 0.000000 0.000000 0.000000 0.000000 0.049444
#
#
# Mechanical properties :
#
#
# Convention : Reuss Voigt Hill
#
# Bulk Modulus (GPa) = 53.55386 58.69922 56.12654
# Shear Modulus (GPa) = 27.01478 32.84256 29.92867
#
# Velocity S-wave (km/s) = 3.49908 3.85808 3.68296
# Velocity P-wave (km/s) = 6.37152 6.81542 6.59720
#
# Compressibility (1/GPa) = 0.01867279
#
# Stress axis : x y z
#
# Youngs Moduli (GPa) = 119.91399 42.95831 64.10613
#
# Poissons Ratio (x) = 0.01505 0.16325
# Poissons Ratio (y) = 0.04201 0.72922
# Poissons Ratio (z) = 0.30536 0.48866
#
# Static dielectric constant tensor:
#      x y z
#    x 4.147470 0.000000 0.000000 
#    y 0.000000 3.933450 0.000000 
#    z 0.000000 0.000000 4.065210 
# 
# 
# High freq. dielectric constant tensor:
#      x y z
#    x 1.895960 0.000000 0.000000 
#    y 0.000000 1.850470 0.000000 
#    z 0.000000 0.000000 1.871680 
# 
# From -- ./inp_files/22723.got.cif
#   From: 2010.03.12/outbox.cif.g09.slc.cpg/sg54_12_cif.got.tgz:22723.got - 2010.04.16 15:00:50.
