data_PCOD8224921
_publ_section_title
;
Structure prediction by ZEFSAII (Michael W. Deem and Ramdas Pophale) SiO2 
 PCOD8224921
Probable space group: P B A M
;
_chemical_formula_sum "Si O2"
_cell_formula_units_Z 48
_cell_length_a 5.064441
_cell_length_b 16.837697
_cell_length_c 29.547088
_cell_angle_alpha 90.000000
_cell_angle_beta 90.000000
_cell_angle_gamma 90.000000
_cell_volume 2519.584289
_symmetry_space_group_name_H-M "P B A M"
_symmetry_group_IT_number 55
_symmetry_cell_setting 'orthorhombic'
loop_
_space_group_symop_operation_xyz
x,y,z
-x,-y,z
1/2+x,1/2-y,-z
1/2-x,1/2+y,-z
-x,-y,-z
x,y,-z
1/2-x,1/2+y,z
1/2+x,1/2-y,z
loop_
_atom_site_type_symbol
_atom_site_label
_atom_site_fract_x
_atom_site_fract_y
_atom_site_fract_z
Si Si1 0.723996 0.695302 0.118144
Si Si2 0.241291 0.448061 0.051234
Si Si3 0.919563 0.200049 0.787446
Si Si4 0.361322 0.302841 0.311435
Si Si5 0.505575 0.905499 0.449448
Si Si6 0.492662 0.405901 0.604754
O O1 0.510167 0.765263 0.113325
O O2 0.701831 0.630422 0.079530
O O3 0.670056 0.651969 0.167302
O O4 0.500000 0.500000 0.052654
O O5 0.000000 0.500000 0.071466
O O6 0.172304 0.421723 0.000000
O O7 0.729078 0.278047 0.789328
O O8 0.873912 0.157563 0.738954
O O9 0.567050 0.230662 0.318242
O O10 0.430642 0.372173 0.346026
O O11 0.548967 0.871406 0.500000
O O12 0.733185 0.874030 0.415862
O O13 0.228484 0.875186 0.430119
O O14 0.500000 0.000000 0.451226
O O15 0.500000 0.500000 0.609600
#
# Coordination Sequence:
#
# PCOD8224921 Si02
#       6
#     8   8   8   8   8   8
#     4  10  19  33  55  79 101 130 178 227 255 290
#     4  10  21  36  52  74 109 146 173 206 263 323
#     4   8  16  30  49  72  96 126 163 203 244 290
#     4  10  19  33  52  71  97 132 163 190 239 305
#     4   9  17  30  49  71  94 123 158 195 238 286
#     4  10  19  31  50  74  96 119 157 205 239 275
#
# _framework density 19.050761999999999
#
# number of rings (size 3 to 8) (size 9 to 14) (size 15 to 20)
#    0.000    2.500    0.000    2.500    0.000    2.667 
#    0.000    0.833    0.000   13.000    0.000    0.000 
#    0.000    0.000    0.000    0.000    0.000    0.000 
#
# Total GULP energy -594828.245359 kJ/mol
# GULP energy per Si atom -12392.255112 kJ/mol
# Density = 1.900740 g / cm^3
# Si number density = 19.050762 Si / 1000 Ang^3
#
#
#
# Elastic Constant Matrix: (Units=GPa)
#
#
# Indices 1 2 3 4 5 6 
#
# 1 101.3168 12.3628 26.7862 0.0000 0.0000 0.0000
# 2 12.3628 33.3130 44.8919 0.0000 0.0000 0.0000
# 3 26.7862 44.8919 147.9463 0.0000 0.0000 0.0000
# 4 0.0000 0.0000 0.0000 16.1186 0.0000 0.0000
# 5 0.0000 0.0000 0.0000 0.0000 31.4906 0.0000
# 6 0.0000 0.0000 0.0000 0.0000 0.0000 18.5396
#
#
#
# Elastic Compliance Matrix: (Units=1/GPa)
#
#
# Indices 1 2 3 4 5 6 
#
# 1 0.010465 -0.002251 -0.001212 0.000000 0.000000 0.000000
# 2 -0.002251 0.051268 -0.015149 0.000000 0.000000 0.000000
# 3 -0.001212 -0.015149 0.011575 0.000000 0.000000 0.000000
# 4 0.000000 0.000000 0.000000 0.062040 0.000000 0.000000
# 5 0.000000 0.000000 0.000000 0.000000 0.031756 0.000000
# 6 0.000000 0.000000 0.000000 0.000000 0.000000 0.053939
#
#
# Mechanical properties :
#
#
# Convention : Reuss Voigt Hill
#
# Bulk Modulus (GPa) = 27.71196 50.07310 38.89253
# Shear Modulus (GPa) = 18.49836 26.46543 22.48189
#
# Velocity S-wave (km/s) = 3.11947 3.73125 3.43899
# Velocity P-wave (km/s) = 5.24907 6.70105 6.01900
#
# Compressibility (1/GPa) = 0.03608550
#
# Stress axis : x y z
#
# Youngs Moduli (GPa) = 95.55626 19.50530 86.39070
#
# Poissons Ratio (x) = 0.04390 0.10469
# Poissons Ratio (y) = 0.21507 1.30873
# Poissons Ratio (z) = 0.11579 0.29549
#
# Static dielectric constant tensor:
#      x y z
#    x 3.776450 0.000000 0.000000 
#    y 0.000000 2.835950 0.000000 
#    z 0.000000 0.000000 3.920510 
# 
# 
# High freq. dielectric constant tensor:
#      x y z
#    x 1.767440 0.000000 0.000000 
#    y 0.000000 1.672790 0.000000 
#    z 0.000000 0.000000 1.761220 
# 
# From -- ./inp_files/23649.got.cif
#   From: 2010.03.12/outbox.cif.g09.slc.cpg/sg55_12_cif.got.tgz:23649.got - 2010.04.16 15:19:21.
