data_PCOD8224055
_publ_section_title
;
Structure prediction by ZEFSAII (Michael W. Deem and Ramdas Pophale) SiO2 
 PCOD8224055
Probable space group: P C C A
;
_chemical_formula_sum "Si O2"
_cell_formula_units_Z 32
_cell_length_a 9.259911
_cell_length_b 16.050863
_cell_length_c 10.264149
_cell_angle_alpha 90.000000
_cell_angle_beta 90.000000
_cell_angle_gamma 90.000000
_cell_volume 1525.555979
_symmetry_space_group_name_H-M "P C C A"
_symmetry_group_IT_number 54
_symmetry_cell_setting 'orthorhombic'
loop_
_space_group_symop_operation_xyz
x,y,z
1/2-x,-y,z
1/2+x,-y,1/2-z
-x,y,1/2-z
-x,-y,-z
1/2+x,y,-z
1/2-x,y,1/2+z
x,-y,1/2+z
loop_
_atom_site_type_symbol
_atom_site_label
_atom_site_fract_x
_atom_site_fract_y
_atom_site_fract_z
Si Si1 0.748669 0.186757 0.480115
Si Si2 0.914701 0.532701 0.622659
Si Si3 0.667567 0.084737 0.229724
Si Si4 0.503249 0.721843 0.106446
O O1 0.740629 0.126622 0.355927
O O2 0.819388 0.142117 0.603277
O O3 0.589745 0.217366 0.512160
O O4 0.840596 0.271355 0.448549
O O5 0.750000 0.500000 0.625951
O O6 0.922047 0.632001 0.613622
O O7 0.000000 0.500317 0.750000
O O8 0.000000 0.500000 0.500000
O O9 0.500000 0.064945 0.250000
O O10 0.750000 0.000000 0.199837
O O11 0.500000 0.760897 0.250000
#
# Coordination Sequence:
#
# PCOD8224055 Si02
#       4
#     8   8   8   8
#     4  12  24  45  68  99 137 175 232 275 342 404
#     4  11  24  45  70 105 143 183 232 286 351 418
#     4  12  28  44  69 100 135 181 225 283 344 408
#     4  11  24  43  70 100 136 178 223 287 332 403
#
# _framework density 20.975961000000002
#
# number of rings (size 3 to 8) (size 9 to 14) (size 15 to 20)
#    0.000    0.500    5.000    3.000    3.500    4.000 
#    4.500    0.000    0.000    0.000    0.000    0.000 
#    0.000    0.000    0.000    0.000    0.000    0.000 
#
# Total GULP energy -396735.409331 kJ/mol
# GULP energy per Si atom -12397.981542 kJ/mol
# Density = 2.092822 g / cm^3
# Si number density = 20.975961 Si / 1000 Ang^3
#
#
#
# Elastic Constant Matrix: (Units=GPa)
#
#
# Indices 1 2 3 4 5 6 
#
# 1 142.5592 31.3746 50.3725 0.0000 0.0000 0.0000
# 2 31.3746 61.2305 30.5595 0.0000 0.0000 0.0000
# 3 50.3725 30.5595 156.5133 0.0000 0.0000 0.0000
# 4 0.0000 0.0000 0.0000 33.2064 0.0000 0.0000
# 5 0.0000 0.0000 0.0000 0.0000 39.2364 0.0000
# 6 0.0000 0.0000 0.0000 0.0000 0.0000 44.1237
#
#
#
# Elastic Compliance Matrix: (Units=1/GPa)
#
#
# Indices 1 2 3 4 5 6 
#
# 1 0.008478 -0.003304 -0.002083 0.000000 0.000000 0.000000
# 2 -0.003304 0.019383 -0.002721 0.000000 0.000000 0.000000
# 3 -0.002083 -0.002721 0.007591 0.000000 0.000000 0.000000
# 4 0.000000 0.000000 0.000000 0.030115 0.000000 0.000000
# 5 0.000000 0.000000 0.000000 0.000000 0.025487 0.000000
# 6 0.000000 0.000000 0.000000 0.000000 0.000000 0.022664
#
#
# Mechanical properties :
#
#
# Convention : Reuss Voigt Hill
#
# Bulk Modulus (GPa) = 51.99028 64.99070 58.49049
# Shear Modulus (GPa) = 36.67147 39.84642 38.25894
#
# Velocity S-wave (km/s) = 4.18576 4.36319 4.27540
# Velocity P-wave (km/s) = 6.94264 7.51225 7.23306
#
# Compressibility (1/GPa) = 0.01923436
#
# Stress axis : x y z
#
# Youngs Moduli (GPa) = 117.95218 51.59176 131.73406
#
# Poissons Ratio (x) = 0.17048 0.27445
# Poissons Ratio (y) = 0.38975 0.35846
# Poissons Ratio (z) = 0.24574 0.14039
#
# Static dielectric constant tensor:
#      x y z
#    x 4.270240 0.000000 0.000000 
#    y 0.000000 11.968950 0.000000 
#    z 0.000000 0.000000 4.113280 
# 
# 
# High freq. dielectric constant tensor:
#      x y z
#    x 1.839780 0.000000 0.000000 
#    y 0.000000 1.814740 0.000000 
#    z 0.000000 0.000000 1.845570 
# 
# From -- ./inp_files/6699.got.cif
#   From: 2010.03.12/outbox.cif.g09.slc.cpg/sg54_4_cif.got.tgz:6699.got - 2010.04.16 15:00:50.
