data_PCOD8224219
_publ_section_title
;
Structure prediction by ZEFSAII (Michael W. Deem and Ramdas Pophale) SiO2 
 PCOD8224219
Probable space group: P C C A
;
_chemical_formula_sum "Si O2"
_cell_formula_units_Z 40
_cell_length_a 9.000000
_cell_length_b 9.000000
_cell_length_c 24.000000
_cell_angle_alpha 90.000000
_cell_angle_beta 90.000000
_cell_angle_gamma 90.000000
_cell_volume 1944.000000
_symmetry_space_group_name_H-M "P C C A"
_symmetry_group_IT_number 54
_symmetry_cell_setting 'orthorhombic'
loop_
_space_group_symop_operation_xyz
x,y,z
1/2-x,-y,z
1/2+x,-y,1/2-z
-x,y,1/2-z
-x,-y,-z
1/2+x,y,-z
1/2-x,y,1/2+z
x,-y,1/2+z
loop_
_atom_site_type_symbol
_atom_site_label
_atom_site_fract_x
_atom_site_fract_y
_atom_site_fract_z
Si Si1 0.249873 0.675608 0.834262
Si Si2 0.332498 0.147286 0.232463
Si Si3 0.439019 0.165507 0.921366
Si Si4 0.749722 0.169635 0.471458
Si Si5 0.533034 0.163102 0.382348
O O1 0.250000 0.500000 0.837398
O O2 0.252300 0.722172 0.768525
O O3 0.103746 0.737296 0.866866
O O4 0.397263 0.735069 0.864093
O O5 0.500000 0.128297 0.250000
O O6 0.337587 0.164090 0.165556
O O7 0.250000 0.000000 0.251120
O O8 0.584619 0.229340 0.955056
O O9 0.466581 0.998014 0.899846
O O10 0.296345 0.180043 0.963424
O O11 0.618031 0.241847 0.434142
O O12 0.750000 0.000000 0.452144
#
# Coordination Sequence:
#
# PCOD8224219 Si02
#       5
#     8   8   8   8   8
#     4  11  23  39  57  81 118 163 203 244 295 351
#     4  10  20  37  61  87 114 148 194 246 297 354
#     4  11  20  37  64  91 121 155 197 247 302 360
#     4  10  19  33  61  95 118 146 191 248 303 355
#     4  10  20  38  59  88 118 148 194 247 297 358
#
# _framework density 20.576132000000001
#
# number of rings (size 3 to 8) (size 9 to 14) (size 15 to 20)
#    0.000    1.600    0.000    9.600    0.000    0.000 
#    0.000   20.000    0.000    0.000    0.000    0.000 
#    0.000    0.000    0.000    0.000    0.000    0.000 
#
# Total GULP energy -495549.705220 kJ/mol
# GULP energy per Si atom -12388.742630 kJ/mol
# Density = 2.052930 g / cm^3
# Si number density = 20.576132 Si / 1000 Ang^3
#
#
#
# Elastic Constant Matrix: (Units=GPa)
#
#
# Indices 1 2 3 4 5 6 
#
# 1 85.2222 37.8397 40.0268 0.0000 0.0000 0.0000
# 2 37.8397 106.2999 42.1459 0.0000 0.0000 0.0000
# 3 40.0268 42.1459 148.2373 0.0000 0.0000 0.0000
# 4 0.0000 0.0000 0.0000 9.2061 0.0000 0.0000
# 5 0.0000 0.0000 0.0000 0.0000 -153.7571 0.0000
# 6 0.0000 0.0000 0.0000 0.0000 0.0000 11.9029
#
#
#
# Elastic Compliance Matrix: (Units=1/GPa)
#
#
# Indices 1 2 3 4 5 6 
#
# 1 0.014927 -0.004188 -0.002840 0.000000 0.000000 0.000000
# 2 -0.004188 0.011777 -0.002218 0.000000 0.000000 0.000000
# 3 -0.002840 -0.002218 0.008143 0.000000 0.000000 0.000000
# 4 0.000000 0.000000 0.000000 0.108624 0.000000 0.000000
# 5 0.000000 0.000000 0.000000 0.000000 -0.006504 0.000000
# 6 0.000000 0.000000 0.000000 0.000000 0.000000 0.084013
#
#
# Mechanical properties :
#
#
# Convention : Reuss Voigt Hill
#
# Bulk Modulus (GPa) = 61.13544 64.42048 62.77796
# Shear Modulus (GPa) = 20.41449 -11.87981 4.26734
#
# Velocity S-wave (km/s) = 3.15325 -2.40544 1.44168
# Velocity P-wave (km/s) = 6.56000 4.86431 5.77473
#
# Compressibility (1/GPa) = 0.01635712
#
# Stress axis : x y z
#
# Youngs Moduli (GPa) = 66.99130 84.90903 122.79998
#
# Poissons Ratio (x) = 0.35557 0.34876
# Poissons Ratio (y) = 0.28054 0.27233
# Poissons Ratio (z) = 0.19026 0.18830
#
# Static dielectric constant tensor:
#      x y z
#    x 4.158300 0.000000 0.000000 
#    y 0.000000 3.209820 0.000000 
#    z 0.000000 0.000000 4.616850 
# 
# 
# High freq. dielectric constant tensor:
#      x y z
#    x 1.828400 0.000000 0.000000 
#    y 0.000000 1.744450 0.000000 
#    z 0.000000 0.000000 1.837370 
# 
# From -- ./inp_files/23238.got.cif
#   From: 2010.03.12/outbox.ucp.g09.slc.cvg/sg54_12_cif.got.tgz:23238.got - 2010.05.04 19:21:43.
