data_PCOD8224178
_publ_section_title
;
Structure prediction by ZEFSAII (Michael W. Deem and Ramdas Pophale) SiO2 
 PCOD8224178
Probable space group: P C C A
;
_chemical_formula_sum "Si O2"
_cell_formula_units_Z 32
_cell_length_a 15.946955
_cell_length_b 7.826086
_cell_length_c 10.980349
_cell_angle_alpha 90.000000
_cell_angle_beta 90.000000
_cell_angle_gamma 90.000000
_cell_volume 1370.372165
_symmetry_space_group_name_H-M "P C C A"
_symmetry_group_IT_number 54
_symmetry_cell_setting 'orthorhombic'
loop_
_space_group_symop_operation_xyz
x,y,z
1/2-x,-y,z
1/2+x,-y,1/2-z
-x,y,1/2-z
-x,-y,-z
1/2+x,y,-z
1/2-x,y,1/2+z
x,-y,1/2+z
loop_
_atom_site_type_symbol
_atom_site_label
_atom_site_fract_x
_atom_site_fract_y
_atom_site_fract_z
Si Si1 0.302710 0.324280 0.139849
Si Si2 0.973938 0.691614 0.497700
Si Si3 0.614157 0.132014 0.159513
Si Si4 0.500000 0.123171 0.750000
Si Si5 0.750000 0.000000 0.984638
O O1 0.250000 0.500000 0.136746
O O2 0.377895 0.317695 0.043766
O O3 0.335018 0.288309 0.277946
O O4 0.244541 0.166989 0.100655
O O5 0.000000 0.500000 0.500000
O O6 0.030995 0.798980 0.405926
O O7 0.986888 0.761623 0.632599
O O8 0.582207 0.999040 0.263166
O O9 0.668114 0.017326 0.068021
#
# Coordination Sequence:
#
# PCOD8224178 Si02
#       5
#     8   8   8   4   4
#     4  12  27  49  75 111 158 201 258 330 392 469
#     4  12  27  47  77 113 149 202 263 319 395 476
#     4  12  25  49  79 110 152 208 263 315 402 478
#     4  12  24  48  84 108 154 208 256 328 384 478
#     4  12  26  48  72 116 156 202 256 324 402 464
#
# _framework density 23.351320000000001
#
# number of rings (size 3 to 8) (size 9 to 14) (size 15 to 20)
#    0.000    0.000    5.000    4.500    3.500    5.000 
#    0.000    0.000    0.000    0.000    0.000    0.000 
#    0.000    0.000    0.000    0.000    0.000    0.000 
#
# Total GULP energy -396694.927998 kJ/mol
# GULP energy per Si atom -12396.716500 kJ/mol
# Density = 2.329817 g / cm^3
# Si number density = 23.351320 Si / 1000 Ang^3
#
#
#
# Elastic Constant Matrix: (Units=GPa)
#
#
# Indices 1 2 3 4 5 6 
#
# 1 117.8758 68.3324 53.5121 0.0000 0.0000 0.0000
# 2 68.3324 185.0337 68.0638 0.0000 0.0000 0.0000
# 3 53.5121 68.0638 141.3722 0.0000 0.0000 0.0000
# 4 0.0000 0.0000 0.0000 35.8539 0.0000 0.0000
# 5 0.0000 0.0000 0.0000 0.0000 29.6851 0.0000
# 6 0.0000 0.0000 0.0000 0.0000 0.0000 54.2737
#
#
#
# Elastic Compliance Matrix: (Units=1/GPa)
#
#
# Indices 1 2 3 4 5 6 
#
# 1 0.011666 -0.003261 -0.002846 0.000000 0.000000 0.000000
# 2 -0.003261 0.007479 -0.002366 0.000000 0.000000 0.000000
# 3 -0.002846 -0.002366 0.009290 0.000000 0.000000 0.000000
# 4 0.000000 0.000000 0.000000 0.027891 0.000000 0.000000
# 5 0.000000 0.000000 0.000000 0.000000 0.033687 0.000000
# 6 0.000000 0.000000 0.000000 0.000000 0.000000 0.018425
#
#
# Mechanical properties :
#
#
# Convention : Reuss Voigt Hill
#
# Bulk Modulus (GPa) = 87.04453 91.56647 89.30550
# Shear Modulus (GPa) = 38.69531 40.92077 39.80804
#
# Velocity S-wave (km/s) = 4.07516 4.19070 4.13333
# Velocity P-wave (km/s) = 7.71359 7.91920 7.81707
#
# Compressibility (1/GPa) = 0.01148837
#
# Stress axis : x y z
#
# Youngs Moduli (GPa) = 85.71935 133.70139 107.64345
#
# Poissons Ratio (x) = 0.43607 0.30630
# Poissons Ratio (y) = 0.27957 0.25473
# Poissons Ratio (z) = 0.24392 0.31639
#
# Static dielectric constant tensor:
#      x y z
#    x 4.270550 0.000000 0.000000 
#    y 0.000000 4.360280 0.000000 
#    z 0.000000 0.000000 4.132050 
# 
# 
# High freq. dielectric constant tensor:
#      x y z
#    x 1.937340 0.000000 0.000000 
#    y 0.000000 1.939600 0.000000 
#    z 0.000000 0.000000 1.929340 
# 
# From -- ./inp_files/8022.got.cif
#   From: 2010.03.12/outbox.cif.g09.slc.cpg/sg54_5_cif.got.tgz:8022.got - 2010.04.16 15:00:50.
