data_PCOD8224829
_publ_section_title
;
Structure prediction by ZEFSAII (Michael W. Deem and Ramdas Pophale) SiO2 
 PCOD8224829
Probable space group: P B A M
;
_chemical_formula_sum "Si O2"
_cell_formula_units_Z 56
_cell_length_a 28.682451
_cell_length_b 12.089601
_cell_length_c 8.869400
_cell_angle_alpha 90.000000
_cell_angle_beta 90.000000
_cell_angle_gamma 90.000000
_cell_volume 3075.547719
_symmetry_space_group_name_H-M "P B A M"
_symmetry_group_IT_number 55
_symmetry_cell_setting 'orthorhombic'
loop_
_space_group_symop_operation_xyz
x,y,z
-x,-y,z
1/2+x,1/2-y,-z
1/2-x,1/2+y,-z
-x,-y,-z
x,y,-z
1/2-x,1/2+y,z
1/2+x,1/2-y,z
loop_
_atom_site_type_symbol
_atom_site_label
_atom_site_fract_x
_atom_site_fract_y
_atom_site_fract_z
Si Si1 0.839227 0.868325 0.320861
Si Si2 0.329159 0.385299 0.679303
Si Si3 0.848684 0.523547 0.322986
Si Si4 0.920106 0.709710 0.323319
Si Si5 0.395278 0.193641 0.321103
Si Si6 0.728968 0.181121 0.680165
Si Si7 0.491199 0.125077 0.821972
O O1 0.837034 0.871660 0.500000
O O2 0.888621 0.814379 0.272485
O O3 0.795604 0.794320 0.261825
O O4 0.835748 0.991695 0.252754
O O5 0.325980 0.390947 0.500000
O O6 0.373081 0.310629 0.728429
O O7 0.281379 0.330993 0.742893
O O8 0.842273 0.521475 0.500000
O O9 0.892757 0.598500 0.279797
O O10 0.858885 0.400331 0.263577
O O11 0.801112 0.576431 0.256973
O O12 0.931681 0.715129 0.500000
O O13 0.967928 0.707519 0.230842
O O14 0.402499 0.185634 0.500000
O O15 0.444399 0.177411 0.242826
O O16 0.728758 0.181659 0.500000
O O17 0.500000 0.000000 0.760898
O O18 0.487947 0.124712 0.000000
#
# Coordination Sequence:
#
# PCOD8224829 Si02
#       7
#     8   8   8   8   8   8   8
#     4   8  15  27  42  66  99 132 165 195 234 284
#     4   9  17  26  41  68 103 136 163 195 235 281
#     4   8  14  24  41  67  97 125 155 188 233 284
#     4   9  16  30  51  70  93 128 160 197 240 288
#     4  10  19  30  47  73 102 130 161 197 239 287
#     4   8  14  23  39  65 101 136 157 189 238 281
#     4  11  22  34  50  73  97 122 156 205 257 295
#
# _framework density 18.208138999999999
#
# number of rings (size 3 to 8) (size 9 to 14) (size 15 to 20)
#    0.000    3.000    1.429    2.143    2.000    0.571 
#    0.000    0.714    0.000    5.143    0.000    5.000 
#    0.000    0.000    0.000    0.000    0.000    0.000 
#
# Total GULP energy -693975.356175 kJ/mol
# GULP energy per Si atom -12392.417075 kJ/mol
# Density = 1.816670 g / cm^3
# Si number density = 18.208139 Si / 1000 Ang^3
#
#
#
# Elastic Constant Matrix: (Units=GPa)
#
#
# Indices 1 2 3 4 5 6 
#
# 1 153.3943 81.6937 26.8730 0.0000 0.0000 0.0000
# 2 81.6937 153.9653 18.2115 0.0000 0.0000 0.0000
# 3 26.8730 18.2115 20.2708 0.0000 0.0000 0.0000
# 4 0.0000 0.0000 0.0000 8.6906 0.0000 0.0000
# 5 0.0000 0.0000 0.0000 0.0000 -2.5545 0.0000
# 6 0.0000 0.0000 0.0000 0.0000 0.0000 26.7261
#
#
#
# Elastic Compliance Matrix: (Units=1/GPa)
#
#
# Indices 1 2 3 4 5 6 
#
# 1 0.010672 -0.004464 -0.010138 0.000000 0.000000 0.000000
# 2 -0.004464 0.009134 -0.002289 0.000000 0.000000 0.000000
# 3 -0.010138 -0.002289 0.064829 0.000000 0.000000 0.000000
# 4 0.000000 0.000000 0.000000 0.115067 0.000000 0.000000
# 5 0.000000 0.000000 0.000000 0.000000 -0.391472 0.000000
# 6 0.000000 0.000000 0.000000 0.000000 0.000000 0.037417
#
#
# Mechanical properties :
#
#
# Convention : Reuss Voigt Hill
#
# Bulk Modulus (GPa) = 19.66424 64.57631 42.12027
# Shear Modulus (GPa) = -48.25294 19.96260 -14.14517
#
# Velocity S-wave (km/s) = -5.15347 3.31472 -2.79024
# Velocity P-wave (km/s) = 4.95862 7.08466 3.57802
#
# Compressibility (1/GPa) = 0.05085375
#
# Stress axis : x y z
#
# Youngs Moduli (GPa) = 93.69898 109.48025 15.42530
#
# Poissons Ratio (x) = 0.48868 0.15639
# Poissons Ratio (y) = 0.41823 0.03530
# Poissons Ratio (z) = 0.94995 0.25057
#
# Static dielectric constant tensor:
#      x y z
#    x 3.429810 0.000000 0.000000 
#    y 0.000000 3.366010 0.000000 
#    z 0.000000 0.000000 2.691940 
# 
# 
# High freq. dielectric constant tensor:
#      x y z
#    x 1.712740 0.000000 0.000000 
#    y 0.000000 1.703370 0.000000 
#    z 0.000000 0.000000 1.634610 
# 
# From -- ./inp_files/16028.got.cif
#   From: 2010.03.12/outbox.cif.g09.slc.cpg/sg55_9_cif.got.tgz:16028.got - 2010.04.16 15:19:21.
