data_PCOD8224500
_publ_section_title
;
Structure prediction by ZEFSAII (Michael W. Deem and Ramdas Pophale) SiO2 
 PCOD8224500
Probable space group: P B A M
;
_chemical_formula_sum "Si O2"
_cell_formula_units_Z 64
_cell_length_a 16.738977
_cell_length_b 22.135966
_cell_length_c 8.992219
_cell_angle_alpha 90.000000
_cell_angle_beta 90.000000
_cell_angle_gamma 90.000000
_cell_volume 3331.917711
_symmetry_space_group_name_H-M "P B A M"
_symmetry_group_IT_number 55
_symmetry_cell_setting 'orthorhombic'
loop_
_space_group_symop_operation_xyz
x,y,z
-x,-y,z
1/2+x,1/2-y,-z
1/2-x,1/2+y,-z
-x,-y,-z
x,y,-z
1/2-x,1/2+y,z
1/2+x,1/2-y,z
loop_
_atom_site_type_symbol
_atom_site_label
_atom_site_fract_x
_atom_site_fract_y
_atom_site_fract_z
Si Si1 0.866011 0.905426 0.823637
Si Si2 0.715556 0.841512 0.833827
Si Si3 0.424529 0.238261 0.176520
Si Si4 0.477255 0.857953 0.329347
Si Si5 0.837389 0.033466 0.325321
Si Si6 0.093267 0.555126 0.832470
Si Si7 0.841443 0.557585 0.329423
Si Si8 0.954593 0.125717 0.174210
O O1 0.803128 0.854204 0.762802
O O2 0.953313 0.882039 0.782071
O O3 0.848371 0.968542 0.746787
O O4 0.855290 0.914190 0.000000
O O5 0.657504 0.791645 0.756096
O O6 0.674191 0.906671 0.829953
O O7 0.728886 0.817618 0.000000
O O8 0.501798 0.202921 0.239481
O O9 0.427321 0.307654 0.223823
O O10 0.427831 0.229415 0.000000
O O11 0.498418 0.845776 0.500000
O O12 0.528127 0.914704 0.272985
O O13 0.383805 0.876717 0.309443
O O14 0.848790 0.026604 0.500000
O O15 0.751363 0.061900 0.283562
O O16 0.904625 0.077638 0.264621
O O17 0.112198 0.488703 0.775266
O O18 0.059218 0.551215 0.000000
O O19 0.848916 0.535453 0.500000
O O20 0.940629 0.114987 0.000000
#
# Coordination Sequence:
#
# PCOD8224500 Si02
#       8
#     8   8   8   8   8   8   8   8
#     4  10  19  36  60  84 109 144 186 227 282 336
#     4   8  15  30  54  79 107 141 177 221 267 320
#     4   9  19  38  57  81 112 142 186 231 270 324
#     4  10  20  34  53  77 109 149 184 220 276 334
#     4  11  23  38  57  82 114 147 187 233 279 332
#     4  10  18  30  52  81 111 143 183 229 274 325
#     4  10  21  35  50  75 113 150 183 225 276 334
#     4  10  22  39  59  83 113 145 183 232 284 334
#
# _framework density 19.208158000000001
#
# number of rings (size 3 to 8) (size 9 to 14) (size 15 to 20)
#    0.000    2.250    1.250    2.625    0.000    5.500 
#    2.250    0.000    0.000    0.000    0.000    0.000 
#    0.000    0.000    0.000    0.000    0.000    0.000 
#
# Total GULP energy -793294.093262 kJ/mol
# GULP energy per Si atom -12395.220207 kJ/mol
# Density = 1.916444 g / cm^3
# Si number density = 19.208158 Si / 1000 Ang^3
#
#
#
# Elastic Constant Matrix: (Units=GPa)
#
#
# Indices 1 2 3 4 5 6 
#
# 1 115.0532 69.5715 32.6443 0.0000 0.0000 0.0000
# 2 69.5715 89.0894 30.7815 0.0000 0.0000 0.0000
# 3 32.6443 30.7815 49.0356 0.0000 0.0000 0.0000
# 4 0.0000 0.0000 0.0000 15.4024 0.0000 0.0000
# 5 0.0000 0.0000 0.0000 0.0000 23.4930 0.0000
# 6 0.0000 0.0000 0.0000 0.0000 0.0000 19.0985
#
#
#
# Elastic Compliance Matrix: (Units=1/GPa)
#
#
# Indices 1 2 3 4 5 6 
#
# 1 0.017008 -0.011965 -0.003812 0.000000 0.000000 0.000000
# 2 -0.011965 0.022751 -0.006316 0.000000 0.000000 0.000000
# 3 -0.003812 -0.006316 0.026896 0.000000 0.000000 0.000000
# 4 0.000000 0.000000 0.000000 0.064925 0.000000 0.000000
# 5 0.000000 0.000000 0.000000 0.000000 0.042566 0.000000
# 6 0.000000 0.000000 0.000000 0.000000 0.000000 0.052360
#
#
# Mechanical properties :
#
#
# Convention : Reuss Voigt Hill
#
# Bulk Modulus (GPa) = 44.50615 57.68586 51.09600
# Shear Modulus (GPa) = 17.97387 19.61084 18.79236
#
# Velocity S-wave (km/s) = 3.06231 3.19872 3.13126
# Velocity P-wave (km/s) = 5.97699 6.61359 6.30333
#
# Compressibility (1/GPa) = 0.02246881
#
# Stress axis : x y z
#
# Youngs Moduli (GPa) = 58.79475 43.95481 37.18040
#
# Poissons Ratio (x) = 0.52592 0.14173
# Poissons Ratio (y) = 0.70348 0.23483
# Poissons Ratio (z) = 0.22412 0.27762
#
# Static dielectric constant tensor:
#      x y z
#    x 3.805560 0.000000 0.000000 
#    y 0.000000 3.466250 0.000000 
#    z 0.000000 0.000000 3.385230 
# 
# 
# High freq. dielectric constant tensor:
#      x y z
#    x 1.756460 0.000000 0.000000 
#    y 0.000000 1.733250 0.000000 
#    z 0.000000 0.000000 1.731860 
# 
# From -- ./inp_files/8089.got.cif
#   From: 2010.03.12/outbox.cif.g09.slc.cpg/sg55_5_cif.got.tgz:8089.got - 2010.04.16 15:19:21.
