data_PCOD8224464
_publ_section_title
;
Structure prediction by ZEFSAII (Michael W. Deem and Ramdas Pophale) SiO2 
 PCOD8224464
Probable space group: P B A M
;
_chemical_formula_sum "Si O2"
_cell_formula_units_Z 48
_cell_length_a 12.206200
_cell_length_b 18.756915
_cell_length_c 13.071371
_cell_angle_alpha 90.000000
_cell_angle_beta 90.000000
_cell_angle_gamma 90.000000
_cell_volume 2992.698964
_symmetry_space_group_name_H-M "P B A M"
_symmetry_group_IT_number 55
_symmetry_cell_setting 'orthorhombic'
loop_
_space_group_symop_operation_xyz
x,y,z
-x,-y,z
1/2+x,1/2-y,-z
1/2-x,1/2+y,-z
-x,-y,-z
x,y,-z
1/2-x,1/2+y,z
1/2+x,1/2-y,z
loop_
_atom_site_type_symbol
_atom_site_label
_atom_site_fract_x
_atom_site_fract_y
_atom_site_fract_z
Si Si1 0.109138 0.186500 0.881430
Si Si2 0.329167 0.107142 0.884832
Si Si3 0.515303 0.425690 0.262641
Si Si4 0.431350 0.846711 0.117454
Si Si5 0.877611 0.522401 0.253996
Si Si6 0.329686 0.484050 0.620614
O O1 0.230227 0.159242 0.858131
O O2 0.024891 0.142204 0.810840
O O3 0.108246 0.268734 0.848986
O O4 0.074547 0.177309 0.000000
O O5 0.438397 0.152500 0.867713
O O6 0.324477 0.037291 0.817004
O O7 0.321268 0.078827 0.000000
O O8 0.500000 0.500000 0.196632
O O9 0.622680 0.440214 0.335123
O O10 0.406291 0.419515 0.334512
O O11 0.375811 0.904241 0.191005
O O12 0.398879 0.863644 0.000000
O O13 0.797640 0.529327 0.350880
O O14 0.000000 0.500000 0.289183
O O15 0.338529 0.485014 0.500000
#
# Coordination Sequence:
#
# PCOD8224464 Si02
#       6
#     8   8   8   8   8   8
#     4  10  18  30  48  75 106 131 162 197 244 301
#     4   9  16  30  47  66 101 136 165 197 233 296
#     4   8  17  32  50  72  93 127 160 198 243 298
#     4   9  19  30  45  73 104 137 163 190 242 302
#     4  10  18  31  51  74  96 131 172 208 241 290
#     4   9  18  33  52  73  93 122 168 214 254 288
#
# _framework density 16.039034000000001
#
# number of rings (size 3 to 8) (size 9 to 14) (size 15 to 20)
#    1.000    1.667    1.667    1.500    0.000    4.000 
#    0.000    3.333    0.000    2.000    0.000    0.000 
#    0.000    0.000    0.000    0.000    0.000    0.000 
#
# Total GULP energy -594648.925876 kJ/mol
# GULP energy per Si atom -12388.519289 kJ/mol
# Density = 1.600253 g / cm^3
# Si number density = 16.039034 Si / 1000 Ang^3
#
#
#
# Elastic Constant Matrix: (Units=GPa)
#
#
# Indices 1 2 3 4 5 6 
#
# 1 89.1959 40.3518 47.2624 0.0000 0.0000 0.0000
# 2 40.3518 104.4105 47.6963 0.0000 0.0000 0.0000
# 3 47.2624 47.6963 73.5505 0.0000 0.0000 0.0000
# 4 0.0000 0.0000 0.0000 6.1134 0.0000 0.0000
# 5 0.0000 0.0000 0.0000 0.0000 26.0354 0.0000
# 6 0.0000 0.0000 0.0000 0.0000 0.0000 19.7908
#
#
#
# Elastic Compliance Matrix: (Units=1/GPa)
#
#
# Indices 1 2 3 4 5 6 
#
# 1 0.017378 -0.002295 -0.009679 0.000000 0.000000 0.000000
# 2 -0.002295 0.013912 -0.007547 0.000000 0.000000 0.000000
# 3 -0.009679 -0.007547 0.024710 0.000000 0.000000 0.000000
# 4 0.000000 0.000000 0.000000 0.163574 0.000000 0.000000
# 5 0.000000 0.000000 0.000000 0.000000 0.038409 0.000000
# 6 0.000000 0.000000 0.000000 0.000000 0.000000 0.050529
#
#
# Mechanical properties :
#
#
# Convention : Reuss Voigt Hill
#
# Bulk Modulus (GPa) = 58.96755 59.75310 59.36033
# Shear Modulus (GPa) = 14.15605 19.17767 16.66686
#
# Velocity S-wave (km/s) = 2.97408 3.46162 3.22707
# Velocity P-wave (km/s) = 6.97412 7.30156 7.13972
#
# Compressibility (1/GPa) = 0.01695848
#
# Stress axis : x y z
#
# Youngs Moduli (GPa) = 57.54453 71.87975 40.46984
#
# Poissons Ratio (x) = 0.16494 0.39169
# Poissons Ratio (y) = 0.13205 0.30544
# Poissons Ratio (z) = 0.55695 0.54250
#
# Static dielectric constant tensor:
#      x y z
#    x 3.119950 0.000000 0.000000 
#    y 0.000000 2.899840 0.000000 
#    z 0.000000 0.000000 2.761580 
# 
# 
# High freq. dielectric constant tensor:
#      x y z
#    x 1.623870 0.000000 0.000000 
#    y 0.000000 1.597480 0.000000 
#    z 0.000000 0.000000 1.591150 
# 
# From -- ./inp_files/18458.got.cif
#   From: 2010.03.12/outbox.cif.g09.slc.cpg/sg55_10_cif.got.tgz:18458.got - 2010.04.16 15:19:21.
