data_PCOD8224255
_publ_section_title
;
Structure prediction by ZEFSAII (Michael W. Deem and Ramdas Pophale) SiO2 
 PCOD8224255
Probable space group: P B A M
;
_chemical_formula_sum "Si O2"
_cell_formula_units_Z 52
_cell_length_a 12.972001
_cell_length_b 18.453405
_cell_length_c 11.365108
_cell_angle_alpha 90.000000
_cell_angle_beta 90.000000
_cell_angle_gamma 90.000000
_cell_volume 2720.552142
_symmetry_space_group_name_H-M "P B A M"
_symmetry_group_IT_number 55
_symmetry_cell_setting 'orthorhombic'
loop_
_space_group_symop_operation_xyz
x,y,z
-x,-y,z
1/2+x,1/2-y,-z
1/2-x,1/2+y,-z
-x,-y,-z
x,y,-z
1/2-x,1/2+y,z
1/2+x,1/2-y,z
loop_
_atom_site_type_symbol
_atom_site_label
_atom_site_fract_x
_atom_site_fract_y
_atom_site_fract_z
Si Si1 0.192772 0.171533 0.000000
Si Si2 0.380136 0.999832 0.363185
Si Si3 0.605763 0.281211 0.634422
Si Si4 0.598831 0.728193 0.250947
Si Si5 0.766870 0.655649 0.000000
Si Si6 0.727666 0.866707 0.249684
Si Si7 0.198529 0.356934 0.747349
Si Si8 0.456748 0.309537 0.000000
O O1 0.219471 0.256770 0.000000
O O2 0.245040 0.134092 0.112218
O O3 0.069959 0.153739 0.000000
O O4 0.366241 0.019283 0.500000
O O5 0.330894 0.921754 0.338526
O O6 0.500000 0.000000 0.327742
O O7 0.319133 0.056352 0.283103
O O8 0.630455 0.263257 0.500000
O O9 0.485486 0.295913 0.653793
O O10 0.668833 0.351857 0.675412
O O11 0.631460 0.212638 0.715263
O O12 0.645793 0.805331 0.286292
O O13 0.681666 0.663914 0.261418
O O14 0.551796 0.737245 0.119609
O O15 0.822446 0.622829 0.115321
O O16 0.643412 0.636732 0.000000
#
# Coordination Sequence:
#
# PCOD8224255 Si02
#       8
#     4   8   8   8   4   8   8   4
#     4  12  18  35  62  90 119 149 189 250 312 342
#     4  11  25  44  61  82 123 168 200 236 291 356
#     4  11  21  34  57  88 116 153 205 250 290 343
#     4  10  19  35  60  88 115 149 199 249 297 347
#     4  10  18  37  61  92 117 147 193 253 301 354
#     4  11  22  37  60  90 120 156 198 249 295 353
#     4  10  21  38  61  86 119 153 197 245 301 350
#     4  10  16  32  59  85 117 148 179 240 307 352
#
# _framework density 19.113766999999999
#
# number of rings (size 3 to 8) (size 9 to 14) (size 15 to 20)
#    0.000    1.385    6.154    1.846    0.000    5.538 
#    0.000    1.538    0.000    3.692    0.000    0.000 
#    0.000    0.000    0.000    0.000    0.000    0.000 
#
# Total GULP energy -644703.336803 kJ/mol
# GULP energy per Si atom -12398.141092 kJ/mol
# Density = 1.907026 g / cm^3
# Si number density = 19.113767 Si / 1000 Ang^3
#
#
#
# Elastic Constant Matrix: (Units=GPa)
#
#
# Indices 1 2 3 4 5 6 
#
# 1 111.3301 37.1402 46.6601 0.0000 0.0000 0.0000
# 2 37.1402 68.0171 11.3875 0.0000 0.0000 0.0000
# 3 46.6601 11.3875 96.0045 0.0000 0.0000 0.0000
# 4 0.0000 0.0000 0.0000 30.0666 0.0000 0.0000
# 5 0.0000 0.0000 0.0000 0.0000 29.3980 0.0000
# 6 0.0000 0.0000 0.0000 0.0000 0.0000 17.0155
#
#
#
# Elastic Compliance Matrix: (Units=1/GPa)
#
#
# Indices 1 2 3 4 5 6 
#
# 1 0.013574 -0.006435 -0.005834 0.000000 0.000000 0.000000
# 2 -0.006435 0.018051 0.000987 0.000000 0.000000 0.000000
# 3 -0.005834 0.000987 0.013135 0.000000 0.000000 0.000000
# 4 0.000000 0.000000 0.000000 0.033259 0.000000 0.000000
# 5 0.000000 0.000000 0.000000 0.000000 0.034016 0.000000
# 6 0.000000 0.000000 0.000000 0.000000 0.000000 0.058770
#
#
# Mechanical properties :
#
#
# Convention : Reuss Voigt Hill
#
# Bulk Modulus (GPa) = 45.05667 51.74748 48.40207
# Shear Modulus (GPa) = 24.90425 27.30696 26.10560
#
# Velocity S-wave (km/s) = 3.61355 3.78385 3.69968
# Velocity P-wave (km/s) = 6.40581 6.79869 6.60518
#
# Compressibility (1/GPa) = 0.02219427
#
# Stress axis : x y z
#
# Youngs Moduli (GPa) = 73.66855 55.39860 76.13464
#
# Poissons Ratio (x) = 0.35651 0.44417
# Poissons Ratio (y) = 0.47409 -0.07512
# Poissons Ratio (z) = 0.42979 -0.05466
#
# Static dielectric constant tensor:
#      x y z
#    x 3.769980 0.000000 0.000000 
#    y 0.000000 3.049380 0.000000 
#    z 0.000000 0.000000 3.670810 
# 
# 
# High freq. dielectric constant tensor:
#      x y z
#    x 1.757110 0.000000 0.000000 
#    y 0.000000 1.695210 0.000000 
#    z 0.000000 0.000000 1.759890 
# 
# From -- ./inp_files/14334.got.cif
#   From: 2010.03.12/outbox.cif.g09.slc.cpg/sg55_8_cif.got.tgz:14334.got - 2010.04.16 15:19:21.
