data_PCOD8224201
_publ_section_title
;
Structure prediction by ZEFSAII (Michael W. Deem and Ramdas Pophale) SiO2 
 PCOD8224201
Probable space group: P C C A
;
_chemical_formula_sum "Si O2"
_cell_formula_units_Z 40
_cell_length_a 16.369970
_cell_length_b 10.755376
_cell_length_c 9.725197
_cell_angle_alpha 90.000000
_cell_angle_beta 90.000000
_cell_angle_gamma 90.000000
_cell_volume 1712.268584
_symmetry_space_group_name_H-M "P C C A"
_symmetry_group_IT_number 54
_symmetry_cell_setting 'orthorhombic'
loop_
_space_group_symop_operation_xyz
x,y,z
1/2-x,-y,z
1/2+x,-y,1/2-z
-x,y,1/2-z
-x,-y,-z
1/2+x,y,-z
1/2-x,y,1/2+z
x,-y,1/2+z
loop_
_atom_site_type_symbol
_atom_site_label
_atom_site_fract_x
_atom_site_fract_y
_atom_site_fract_z
Si Si1 0.902865 0.353024 0.593162
Si Si2 0.295609 0.872079 0.548893
Si Si3 0.583711 0.572397 0.287591
Si Si4 0.232425 0.730492 0.794069
Si Si5 0.017439 0.111773 0.600946
O O1 0.905234 0.433285 0.452042
O O2 0.931117 0.435511 0.722559
O O3 0.810339 0.317804 0.624233
O O4 0.960827 0.232444 0.573501
O O5 0.246875 0.769366 0.637018
O O6 0.296508 0.847195 0.385919
O O7 0.387338 0.858556 0.600897
O O8 0.250000 0.000000 0.579249
O O9 0.500000 0.648022 0.250000
O O10 0.661520 0.628337 0.209461
O O11 0.000000 0.056999 0.750000
O O12 0.000000 0.000000 0.500000
#
# Coordination Sequence:
#
# PCOD8224201 Si02
#       5
#     8   8   8   8   8
#     4  12  27  52  74 119 153 209 264 324 394 474
#     4  12  27  48  76 110 156 203 263 329 390 476
#     4  12  28  47  80 109 158 204 261 321 395 470
#     4  12  26  47  77 110 158 203 264 323 398 463
#     4  12  28  49  81 114 158 203 263 329 396 473
#
# _framework density 23.360823
#
# number of rings (size 3 to 8) (size 9 to 14) (size 15 to 20)
#    0.000    0.000    4.000    4.800    5.600    2.400 
#    0.000    0.000    0.000    0.000    0.000    0.000 
#    0.000    0.000    0.000    0.000    0.000    0.000 
#
# Total GULP energy -495860.006446 kJ/mol
# GULP energy per Si atom -12396.500161 kJ/mol
# Density = 2.330765 g / cm^3
# Si number density = 23.360823 Si / 1000 Ang^3
#
#
#
# Elastic Constant Matrix: (Units=GPa)
#
#
# Indices 1 2 3 4 5 6 
#
# 1 175.5048 61.9344 21.4661 0.0000 0.0000 0.0000
# 2 61.9344 128.8243 67.7346 0.0000 0.0000 0.0000
# 3 21.4661 67.7346 150.8848 0.0000 0.0000 0.0000
# 4 0.0000 0.0000 0.0000 54.7812 0.0000 0.0000
# 5 0.0000 0.0000 0.0000 0.0000 28.7349 0.0000
# 6 0.0000 0.0000 0.0000 0.0000 0.0000 -39.8731
#
#
#
# Elastic Compliance Matrix: (Units=1/GPa)
#
#
# Indices 1 2 3 4 5 6 
#
# 1 0.006913 -0.003673 0.000666 0.000000 0.000000 0.000000
# 2 -0.003673 0.012113 -0.004915 0.000000 0.000000 0.000000
# 3 0.000666 -0.004915 0.008739 0.000000 0.000000 0.000000
# 4 0.000000 0.000000 0.000000 0.018254 0.000000 0.000000
# 5 0.000000 0.000000 0.000000 0.000000 0.034801 0.000000
# 6 0.000000 0.000000 0.000000 0.000000 0.000000 -0.025080
#
#
# Mechanical properties :
#
#
# Convention : Reuss Voigt Hill
#
# Bulk Modulus (GPa) = 83.89807 84.16489 84.03148
# Shear Modulus (GPa) = 66.17306 29.00050 47.58678
#
# Velocity S-wave (km/s) = 5.32804 3.52720 4.51825
# Velocity P-wave (km/s) = 8.59317 7.25910 7.95416
#
# Compressibility (1/GPa) = 0.01191923
#
# Stress axis : x y z
#
# Youngs Moduli (GPa) = 144.66025 82.55715 114.42531
#
# Poissons Ratio (x) = 0.30326 -0.07616
# Poissons Ratio (y) = 0.53139 0.56240
# Poissons Ratio (z) = -0.09628 0.40577
#
# Static dielectric constant tensor:
#      x y z
#    x 4.504570 0.000000 0.000000 
#    y 0.000000 4.311320 0.000000 
#    z 0.000000 0.000000 4.497070 
# 
# 
# High freq. dielectric constant tensor:
#      x y z
#    x 1.957580 0.000000 0.000000 
#    y 0.000000 1.908790 0.000000 
#    z 0.000000 0.000000 1.944720 
# 
# From -- ./inp_files/3960.got.cif
#   From: 2010.03.12/outbox.cif.g09.slc.cpg/sg54_2_cif.got.tgz:3960.got - 2010.04.16 15:00:50.
