data_PCOD8224984
_publ_section_title
;
Structure prediction by ZEFSAII (Michael W. Deem and Ramdas Pophale) SiO2 
 PCOD8224984
Probable space group: P B A M
;
_chemical_formula_sum "Si O2"
_cell_formula_units_Z 56
_cell_length_a 16.415316
_cell_length_b 22.713077
_cell_length_c 8.718229
_cell_angle_alpha 90.000000
_cell_angle_beta 90.000000
_cell_angle_gamma 90.000000
_cell_volume 3250.524869
_symmetry_space_group_name_H-M "P B A M"
_symmetry_group_IT_number 55
_symmetry_cell_setting 'orthorhombic'
loop_
_space_group_symop_operation_xyz
x,y,z
-x,-y,z
1/2+x,1/2-y,-z
1/2-x,1/2+y,-z
-x,-y,-z
x,y,-z
1/2-x,1/2+y,z
1/2+x,1/2-y,z
loop_
_atom_site_type_symbol
_atom_site_label
_atom_site_fract_x
_atom_site_fract_y
_atom_site_fract_z
Si Si1 0.320485 0.595916 0.818286
Si Si2 0.986766 0.860604 0.680134
Si Si3 0.848156 0.353290 0.819699
Si Si4 0.645166 0.611535 0.173873
Si Si5 0.916584 0.232772 0.824821
Si Si6 0.912294 0.477550 0.180573
Si Si7 0.750241 0.518241 0.320109
O O1 0.398366 0.622337 0.737216
O O2 0.243350 0.634561 0.761257
O O3 0.305869 0.528944 0.767335
O O4 0.331424 0.597767 0.000000
O O5 0.991842 0.868235 0.500000
O O6 0.054898 0.903286 0.757931
O O7 0.006141 0.792618 0.729089
O O8 0.884440 0.293265 0.747195
O O9 0.905209 0.408603 0.775761
O O10 0.844842 0.344270 0.000000
O O11 0.655268 0.682999 0.180170
O O12 0.715610 0.582327 0.275951
O O13 0.650656 0.588017 0.000000
O O14 0.945276 0.243207 0.000000
O O15 0.843975 0.515065 0.267895
O O16 0.000000 0.500000 0.235515
O O17 0.898836 0.487019 0.000000
O O18 0.744261 0.507540 0.500000
#
# Coordination Sequence:
#
# PCOD8224984 Si02
#       7
#     8   8   8   8   8   8   8
#     4  10  19  33  53  76 102 134 174 213 251 302
#     4  10  19  32  49  74 106 134 165 207 256 307
#     4   8  15  31  55  77  97 128 173 217 251 291
#     4   9  18  33  53  73  99 134 171 207 248 298
#     4   8  16  32  52  71  95 131 172 210 251 297
#     4   9  18  34  56  79 103 134 175 217 255 301
#     4  11  21  33  51  76 107 136 166 209 262 311
#
# _framework density 17.227988
#
# number of rings (size 3 to 8) (size 9 to 14) (size 15 to 20)
#    0.857    1.857    0.000    3.857    0.000    0.857 
#    0.000    7.857    0.000    8.571    0.000    0.000 
#    0.000    0.000    0.000    0.000    0.000    0.000 
#
# Total GULP energy -693980.350539 kJ/mol
# GULP energy per Si atom -12392.506260 kJ/mol
# Density = 1.718878 g / cm^3
# Si number density = 17.227988 Si / 1000 Ang^3
#
#
#
# Elastic Constant Matrix: (Units=GPa)
#
#
# Indices 1 2 3 4 5 6 
#
# 1 109.5391 56.4210 26.1368 0.0000 0.0000 0.0000
# 2 56.4210 82.5563 14.0376 0.0000 0.0000 0.0000
# 3 26.1368 14.0376 61.9995 0.0000 0.0000 0.0000
# 4 0.0000 0.0000 0.0000 10.2677 0.0000 0.0000
# 5 0.0000 0.0000 0.0000 0.0000 18.0462 0.0000
# 6 0.0000 0.0000 0.0000 0.0000 0.0000 23.1729
#
#
#
# Elastic Compliance Matrix: (Units=1/GPa)
#
#
# Indices 1 2 3 4 5 6 
#
# 1 0.015063 -0.009584 -0.004180 0.000000 0.000000 0.000000
# 2 -0.009584 0.018695 -0.000193 0.000000 0.000000 0.000000
# 3 -0.004180 -0.000193 0.017935 0.000000 0.000000 0.000000
# 4 0.000000 0.000000 0.000000 0.097393 0.000000 0.000000
# 5 0.000000 0.000000 0.000000 0.000000 0.055413 0.000000
# 6 0.000000 0.000000 0.000000 0.000000 0.000000 0.043154
#
#
# Mechanical properties :
#
#
# Convention : Reuss Voigt Hill
#
# Bulk Modulus (GPa) = 42.05169 49.69842 45.87506
# Shear Modulus (GPa) = 17.63715 20.79733 19.21724
#
# Velocity S-wave (km/s) = 3.20308 3.47822 3.34348
# Velocity P-wave (km/s) = 6.17589 6.71125 6.44912
#
# Compressibility (1/GPa) = 0.02378025
#
# Stress axis : x y z
#
# Youngs Moduli (GPa) = 66.38875 53.48925 55.75691
#
# Poissons Ratio (x) = 0.51261 0.23307
# Poissons Ratio (y) = 0.63624 0.01075
# Poissons Ratio (z) = 0.27751 0.01032
#
# Static dielectric constant tensor:
#      x y z
#    x 3.148000 0.000000 0.000000 
#    y 0.000000 3.269530 0.000000 
#    z 0.000000 0.000000 3.071420 
# 
# 
# High freq. dielectric constant tensor:
#      x y z
#    x 1.651770 0.000000 0.000000 
#    y 0.000000 1.653850 0.000000 
#    z 0.000000 0.000000 1.658630 
# 
# From -- ./inp_files/8102.got.cif
#   From: 2010.03.12/outbox.cif.g09.slc.cpg/sg55_5_cif.got.tgz:8102.got - 2010.04.16 15:19:21.
