data_PCOD8224065
_publ_section_title
;
Structure prediction by ZEFSAII (Michael W. Deem and Ramdas Pophale) SiO2 
 PCOD8224065
Probable space group: P C C A
;
_chemical_formula_sum "Si O2"
_cell_formula_units_Z 36
_cell_length_a 16.137204
_cell_length_b 5.194029
_cell_length_c 19.143199
_cell_angle_alpha 90.000000
_cell_angle_beta 90.000000
_cell_angle_gamma 90.000000
_cell_volume 1604.527531
_symmetry_space_group_name_H-M "P C C A"
_symmetry_group_IT_number 54
_symmetry_cell_setting 'orthorhombic'
loop_
_space_group_symop_operation_xyz
x,y,z
1/2-x,-y,z
1/2+x,-y,1/2-z
-x,y,1/2-z
-x,-y,-z
1/2+x,y,-z
1/2-x,y,1/2+z
x,-y,1/2+z
loop_
_atom_site_type_symbol
_atom_site_label
_atom_site_fract_x
_atom_site_fract_y
_atom_site_fract_z
Si Si1 0.991956 0.843200 0.327376
Si Si2 0.250000 0.500000 0.233834
Si Si3 0.324791 0.802039 0.856761
Si Si4 0.199892 0.264448 0.009193
Si Si5 0.104819 0.660225 0.638997
O O1 0.941394 0.616395 0.366901
O O2 0.000000 0.732651 0.250000
O O3 0.082500 0.912511 0.357887
O O4 0.948361 0.118227 0.325363
O O5 0.186717 0.646088 0.285335
O O6 0.309849 0.663904 0.183820
O O7 0.250000 0.000000 0.858671
O O8 0.322144 0.647223 0.930056
O O9 0.250000 0.500000 0.043508
O O10 0.120349 0.242395 0.059540
O O11 0.250000 0.000000 0.010589
#
# Coordination Sequence:
#
# PCOD8224065 Si02
#       5
#     8   4   8   8   8
#     4  12  26  45  68 107 141 177 234 294 341 409
#     4  12  24  44  74 100 134 194 228 284 354 426
#     4  11  26  45  73  99 141 187 236 284 356 417
#     4  11  24  45  71 103 140 185 236 287 341 421
#     4  12  27  43  73 103 140 181 232 287 350 412
#
# _framework density 22.436513000000001
#
# number of rings (size 3 to 8) (size 9 to 14) (size 15 to 20)
#    0.000    0.444    4.444    3.333    3.111    1.778 
#    0.000    0.000    0.000    0.000    0.000    0.000 
#    0.000    0.000    0.000    0.000    0.000    0.000 
#
# Total GULP energy -446085.277391 kJ/mol
# GULP energy per Si atom -12391.257705 kJ/mol
# Density = 2.238545 g / cm^3
# Si number density = 22.436513 Si / 1000 Ang^3
#
#
#
# Elastic Constant Matrix: (Units=GPa)
#
#
# Indices 1 2 3 4 5 6 
#
# 1 151.1138 49.2632 50.7773 0.0000 0.0000 0.0000
# 2 49.2632 117.1576 20.4204 0.0000 0.0000 0.0000
# 3 50.7773 20.4204 124.9397 0.0000 0.0000 0.0000
# 4 0.0000 0.0000 0.0000 -18.6545 0.0000 0.0000
# 5 0.0000 0.0000 0.0000 0.0000 20.5972 0.0000
# 6 0.0000 0.0000 0.0000 0.0000 0.0000 42.1178
#
#
#
# Elastic Compliance Matrix: (Units=1/GPa)
#
#
# Indices 1 2 3 4 5 6 
#
# 1 0.008640 -0.003110 -0.003003 0.000000 0.000000 0.000000
# 2 -0.003110 0.009905 -0.000355 0.000000 0.000000 0.000000
# 3 -0.003003 -0.000355 0.009283 0.000000 0.000000 0.000000
# 4 0.000000 0.000000 0.000000 -0.053606 0.000000 0.000000
# 5 0.000000 0.000000 0.000000 0.000000 0.048550 0.000000
# 6 0.000000 0.000000 0.000000 0.000000 0.000000 0.023743
#
#
# Mechanical properties :
#
#
# Convention : Reuss Voigt Hill
#
# Bulk Modulus (GPa) = 67.15152 70.45923 68.80537
# Shear Modulus (GPa) = 77.62150 26.99543 52.30847
#
# Velocity S-wave (km/s) = 5.88822 3.47247 4.83369
# Velocity P-wave (km/s) = 8.73057 6.89561 7.86677
#
# Compressibility (1/GPa) = 0.01489170
#
# Stress axis : x y z
#
# Youngs Moduli (GPa) = 115.73409 100.95918 107.72952
#
# Poissons Ratio (x) = 0.31396 0.32355
# Poissons Ratio (y) = 0.35990 0.03825
# Poissons Ratio (z) = 0.34759 0.03585
#
# Static dielectric constant tensor:
#      x y z
#    x 4.182000 0.000000 0.000000 
#    y 0.000000 4.182080 0.000000 
#    z 0.000000 0.000000 4.462040 
# 
# 
# High freq. dielectric constant tensor:
#      x y z
#    x 1.892320 0.000000 0.000000 
#    y 0.000000 1.872400 0.000000 
#    z 0.000000 0.000000 1.903010 
# 
# From -- ./inp_files/21333.got.cif
#   From: 2010.03.12/outbox.cif.g09.slc.cpg/sg54_11_cif.got.tgz:21333.got - 2010.04.16 15:00:50.
