data_PCOD8224773
_publ_section_title
;
Structure prediction by ZEFSAII (Michael W. Deem and Ramdas Pophale) SiO2 
 PCOD8224773
Probable space group: P B A M
;
_chemical_formula_sum "Si O2"
_cell_formula_units_Z 60
_cell_length_a 5.127625
_cell_length_b 26.487440
_cell_length_c 27.270578
_cell_angle_alpha 90.000000
_cell_angle_beta 90.000000
_cell_angle_gamma 90.000000
_cell_volume 3703.826078
_symmetry_space_group_name_H-M "P B A M"
_symmetry_group_IT_number 55
_symmetry_cell_setting 'orthorhombic'
loop_
_space_group_symop_operation_xyz
x,y,z
-x,-y,z
1/2+x,1/2-y,-z
1/2-x,1/2+y,-z
-x,-y,-z
x,y,-z
1/2-x,1/2+y,z
1/2+x,1/2-y,z
loop_
_atom_site_type_symbol
_atom_site_label
_atom_site_fract_x
_atom_site_fract_y
_atom_site_fract_z
Si Si1 0.040293 0.217915 0.056251
Si Si2 0.517505 0.383239 0.114596
Si Si3 0.533693 0.716010 0.292803
Si Si4 0.988862 0.556632 0.768712
Si Si5 0.448724 0.717951 0.601041
Si Si6 0.513018 0.382465 0.769018
Si Si7 0.580562 0.716859 0.500000
Si Si8 0.983786 0.556372 0.885206
O O1 0.824534 0.260121 0.068031
O O2 0.987252 0.171148 0.091069
O O3 0.018046 0.200169 0.000000
O O4 0.515322 0.376429 0.172756
O O5 0.281528 0.418283 0.096625
O O6 0.778444 0.409946 0.095142
O O7 0.816842 0.740742 0.285750
O O8 0.506808 0.690282 0.347171
O O9 0.497633 0.673384 0.252462
O O10 0.729636 0.584464 0.750447
O O11 0.996099 0.553432 0.826959
O O12 0.000000 0.500000 0.746757
O O13 0.232371 0.588849 0.749331
O O14 0.645632 0.766253 0.599645
O O15 0.518252 0.686158 0.550986
O O16 0.879362 0.735253 0.500000
O O17 0.000000 0.500000 0.907308
#
# Coordination Sequence:
#
# PCOD8224773 Si02
#       8
#     8   8   8   8   8   8   4   8
#     4  10  21  36  52  68  87 114 147 181 213 239
#     4  10  19  31  49  69  88 112 143 175 207 248
#     4  10  19  29  39  56  87 121 144 166 202 248
#     4   9  17  30  46  64  85 109 141 179 213 246
#     4   8  14  23  35  50  71 103 139 170 201 235
#     4  10  19  29  44  66  87 113 143 170 208 252
#     4   8  12  20  34  50  66  92 137 178 199 228
#     4   9  17  30  49  71  92 112 135 167 210 258
#
# _framework density 16.199465
#
# number of rings (size 3 to 8) (size 9 to 14) (size 15 to 20)
#    0.000    2.667    0.000    2.400    0.000    4.267 
#    0.000    0.000    0.000    2.400    0.000    0.000 
#    0.000    0.000    0.000    3.600    0.000    1.333 
#
# Total GULP energy -743606.431345 kJ/mol
# GULP energy per Si atom -12393.440522 kJ/mol
# Density = 1.616259 g / cm^3
# Si number density = 16.199465 Si / 1000 Ang^3
#
#
#
# Elastic Constant Matrix: (Units=GPa)
#
#
# Indices 1 2 3 4 5 6 
#
# 1 82.9174 12.6341 20.7131 0.0000 0.0000 0.0000
# 2 12.6341 71.4104 33.8738 0.0000 0.0000 0.0000
# 3 20.7131 33.8738 43.0011 0.0000 0.0000 0.0000
# 4 0.0000 0.0000 0.0000 -0.6630 0.0000 0.0000
# 5 0.0000 0.0000 0.0000 0.0000 12.2895 0.0000
# 6 0.0000 0.0000 0.0000 0.0000 0.0000 22.4842
#
#
#
# Elastic Compliance Matrix: (Units=1/GPa)
#
#
# Indices 1 2 3 4 5 6 
#
# 1 0.013767 0.001133 -0.007524 0.000000 0.000000 0.000000
# 2 0.001133 0.022451 -0.018232 0.000000 0.000000 0.000000
# 3 -0.007524 -0.018232 0.041242 0.000000 0.000000 0.000000
# 4 0.000000 0.000000 0.000000 -1.508226 0.000000 0.000000
# 5 0.000000 0.000000 0.000000 0.000000 0.081370 0.000000
# 6 0.000000 0.000000 0.000000 0.000000 0.000000 0.044476
#
#
# Mechanical properties :
#
#
# Convention : Reuss Voigt Hill
#
# Bulk Modulus (GPa) = 35.44261 36.86344 36.15302
# Shear Modulus (GPa) = -4.01197 15.49599 5.74201
#
# Velocity S-wave (km/s) = -1.57543 3.09621 1.88474
# Velocity P-wave (km/s) = 4.31475 5.96552 5.20598
#
# Compressibility (1/GPa) = 0.02821463
#
# Stress axis : x y z
#
# Youngs Moduli (GPa) = 72.63691 44.54063 24.24728
#
# Poissons Ratio (x) = -0.05049 0.18245
# Poissons Ratio (y) = -0.08233 0.44208
# Poissons Ratio (z) = 0.54655 0.81206
#
# Static dielectric constant tensor:
#      x y z
#    x 3.380540 0.000000 0.000000 
#    y 0.000000 2.806100 0.000000 
#    z 0.000000 0.000000 3.084920 
# 
# 
# High freq. dielectric constant tensor:
#      x y z
#    x 1.651820 0.000000 0.000000 
#    y 0.000000 1.585380 0.000000 
#    z 0.000000 0.000000 1.598500 
# 
# From -- ./inp_files/23348.got.cif
#   From: 2010.03.12/outbox.cif.g09.slc.cpg/sg55_12_cif.got.tgz:23348.got - 2010.04.16 15:19:21.
