data_PCOD8224750
_publ_section_title
;
Structure prediction by ZEFSAII (Michael W. Deem and Ramdas Pophale) SiO2 
 PCOD8224750
Probable space group: P B A M
;
_chemical_formula_sum "Si O2"
_cell_formula_units_Z 52
_cell_length_a 12.632495
_cell_length_b 27.531476
_cell_length_c 7.652750
_cell_angle_alpha 90.000000
_cell_angle_beta 90.000000
_cell_angle_gamma 90.000000
_cell_volume 2661.559358
_symmetry_space_group_name_H-M "P B A M"
_symmetry_group_IT_number 55
_symmetry_cell_setting 'orthorhombic'
loop_
_space_group_symop_operation_xyz
x,y,z
-x,-y,z
1/2+x,1/2-y,-z
1/2-x,1/2+y,-z
-x,-y,-z
x,y,-z
1/2-x,1/2+y,z
1/2+x,1/2-y,z
loop_
_atom_site_type_symbol
_atom_site_label
_atom_site_fract_x
_atom_site_fract_y
_atom_site_fract_z
Si Si1 0.107762 0.685454 0.000000
Si Si2 0.336799 0.663084 0.000000
Si Si3 0.322697 0.931362 0.296190
Si Si4 0.622973 0.632582 0.296593
Si Si5 0.046440 0.613004 0.301388
Si Si6 0.602662 0.402993 0.695383
Si Si7 0.438314 0.296466 0.000000
Si Si8 0.718998 0.961916 0.197255
O O1 0.232636 0.695129 0.000000
O O2 0.072834 0.657292 0.825888
O O3 0.063623 0.739096 0.000000
O O4 0.333477 0.631685 0.824065
O O5 0.436952 0.697106 0.000000
O O6 0.317785 0.942859 0.500000
O O7 0.228271 0.895525 0.239964
O O8 0.433330 0.907905 0.240298
O O9 0.310261 0.981851 0.196726
O O10 0.627347 0.648799 0.500000
O O11 0.522817 0.596337 0.260516
O O12 0.613038 0.680102 0.174637
O O13 0.039438 0.632833 0.500000
O O14 0.132088 0.569789 0.299067
O O15 0.617896 0.383121 0.500000
O O16 0.662670 0.454870 0.718387
O O17 0.719782 0.942527 0.000000
#
# Coordination Sequence:
#
# PCOD8224750 Si02
#       8
#     4   4   8   8   8   8   4   8
#     4  12  24  40  63  92 114 150 201 251 299 357
#     4  10  20  40  56  87 116 144 195 238 296 348
#     4  10  23  39  58  87 125 162 198 238 292 358
#     4   9  21  41  61  85 117 157 198 243 299 355
#     4  11  23  40  60  85 122 158 198 246 293 349
#     4  10  18  35  61  82 115 156 195 239 281 336
#     4  10  24  40  64  88 117 151 192 253 307 356
#     4  12  22  35  58  91 123 160 202 241 287 354
#
# _framework density 19.537419
#
# number of rings (size 3 to 8) (size 9 to 14) (size 15 to 20)
#    0.000    1.538    3.077    1.846    2.154    4.308 
#    0.000    3.077    0.000    0.000    0.000    0.000 
#    0.000    0.000    0.000    0.000    0.000    0.000 
#
# Total GULP energy -644707.978106 kJ/mol
# GULP energy per Si atom -12398.230348 kJ/mol
# Density = 1.949295 g / cm^3
# Si number density = 19.537419 Si / 1000 Ang^3
#
#
#
# Elastic Constant Matrix: (Units=GPa)
#
#
# Indices 1 2 3 4 5 6 
#
# 1 84.6459 43.1656 29.6880 0.0000 0.0000 0.0000
# 2 43.1656 119.1360 45.7722 0.0000 0.0000 0.0000
# 3 29.6880 45.7722 106.5055 0.0000 0.0000 0.0000
# 4 0.0000 0.0000 0.0000 20.1625 0.0000 0.0000
# 5 0.0000 0.0000 0.0000 0.0000 24.4267 0.0000
# 6 0.0000 0.0000 0.0000 0.0000 0.0000 22.2772
#
#
#
# Elastic Compliance Matrix: (Units=1/GPa)
#
#
# Indices 1 2 3 4 5 6 
#
# 1 0.014909 -0.004558 -0.002197 0.000000 0.000000 0.000000
# 2 -0.004558 0.011447 -0.003649 0.000000 0.000000 0.000000
# 3 -0.002197 -0.003649 0.011570 0.000000 0.000000 0.000000
# 4 0.000000 0.000000 0.000000 0.049597 0.000000 0.000000
# 5 0.000000 0.000000 0.000000 0.000000 0.040939 0.000000
# 6 0.000000 0.000000 0.000000 0.000000 0.000000 0.044889
#
#
# Mechanical properties :
#
#
# Convention : Reuss Voigt Hill
#
# Bulk Modulus (GPa) = 58.41785 60.83766 59.62775
# Shear Modulus (GPa) = 25.01699 26.15070 25.58384
#
# Velocity S-wave (km/s) = 3.58224 3.66251 3.62260
# Velocity P-wave (km/s) = 6.86115 7.00657 6.93424
#
# Compressibility (1/GPa) = 0.01711806
#
# Stress axis : x y z
#
# Youngs Moduli (GPa) = 67.07500 87.35837 86.43148
#
# Poissons Ratio (x) = 0.39815 0.18989
# Poissons Ratio (y) = 0.30570 0.31540
# Poissons Ratio (z) = 0.14737 0.31878
#
# Static dielectric constant tensor:
#      x y z
#    x 3.832130 0.000000 0.000000 
#    y 0.000000 3.189720 0.000000 
#    z 0.000000 0.000000 3.690000 
# 
# 
# High freq. dielectric constant tensor:
#      x y z
#    x 1.779400 0.000000 0.000000 
#    y 0.000000 1.724380 0.000000 
#    z 0.000000 0.000000 1.778120 
# 
# From -- ./inp_files/4275.got.cif
#   From: 2010.03.12/outbox.cif.g09.slc.cpg/sg55_3_cif.got.tgz:4275.got - 2010.04.16 15:19:21.
