data_PCOD8224299
_publ_section_title
;
Structure prediction by ZEFSAII (Michael W. Deem and Ramdas Pophale) SiO2 
 PCOD8224299
Probable space group: P B A M
;
_chemical_formula_sum "Si O2"
_cell_formula_units_Z 64
_cell_length_a 23.413876
_cell_length_b 18.873125
_cell_length_c 9.155259
_cell_angle_alpha 90.000000
_cell_angle_beta 90.000000
_cell_angle_gamma 90.000000
_cell_volume 4045.644943
_symmetry_space_group_name_H-M "P B A M"
_symmetry_group_IT_number 55
_symmetry_cell_setting 'orthorhombic'
loop_
_space_group_symop_operation_xyz
x,y,z
-x,-y,z
1/2+x,1/2-y,-z
1/2-x,1/2+y,-z
-x,-y,-z
x,y,-z
1/2-x,1/2+y,z
1/2+x,1/2-y,z
loop_
_atom_site_type_symbol
_atom_site_label
_atom_site_fract_x
_atom_site_fract_y
_atom_site_fract_z
Si Si1 0.566493 0.647580 0.173098
Si Si2 0.724393 0.846344 0.166416
Si Si3 0.836568 0.759410 0.831438
Si Si4 0.746153 0.503492 0.829088
Si Si5 0.662905 0.729111 0.671213
Si Si6 0.882920 0.999003 0.826594
Si Si7 0.062254 0.143648 0.826764
Si Si8 0.225641 0.359099 0.328580
O O1 0.604913 0.706384 0.250447
O O2 0.584940 0.569565 0.225932
O O3 0.501716 0.660164 0.226261
O O4 0.573473 0.655751 0.000000
O O5 0.788746 0.819451 0.192160
O O6 0.680186 0.806872 0.272222
O O7 0.722194 0.929542 0.202174
O O8 0.705864 0.831463 0.000000
O O9 0.896331 0.792667 0.776640
O O10 0.824227 0.690388 0.735064
O O11 0.839510 0.736013 0.000000
O O12 0.681716 0.499879 0.767538
O O13 0.780334 0.563949 0.743229
O O14 0.746103 0.522129 0.000000
O O15 0.652340 0.733028 0.500000
O O16 0.712837 0.673828 0.712716
O O17 0.916105 0.931206 0.760393
O O18 0.882144 0.993883 0.000000
O O19 0.063908 0.136767 0.000000
O O20 0.216849 0.365432 0.500000
#
# Coordination Sequence:
#
# PCOD8224299 Si02
#       8
#     8   8   8   8   8   8   8   8
#     4  10  18  28  47  69  93 125 160 193 226 268
#     4   9  17  29  48  69  90 116 152 194 233 275
#     4   9  16  29  47  66  90 119 153 193 231 267
#     4  10  17  28  48  72  94 120 152 188 232 278
#     4  10  20  32  44  62  92 126 159 193 228 268
#     4   9  15  25  42  68  97 123 154 188 222 264
#     4   9  16  27  45  71  95 120 157 197 230 264
#     4  10  20  31  44  64  92 123 156 191 229 274
#
# _framework density 15.819481
#
# number of rings (size 3 to 8) (size 9 to 14) (size 15 to 20)
#    0.000    2.500    2.500    1.125    0.000    3.000 
#    0.000    0.625    0.000    3.000    0.000    0.875 
#    0.000    7.000    0.000    0.000    0.000    0.000 
#
# Total GULP energy -793638.658754 kJ/mol
# GULP energy per Si atom -12400.604043 kJ/mol
# Density = 1.578347 g / cm^3
# Si number density = 15.819481 Si / 1000 Ang^3
#
#
#
# Elastic Constant Matrix: (Units=GPa)
#
#
# Indices 1 2 3 4 5 6 
#
# 1 100.3571 62.1266 33.7603 0.0000 0.0000 0.0000
# 2 62.1266 116.2620 47.5617 0.0000 0.0000 0.0000
# 3 33.7603 47.5617 49.8501 0.0000 0.0000 0.0000
# 4 0.0000 0.0000 0.0000 12.2038 0.0000 0.0000
# 5 0.0000 0.0000 0.0000 0.0000 12.2717 0.0000
# 6 0.0000 0.0000 0.0000 0.0000 0.0000 24.4245
#
#
#
# Elastic Compliance Matrix: (Units=1/GPa)
#
#
# Indices 1 2 3 4 5 6 
#
# 1 0.015416 -0.006506 -0.004233 0.000000 0.000000 0.000000
# 2 -0.006506 0.016854 -0.011674 0.000000 0.000000 0.000000
# 3 -0.004233 -0.011674 0.034064 0.000000 0.000000 0.000000
# 4 0.000000 0.000000 0.000000 0.081942 0.000000 0.000000
# 5 0.000000 0.000000 0.000000 0.000000 0.081488 0.000000
# 6 0.000000 0.000000 0.000000 0.000000 0.000000 0.040943
#
#
# Mechanical properties :
#
#
# Convention : Reuss Voigt Hill
#
# Bulk Modulus (GPa) = 46.49252 61.48517 53.98885
# Shear Modulus (GPa) = 15.49421 17.98138 16.73779
#
# Velocity S-wave (km/s) = 3.13299 3.37510 3.25630
# Velocity P-wave (km/s) = 6.52233 7.35795 6.95271
#
# Compressibility (1/GPa) = 0.02150883
#
# Stress axis : x y z
#
# Youngs Moduli (GPa) = 64.86746 59.33472 29.35615
#
# Poissons Ratio (x) = 0.38605 0.12426
# Poissons Ratio (y) = 0.42204 0.34269
# Poissons Ratio (z) = 0.27457 0.69265
#
# Static dielectric constant tensor:
#      x y z
#    x 2.938570 0.000000 0.000000 
#    y 0.000000 2.983750 0.000000 
#    z 0.000000 0.000000 2.737170 
# 
# 
# High freq. dielectric constant tensor:
#      x y z
#    x 1.585020 0.000000 0.000000 
#    y 0.000000 1.603910 0.000000 
#    z 0.000000 0.000000 1.583300 
# 
# From -- ./inp_files/8081.got.cif
#   From: 2010.03.12/outbox.cif.g09.slc.cpg/sg55_5_cif.got.tgz:8081.got - 2010.04.16 15:19:21.
