data_PCOD8224237
_publ_section_title
;
Structure prediction by ZEFSAII (Michael W. Deem and Ramdas Pophale) SiO2 
 PCOD8224237
Probable space group: P B A M
;
_chemical_formula_sum "Si O2"
_cell_formula_units_Z 48
_cell_length_a 12.780506
_cell_length_b 5.316262
_cell_length_c 27.619494
_cell_angle_alpha 90.000000
_cell_angle_beta 90.000000
_cell_angle_gamma 90.000000
_cell_volume 1876.593218
_symmetry_space_group_name_H-M "P B A M"
_symmetry_group_IT_number 55
_symmetry_cell_setting 'orthorhombic'
loop_
_space_group_symop_operation_xyz
x,y,z
-x,-y,z
1/2+x,1/2-y,-z
1/2-x,1/2+y,-z
-x,-y,-z
x,y,-z
1/2-x,1/2+y,z
1/2+x,1/2-y,z
loop_
_atom_site_type_symbol
_atom_site_label
_atom_site_fract_x
_atom_site_fract_y
_atom_site_fract_z
Si Si1 0.624429 0.262587 0.806154
Si Si2 0.360709 0.646038 0.305793
Si Si3 0.893475 0.262989 0.846737
Si Si4 0.816636 0.271189 0.552704
Si Si5 0.624865 0.853736 0.344979
Si Si6 0.683188 0.834684 0.053453
O O1 0.650199 0.289117 0.750085
O O2 0.669718 0.506458 0.834606
O O3 0.502253 0.248588 0.818919
O O4 0.673041 0.998219 0.824916
O O5 0.420789 0.379120 0.313252
O O6 0.247848 0.606319 0.331188
O O7 0.426158 0.873962 0.331674
O O8 0.904759 0.297471 0.904912
O O9 0.873919 0.291921 0.500000
O O10 0.733166 0.495485 0.556863
O O11 0.894763 0.300267 0.598036
O O12 0.767374 0.611272 0.059623
O O13 0.630932 0.813660 0.000000
#
# Coordination Sequence:
#
# PCOD8224237 Si02
#       6
#     8   8   8   8   8   8
#     4  10  21  37  55  75 111 147 184 223 260 309
#     4  10  18  30  45  66  98 142 177 219 263 307
#     4  10  21  40  57  80 110 143 179 224 261 316
#     4  10  16  25  41  61  92 142 178 217 279 327
#     4  10  17  30  43  68 105 136 181 226 269 318
#     4  10  21  40  63  88 114 140 171 217 272 325
#
# _framework density 25.578264000000001
#
# number of rings (size 3 to 8) (size 9 to 14) (size 15 to 20)
#    0.000    2.000    3.333    2.000    0.000    0.000 
#   18.000    3.333    0.000    0.000    0.000    0.000 
#    0.000    0.000    0.000  102.000    0.000    0.000 
#
# Total GULP energy -594644.528189 kJ/mol
# GULP energy per Si atom -12388.427671 kJ/mol
# Density = 2.552005 g / cm^3
# Si number density = 25.578264 Si / 1000 Ang^3
#
#
#
# Elastic Constant Matrix: (Units=GPa)
#
#
# Indices 1 2 3 4 5 6 
#
# 1 44.8091 -7.0715 -1.3697 0.0000 0.0000 0.0000
# 2 -7.0715 244.3932 41.0558 0.0000 0.0000 0.0000
# 3 -1.3697 41.0558 207.2583 0.0000 0.0000 0.0000
# 4 0.0000 0.0000 0.0000 70.5729 0.0000 0.0000
# 5 0.0000 0.0000 0.0000 0.0000 22.7332 0.0000
# 6 0.0000 0.0000 0.0000 0.0000 0.0000 -31.2520
#
#
#
# Elastic Compliance Matrix: (Units=1/GPa)
#
#
# Indices 1 2 3 4 5 6 
#
# 1 0.022419 0.000645 0.000020 0.000000 0.000000 0.000000
# 2 0.000645 0.004251 -0.000838 0.000000 0.000000 0.000000
# 3 0.000020 -0.000838 0.004991 0.000000 0.000000 0.000000
# 4 0.000000 0.000000 0.000000 0.014170 0.000000 0.000000
# 5 0.000000 0.000000 0.000000 0.000000 0.043988 0.000000
# 6 0.000000 0.000000 0.000000 0.000000 0.000000 -0.031998
#
#
# Mechanical properties :
#
#
# Convention : Reuss Voigt Hill
#
# Bulk Modulus (GPa) = 31.93146 62.40999 47.17073
# Shear Modulus (GPa) = 72.88074 43.33390 58.10732
#
# Velocity S-wave (km/s) = 5.34370 4.12049 4.77145
# Velocity P-wave (km/s) = 7.11227 6.86226 6.98838
#
# Compressibility (1/GPa) = 0.03131708
#
# Stress axis : x y z
#
# Youngs Moduli (GPa) = 44.60432 235.22828 200.36059
#
# Poissons Ratio (x) = -0.15179 -0.00407
# Poissons Ratio (y) = -0.02878 0.16787
# Poissons Ratio (z) = -0.00091 0.19709
#
# Static dielectric constant tensor:
#      x y z
#    x 4.016910 0.000000 0.000000 
#    y 0.000000 9.505270 0.000000 
#    z 0.000000 0.000000 4.888080 
# 
# 
# High freq. dielectric constant tensor:
#      x y z
#    x 1.992100 0.000000 0.000000 
#    y 0.000000 2.074150 0.000000 
#    z 0.000000 0.000000 2.026420 
# 
# From -- ./inp_files/23643.got.cif
#   From: 2010.03.12/outbox.cif.g09.slc.cpg/sg55_12_cif.got.tgz:23643.got - 2010.04.16 15:19:21.
