data_PCOD8224226
_publ_section_title
;
Structure prediction by ZEFSAII (Michael W. Deem and Ramdas Pophale) SiO2 
 PCOD8224226
Probable space group: P B A M
;
_chemical_formula_sum "Si O2"
_cell_formula_units_Z 56
_cell_length_a 17.179881
_cell_length_b 5.314912
_cell_length_c 29.488233
_cell_angle_alpha 90.000000
_cell_angle_beta 90.000000
_cell_angle_gamma 90.000000
_cell_volume 2692.557453
_symmetry_space_group_name_H-M "P B A M"
_symmetry_group_IT_number 55
_symmetry_cell_setting 'orthorhombic'
loop_
_space_group_symop_operation_xyz
x,y,z
-x,-y,z
1/2+x,1/2-y,-z
1/2-x,1/2+y,-z
-x,-y,-z
x,y,-z
1/2-x,1/2+y,z
1/2+x,1/2-y,z
loop_
_atom_site_type_symbol
_atom_site_label
_atom_site_fract_x
_atom_site_fract_y
_atom_site_fract_z
Si Si1 0.330521 0.734819 0.052995
Si Si2 0.157116 0.734849 0.090197
Si Si3 0.799904 0.264745 0.286762
Si Si4 0.535047 0.750031 0.676603
Si Si5 0.469708 0.750005 0.424393
Si Si6 0.297747 0.275988 0.814317
Si Si7 0.703551 0.248817 0.553244
O O1 0.249752 0.736359 0.080397
O O2 0.379216 0.484961 0.066883
O O3 0.379457 0.982860 0.067858
O O4 0.312130 0.738839 0.000000
O O5 0.141277 0.736298 0.144471
O O6 0.755740 0.526811 0.295782
O O7 0.871750 0.249986 0.321049
O O8 0.835067 0.256532 0.235560
O O9 0.500000 0.500000 0.700605
O O10 0.510710 0.749945 0.624335
O O11 0.500000 0.000000 0.700642
O O12 0.500000 0.500000 0.450714
O O13 0.376907 0.750040 0.419469
O O14 0.500000 0.000000 0.450716
O O15 0.267507 0.560776 0.819286
O O16 0.684819 0.249146 0.500000
O O17 0.750325 0.498186 0.567524
#
# Coordination Sequence:
#
# PCOD8224226 Si02
#       7
#     8   8   8   8   8   8   8
#     4  10  16  20  29  45  72 112 159 190 226 292
#     4  10  14  22  31  45  72 105 149 198 230 284
#     4  10  21  35  57  81 105 134 181 231 273 330
#     4  10  21  40  58  80 114 147 183 226 282 342
#     4  10  21  38  58  85 116 153 192 228 277 339
#     4  10  16  27  41  61  85 116 154 210 255 302
#     4  10  21  38  60  87 120 153 192 239 281 323
#
# _framework density 20.798071
#
# number of rings (size 3 to 8) (size 9 to 14) (size 15 to 20)
#    0.000    2.000    2.857    3.857    0.000    0.571 
#    0.000   17.143    0.000    0.000    0.000    0.000 
#    0.000    0.000    0.000    0.000    0.000   24.286 
#
# Total GULP energy -693929.027533 kJ/mol
# GULP energy per Si atom -12391.589777 kJ/mol
# Density = 2.075073 g / cm^3
# Si number density = 20.798071 Si / 1000 Ang^3
#
#
#
# Elastic Constant Matrix: (Units=GPa)
#
#
# Indices 1 2 3 4 5 6 
#
# 1 84.5907 40.8843 34.1480 0.0000 0.0000 0.0000
# 2 40.8843 218.3648 17.0131 0.0000 0.0000 0.0000
# 3 34.1480 17.0131 74.3471 0.0000 0.0000 0.0000
# 4 0.0000 0.0000 0.0000 -5.2296 0.0000 0.0000
# 5 0.0000 0.0000 0.0000 0.0000 3.4923 0.0000
# 6 0.0000 0.0000 0.0000 0.0000 0.0000 25.6942
#
#
#
# Elastic Compliance Matrix: (Units=1/GPa)
#
#
# Indices 1 2 3 4 5 6 
#
# 1 0.015672 -0.002417 -0.006645 0.000000 0.000000 0.000000
# 2 -0.002417 0.005035 -0.000042 0.000000 0.000000 0.000000
# 3 -0.006645 -0.000042 0.016512 0.000000 0.000000 0.000000
# 4 0.000000 0.000000 0.000000 -0.191218 0.000000 0.000000
# 5 0.000000 0.000000 0.000000 0.000000 0.286341 0.000000
# 6 0.000000 0.000000 0.000000 0.000000 0.000000 0.038919
#
#
# Mechanical properties :
#
#
# Convention : Reuss Voigt Hill
#
# Bulk Modulus (GPa) = 52.59998 62.37707 57.48853
# Shear Modulus (GPa) = 25.53530 23.80853 24.67192
#
# Velocity S-wave (km/s) = 3.50776 3.38708 3.44795
# Velocity P-wave (km/s) = 6.46154 6.73449 6.59943
#
# Compressibility (1/GPa) = 0.01901141
#
# Stress axis : x y z
#
# Youngs Moduli (GPa) = 63.80714 198.60037 60.56079
#
# Poissons Ratio (x) = 0.47993 0.40245
# Poissons Ratio (y) = 0.15419 0.00256
# Poissons Ratio (z) = 0.42402 0.00840
#
# Static dielectric constant tensor:
#      x y z
#    x 3.053120 0.000000 0.000000 
#    y 0.000000 7.628580 0.000000 
#    z 0.000000 0.000000 3.679630 
# 
# 
# High freq. dielectric constant tensor:
#      x y z
#    x 1.738110 0.000000 0.000000 
#    y 0.000000 1.862530 0.000000 
#    z 0.000000 0.000000 1.803530 
# 
# From -- ./inp_files/24177.got.cif
#   From: 2010.03.12/outbox.cif.g09.slc.cpg/sg55_13_cif.got.tgz:24177.got - 2010.04.16 15:19:21.
