data_PCOD8224150
_publ_section_title
;
Structure prediction by ZEFSAII (Michael W. Deem and Ramdas Pophale) SiO2 
 PCOD8224150
Probable space group: P C C A
;
_chemical_formula_sum "Si O2"
_cell_formula_units_Z 60
_cell_length_a 17.375873
_cell_length_b 9.381729
_cell_length_c 16.695689
_cell_angle_alpha 90.000000
_cell_angle_beta 90.000000
_cell_angle_gamma 90.000000
_cell_volume 2721.659957
_symmetry_space_group_name_H-M "P C C A"
_symmetry_group_IT_number 54
_symmetry_cell_setting 'orthorhombic'
loop_
_space_group_symop_operation_xyz
x,y,z
1/2-x,-y,z
1/2+x,-y,1/2-z
-x,y,1/2-z
-x,-y,-z
1/2+x,y,-z
1/2-x,y,1/2+z
x,-y,1/2+z
loop_
_atom_site_type_symbol
_atom_site_label
_atom_site_fract_x
_atom_site_fract_y
_atom_site_fract_z
Si Si1 0.136886 0.161516 0.166829
Si Si2 0.628483 0.035876 0.671795
Si Si3 0.477224 0.040927 0.087057
Si Si4 0.250000 0.500000 0.330461
Si Si5 0.909734 0.323733 0.903449
Si Si6 0.480493 0.394436 0.656765
Si Si7 0.635885 0.305689 0.578466
Si Si8 0.297829 0.223836 0.231636
O O1 0.108284 0.141457 0.256813
O O2 0.097994 0.307790 0.140268
O O3 0.229692 0.170950 0.171696
O O4 0.104591 0.031157 0.112701
O O5 0.666044 0.144502 0.604321
O O6 0.545409 0.982499 0.648354
O O7 0.681999 0.903822 0.704332
O O8 0.473484 0.208313 0.079127
O O9 0.500000 0.000000 0.000000
O O10 0.318168 0.561778 0.384434
O O11 0.277674 0.368294 0.277344
O O12 0.960887 0.460122 0.886785
O O13 0.866859 0.268722 0.824590
O O14 0.856216 0.331138 0.982946
O O15 0.500000 0.418012 0.750000
O O16 0.548115 0.314850 0.609117
#
# Coordination Sequence:
#
# PCOD8224150 Si02
#       8
#     8   8   8   4   8   8   8   8
#     4  12  23  46  74 101 143 191 244 299 364 436
#     4  12  24  45  73 101 141 187 247 296 364 433
#     4  12  25  45  72 108 142 187 243 307 364 441
#     4  12  28  48  74 102 150 188 248 296 372 444
#     4  12  28  43  69 109 149 179 248 302 377 438
#     4  12  23  44  75 100 140 196 245 298 361 445
#     4  12  26  49  68 105 146 193 237 309 374 434
#     4  12  27  47  73 109 141 195 245 302 366 456
#
# _framework density 22.045369000000001
#
# number of rings (size 3 to 8) (size 9 to 14) (size 15 to 20)
#    0.000    0.000    6.667    2.800    3.733    1.600 
#    2.400    1.333    0.000    0.000    0.000    0.000 
#    0.000    0.000    0.000    0.000    0.000    0.000 
#
# Total GULP energy -743360.739042 kJ/mol
# GULP energy per Si atom -12389.345651 kJ/mol
# Density = 2.199519 g / cm^3
# Si number density = 22.045369 Si / 1000 Ang^3
#
#
#
# Elastic Constant Matrix: (Units=GPa)
#
#
# Indices 1 2 3 4 5 6 
#
# 1 71.8982 23.6345 -11.4016 0.0000 0.0000 0.0000
# 2 23.6345 148.0505 15.8349 0.0000 0.0000 0.0000
# 3 -11.4016 15.8349 63.7568 0.0000 0.0000 0.0000
# 4 0.0000 0.0000 0.0000 -363.1949 0.0000 0.0000
# 5 0.0000 0.0000 0.0000 0.0000 18.2542 0.0000
# 6 0.0000 0.0000 0.0000 0.0000 0.0000 40.6688
#
#
#
# Elastic Compliance Matrix: (Units=1/GPa)
#
#
# Indices 1 2 3 4 5 6 
#
# 1 0.015385 -0.002825 0.003453 0.000000 0.000000 0.000000
# 2 -0.002825 0.007458 -0.002357 0.000000 0.000000 0.000000
# 3 0.003453 -0.002357 0.016888 0.000000 0.000000 0.000000
# 4 0.000000 0.000000 0.000000 -0.002753 0.000000 0.000000
# 5 0.000000 0.000000 0.000000 0.000000 0.054782 0.000000
# 6 0.000000 0.000000 0.000000 0.000000 0.000000 0.024589
#
#
# Mechanical properties :
#
#
# Convention : Reuss Voigt Hill
#
# Bulk Modulus (GPa) = 27.57062 37.76012 32.66537
# Shear Modulus (GPa) = 37.90827 -43.81188 -2.95181
#
# Velocity S-wave (km/s) = 4.15125 -4.46281 -1.15839
# Velocity P-wave (km/s) = 5.95908 3.06431 3.61391
#
# Compressibility (1/GPa) = 0.03627050
#
# Stress axis : x y z
#
# Youngs Moduli (GPa) = 64.99887 134.09089 59.21502
#
# Poissons Ratio (x) = 0.37885 -0.20447
# Poissons Ratio (y) = 0.18364 0.13960
# Poissons Ratio (z) = -0.22444 0.31611
#
# Static dielectric constant tensor:
#      x y z
#    x 3.662430 0.000000 0.000000 
#    y 0.000000 3.594950 0.000000 
#    z 0.000000 0.000000 4.144490 
# 
# 
# High freq. dielectric constant tensor:
#      x y z
#    x 1.860200 0.000000 0.000000 
#    y 0.000000 1.893880 0.000000 
#    z 0.000000 0.000000 1.867760 
# 
# From -- ./inp_files/18691.got.cif
#   From: 2010.03.12/outbox.cif.g09.slc.cpg/sg54_10_cif.got.tgz:18691.got - 2010.04.16 15:00:50.
