data_PCOD8224369
_publ_section_title
;
Structure prediction by ZEFSAII (Michael W. Deem and Ramdas Pophale) SiO2 
 PCOD8224369
Probable space group: P B A M
;
_chemical_formula_sum "Si O2"
_cell_formula_units_Z 64
_cell_length_a 26.554117
_cell_length_b 18.241434
_cell_length_c 9.067468
_cell_angle_alpha 90.000000
_cell_angle_beta 90.000000
_cell_angle_gamma 90.000000
_cell_volume 4392.147053
_symmetry_space_group_name_H-M "P B A M"
_symmetry_group_IT_number 55
_symmetry_cell_setting 'orthorhombic'
loop_
_space_group_symop_operation_xyz
x,y,z
-x,-y,z
1/2+x,1/2-y,-z
1/2-x,1/2+y,-z
-x,-y,-z
x,y,-z
1/2-x,1/2+y,z
1/2+x,1/2-y,z
loop_
_atom_site_type_symbol
_atom_site_label
_atom_site_fract_x
_atom_site_fract_y
_atom_site_fract_z
Si Si1 0.698634 0.197540 0.162680
Si Si2 0.248013 0.919986 0.671799
Si Si3 0.353851 0.660870 0.824470
Si Si4 0.739923 0.413388 0.675777
Si Si5 0.056955 0.921068 0.326443
Si Si6 0.150281 0.829675 0.325467
Si Si7 0.556307 0.413730 0.674366
Si Si8 0.701504 0.793749 0.166007
O O1 0.704966 0.125701 0.262600
O O2 0.655235 0.253465 0.218069
O O3 0.749418 0.244091 0.163014
O O4 0.685861 0.168792 0.000000
O O5 0.255086 0.915153 0.500000
O O6 0.194837 0.885171 0.719768
O O7 0.250079 0.003396 0.725580
O O8 0.313399 0.609524 0.743930
O O9 0.409014 0.641029 0.766735
O O10 0.348737 0.649787 0.000000
O O11 0.737205 0.404138 0.500000
O O12 0.786276 0.366495 0.740345
O O13 0.062763 0.925949 0.500000
O O14 0.098612 0.865177 0.263775
O O15 0.001259 0.892765 0.285745
O O16 0.066604 0.003546 0.268658
O O17 0.149060 0.816079 0.500000
O O18 0.156934 0.751429 0.245499
O O19 0.566718 0.405538 0.500000
O O20 0.685003 0.815118 0.000000
#
# Coordination Sequence:
#
# PCOD8224369 Si02
#       8
#     8   8   8   8   8   8   8   8
#     4   8  16  28  39  52  76 106 132 159 195 233
#     4   9  17  26  40  61  80  99 131 167 197 232
#     4  10  19  29  40  58  82 108 137 168 199 237
#     4  10  18  28  42  60  80 105 135 166 199 238
#     4   8  15  27  43  61  81 105 139 175 203 232
#     4   9  15  26  42  58  78 107 137 166 198 233
#     4   9  16  28  44  60  79 107 139 172 204 235
#     4   9  17  28  39  56  80 105 133 165 197 234
#
# _framework density 14.571462
#
# number of rings (size 3 to 8) (size 9 to 14) (size 15 to 20)
#    0.000    3.000    0.000    3.375    0.000    6.500 
#    0.000    5.000    0.000    0.000    0.000    0.000 
#    0.000    1.000    0.000   11.250    0.000    5.625 
#
# Total GULP energy -793269.457303 kJ/mol
# GULP energy per Si atom -12394.835270 kJ/mol
# Density = 1.453830 g / cm^3
# Si number density = 14.571462 Si / 1000 Ang^3
#
#
#
# Elastic Constant Matrix: (Units=GPa)
#
#
# Indices 1 2 3 4 5 6 
#
# 1 82.9815 55.4627 31.3259 0.0000 0.0000 0.0000
# 2 55.4627 103.4248 44.6938 0.0000 0.0000 0.0000
# 3 31.3259 44.6938 53.9871 0.0000 0.0000 0.0000
# 4 0.0000 0.0000 0.0000 16.7017 0.0000 0.0000
# 5 0.0000 0.0000 0.0000 0.0000 15.3071 0.0000
# 6 0.0000 0.0000 0.0000 0.0000 0.0000 27.7172
#
#
#
# Elastic Compliance Matrix: (Units=1/GPa)
#
#
# Indices 1 2 3 4 5 6 
#
# 1 0.019351 -0.008602 -0.004107 0.000000 0.000000 0.000000
# 2 -0.008602 0.018879 -0.010638 0.000000 0.000000 0.000000
# 3 -0.004107 -0.010638 0.029712 0.000000 0.000000 0.000000
# 4 0.000000 0.000000 0.000000 0.059874 0.000000 0.000000
# 5 0.000000 0.000000 0.000000 0.000000 0.065329 0.000000
# 6 0.000000 0.000000 0.000000 0.000000 0.000000 0.036079
#
#
# Mechanical properties :
#
#
# Convention : Reuss Voigt Hill
#
# Bulk Modulus (GPa) = 47.06181 55.92871 51.49526
# Shear Modulus (GPa) = 17.66785 19.20593 18.43689
#
# Velocity S-wave (km/s) = 3.48587 3.63444 3.56093
# Velocity P-wave (km/s) = 6.96915 7.48851 7.23350
#
# Compressibility (1/GPa) = 0.02124865
#
# Stress axis : x y z
#
# Youngs Moduli (GPa) = 51.67737 52.96918 33.65623
#
# Poissons Ratio (x) = 0.45567 0.13821
# Poissons Ratio (y) = 0.44455 0.35802
# Poissons Ratio (z) = 0.21222 0.56346
#
# Static dielectric constant tensor:
#      x y z
#    x 2.801800 0.000000 0.000000 
#    y 0.000000 2.962490 0.000000 
#    z 0.000000 0.000000 2.811170 
# 
# 
# High freq. dielectric constant tensor:
#      x y z
#    x 1.526200 0.000000 0.000000 
#    y 0.000000 1.545770 0.000000 
#    z 0.000000 0.000000 1.554470 
# 
# From -- ./inp_files/8236.got.cif
#   From: 2010.03.12/outbox.cif.g09.slc.cpg/sg55_5_cif.got.tgz:8236.got - 2010.04.16 15:19:21.
