data_PCOD8224854
_publ_section_title
;
Structure prediction by ZEFSAII (Michael W. Deem and Ramdas Pophale) SiO2 
 PCOD8224854
Probable space group: P B A M
;
_chemical_formula_sum "Si O2"
_cell_formula_units_Z 56
_cell_length_a 23.569062
_cell_length_b 11.821087
_cell_length_c 11.591539
_cell_angle_alpha 90.000000
_cell_angle_beta 90.000000
_cell_angle_gamma 90.000000
_cell_volume 3229.541080
_symmetry_space_group_name_H-M "P B A M"
_symmetry_group_IT_number 55
_symmetry_cell_setting 'orthorhombic'
loop_
_space_group_symop_operation_xyz
x,y,z
-x,-y,z
1/2+x,1/2-y,-z
1/2-x,1/2+y,-z
-x,-y,-z
x,y,-z
1/2-x,1/2+y,z
1/2+x,1/2-y,z
loop_
_atom_site_type_symbol
_atom_site_label
_atom_site_fract_x
_atom_site_fract_y
_atom_site_fract_z
Si Si1 0.901260 0.031209 0.363822
Si Si2 0.414647 0.702028 0.758230
Si Si3 0.367703 0.127435 0.634572
Si Si4 0.043620 0.767280 0.240948
Si Si5 0.332114 0.874789 0.363308
Si Si6 0.206422 0.835186 0.364671
Si Si7 0.921822 0.894905 0.000000
Si Si8 0.555002 0.644481 0.000000
O O1 0.907349 0.039912 0.500000
O O2 0.947182 0.116037 0.309908
O O3 0.838090 0.069114 0.323085
O O4 0.914176 0.905538 0.324718
O O5 0.476788 0.758268 0.759978
O O6 0.371840 0.793148 0.708840
O O7 0.395847 0.664898 0.886845
O O8 0.380932 0.141421 0.500000
O O9 0.425116 0.160821 0.701194
O O10 0.316723 0.211580 0.671353
O O11 0.349772 0.001871 0.666875
O O12 0.069122 0.781610 0.112508
O O13 0.337464 0.849606 0.500000
O O14 0.268762 0.856143 0.313228
O O15 0.213364 0.844335 0.500000
O O16 0.989152 0.886000 0.000000
O O17 0.907649 0.029086 0.000000
#
# Coordination Sequence:
#
# PCOD8224854 Si02
#       8
#     8   8   8   8   8   8   4   4
#     4  10  19  30  50  81 108 133 166 215 266 305
#     4  11  21  32  52  79 105 136 176 216 261 310
#     4   9  19  35  52  74 109 143 167 207 266 315
#     4  10  19  33  52  77 106 137 174 214 260 316
#     4  10  21  34  52  78 106 141 176 210 256 314
#     4   8  17  33  52  74 102 135 174 212 251 304
#     4   9  18  34  51  72 106 137 171 223 258 302
#     4   9  16  32  55  74  96 139 183 211 258 304
#
# _framework density 17.339924
#
# number of rings (size 3 to 8) (size 9 to 14) (size 15 to 20)
#    0.000    2.429    1.429    2.143    2.000    3.429 
#    0.000    2.143    0.000    6.857    0.000    0.000 
#    0.000    0.000    0.000    0.000    0.000    0.000 
#
# Total GULP energy -694311.785551 kJ/mol
# GULP energy per Si atom -12398.424742 kJ/mol
# Density = 1.730046 g / cm^3
# Si number density = 17.339924 Si / 1000 Ang^3
#
#
#
# Elastic Constant Matrix: (Units=GPa)
#
#
# Indices 1 2 3 4 5 6 
#
# 1 76.9482 10.5012 21.0353 0.0000 0.0000 0.0000
# 2 10.5012 42.1423 17.2247 0.0000 0.0000 0.0000
# 3 21.0353 17.2247 75.5327 0.0000 0.0000 0.0000
# 4 0.0000 0.0000 0.0000 23.6553 0.0000 0.0000
# 5 0.0000 0.0000 0.0000 0.0000 4.6429 0.0000
# 6 0.0000 0.0000 0.0000 0.0000 0.0000 21.0087
#
#
#
# Elastic Compliance Matrix: (Units=1/GPa)
#
#
# Indices 1 2 3 4 5 6 
#
# 1 0.014237 -0.002125 -0.003480 0.000000 0.000000 0.000000
# 2 -0.002125 0.026485 -0.005448 0.000000 0.000000 0.000000
# 3 -0.003480 -0.005448 0.015451 0.000000 0.000000 0.000000
# 4 0.000000 0.000000 0.000000 0.042274 0.000000 0.000000
# 5 0.000000 0.000000 0.000000 0.000000 0.215381 0.000000
# 6 0.000000 0.000000 0.000000 0.000000 0.000000 0.047599
#
#
# Mechanical properties :
#
#
# Convention : Reuss Voigt Hill
#
# Bulk Modulus (GPa) = 29.35427 32.46063 30.90745
# Shear Modulus (GPa) = 12.66174 19.58551 16.12362
#
# Velocity S-wave (km/s) = 2.70517 3.36445 3.05266
# Velocity P-wave (km/s) = 5.16940 5.81838 5.50346
#
# Compressibility (1/GPa) = 0.03406659
#
# Stress axis : x y z
#
# Youngs Moduli (GPa) = 70.23853 37.75655 64.72100
#
# Poissons Ratio (x) = 0.08024 0.22525
# Poissons Ratio (y) = 0.14927 0.35260
# Poissons Ratio (z) = 0.24445 0.20570
#
# Static dielectric constant tensor:
#      x y z
#    x 3.308940 0.000000 0.000000 
#    y 0.000000 3.194120 0.000000 
#    z 0.000000 0.000000 3.251460 
# 
# 
# High freq. dielectric constant tensor:
#      x y z
#    x 1.661190 0.000000 0.000000 
#    y 0.000000 1.663720 0.000000 
#    z 0.000000 0.000000 1.654810 
# 
# From -- ./inp_files/15723.got.cif
#   From: 2010.03.12/outbox.cif.g09.slc.cpg/sg55_8_cif.got.tgz:15723.got - 2010.04.16 15:19:21.
