data_PCOD8224730
_publ_section_title
;
Structure prediction by ZEFSAII (Michael W. Deem and Ramdas Pophale) SiO2 
 PCOD8224730
Probable space group: P B A M
;
_chemical_formula_sum "Si O2"
_cell_formula_units_Z 64
_cell_length_a 10.953682
_cell_length_b 32.877960
_cell_length_c 8.824490
_cell_angle_alpha 90.000000
_cell_angle_beta 90.000000
_cell_angle_gamma 90.000000
_cell_volume 3178.005223
_symmetry_space_group_name_H-M "P B A M"
_symmetry_group_IT_number 55
_symmetry_cell_setting 'orthorhombic'
loop_
_space_group_symop_operation_xyz
x,y,z
-x,-y,z
1/2+x,1/2-y,-z
1/2-x,1/2+y,-z
-x,-y,-z
x,y,-z
1/2-x,1/2+y,z
1/2+x,1/2-y,z
loop_
_atom_site_type_symbol
_atom_site_label
_atom_site_fract_x
_atom_site_fract_y
_atom_site_fract_z
Si Si1 0.391872 0.764209 0.824278
Si Si2 0.931069 0.607469 0.829287
Si Si3 0.641995 0.318473 0.322621
Si Si4 0.763842 0.669349 0.328778
Si Si5 0.533482 0.616622 0.329577
Si Si6 0.889975 0.029586 0.319116
Si Si7 0.611379 0.824622 0.830000
Si Si8 0.614127 0.025368 0.677303
O O1 0.419016 0.719163 0.764749
O O2 0.278191 0.784329 0.731508
O O3 0.509417 0.791548 0.791110
O O4 0.356814 0.762994 0.000000
O O5 0.832005 0.641154 0.791118
O O6 0.918999 0.571839 0.708344
O O7 0.062206 0.629233 0.816442
O O8 0.908971 0.591182 0.000000
O O9 0.614274 0.313870 0.500000
O O10 0.587485 0.361861 0.260733
O O11 0.785280 0.318928 0.293807
O O12 0.816663 0.665686 0.500000
O O13 0.625785 0.654475 0.325292
O O14 0.505933 0.602570 0.500000
O O15 0.579807 0.574798 0.250056
O O16 0.883344 0.030430 0.500000
O O17 0.753210 0.015982 0.259980
O O18 0.000000 0.000000 0.263292
O O19 0.661914 0.817097 0.000000
O O20 0.615906 0.017088 0.500000
O O21 0.500000 0.000000 0.750825
#
# Coordination Sequence:
#
# PCOD8224730 Si02
#       8
#     8   8   8   8   8   8   8   8
#     4  10  22  39  57  81 113 151 194 236 291 353
#     4  10  20  36  58  82 110 149 189 232 289 348
#     4  11  23  36  55  84 116 150 194 244 295 349
#     4  10  18  34  60  85 111 143 188 240 287 340
#     4   9  19  34  54  84 116 148 189 238 294 351
#     4   9  17  33  57  84 119 157 192 241 305 362
#     4   9  21  40  56  76 110 150 190 235 290 351
#     4  10  20  34  57  90 117 147 197 250 297 353
#
# _framework density 20.138418000000001
#
# number of rings (size 3 to 8) (size 9 to 14) (size 15 to 20)
#    0.000    2.250    1.250    2.250    1.750    4.250 
#    0.000    4.375    0.000    0.375    0.000    0.000 
#    0.000    0.000    0.000    0.000    0.000    0.000 
#
# Total GULP energy -792965.862274 kJ/mol
# GULP energy per Si atom -12390.091598 kJ/mol
# Density = 2.009258 g / cm^3
# Si number density = 20.138418 Si / 1000 Ang^3
#
#
#
# Elastic Constant Matrix: (Units=GPa)
#
#
# Indices 1 2 3 4 5 6 
#
# 1 116.3743 62.7523 28.4778 0.0000 0.0000 0.0000
# 2 62.7523 102.4980 16.7571 0.0000 0.0000 0.0000
# 3 28.4778 16.7571 40.8205 0.0000 0.0000 0.0000
# 4 0.0000 0.0000 0.0000 20.5747 0.0000 0.0000
# 5 0.0000 0.0000 0.0000 0.0000 13.3662 0.0000
# 6 0.0000 0.0000 0.0000 0.0000 0.0000 28.7476
#
#
#
# Elastic Compliance Matrix: (Units=1/GPa)
#
#
# Indices 1 2 3 4 5 6 
#
# 1 0.014443 -0.007713 -0.006910 0.000000 0.000000 0.000000
# 2 -0.007713 0.014577 -0.000603 0.000000 0.000000 0.000000
# 3 -0.006910 -0.000603 0.029566 0.000000 0.000000 0.000000
# 4 0.000000 0.000000 0.000000 0.048603 0.000000 0.000000
# 5 0.000000 0.000000 0.000000 0.000000 0.074815 0.000000
# 6 0.000000 0.000000 0.000000 0.000000 0.000000 0.034786
#
#
# Mechanical properties :
#
#
# Convention : Reuss Voigt Hill
#
# Bulk Modulus (GPa) = 35.54421 52.85193 44.19807
# Shear Modulus (GPa) = 19.48418 22.65140 21.06779
#
# Velocity S-wave (km/s) = 3.11386 3.35742 3.23793
# Velocity P-wave (km/s) = 5.53321 6.42892 5.99781
#
# Compressibility (1/GPa) = 0.02813398
#
# Stress axis : x y z
#
# Youngs Moduli (GPa) = 69.23939 68.60227 33.82308
#
# Poissons Ratio (x) = 0.52910 0.23371
# Poissons Ratio (y) = 0.53401 0.02041
# Poissons Ratio (z) = 0.47842 0.04139
#
# Static dielectric constant tensor:
#      x y z
#    x 3.802380 0.000000 0.000000 
#    y 0.000000 3.864770 0.000000 
#    z 0.000000 0.000000 3.380410 
# 
# 
# High freq. dielectric constant tensor:
#      x y z
#    x 1.785370 0.000000 0.000000 
#    y 0.000000 1.786230 0.000000 
#    z 0.000000 0.000000 1.755360 
# 
# From -- ./inp_files/4501.got.cif
#   From: 2010.03.12/outbox.cif.g09.slc.cpg/sg55_3_cif.got.tgz:4501.got - 2010.04.16 15:19:21.
