data_PCOD8224159
_publ_section_title
;
Structure prediction by ZEFSAII (Michael W. Deem and Ramdas Pophale) SiO2 
 PCOD8224159
Probable space group: P C C A
;
_chemical_formula_sum "Si O2"
_cell_formula_units_Z 40
_cell_length_a 15.050010
_cell_length_b 11.986141
_cell_length_c 8.809084
_cell_angle_alpha 90.000000
_cell_angle_beta 90.000000
_cell_angle_gamma 90.000000
_cell_volume 1589.084246
_symmetry_space_group_name_H-M "P C C A"
_symmetry_group_IT_number 54
_symmetry_cell_setting 'orthorhombic'
loop_
_space_group_symop_operation_xyz
x,y,z
1/2-x,-y,z
1/2+x,-y,1/2-z
-x,y,1/2-z
-x,-y,-z
1/2+x,y,-z
1/2-x,y,1/2+z
x,-y,1/2+z
loop_
_atom_site_type_symbol
_atom_site_label
_atom_site_fract_x
_atom_site_fract_y
_atom_site_fract_z
Si Si1 0.806855 0.110407 0.070802
Si Si2 0.660411 0.207954 0.889892
Si Si3 0.159208 0.437646 0.282769
Si Si4 0.488753 0.164670 0.081638
Si Si5 0.435889 0.586184 0.575114
O O1 0.747071 0.210079 0.998982
O O2 0.904744 0.104208 0.996050
O O3 0.750000 0.000000 0.038417
O O4 0.818175 0.128072 0.248873
O O5 0.643900 0.333647 0.831792
O O6 0.576196 0.153479 0.977054
O O7 0.250000 0.500000 0.258585
O O8 0.145966 0.398835 0.455707
O O9 0.090424 0.535211 0.237381
O O10 0.500000 0.110727 0.250000
O O11 0.476189 0.294864 0.105692
O O12 0.500000 0.500000 0.500000
#
# Coordination Sequence:
#
# PCOD8224159 Si02
#       5
#     8   8   8   8   8
#     4  12  28  52  81 115 151 201 275 343 407 477
#     4  12  27  49  81 112 161 207 263 336 405 479
#     4  12  26  42  69 112 158 209 256 314 389 479
#     4  12  26  50  81 118 160 214 265 332 408 488
#     4  12  24  42  71 110 159 209 255 313 384 478
#
# _framework density 25.171731999999999
#
# number of rings (size 3 to 8) (size 9 to 14) (size 15 to 20)
#    0.000    0.000    4.000    6.000    2.800    0.800 
#    0.000    3.000    0.000    0.000    0.000    0.000 
#    0.000    0.000    0.000    0.000    0.000    0.000 
#
# Total GULP energy -495972.171200 kJ/mol
# GULP energy per Si atom -12399.304280 kJ/mol
# Density = 2.511444 g / cm^3
# Si number density = 25.171732 Si / 1000 Ang^3
#
#
#
# Elastic Constant Matrix: (Units=GPa)
#
#
# Indices 1 2 3 4 5 6 
#
# 1 155.0906 12.1975 65.3166 0.0000 0.0000 0.0000
# 2 12.1975 70.2885 24.5632 0.0000 0.0000 0.0000
# 3 65.3166 24.5632 172.9963 0.0000 0.0000 0.0000
# 4 0.0000 0.0000 0.0000 33.5644 0.0000 0.0000
# 5 0.0000 0.0000 0.0000 0.0000 49.0425 0.0000
# 6 0.0000 0.0000 0.0000 0.0000 0.0000 39.2914
#
#
#
# Elastic Compliance Matrix: (Units=1/GPa)
#
#
# Indices 1 2 3 4 5 6 
#
# 1 0.007674 -0.000336 -0.002850 0.000000 0.000000 0.000000
# 2 -0.000336 0.014985 -0.002001 0.000000 0.000000 0.000000
# 3 -0.002850 -0.002001 0.007141 0.000000 0.000000 0.000000
# 4 0.000000 0.000000 0.000000 0.029793 0.000000 0.000000
# 5 0.000000 0.000000 0.000000 0.000000 0.020390 0.000000
# 6 0.000000 0.000000 0.000000 0.000000 0.000000 0.025451
#
#
# Mechanical properties :
#
#
# Convention : Reuss Voigt Hill
#
# Bulk Modulus (GPa) = 51.47605 66.94776 59.21191
# Shear Modulus (GPa) = 40.88873 44.13286 42.51079
#
# Velocity S-wave (km/s) = 4.03475 4.19175 4.11400
# Velocity P-wave (km/s) = 6.49614 7.07685 6.79271
#
# Compressibility (1/GPa) = 0.01942651
#
# Stress axis : x y z
#
# Youngs Moduli (GPa) = 130.30171 66.73534 140.04482
#
# Poissons Ratio (x) = 0.02241 0.39911
# Poissons Ratio (y) = 0.04376 0.28020
# Poissons Ratio (z) = 0.37135 0.13352
#
# Static dielectric constant tensor:
#      x y z
#    x 4.626320 0.000000 0.000000 
#    y 0.000000 4.097580 0.000000 
#    z 0.000000 0.000000 5.272530 
# 
# 
# High freq. dielectric constant tensor:
#      x y z
#    x 2.017160 0.000000 0.000000 
#    y 0.000000 2.005390 0.000000 
#    z 0.000000 0.000000 2.022630 
# 
# From -- ./inp_files/3413.got.cif
#   From: 2010.03.12/outbox.cif.g09.slc.cpg/sg54_2_cif.got.tgz:3413.got - 2010.04.16 15:00:50.
