data_PCOD8224765
_publ_section_title
;
Structure prediction by ZEFSAII (Michael W. Deem and Ramdas Pophale) SiO2 
 PCOD8224765
Probable space group: P B A M
;
_chemical_formula_sum "Si O2"
_cell_formula_units_Z 64
_cell_length_a 18.328106
_cell_length_b 26.114287
_cell_length_c 8.795887
_cell_angle_alpha 90.000000
_cell_angle_beta 90.000000
_cell_angle_gamma 90.000000
_cell_volume 4209.935112
_symmetry_space_group_name_H-M "P B A M"
_symmetry_group_IT_number 55
_symmetry_cell_setting 'orthorhombic'
loop_
_space_group_symop_operation_xyz
x,y,z
-x,-y,z
1/2+x,1/2-y,-z
1/2-x,1/2+y,-z
-x,-y,-z
x,y,-z
1/2-x,1/2+y,z
1/2+x,1/2-y,z
loop_
_atom_site_type_symbol
_atom_site_label
_atom_site_fract_x
_atom_site_fract_y
_atom_site_fract_z
Si Si1 0.286479 0.804770 0.668985
Si Si2 0.339953 0.355298 0.823710
Si Si3 0.574467 0.555587 0.319909
Si Si4 0.420504 0.552694 0.819599
Si Si5 0.920066 0.755639 0.679889
Si Si6 0.574732 0.747929 0.824886
Si Si7 0.801368 0.299854 0.332619
Si Si8 0.339275 0.643593 0.679981
O O1 0.290895 0.829369 0.500000
O O2 0.244144 0.843355 0.781039
O O3 0.366965 0.790904 0.734792
O O4 0.244397 0.751674 0.658283
O O5 0.365548 0.402365 0.721326
O O6 0.390575 0.306833 0.783775
O O7 0.344614 0.369912 0.000000
O O8 0.564890 0.551548 0.500000
O O9 0.600866 0.501544 0.253336
O O10 0.497875 0.572007 0.245235
O O11 0.358743 0.592843 0.772742
O O12 0.425611 0.547214 0.000000
O O13 0.916682 0.757125 0.500000
O O14 0.891588 0.810598 0.740177
O O15 0.001073 0.744264 0.733036
O O16 0.630856 0.793448 0.781879
O O17 0.555601 0.752287 0.000000
O O18 0.832801 0.312596 0.500000
O O19 0.745389 0.344236 0.279922
O O20 0.349382 0.634899 0.500000
#
# Coordination Sequence:
#
# PCOD8224765 Si02
#       8
#     8   8   8   8   8   8   8   8
#     4   8  15  28  43  60  80 108 143 175 207 247
#     4  10  19  30  43  62  86 112 141 176 216 254
#     4  11  21  33  47  61  81 112 147 180 209 246
#     4  11  21  32  45  63  87 111 138 178 219 252
#     4   9  17  28  43  61  84 113 146 178 207 245
#     4  10  19  27  39  61  88 114 142 174 212 254
#     4   8  15  28  44  59  80 109 142 176 207 243
#     4   9  17  30  46  63  82 111 147 177 208 251
#
# _framework density 15.202133999999999
#
# number of rings (size 3 to 8) (size 9 to 14) (size 15 to 20)
#    0.000    2.500    0.000    6.000    0.000    5.000 
#    0.000    2.500    0.000    0.000    0.000    0.000 
#    0.000    1.000    0.000   10.500    0.000    5.000 
#
# Total GULP energy -793414.236504 kJ/mol
# GULP energy per Si atom -12397.097445 kJ/mol
# Density = 1.516753 g / cm^3
# Si number density = 15.202134 Si / 1000 Ang^3
#
#
#
# Elastic Constant Matrix: (Units=GPa)
#
#
# Indices 1 2 3 4 5 6 
#
# 1 80.9967 39.8043 24.6726 0.0000 0.0000 0.0000
# 2 39.8043 66.9668 31.6045 0.0000 0.0000 0.0000
# 3 24.6726 31.6045 66.5347 0.0000 0.0000 0.0000
# 4 0.0000 0.0000 0.0000 20.9626 0.0000 0.0000
# 5 0.0000 0.0000 0.0000 0.0000 18.5344 0.0000
# 6 0.0000 0.0000 0.0000 0.0000 0.0000 25.0773
#
#
#
# Elastic Compliance Matrix: (Units=1/GPa)
#
#
# Indices 1 2 3 4 5 6 
#
# 1 0.017647 -0.009539 -0.002013 0.000000 0.000000 0.000000
# 2 -0.009539 0.024404 -0.008055 0.000000 0.000000 0.000000
# 3 -0.002013 -0.008055 0.019602 0.000000 0.000000 0.000000
# 4 0.000000 0.000000 0.000000 0.047704 0.000000 0.000000
# 5 0.000000 0.000000 0.000000 0.000000 0.053954 0.000000
# 6 0.000000 0.000000 0.000000 0.000000 0.000000 0.039877
#
#
# Mechanical properties :
#
#
# Convention : Reuss Voigt Hill
#
# Bulk Modulus (GPa) = 44.56350 45.18455 44.87402
# Shear Modulus (GPa) = 20.00944 20.80931 20.40938
#
# Velocity S-wave (km/s) = 3.63192 3.70380 3.66804
# Velocity P-wave (km/s) = 6.85313 6.93382 6.89359
#
# Compressibility (1/GPa) = 0.02243989
#
# Stress axis : x y z
#
# Youngs Moduli (GPa) = 56.66604 40.97635 51.01466
#
# Poissons Ratio (x) = 0.39089 0.10268
# Poissons Ratio (y) = 0.54056 0.41091
# Poissons Ratio (z) = 0.11405 0.33006
#
# Static dielectric constant tensor:
#      x y z
#    x 3.020990 0.000000 0.000000 
#    y 0.000000 2.761900 0.000000 
#    z 0.000000 0.000000 2.932380 
# 
# 
# High freq. dielectric constant tensor:
#      x y z
#    x 1.571250 0.000000 0.000000 
#    y 0.000000 1.548530 0.000000 
#    z 0.000000 0.000000 1.588940 
# 
# From -- ./inp_files/8210.got.cif
#   From: 2010.03.12/outbox.cif.g09.slc.cpg/sg55_5_cif.got.tgz:8210.got - 2010.04.16 15:19:21.
