data_PCOD8224224
_publ_section_title
;
Structure prediction by ZEFSAII (Michael W. Deem and Ramdas Pophale) SiO2 
 PCOD8224224
Probable space group: P B A M
;
_chemical_formula_sum "Si O2"
_cell_formula_units_Z 52
_cell_length_a 16.688791
_cell_length_b 5.262109
_cell_length_c 30.920688
_cell_angle_alpha 90.000000
_cell_angle_beta 90.000000
_cell_angle_gamma 90.000000
_cell_volume 2715.400317
_symmetry_space_group_name_H-M "P B A M"
_symmetry_group_IT_number 55
_symmetry_cell_setting 'orthorhombic'
loop_
_space_group_symop_operation_xyz
x,y,z
-x,-y,z
1/2+x,1/2-y,-z
1/2-x,1/2+y,-z
-x,-y,-z
x,y,-z
1/2-x,1/2+y,z
1/2+x,1/2-y,z
loop_
_atom_site_type_symbol
_atom_site_label
_atom_site_fract_x
_atom_site_fract_y
_atom_site_fract_z
Si Si1 0.659674 0.019885 0.595189
Si Si2 0.701365 0.055971 0.500000
Si Si3 0.842051 0.019919 0.368260
Si Si4 0.595403 0.000113 0.048751
Si Si5 0.404906 0.499826 0.902086
Si Si6 0.201183 0.036419 0.274769
Si Si7 0.698027 0.532952 0.819616
O O1 0.651665 0.007615 0.543457
O O2 0.614703 0.272015 0.612062
O O3 0.750302 0.024812 0.614208
O O4 0.614648 0.772701 0.614063
O O5 0.727614 0.349607 0.500000
O O6 0.853399 0.016653 0.316423
O O7 0.627438 0.250098 0.073307
O O8 0.500000 0.000000 0.048049
O O9 0.627409 0.747823 0.072605
O O10 0.629200 0.002331 0.000000
O O11 0.500000 0.500000 0.899821
O O12 0.373011 0.499933 0.853502
O O13 0.272974 0.830905 0.277407
O O14 0.158359 0.989712 0.228407
O O15 0.763171 0.310342 0.825883
#
# Coordination Sequence:
#
# PCOD8224224 Si02
#       7
#     8   4   8   8   8   8   8
#     4  10  16  20  29  40  60  84 119 161 202 242
#     4  12  16  20  24  38  56  82 112 156 202 242
#     4  10  14  22  31  43  58  84 119 162 201 232
#     4   9  17  30  52  78  97 118 155 195 222 256
#     4  10  19  33  53  74  98 125 154 187 227 273
#     4  10  16  25  39  54  73  99 136 172 214 247
#     4  10  21  33  48  69  95 125 152 191 233 268
#
# _framework density 19.150031999999999
#
# number of rings (size 3 to 8) (size 9 to 14) (size 15 to 20)
#    0.000    2.000    6.154    1.385    0.000    1.846 
#    0.000    0.000    0.000    9.231    0.000    0.000 
#    0.000    0.000    0.000    0.000    0.000    0.000 
#
# Total GULP energy -644291.642713 kJ/mol
# GULP energy per Si atom -12390.223898 kJ/mol
# Density = 1.910645 g / cm^3
# Si number density = 19.150032 Si / 1000 Ang^3
#
#
#
# Elastic Constant Matrix: (Units=GPa)
#
#
# Indices 1 2 3 4 5 6 
#
# 1 5.7116 6.7885 16.7640 0.0000 0.0000 0.0000
# 2 6.7885 173.1024 64.9923 0.0000 0.0000 0.0000
# 3 16.7640 64.9923 205.9296 0.0000 0.0000 0.0000
# 4 0.0000 0.0000 0.0000 36.6915 0.0000 0.0000
# 5 0.0000 0.0000 0.0000 0.0000 2.0590 0.0000
# 6 0.0000 0.0000 0.0000 0.0000 0.0000 4.6049
#
#
#
# Elastic Compliance Matrix: (Units=1/GPa)
#
#
# Indices 1 2 3 4 5 6 
#
# 1 0.230828 -0.002266 -0.018076 0.000000 0.000000 0.000000
# 2 -0.002266 0.006576 -0.001891 0.000000 0.000000 0.000000
# 3 -0.018076 -0.001891 0.006924 0.000000 0.000000 0.000000
# 4 0.000000 0.000000 0.000000 0.027254 0.000000 0.000000
# 5 0.000000 0.000000 0.000000 0.000000 0.485668 0.000000
# 6 0.000000 0.000000 0.000000 0.000000 0.000000 0.217161
#
#
# Mechanical properties :
#
#
# Convention : Reuss Voigt Hill
#
# Bulk Modulus (GPa) = 5.00342 62.42594 33.71468
# Shear Modulus (GPa) = 4.60618 28.41766 16.51192
#
# Velocity S-wave (km/s) = 1.55259 3.85638 2.93958
# Velocity P-wave (km/s) = 2.41505 7.24555 5.40049
#
# Compressibility (1/GPa) = 0.19986319
#
# Stress axis : x y z
#
# Youngs Moduli (GPa) = 4.33223 152.07449 144.41901
#
# Poissons Ratio (x) = 0.34454 2.61050
# Poissons Ratio (y) = 0.00982 0.27308
# Poissons Ratio (z) = 0.07831 0.28756
#
# Static dielectric constant tensor:
#      x y z
#    x 2.489470 0.000000 0.000000 
#    y 0.000000 4.880770 0.000000 
#    z 0.000000 0.000000 3.913870 
# 
# 
# High freq. dielectric constant tensor:
#      x y z
#    x 1.630430 0.000000 0.000000 
#    y 0.000000 1.784870 0.000000 
#    z 0.000000 0.000000 1.771340 
# 
# From -- ./inp_files/24005.got.cif
#   From: 2010.03.12/outbox.cif.g09.slc.cpg/sg55_13_cif.got.tgz:24005.got - 2010.04.16 15:19:21.
