data_PCOD8224162
_publ_section_title
;
Structure prediction by ZEFSAII (Michael W. Deem and Ramdas Pophale) SiO2 
 PCOD8224162
Probable space group: P C C A
;
_chemical_formula_sum "Si O2"
_cell_formula_units_Z 48
_cell_length_a 14.430212
_cell_length_b 17.837200
_cell_length_c 8.408789
_cell_angle_alpha 90.000000
_cell_angle_beta 90.000000
_cell_angle_gamma 90.000000
_cell_volume 2164.376692
_symmetry_space_group_name_H-M "P C C A"
_symmetry_group_IT_number 54
_symmetry_cell_setting 'orthorhombic'
loop_
_space_group_symop_operation_xyz
x,y,z
1/2-x,-y,z
1/2+x,-y,1/2-z
-x,y,1/2-z
-x,-y,-z
1/2+x,y,-z
1/2-x,y,1/2+z
x,-y,1/2+z
loop_
_atom_site_type_symbol
_atom_site_label
_atom_site_fract_x
_atom_site_fract_y
_atom_site_fract_z
Si Si1 0.549108 0.353016 0.077397
Si Si2 0.858338 0.803116 0.967817
Si Si3 0.993261 0.917203 0.435210
Si Si4 0.346502 0.188172 0.901580
Si Si5 0.627178 0.645480 0.086528
Si Si6 0.708706 0.417948 0.912967
O O1 0.500000 0.345924 0.250000
O O2 0.590613 0.274327 0.014591
O O3 0.471702 0.389498 0.960817
O O4 0.634837 0.412617 0.060772
O O5 0.848027 0.822619 0.784774
O O6 0.758867 0.805651 0.047017
O O7 0.915254 0.872942 0.025301
O O8 0.901102 0.876226 0.502675
O O9 0.000000 0.923165 0.250000
O O10 0.000000 0.000000 0.500000
O O11 0.397279 0.267098 0.926143
O O12 0.660425 0.613854 0.255039
O O13 0.704064 0.633797 0.951194
O O14 0.750000 0.500000 0.889734
#
# Coordination Sequence:
#
# PCOD8224162 Si02
#       6
#     8   8   8   8   8   8
#     4  12  26  44  78 110 144 196 258 314 385 466
#     4  12  25  44  74 111 147 197 255 316 377 460
#     4  12  27  48  75 113 158 202 254 319 385 452
#     4  12  24  43  76 110 150 200 254 313 379 458
#     4  12  24  45  75 106 146 196 253 311 380 462
#     4  12  27  48  73 107 153 196 250 326 393 458
#
# _framework density 22.177285999999999
#
# number of rings (size 3 to 8) (size 9 to 14) (size 15 to 20)
#    0.000    0.000    5.000    5.000    2.333    1.333 
#    0.000    5.833    0.000    0.000    0.000    0.000 
#    0.000    0.000    0.000    0.000    0.000    0.000 
#
# Total GULP energy -594813.249459 kJ/mol
# GULP energy per Si atom -12391.942697 kJ/mol
# Density = 2.212681 g / cm^3
# Si number density = 22.177286 Si / 1000 Ang^3
#
#
#
# Elastic Constant Matrix: (Units=GPa)
#
#
# Indices 1 2 3 4 5 6 
#
# 1 143.4564 58.8313 64.9200 0.0000 0.0000 0.0000
# 2 58.8313 124.0519 64.7981 0.0000 0.0000 0.0000
# 3 64.9200 64.7981 166.8049 0.0000 0.0000 0.0000
# 4 0.0000 0.0000 0.0000 32.3843 0.0000 0.0000
# 5 0.0000 0.0000 0.0000 0.0000 36.5283 0.0000
# 6 0.0000 0.0000 0.0000 0.0000 0.0000 40.4832
#
#
#
# Elastic Compliance Matrix: (Units=1/GPa)
#
#
# Indices 1 2 3 4 5 6 
#
# 1 0.009366 -0.003184 -0.002409 0.000000 0.000000 0.000000
# 2 -0.003184 0.011196 -0.003110 0.000000 0.000000 0.000000
# 3 -0.002409 -0.003110 0.008141 0.000000 0.000000 0.000000
# 4 0.000000 0.000000 0.000000 0.030879 0.000000 0.000000
# 5 0.000000 0.000000 0.000000 0.000000 0.027376 0.000000
# 6 0.000000 0.000000 0.000000 0.000000 0.000000 0.024702
#
#
# Mechanical properties :
#
#
# Convention : Reuss Voigt Hill
#
# Bulk Modulus (GPa) = 88.51317 90.15688 89.33503
# Shear Modulus (GPa) = 37.64206 38.26339 37.95273
#
# Velocity S-wave (km/s) = 4.12433 4.15823 4.14131
# Velocity P-wave (km/s) = 7.91697 7.98721 7.95217
#
# Compressibility (1/GPa) = 0.01129775
#
# Stress axis : x y z
#
# Youngs Moduli (GPa) = 106.76399 89.32107 122.84209
#
# Poissons Ratio (x) = 0.28439 0.29587
# Poissons Ratio (y) = 0.33993 0.38203
# Poissons Ratio (z) = 0.25715 0.27778
#
# Static dielectric constant tensor:
#      x y z
#    x 4.843880 0.000000 0.000000 
#    y 0.000000 4.073040 0.000000 
#    z 0.000000 0.000000 4.282090 
# 
# 
# High freq. dielectric constant tensor:
#      x y z
#    x 1.903670 0.000000 0.000000 
#    y 0.000000 1.864540 0.000000 
#    z 0.000000 0.000000 1.892150 
# 
# From -- ./inp_files/3572.got.cif
#   From: 2010.03.12/outbox.cif.g09.slc.cpg/sg54_2_cif.got.tgz:3572.got - 2010.04.16 15:00:50.
