data_PCOD8224674
_publ_section_title
;
Structure prediction by ZEFSAII (Michael W. Deem and Ramdas Pophale) SiO2 
 PCOD8224674
Probable space group: P B A M
;
_chemical_formula_sum "Si O2"
_cell_formula_units_Z 64
_cell_length_a 14.488460
_cell_length_b 24.248528
_cell_length_c 8.740007
_cell_angle_alpha 90.000000
_cell_angle_beta 90.000000
_cell_angle_gamma 90.000000
_cell_volume 3070.572716
_symmetry_space_group_name_H-M "P B A M"
_symmetry_group_IT_number 55
_symmetry_cell_setting 'orthorhombic'
loop_
_space_group_symop_operation_xyz
x,y,z
-x,-y,z
1/2+x,1/2-y,-z
1/2-x,1/2+y,-z
-x,-y,-z
x,y,-z
1/2-x,1/2+y,z
1/2+x,1/2-y,z
loop_
_atom_site_type_symbol
_atom_site_label
_atom_site_fract_x
_atom_site_fract_y
_atom_site_fract_z
Si Si1 0.003992 0.331911 0.178812
Si Si2 0.828313 0.297207 0.328578
Si Si3 0.066600 0.952892 0.820224
Si Si4 0.266919 0.587781 0.672841
Si Si5 0.950915 0.556454 0.319017
Si Si6 0.270215 0.978206 0.818343
Si Si7 0.135405 0.248762 0.680380
Si Si8 0.934438 0.859298 0.822536
O O1 0.991789 0.390404 0.263310
O O2 0.098023 0.302226 0.232537
O O3 0.917824 0.291682 0.220709
O O4 0.007438 0.342143 0.000000
O O5 0.855468 0.278620 0.500000
O O6 0.800206 0.360645 0.327563
O O7 0.741924 0.260768 0.268102
O O8 0.170784 0.957078 0.756891
O O9 0.029386 0.891310 0.783767
O O10 0.068637 0.963095 0.000000
O O11 0.000000 0.000000 0.746492
O O12 0.300582 0.575317 0.500000
O O13 0.209231 0.537355 0.742111
O O14 0.353681 0.597554 0.783394
O O15 0.941547 0.557920 0.500000
O O16 0.849974 0.562056 0.242300
O O17 0.000000 0.500000 0.264051
O O18 0.274476 0.982052 0.000000
O O19 0.129101 0.257906 0.500000
O O20 0.073589 0.195418 0.721185
O O21 0.928098 0.842554 0.000000
#
# Coordination Sequence:
#
# PCOD8224674 Si02
#       8
#     8   8   8   8   8   8   8   8
#     4  12  25  42  67  97 125 159 205 257 313 373
#     4   9  20  39  63  88 117 157 199 246 303 361
#     4   9  17  32  53  83 123 165 201 245 308 365
#     4  10  19  32  53  84 120 158 202 249 299 358
#     4  11  25  45  66  89 123 164 204 254 318 382
#     4  11  21  35  57  86 120 160 205 253 304 365
#     4  10  22  42  65  90 123 159 202 253 308 368
#     4  10  18  33  57  83 116 159 207 254 301 355
#
# _framework density 20.843017
#
# number of rings (size 3 to 8) (size 9 to 14) (size 15 to 20)
#    0.000    1.750    1.250    4.500    0.000    7.000 
#    2.250    3.125    0.000    0.000    0.000    0.000 
#    0.000    0.000    0.000    0.000    0.000    0.000 
#
# Total GULP energy -793640.543115 kJ/mol
# GULP energy per Si atom -12400.633486 kJ/mol
# Density = 2.079558 g / cm^3
# Si number density = 20.843017 Si / 1000 Ang^3
#
#
#
# Elastic Constant Matrix: (Units=GPa)
#
#
# Indices 1 2 3 4 5 6 
#
# 1 113.4798 32.2024 26.9338 0.0000 0.0000 0.0000
# 2 32.2024 71.7580 22.1434 0.0000 0.0000 0.0000
# 3 26.9338 22.1434 62.8234 0.0000 0.0000 0.0000
# 4 0.0000 0.0000 0.0000 33.3903 0.0000 0.0000
# 5 0.0000 0.0000 0.0000 0.0000 32.1026 0.0000
# 6 0.0000 0.0000 0.0000 0.0000 0.0000 26.7444
#
#
#
# Elastic Compliance Matrix: (Units=1/GPa)
#
#
# Indices 1 2 3 4 5 6 
#
# 1 0.010653 -0.003783 -0.003234 0.000000 0.000000 0.000000
# 2 -0.003783 0.016980 -0.004363 0.000000 0.000000 0.000000
# 3 -0.003234 -0.004363 0.018842 0.000000 0.000000 0.000000
# 4 0.000000 0.000000 0.000000 0.029949 0.000000 0.000000
# 5 0.000000 0.000000 0.000000 0.000000 0.031150 0.000000
# 6 0.000000 0.000000 0.000000 0.000000 0.000000 0.037391
#
#
# Mechanical properties :
#
#
# Convention : Reuss Voigt Hill
#
# Bulk Modulus (GPa) = 42.16704 45.62447 43.89575
# Shear Modulus (GPa) = 28.46905 29.56624 29.01765
#
# Velocity S-wave (km/s) = 3.69979 3.77041 3.73527
# Velocity P-wave (km/s) = 6.20693 6.39467 6.30150
#
# Compressibility (1/GPa) = 0.02371521
#
# Stress axis : x y z
#
# Youngs Moduli (GPa) = 93.86898 58.89397 53.07311
#
# Poissons Ratio (x) = 0.22278 0.17163
# Poissons Ratio (y) = 0.35509 0.23156
# Poissons Ratio (z) = 0.30356 0.25696
#
# Static dielectric constant tensor:
#      x y z
#    x 3.928390 0.000000 0.000000 
#    y 0.000000 3.627900 0.000000 
#    z 0.000000 0.000000 3.605250 
# 
# 
# High freq. dielectric constant tensor:
#      x y z
#    x 1.818960 0.000000 0.000000 
#    y 0.000000 1.803200 0.000000 
#    z 0.000000 0.000000 1.807230 
# 
# From -- ./inp_files/6544.got.cif
#   From: 2010.03.12/outbox.cif.g09.slc.cpg/sg55_4_cif.got.tgz:6544.got - 2010.04.16 15:19:21.
