data_PCOD8224473
_publ_section_title
;
Structure prediction by ZEFSAII (Michael W. Deem and Ramdas Pophale) SiO2 
 PCOD8224473
Probable space group: P B A M
;
_chemical_formula_sum "Si O2"
_cell_formula_units_Z 64
_cell_length_a 22.934839
_cell_length_b 18.773660
_cell_length_c 9.288732
_cell_angle_alpha 90.000000
_cell_angle_beta 90.000000
_cell_angle_gamma 90.000000
_cell_volume 3999.457414
_symmetry_space_group_name_H-M "P B A M"
_symmetry_group_IT_number 55
_symmetry_cell_setting 'orthorhombic'
loop_
_space_group_symop_operation_xyz
x,y,z
-x,-y,z
1/2+x,1/2-y,-z
1/2-x,1/2+y,-z
-x,-y,-z
x,y,-z
1/2-x,1/2+y,z
1/2+x,1/2-y,z
loop_
_atom_site_type_symbol
_atom_site_label
_atom_site_fract_x
_atom_site_fract_y
_atom_site_fract_z
Si Si1 0.342474 0.253146 0.334315
Si Si2 0.561078 0.128606 0.170395
Si Si3 0.112021 0.501537 0.667172
Si Si4 0.671024 0.220212 0.833250
Si Si5 0.253470 0.003844 0.330758
Si Si6 0.230399 0.163390 0.667091
Si Si7 0.715943 0.629235 0.168608
Si Si8 0.053744 0.651250 0.665338
O O1 0.335768 0.276365 0.500000
O O2 0.293628 0.194941 0.293731
O O3 0.335726 0.322804 0.234969
O O4 0.405282 0.218978 0.304576
O O5 0.573409 0.052110 0.239878
O O6 0.610844 0.184508 0.215892
O O7 0.500765 0.159383 0.229421
O O8 0.557987 0.118721 0.000000
O O9 0.104214 0.482145 0.500000
O O10 0.179118 0.496848 0.714497
O O11 0.089720 0.580353 0.700709
O O12 0.679575 0.294350 0.749853
O O13 0.722366 0.165401 0.794396
O O14 0.671069 0.239057 0.000000
O O15 0.246210 0.990274 0.500000
O O16 0.214871 0.947772 0.242816
O O17 0.229623 0.081222 0.286187
O O18 0.217086 0.171598 0.500000
O O19 0.705206 0.620285 0.000000
O O20 0.032503 0.650195 0.500000
#
# Coordination Sequence:
#
# PCOD8224473 Si02
#       8
#     8   8   8   8   8   8   8   8
#     4   9  17  32  50  69  93 122 158 203 243 278
#     4  11  22  34  46  66  98 132 167 201 234 277
#     4  10  19  32  48  67  95 130 166 199 231 275
#     4   9  19  33  45  64  95 127 158 196 236 277
#     4  10  18  30  49  73  97 125 158 195 239 284
#     4   9  17  30  50  72  92 118 157 199 240 284
#     4  10  19  31  47  69  97 127 159 193 235 288
#     4  10  20  34  50  69  94 127 168 205 239 279
#
# _framework density 16.00217
#
# number of rings (size 3 to 8) (size 9 to 14) (size 15 to 20)
#    0.000    2.250    2.500    1.125    0.000    4.500 
#    0.000    0.000    0.000    0.000    0.000    0.875 
#    0.000    7.000    0.000    0.000    0.000    0.000 
#
# Total GULP energy -793769.333556 kJ/mol
# GULP energy per Si atom -12402.645837 kJ/mol
# Density = 1.596575 g / cm^3
# Si number density = 16.002170 Si / 1000 Ang^3
#
#
#
# Elastic Constant Matrix: (Units=GPa)
#
#
# Indices 1 2 3 4 5 6 
#
# 1 48.0881 23.7712 24.9972 0.0000 0.0000 0.0000
# 2 23.7712 87.7453 39.9983 0.0000 0.0000 0.0000
# 3 24.9972 39.9983 55.1257 0.0000 0.0000 0.0000
# 4 0.0000 0.0000 0.0000 18.8439 0.0000 0.0000
# 5 0.0000 0.0000 0.0000 0.0000 25.0815 0.0000
# 6 0.0000 0.0000 0.0000 0.0000 0.0000 21.6464
#
#
#
# Elastic Compliance Matrix: (Units=1/GPa)
#
#
# Indices 1 2 3 4 5 6 
#
# 1 0.027615 -0.002649 -0.010600 0.000000 0.000000 0.000000
# 2 -0.002649 0.017283 -0.011339 0.000000 0.000000 0.000000
# 3 -0.010600 -0.011339 0.031174 0.000000 0.000000 0.000000
# 4 0.000000 0.000000 0.000000 0.053068 0.000000 0.000000
# 5 0.000000 0.000000 0.000000 0.000000 0.039870 0.000000
# 6 0.000000 0.000000 0.000000 0.000000 0.000000 0.046197
#
#
# Mechanical properties :
#
#
# Convention : Reuss Voigt Hill
#
# Bulk Modulus (GPa) = 37.18029 40.94361 39.06195
# Shear Modulus (GPa) = 18.29164 19.92718 19.10941
#
# Velocity S-wave (km/s) = 3.38460 3.53268 3.45943
# Velocity P-wave (km/s) = 6.20959 6.50243 6.35770
#
# Compressibility (1/GPa) = 0.02689597
#
# Stress axis : x y z
#
# Youngs Moduli (GPa) = 36.21245 57.85963 32.07756
#
# Poissons Ratio (x) = 0.15328 0.34002
# Poissons Ratio (y) = 0.09594 0.36373
# Poissons Ratio (z) = 0.38385 0.65608
#
# Static dielectric constant tensor:
#      x y z
#    x 2.905780 0.000000 0.000000 
#    y 0.000000 3.027740 0.000000 
#    z 0.000000 0.000000 3.001830 
# 
# 
# High freq. dielectric constant tensor:
#      x y z
#    x 1.589550 0.000000 0.000000 
#    y 0.000000 1.609540 0.000000 
#    z 0.000000 0.000000 1.616580 
# 
# From -- ./inp_files/8082.got.cif
#   From: 2010.03.12/outbox.cif.g09.slc.cpg/sg55_5_cif.got.tgz:8082.got - 2010.04.16 15:19:21.
