data_PCOD8224112
_publ_section_title
;
Structure prediction by ZEFSAII (Michael W. Deem and Ramdas Pophale) SiO2 
 PCOD8224112
Probable space group: P C C A
;
_chemical_formula_sum "Si O2"
_cell_formula_units_Z 64
_cell_length_a 14.604439
_cell_length_b 7.346159
_cell_length_c 27.054419
_cell_angle_alpha 90.000000
_cell_angle_beta 90.000000
_cell_angle_gamma 90.000000
_cell_volume 2902.574763
_symmetry_space_group_name_H-M "P C C A"
_symmetry_group_IT_number 54
_symmetry_cell_setting 'orthorhombic'
loop_
_space_group_symop_operation_xyz
x,y,z
1/2-x,-y,z
1/2+x,-y,1/2-z
-x,y,1/2-z
-x,-y,-z
1/2+x,y,-z
1/2-x,y,1/2+z
x,-y,1/2+z
loop_
_atom_site_type_symbol
_atom_site_label
_atom_site_fract_x
_atom_site_fract_y
_atom_site_fract_z
Si Si1 0.247746 0.206735 0.764753
Si Si2 0.736321 0.306162 0.630045
Si Si3 0.416981 0.273778 0.048827
Si Si4 0.847430 0.558011 0.873226
Si Si5 0.879744 0.131627 0.437889
Si Si6 0.628412 0.191878 0.046856
Si Si7 0.409710 0.209567 0.939907
Si Si8 0.895886 0.494533 0.267778
O O1 0.244722 0.171802 0.824384
O O2 0.158513 0.317990 0.745369
O O3 0.340908 0.317191 0.751986
O O4 0.250000 0.000000 0.742079
O O5 0.750000 0.500000 0.656078
O O6 0.804713 0.294650 0.583653
O O7 0.633627 0.306232 0.607761
O O8 0.381130 0.439875 0.080616
O O9 0.524870 0.252594 0.057672
O O10 0.364208 0.086073 0.063570
O O11 0.397280 0.320899 0.991243
O O12 0.750000 0.500000 0.852286
O O13 0.832883 0.766119 0.891926
O O14 0.912496 0.531729 0.826484
O O15 0.845424 0.221483 0.489314
O O16 0.985582 0.174221 0.430289
O O17 0.643632 0.979384 0.055940
O O18 0.000000 0.505122 0.250000
#
# Coordination Sequence:
#
# PCOD8224112 Si02
#       8
#     8   8   8   8   8   8   8   8
#     4  11  25  50  73 100 134 173 226 288 346 405
#     4  12  24  35  65  99 131 167 211 267 322 382
#     4   9  22  40  62  90 132 176 213 258 309 376
#     4  12  26  42  64  95 127 163 220 266 324 402
#     4   9  22  40  62  90 132 176 213 258 309 376
#     4   9  20  39  58  92 133 172 217 256 303 378
#     4   9  20  39  58  92 133 172 217 256 303 378
#     4  11  27  52  72 100 135 171 226 294 349 404
#
# _framework density 22.049389999999999
#
# number of rings (size 3 to 8) (size 9 to 14) (size 15 to 20)
#    0.000    1.750    2.500    2.625    8.750    3.000 
#    0.000    0.000    0.000    0.000    0.000    0.000 
#    0.000    0.000    0.000    0.000    0.000    0.000 
#
# Total GULP energy -793151.769073 kJ/mol
# GULP energy per Si atom -12392.996392 kJ/mol
# Density = 2.199921 g / cm^3
# Si number density = 22.049390 Si / 1000 Ang^3
#
#
#
# Elastic Constant Matrix: (Units=GPa)
#
#
# Indices 1 2 3 4 5 6 
#
# 1 67.1408 21.3484 15.0351 0.0000 0.0000 0.0000
# 2 21.3484 95.7620 20.3785 0.0000 0.0000 0.0000
# 3 15.0351 20.3785 99.0708 0.0000 0.0000 0.0000
# 4 0.0000 0.0000 0.0000 21.0844 0.0000 0.0000
# 5 0.0000 0.0000 0.0000 0.0000 26.9167 0.0000
# 6 0.0000 0.0000 0.0000 0.0000 0.0000 30.2225
#
#
#
# Elastic Compliance Matrix: (Units=1/GPa)
#
#
# Indices 1 2 3 4 5 6 
#
# 1 0.016335 -0.003257 -0.001809 0.000000 0.000000 0.000000
# 2 -0.003257 0.011570 -0.001886 0.000000 0.000000 0.000000
# 3 -0.001809 -0.001886 0.010756 0.000000 0.000000 0.000000
# 4 0.000000 0.000000 0.000000 0.047429 0.000000 0.000000
# 5 0.000000 0.000000 0.000000 0.000000 0.037152 0.000000
# 6 0.000000 0.000000 0.000000 0.000000 0.000000 0.033088
#
#
# Mechanical properties :
#
#
# Convention : Reuss Voigt Hill
#
# Bulk Modulus (GPa) = 40.39081 41.72194 41.05638
# Shear Modulus (GPa) = 28.01369 29.32548 28.66958
#
# Velocity S-wave (km/s) = 3.56827 3.65086 3.60980
# Velocity P-wave (km/s) = 5.94431 6.06093 6.00290
#
# Compressibility (1/GPa) = 0.02475810
#
# Stress axis : x y z
#
# Youngs Moduli (GPa) = 61.21955 86.43179 92.96953
#
# Poissons Ratio (x) = 0.28147 0.16819
# Poissons Ratio (y) = 0.19936 0.17531
# Poissons Ratio (z) = 0.11075 0.16298
#
# Static dielectric constant tensor:
#      x y z
#    x 3.956140 0.000000 0.000000 
#    y 0.000000 4.464760 0.000000 
#    z 0.000000 0.000000 3.978430 
# 
# 
# High freq. dielectric constant tensor:
#      x y z
#    x 1.864460 0.000000 0.000000 
#    y 0.000000 1.869390 0.000000 
#    z 0.000000 0.000000 1.864930 
# 
# From -- ./inp_files/24528.got.cif
#   From: 2010.03.12/outbox.cif.g09.slc.cpg/sg54_13_cif.got.tgz:24528.got - 2010.04.16 15:00:50.
