data_PCOD8224104
_publ_section_title
;
Structure prediction by ZEFSAII (Michael W. Deem and Ramdas Pophale) SiO2 
 PCOD8224104
Probable space group: P C C A
;
_chemical_formula_sum "Si O2"
_cell_formula_units_Z 64
_cell_length_a 28.629931
_cell_length_b 5.223155
_cell_length_c 18.420827
_cell_angle_alpha 90.000000
_cell_angle_beta 90.000000
_cell_angle_gamma 90.000000
_cell_volume 2754.624077
_symmetry_space_group_name_H-M "P C C A"
_symmetry_group_IT_number 54
_symmetry_cell_setting 'orthorhombic'
loop_
_space_group_symop_operation_xyz
x,y,z
1/2-x,-y,z
1/2+x,-y,1/2-z
-x,y,1/2-z
-x,-y,-z
1/2+x,y,-z
1/2-x,y,1/2+z
x,-y,1/2+z
loop_
_atom_site_type_symbol
_atom_site_label
_atom_site_fract_x
_atom_site_fract_y
_atom_site_fract_z
Si Si1 0.402213 0.934889 0.774180
Si Si2 0.720198 0.256748 0.400687
Si Si3 0.202472 0.615062 0.405433
Si Si4 0.702777 0.837163 0.744141
Si Si5 0.450040 0.553876 0.213511
Si Si6 0.839704 0.148363 0.033447
Si Si7 0.523897 0.311004 0.945513
Si Si8 0.434931 0.018246 0.433447
O O1 0.346458 0.987553 0.768332
O O2 0.416447 0.686717 0.727815
O O3 0.428504 0.186044 0.745482
O O4 0.416809 0.865706 0.857115
O O5 0.750000 0.500000 0.426192
O O6 0.699756 0.310297 0.320674
O O7 0.676301 0.222567 0.453186
O O8 0.750000 0.000000 0.402789
O O9 0.250000 0.500000 0.441600
O O10 0.208932 0.636478 0.319759
O O11 0.167205 0.383170 0.412171
O O12 0.185883 0.884028 0.441217
O O13 0.750000 0.000000 0.743141
O O14 0.500000 0.502328 0.250000
O O15 0.454617 0.564338 0.126367
O O16 0.895194 0.164640 0.035997
O O17 0.485607 0.103157 0.919621
O O18 0.500000 0.500000 0.000000
O O19 0.564345 0.206351 0.997402
#
# Coordination Sequence:
#
# PCOD8224104 Si02
#       8
#     8   8   8   8   8   8   8   8
#     4  12  28  49  77 113 151 204 259 316 378 469
#     4  11  25  47  69 101 149 193 237 303 374 440
#     4  12  25  43  73 104 142 189 247 305 368 431
#     4  11  27  49  74 108 152 198 254 314 382 443
#     4  12  27  48  81 113 155 199 254 310 386 456
#     4  12  26  44  74 106 142 193 249 303 366 450
#     4  11  27  49  78 111 160 198 245 315 391 461
#     4  11  27  48  76 113 152 198 250 320 385 455
#
# _framework density 23.233657999999998
#
# number of rings (size 3 to 8) (size 9 to 14) (size 15 to 20)
#    0.000    0.500    2.500    4.500    8.750    3.000 
#    0.000    0.000    0.000    0.000    0.000    0.000 
#    0.000    0.000    0.000    0.000    0.000    0.000 
#
# Total GULP energy -793040.953504 kJ/mol
# GULP energy per Si atom -12391.264899 kJ/mol
# Density = 2.318078 g / cm^3
# Si number density = 23.233658 Si / 1000 Ang^3
#
#
#
# Elastic Constant Matrix: (Units=GPa)
#
#
# Indices 1 2 3 4 5 6 
#
# 1 118.2584 32.0915 72.5648 0.0000 0.0000 0.0000
# 2 32.0915 132.1143 54.8793 0.0000 0.0000 0.0000
# 3 72.5648 54.8793 166.7897 0.0000 0.0000 0.0000
# 4 0.0000 0.0000 0.0000 21.7259 0.0000 0.0000
# 5 0.0000 0.0000 0.0000 0.0000 26.8436 0.0000
# 6 0.0000 0.0000 0.0000 0.0000 0.0000 38.7311
#
#
#
# Elastic Compliance Matrix: (Units=1/GPa)
#
#
# Indices 1 2 3 4 5 6 
#
# 1 0.011615 -0.000837 -0.004778 0.000000 0.000000 0.000000
# 2 -0.000837 0.008828 -0.002541 0.000000 0.000000 0.000000
# 3 -0.004778 -0.002541 0.008910 0.000000 0.000000 0.000000
# 4 0.000000 0.000000 0.000000 0.046028 0.000000 0.000000
# 5 0.000000 0.000000 0.000000 0.000000 0.037253 0.000000
# 6 0.000000 0.000000 0.000000 0.000000 0.000000 0.025819
#
#
# Mechanical properties :
#
#
# Convention : Reuss Voigt Hill
#
# Bulk Modulus (GPa) = 76.67253 81.80372 79.23812
# Shear Modulus (GPa) = 31.42462 34.63525 33.02993
#
# Velocity S-wave (km/s) = 3.68169 3.86519 3.77456
# Velocity P-wave (km/s) = 7.15160 7.43002 7.29214
#
# Compressibility (1/GPa) = 0.01304248
#
# Stress axis : x y z
#
# Youngs Moduli (GPa) = 86.09613 113.27866 112.22977
#
# Poissons Ratio (x) = 0.09477 0.53624
# Poissons Ratio (y) = 0.07203 0.28514
# Poissons Ratio (z) = 0.41137 0.28780
#
# Static dielectric constant tensor:
#      x y z
#    x 4.633950 0.000000 0.000000 
#    y 0.000000 4.210430 0.000000 
#    z 0.000000 0.000000 4.577400 
# 
# 
# High freq. dielectric constant tensor:
#      x y z
#    x 1.929520 0.000000 0.000000 
#    y 0.000000 1.913710 0.000000 
#    z 0.000000 0.000000 1.942980 
# 
# From -- ./inp_files/19346.got.cif
#   From: 2010.03.12/outbox.cif.g09.slc.cpg/sg54_10_cif.got.tgz:19346.got - 2010.04.16 15:00:50.
