data_PCOD8224871
_publ_section_title
;
Structure prediction by ZEFSAII (Michael W. Deem and Ramdas Pophale) SiO2 
 PCOD8224871
Probable space group: P B A M
;
_chemical_formula_sum "Si O2"
_cell_formula_units_Z 56
_cell_length_a 28.623945
_cell_length_b 9.021904
_cell_length_c 12.709838
_cell_angle_alpha 90.000000
_cell_angle_beta 90.000000
_cell_angle_gamma 90.000000
_cell_volume 3282.220135
_symmetry_space_group_name_H-M "P B A M"
_symmetry_group_IT_number 55
_symmetry_cell_setting 'orthorhombic'
loop_
_space_group_symop_operation_xyz
x,y,z
-x,-y,z
1/2+x,1/2-y,-z
1/2-x,1/2+y,-z
-x,-y,-z
x,y,-z
1/2-x,1/2+y,z
1/2+x,1/2-y,z
loop_
_atom_site_type_symbol
_atom_site_label
_atom_site_fract_x
_atom_site_fract_y
_atom_site_fract_z
Si Si1 0.972005 0.644541 0.117671
Si Si2 0.613730 0.996141 0.192117
Si Si3 0.297820 0.506656 0.875867
Si Si4 0.703845 0.152166 0.874497
Si Si5 0.450613 0.078422 0.380282
Si Si6 0.475341 0.356661 0.262303
Si Si7 0.389229 0.339785 0.877306
O O1 0.917212 0.607085 0.121025
O O2 0.000000 0.500000 0.157189
O O3 0.984806 0.777642 0.193654
O O4 0.987105 0.688239 0.000000
O O5 0.665089 0.065078 0.192923
O O6 0.590415 0.990347 0.308079
O O7 0.615425 0.835555 0.139080
O O8 0.296569 0.676810 0.838865
O O9 0.252394 0.418852 0.836145
O O10 0.343575 0.423245 0.832006
O O11 0.298587 0.498951 0.000000
O O12 0.695768 0.132914 0.000000
O O13 0.434123 0.058992 0.500000
O O14 0.456657 0.252744 0.355601
O O15 0.500000 0.000000 0.359693
O O16 0.500000 0.500000 0.312988
O O17 0.433078 0.404189 0.186057
O O18 0.396627 0.374128 0.000000
#
# Coordination Sequence:
#
# PCOD8224871 Si02
#       7
#     8   8   8   8   8   8   8
#     4  11  19  31  47  71 106 141 174 200 238 299
#     4  11  19  32  51  75  94 133 172 214 256 305
#     4   9  19  32  46  71 104 141 175 202 240 292
#     4  10  19  31  49  72 104 136 169 207 243 296
#     4  10  20  38  57  72  95 129 173 222 264 307
#     4  11  22  33  48  74 106 138 176 213 257 309
#     4  10  19  31  46  69 104 141 173 204 245 296
#
# _framework density 17.061620999999999
#
# number of rings (size 3 to 8) (size 9 to 14) (size 15 to 20)
#    0.000    1.714    4.286    2.571    2.000    3.714 
#    0.000    0.000    0.000    0.000    0.000    9.000 
#    0.000    0.000    0.000    0.000    0.000    0.000 
#
# Total GULP energy -694378.524739 kJ/mol
# GULP energy per Si atom -12399.616513 kJ/mol
# Density = 1.702279 g / cm^3
# Si number density = 17.061621 Si / 1000 Ang^3
#
#
#
# Elastic Constant Matrix: (Units=GPa)
#
#
# Indices 1 2 3 4 5 6 
#
# 1 114.9284 46.8511 22.3761 0.0000 0.0000 0.0000
# 2 46.8511 70.5197 18.1020 0.0000 0.0000 0.0000
# 3 22.3761 18.1020 67.8794 0.0000 0.0000 0.0000
# 4 0.0000 0.0000 0.0000 10.9800 0.0000 0.0000
# 5 0.0000 0.0000 0.0000 0.0000 16.6930 0.0000
# 6 0.0000 0.0000 0.0000 0.0000 0.0000 39.8665
#
#
#
# Elastic Compliance Matrix: (Units=1/GPa)
#
#
# Indices 1 2 3 4 5 6 
#
# 1 0.012179 -0.007580 -0.001993 0.000000 0.000000 0.000000
# 2 -0.007580 0.019940 -0.002819 0.000000 0.000000 0.000000
# 3 -0.001993 -0.002819 0.016141 0.000000 0.000000 0.000000
# 4 0.000000 0.000000 0.000000 0.091075 0.000000 0.000000
# 5 0.000000 0.000000 0.000000 0.000000 0.059905 0.000000
# 6 0.000000 0.000000 0.000000 0.000000 0.000000 0.025084
#
#
# Mechanical properties :
#
#
# Convention : Reuss Voigt Hill
#
# Bulk Modulus (GPa) = 42.59732 47.55399 45.07566
# Shear Modulus (GPa) = 19.46033 24.57445 22.01739
#
# Velocity S-wave (km/s) = 3.38093 3.79929 3.59620
# Velocity P-wave (km/s) = 6.34522 6.86867 6.61213
#
# Compressibility (1/GPa) = 0.02347565
#
# Stress axis : x y z
#
# Youngs Moduli (GPa) = 82.10790 50.15108 61.95451
#
# Poissons Ratio (x) = 0.38013 0.12350
# Poissons Ratio (y) = 0.62235 0.17464
# Poissons Ratio (z) = 0.16368 0.14137
#
# Static dielectric constant tensor:
#      x y z
#    x 3.369050 0.000000 0.000000 
#    y 0.000000 3.276310 0.000000 
#    z 0.000000 0.000000 2.820210 
# 
# 
# High freq. dielectric constant tensor:
#      x y z
#    x 1.662410 0.000000 0.000000 
#    y 0.000000 1.664220 0.000000 
#    z 0.000000 0.000000 1.610380 
# 
# From -- ./inp_files/20177.got.cif
#   From: 2010.03.12/outbox.cif.g09.slc.cpg/sg55_11_cif.got.tgz:20177.got - 2010.04.16 15:19:21.
