data_PCOD8224339
_publ_section_title
;
Structure prediction by ZEFSAII (Michael W. Deem and Ramdas Pophale) SiO2 
 PCOD8224339
Probable space group: P B A M
;
_chemical_formula_sum "Si O2"
_cell_formula_units_Z 48
_cell_length_a 10.433193
_cell_length_b 31.222854
_cell_length_c 7.719985
_cell_angle_alpha 90.000000
_cell_angle_beta 90.000000
_cell_angle_gamma 90.000000
_cell_volume 2514.816471
_symmetry_space_group_name_H-M "P B A M"
_symmetry_group_IT_number 55
_symmetry_cell_setting 'orthorhombic'
loop_
_space_group_symop_operation_xyz
x,y,z
-x,-y,z
1/2+x,1/2-y,-z
1/2-x,1/2+y,-z
-x,-y,-z
x,y,-z
1/2-x,1/2+y,z
1/2+x,1/2-y,z
loop_
_atom_site_type_symbol
_atom_site_label
_atom_site_fract_x
_atom_site_fract_y
_atom_site_fract_z
Si Si1 0.666463 0.118921 0.705256
Si Si2 0.954003 0.126325 0.806263
Si Si3 0.369084 0.786155 0.295117
Si Si4 0.418334 0.278678 0.293700
Si Si5 0.116826 0.470300 0.197468
Si Si6 0.458994 0.571326 0.500000
Si Si7 0.696055 0.508315 0.500000
O O1 0.680917 0.116129 0.500000
O O2 0.806638 0.113244 0.785133
O O3 0.606689 0.164552 0.761934
O O4 0.579399 0.080041 0.777681
O O5 0.971650 0.176758 0.776804
O O6 0.041899 0.100827 0.670737
O O7 0.999329 0.114415 0.000000
O O8 0.370768 0.782384 0.500000
O O9 0.485378 0.757687 0.219010
O O10 0.228257 0.770694 0.228152
O O11 0.419099 0.280258 0.500000
O O12 0.232257 0.480983 0.323425
O O13 0.000000 0.500000 0.254322
O O14 0.157100 0.479738 0.000000
O O15 0.574137 0.538286 0.500000
O O16 0.331559 0.542476 0.500000
#
# Coordination Sequence:
#
# PCOD8224339 Si02
#       7
#     8   8   8   8   8   4   4
#     4  10  17  33  56  81 110 144 191 231 272 332
#     4  11  19  33  57  81 110 146 183 226 273 330
#     4   8  16  28  53  79 106 143 179 227 272 327
#     4   9  16  32  52  78 110 140 184 226 275 328
#     4  11  22  37  59  84 112 147 189 238 285 336
#     4  11  22  38  56  85 109 145 184 235 274 337
#     4  11  23  38  60  79 114 144 182 233 291 328
#
# _framework density 19.086880000000001
#
# number of rings (size 3 to 8) (size 9 to 14) (size 15 to 20)
#    0.000    2.000    4.167    1.750    0.000    0.667 
#    0.000    7.500    0.000    0.000    0.000    0.000 
#    0.000    0.000    0.000    0.000    0.000    0.000 
#
# Total GULP energy -594996.857091 kJ/mol
# GULP energy per Si atom -12395.767856 kJ/mol
# Density = 1.904344 g / cm^3
# Si number density = 19.086880 Si / 1000 Ang^3
#
#
#
# Elastic Constant Matrix: (Units=GPa)
#
#
# Indices 1 2 3 4 5 6 
#
# 1 67.1348 65.0321 17.7166 0.0000 0.0000 0.0000
# 2 65.0321 155.0274 31.1318 0.0000 0.0000 0.0000
# 3 17.7166 31.1318 88.7090 0.0000 0.0000 0.0000
# 4 0.0000 0.0000 0.0000 27.1044 0.0000 0.0000
# 5 0.0000 0.0000 0.0000 0.0000 8.6300 0.0000
# 6 0.0000 0.0000 0.0000 0.0000 0.0000 39.5302
#
#
#
# Elastic Compliance Matrix: (Units=1/GPa)
#
#
# Indices 1 2 3 4 5 6 
#
# 1 0.025258 -0.010309 -0.001427 0.000000 0.000000 0.000000
# 2 -0.010309 0.011147 -0.001853 0.000000 0.000000 0.000000
# 3 -0.001427 -0.001853 0.012208 0.000000 0.000000 0.000000
# 4 0.000000 0.000000 0.000000 0.036894 0.000000 0.000000
# 5 0.000000 0.000000 0.000000 0.000000 0.115874 0.000000
# 6 0.000000 0.000000 0.000000 0.000000 0.000000 0.025297
#
#
# Mechanical properties :
#
#
# Convention : Reuss Voigt Hill
#
# Bulk Modulus (GPa) = 46.65088 59.84804 53.24946
# Shear Modulus (GPa) = 19.15698 28.18564 23.67131
#
# Velocity S-wave (km/s) = 3.17152 3.84696 3.52545
# Velocity P-wave (km/s) = 6.15676 7.15233 6.67314
#
# Compressibility (1/GPa) = 0.02143582
#
# Stress axis : x y z
#
# Youngs Moduli (GPa) = 39.59156 89.70969 81.91309
#
# Poissons Ratio (x) = 0.92481 0.11685
# Poissons Ratio (y) = 0.40815 0.15180
# Poissons Ratio (z) = 0.05648 0.16624
#
# Static dielectric constant tensor:
#      x y z
#    x 3.478070 0.000000 0.000000 
#    y 0.000000 4.018540 0.000000 
#    z 0.000000 0.000000 3.402530 
# 
# 
# High freq. dielectric constant tensor:
#      x y z
#    x 1.702020 0.000000 0.000000 
#    y 0.000000 1.755120 0.000000 
#    z 0.000000 0.000000 1.741000 
# 
# From -- ./inp_files/2997.got.cif
#   From: 2010.03.12/outbox.cif.g09.slc.cpg/sg55_2_cif.got.tgz:2997.got - 2010.04.16 15:19:21.
