data_PCOD8224154
_publ_section_title
;
Structure prediction by ZEFSAII (Michael W. Deem and Ramdas Pophale) SiO2 
 PCOD8224154
Probable space group: P C C A
;
_chemical_formula_sum "Si O2"
_cell_formula_units_Z 24
_cell_length_a 5.052300
_cell_length_b 15.780439
_cell_length_c 13.290058
_cell_angle_alpha 90.000000
_cell_angle_beta 90.000000
_cell_angle_gamma 90.000000
_cell_volume 1059.583258
_symmetry_space_group_name_H-M "P C C A"
_symmetry_group_IT_number 54
_symmetry_cell_setting 'orthorhombic'
loop_
_space_group_symop_operation_xyz
x,y,z
1/2-x,-y,z
1/2+x,-y,1/2-z
-x,y,1/2-z
-x,-y,-z
1/2+x,y,-z
1/2-x,y,1/2+z
x,-y,1/2+z
loop_
_atom_site_type_symbol
_atom_site_label
_atom_site_fract_x
_atom_site_fract_y
_atom_site_fract_z
Si Si1 0.749514 0.324862 0.818343
Si Si2 0.500000 0.053369 0.250000
Si Si3 0.303138 0.161511 0.063691
Si Si4 0.250000 0.500000 0.070668
O O1 0.500000 0.299528 0.750000
O O2 0.788583 0.261491 0.911901
O O3 0.727585 0.419552 0.857977
O O4 0.000000 0.315263 0.750000
O O5 0.370846 0.110026 0.163359
O O6 0.250000 0.000000 0.292781
O O7 0.514587 0.137647 0.977955
O O8 0.500000 0.500000 0.000000
#
# Coordination Sequence:
#
# PCOD8224154 Si02
#       4
#     8   4   8   4
#     4  12  24  43  70 100 141 189 237 289 351 418
#     4  12  28  48  74 106 144 184 236 304 360 434
#     4  12  26  46  74 106 141 188 235 289 358 430
#     4  12  24  42  64 102 142 184 242 292 344 416
#
# _framework density 22.650413
#
# number of rings (size 3 to 8) (size 9 to 14) (size 15 to 20)
#    0.000    0.000    1.667    9.000    2.333    4.000 
#    0.000    0.000    0.000    0.000    0.000    0.000 
#    0.000    0.000    0.000    0.000    0.000    0.000 
#
# Total GULP energy -297699.651949 kJ/mol
# GULP energy per Si atom -12404.152165 kJ/mol
# Density = 2.259886 g / cm^3
# Si number density = 22.650413 Si / 1000 Ang^3
#
#
#
# Elastic Constant Matrix: (Units=GPa)
#
#
# Indices 1 2 3 4 5 6 
#
# 1 172.3361 22.6518 39.9971 0.0000 0.0000 0.0000
# 2 22.6518 104.7213 27.5678 0.0000 0.0000 0.0000
# 3 39.9971 27.5678 96.3123 0.0000 0.0000 0.0000
# 4 0.0000 0.0000 0.0000 14.8803 0.0000 0.0000
# 5 0.0000 0.0000 0.0000 0.0000 41.6075 0.0000
# 6 0.0000 0.0000 0.0000 0.0000 0.0000 35.5067
#
#
#
# Elastic Compliance Matrix: (Units=1/GPa)
#
#
# Indices 1 2 3 4 5 6 
#
# 1 0.006475 -0.000749 -0.002475 0.000000 0.000000 0.000000
# 2 -0.000749 0.010414 -0.002670 0.000000 0.000000 0.000000
# 3 -0.002475 -0.002670 0.012175 0.000000 0.000000 0.000000
# 4 0.000000 0.000000 0.000000 0.067203 0.000000 0.000000
# 5 0.000000 0.000000 0.000000 0.000000 0.024034 0.000000
# 6 0.000000 0.000000 0.000000 0.000000 0.000000 0.028164
#
#
# Mechanical properties :
#
#
# Convention : Reuss Voigt Hill
#
# Bulk Modulus (GPa) = 57.88053 61.53368 59.70710
# Shear Modulus (GPa) = 30.11845 37.27577 33.69711
#
# Velocity S-wave (km/s) = 3.65047 4.06112 3.86126
# Velocity P-wave (km/s) = 6.58614 7.01541 6.80416
#
# Compressibility (1/GPa) = 0.01727697
#
# Stress axis : x y z
#
# Youngs Moduli (GPa) = 154.42975 96.02452 82.13718
#
# Poissons Ratio (x) = 0.07194 0.20327
# Poissons Ratio (y) = 0.11570 0.21928
# Poissons Ratio (z) = 0.38217 0.25636
#
# Static dielectric constant tensor:
#      x y z
#    x 4.419330 0.000000 0.000000 
#    y 0.000000 4.151100 0.000000 
#    z 0.000000 0.000000 4.067320 
# 
# 
# High freq. dielectric constant tensor:
#      x y z
#    x 1.920280 0.000000 0.000000 
#    y 0.000000 1.904860 0.000000 
#    z 0.000000 0.000000 1.903020 
# 
# From -- ./inp_files/10673.got.cif
#   From: 2010.03.12/outbox.cif.g09.slc.cpg/sg54_6_cif.got.tgz:10673.got - 2010.04.16 15:00:50.
