data_PCOD8224344
_publ_section_title
;
Structure prediction by ZEFSAII (Michael W. Deem and Ramdas Pophale) SiO2 
 PCOD8224344
Probable space group: P B A M
;
_chemical_formula_sum "Si O2"
_cell_formula_units_Z 48
_cell_length_a 9.346614
_cell_length_b 17.113574
_cell_length_c 16.150528
_cell_angle_alpha 90.000000
_cell_angle_beta 90.000000
_cell_angle_gamma 90.000000
_cell_volume 2583.341077
_symmetry_space_group_name_H-M "P B A M"
_symmetry_group_IT_number 55
_symmetry_cell_setting 'orthorhombic'
loop_
_space_group_symop_operation_xyz
x,y,z
-x,-y,z
1/2+x,1/2-y,-z
1/2-x,1/2+y,-z
-x,-y,-z
x,y,-z
1/2-x,1/2+y,z
1/2+x,1/2-y,z
loop_
_atom_site_type_symbol
_atom_site_label
_atom_site_fract_x
_atom_site_fract_y
_atom_site_fract_z
Si Si1 0.667512 0.008237 0.673912
Si Si2 0.356287 0.954515 0.906919
Si Si3 0.096664 0.073195 0.406730
Si Si4 0.644801 0.453598 0.177396
Si Si5 0.034236 0.187101 0.742734
Si Si6 0.209918 0.340345 0.758024
O O1 0.742001 0.961881 0.598254
O O2 0.730098 0.969705 0.756640
O O3 0.500000 0.000000 0.665677
O O4 0.703091 0.100621 0.679779
O O5 0.329429 0.882868 0.844374
O O6 0.500000 0.000000 0.881319
O O7 0.219649 0.015148 0.906388
O O8 0.368925 0.921020 0.000000
O O9 0.067138 0.102525 0.500000
O O10 0.066184 0.144209 0.344471
O O11 0.000000 0.000000 0.380351
O O12 0.500000 0.500000 0.199204
O O13 0.606523 0.361835 0.181331
O O14 0.096265 0.273189 0.740580
O O15 0.867159 0.196231 0.761503
#
# Coordination Sequence:
#
# PCOD8224344 Si02
#       6
#     8   8   8   8   8   8
#     4  10  19  34  59  85 114 152 199 239 277 341
#     4  10  22  40  61  87 118 151 192 244 296 338
#     4  10  20  40  63  82 113 154 197 248 293 338
#     4  10  17  36  59  81 109 152 204 236 271 337
#     4  11  22  36  58  88 116 151 198 234 293 356
#     4  11  22  37  57  87 117 155 191 238 285 354
#
# _framework density 18.580589
#
# number of rings (size 3 to 8) (size 9 to 14) (size 15 to 20)
#    0.000    1.667    5.000    3.000    7.000    0.667 
#    0.000    3.333    0.000    0.000    0.000    0.000 
#    0.000    0.000    0.000    0.000    0.000    0.000 
#
# Total GULP energy -594768.439538 kJ/mol
# GULP energy per Si atom -12391.009157 kJ/mol
# Density = 1.853830 g / cm^3
# Si number density = 18.580589 Si / 1000 Ang^3
#
#
#
# Elastic Constant Matrix: (Units=GPa)
#
#
# Indices 1 2 3 4 5 6 
#
# 1 137.4907 32.1039 30.6609 0.0000 0.0000 0.0000
# 2 32.1039 93.9810 38.2508 0.0000 0.0000 0.0000
# 3 30.6609 38.2508 85.4030 0.0000 0.0000 0.0000
# 4 0.0000 0.0000 0.0000 16.6629 0.0000 0.0000
# 5 0.0000 0.0000 0.0000 0.0000 17.5017 0.0000
# 6 0.0000 0.0000 0.0000 0.0000 0.0000 39.1850
#
#
#
# Elastic Compliance Matrix: (Units=1/GPa)
#
#
# Indices 1 2 3 4 5 6 
#
# 1 0.008191 -0.001958 -0.002064 0.000000 0.000000 0.000000
# 2 -0.001958 0.013481 -0.005335 0.000000 0.000000 0.000000
# 3 -0.002064 -0.005335 0.014839 0.000000 0.000000 0.000000
# 4 0.000000 0.000000 0.000000 0.060013 0.000000 0.000000
# 5 0.000000 0.000000 0.000000 0.000000 0.057137 0.000000
# 6 0.000000 0.000000 0.000000 0.000000 0.000000 0.025520
#
#
# Mechanical properties :
#
#
# Convention : Reuss Voigt Hill
#
# Bulk Modulus (GPa) = 56.18666 57.65621 56.92143
# Shear Modulus (GPa) = 24.53064 29.06054 26.79559
#
# Velocity S-wave (km/s) = 3.63744 3.95907 3.80166
# Velocity P-wave (km/s) = 6.92433 7.21087 7.06905
#
# Compressibility (1/GPa) = 0.01779782
#
# Stress axis : x y z
#
# Youngs Moduli (GPa) = 122.09125 74.18057 67.38803
#
# Poissons Ratio (x) = 0.14525 0.13906
# Poissons Ratio (y) = 0.23906 0.35950
# Poissons Ratio (z) = 0.25194 0.39574
#
# Static dielectric constant tensor:
#      x y z
#    x 3.726360 0.000000 0.000000 
#    y 0.000000 3.377890 0.000000 
#    z 0.000000 0.000000 3.329250 
# 
# 
# High freq. dielectric constant tensor:
#      x y z
#    x 1.743830 0.000000 0.000000 
#    y 0.000000 1.705390 0.000000 
#    z 0.000000 0.000000 1.694750 
# 
# From -- ./inp_files/20790.got.cif
#   From: 2010.03.12/outbox.cif.g09.slc.cpg/sg55_11_cif.got.tgz:20790.got - 2010.04.16 15:19:21.
