data_PCOD8224957
_publ_section_title
;
Structure prediction by ZEFSAII (Michael W. Deem and Ramdas Pophale) SiO2 
 PCOD8224957
Probable space group: P B A M
;
_chemical_formula_sum "Si O2"
_cell_formula_units_Z 64
_cell_length_a 12.997932
_cell_length_b 27.932692
_cell_length_c 8.996273
_cell_angle_alpha 90.000000
_cell_angle_beta 90.000000
_cell_angle_gamma 90.000000
_cell_volume 3266.251929
_symmetry_space_group_name_H-M "P B A M"
_symmetry_group_IT_number 55
_symmetry_cell_setting 'orthorhombic'
loop_
_space_group_symop_operation_xyz
x,y,z
-x,-y,z
1/2+x,1/2-y,-z
1/2-x,1/2+y,-z
-x,-y,-z
x,y,-z
1/2-x,1/2+y,z
1/2+x,1/2-y,z
loop_
_atom_site_type_symbol
_atom_site_label
_atom_site_fract_x
_atom_site_fract_y
_atom_site_fract_z
Si Si1 0.338230 0.421138 0.838516
Si Si2 0.755079 0.409293 0.676231
Si Si3 0.436817 0.326598 0.825697
Si Si4 0.234014 0.290912 0.328066
Si Si5 0.876409 0.629666 0.165849
Si Si6 0.149691 0.186748 0.328779
Si Si7 0.387861 0.508631 0.674510
Si Si8 0.523921 0.945336 0.323246
O O1 0.428121 0.383690 0.794159
O O2 0.236361 0.390780 0.848426
O O3 0.322317 0.461752 0.715199
O O4 0.361719 0.444395 0.000000
O O5 0.759428 0.412782 0.500000
O O6 0.725252 0.355864 0.728490
O O7 0.666975 0.444580 0.740658
O O8 0.864770 0.427926 0.736769
O O9 0.345308 0.298702 0.743857
O O10 0.546221 0.309546 0.765729
O O11 0.428385 0.315253 0.000000
O O12 0.238577 0.306112 0.500000
O O13 0.139157 0.320264 0.253195
O O14 0.212440 0.235060 0.307956
O O15 0.944540 0.591864 0.254172
O O16 0.921987 0.638833 0.000000
O O17 0.119035 0.177566 0.500000
O O18 0.500000 0.500000 0.747403
O O19 0.396771 0.513558 0.500000
O O20 0.515355 0.942223 0.500000
O O21 0.500000 0.000000 0.270529
#
# Coordination Sequence:
#
# PCOD8224957 Si02
#       8
#     8   8   8   8   8   8   8   8
#     4   9  19  34  51  74 105 139 174 215 263 318
#     4   9  19  35  53  79 113 144 182 232 281 333
#     4  10  21  37  57  82 113 146 180 225 282 337
#     4  10  21  37  59  85 110 144 193 241 287 342
#     4  10  21  37  56  80 110 143 184 234 286 338
#     4  10  21  38  59  81 109 146 187 233 282 333
#     4  10  19  31  52  79 104 135 175 218 266 320
#     4  10  20  35  57  84 117 157 196 236 286 346
#
# _framework density 19.594325999999999
#
# number of rings (size 3 to 8) (size 9 to 14) (size 15 to 20)
#    0.000    2.250    0.000    3.375    0.000    7.500 
#    0.000    4.375    0.000    0.000    0.000    0.000 
#    0.000    0.000    0.000    0.000    0.000    0.000 
#
# Total GULP energy -793356.613930 kJ/mol
# GULP energy per Si atom -12396.197093 kJ/mol
# Density = 1.954973 g / cm^3
# Si number density = 19.594326 Si / 1000 Ang^3
#
#
#
# Elastic Constant Matrix: (Units=GPa)
#
#
# Indices 1 2 3 4 5 6 
#
# 1 94.4137 54.8267 37.2569 0.0000 0.0000 0.0000
# 2 54.8267 137.4601 45.1722 0.0000 0.0000 0.0000
# 3 37.2569 45.1722 63.2760 0.0000 0.0000 0.0000
# 4 0.0000 0.0000 0.0000 17.4216 0.0000 0.0000
# 5 0.0000 0.0000 0.0000 0.0000 21.3332 0.0000
# 6 0.0000 0.0000 0.0000 0.0000 0.0000 32.5946
#
#
#
# Elastic Compliance Matrix: (Units=1/GPa)
#
#
# Indices 1 2 3 4 5 6 
#
# 1 0.015408 -0.004134 -0.006121 0.000000 0.000000 0.000000
# 2 -0.004134 0.010614 -0.005143 0.000000 0.000000 0.000000
# 3 -0.006121 -0.005143 0.023079 0.000000 0.000000 0.000000
# 4 0.000000 0.000000 0.000000 0.057400 0.000000 0.000000
# 5 0.000000 0.000000 0.000000 0.000000 0.046875 0.000000
# 6 0.000000 0.000000 0.000000 0.000000 0.000000 0.030680
#
#
# Mechanical properties :
#
#
# Convention : Reuss Voigt Hill
#
# Bulk Modulus (GPa) = 54.62955 63.29572 58.96264
# Shear Modulus (GPa) = 22.62920 24.79613 23.71267
#
# Velocity S-wave (km/s) = 3.40205 3.56121 3.48254
# Velocity P-wave (km/s) = 6.58580 7.02017 6.80645
#
# Compressibility (1/GPa) = 0.01830511
#
# Stress axis : x y z
#
# Youngs Moduli (GPa) = 64.90262 94.21680 43.32891
#
# Poissons Ratio (x) = 0.38949 0.26521
# Poissons Ratio (y) = 0.26831 0.22284
# Poissons Ratio (z) = 0.39726 0.48456
#
# Static dielectric constant tensor:
#      x y z
#    x 3.685970 0.000000 0.000000 
#    y 0.000000 3.689530 0.000000 
#    z 0.000000 0.000000 3.562770 
# 
# 
# High freq. dielectric constant tensor:
#      x y z
#    x 1.762480 0.000000 0.000000 
#    y 0.000000 1.769860 0.000000 
#    z 0.000000 0.000000 1.749560 
# 
# From -- ./inp_files/4560.got.cif
#   From: 2010.03.12/outbox.cif.g09.slc.cpg/sg55_3_cif.got.tgz:4560.got - 2010.04.16 15:19:21.
