data_PCOD8224850
_publ_section_title
;
Structure prediction by ZEFSAII (Michael W. Deem and Ramdas Pophale) SiO2 
 PCOD8224850
Probable space group: P B A M
;
_chemical_formula_sum "Si O2"
_cell_formula_units_Z 64
_cell_length_a 18.522593
_cell_length_b 21.388591
_cell_length_c 8.959914
_cell_angle_alpha 90.000000
_cell_angle_beta 90.000000
_cell_angle_gamma 90.000000
_cell_volume 3549.668536
_symmetry_space_group_name_H-M "P B A M"
_symmetry_group_IT_number 55
_symmetry_cell_setting 'orthorhombic'
loop_
_space_group_symop_operation_xyz
x,y,z
-x,-y,z
1/2+x,1/2-y,-z
1/2-x,1/2+y,-z
-x,-y,-z
x,y,-z
1/2-x,1/2+y,z
1/2+x,1/2-y,z
loop_
_atom_site_type_symbol
_atom_site_label
_atom_site_fract_x
_atom_site_fract_y
_atom_site_fract_z
Si Si1 0.578020 0.851787 0.325380
Si Si2 0.966298 0.813825 0.167931
Si Si3 0.519702 0.569487 0.674916
Si Si4 0.920602 0.479039 0.173258
Si Si5 0.419511 0.805244 0.675733
Si Si6 0.820480 0.595243 0.824788
Si Si7 0.871976 0.235469 0.167991
Si Si8 0.676844 0.617728 0.675279
O O1 0.590596 0.844328 0.500000
O O2 0.601627 0.920025 0.272164
O O3 0.494773 0.838887 0.282274
O O4 0.630942 0.803524 0.242453
O O5 0.916941 0.765258 0.259812
O O6 0.965905 0.882175 0.243521
O O7 0.046867 0.788514 0.168852
O O8 0.936110 0.819477 0.000000
O O9 0.500000 0.500000 0.728955
O O10 0.506828 0.578217 0.500000
O O11 0.602934 0.582240 0.716964
O O12 0.866509 0.534289 0.213564
O O13 0.000000 0.500000 0.220724
O O14 0.917831 0.460067 0.000000
O O15 0.407733 0.801702 0.500000
O O16 0.354998 0.844058 0.748489
O O17 0.741457 0.582017 0.758212
O O18 0.816345 0.607600 0.000000
O O19 0.823621 0.188829 0.265705
O O20 0.841198 0.238839 0.000000
O O21 0.690897 0.618229 0.500000
#
# Coordination Sequence:
#
# PCOD8224850 Si02
#       8
#     8   8   8   8   8   8   8   8
#     4  10  19  30  50  78 106 134 173 223 267 309
#     4   9  17  29  49  78 106 131 165 212 261 310
#     4   9  18  34  57  82 107 138 176 220 270 324
#     4  10  20  34  51  74 106 145 187 225 265 316
#     4  10  19  31  49  75 105 137 173 217 266 313
#     4  11  22  35  53  75 105 144 182 222 269 325
#     4   9  17  31  52  75 101 132 168 211 259 311
#     4  10  20  35  55  79 107 136 174 221 271 326
#
# _framework density 18.029852000000002
#
# number of rings (size 3 to 8) (size 9 to 14) (size 15 to 20)
#    0.000    2.250    1.250    2.250    0.000    6.000 
#    0.000    0.000    2.750    0.000    0.000    0.000 
#    0.000    0.000    0.000    0.000    0.000    0.000 
#
# Total GULP energy -793756.542609 kJ/mol
# GULP energy per Si atom -12402.445978 kJ/mol
# Density = 1.798882 g / cm^3
# Si number density = 18.029852 Si / 1000 Ang^3
#
#
#
# Elastic Constant Matrix: (Units=GPa)
#
#
# Indices 1 2 3 4 5 6 
#
# 1 64.3578 44.1538 35.5163 0.0000 0.0000 0.0000
# 2 44.1538 144.1325 61.0956 0.0000 0.0000 0.0000
# 3 35.5163 61.0956 92.6119 0.0000 0.0000 0.0000
# 4 0.0000 0.0000 0.0000 35.0398 0.0000 0.0000
# 5 0.0000 0.0000 0.0000 0.0000 26.0040 0.0000
# 6 0.0000 0.0000 0.0000 0.0000 0.0000 22.2266
#
#
#
# Elastic Compliance Matrix: (Units=1/GPa)
#
#
# Indices 1 2 3 4 5 6 
#
# 1 0.021459 -0.004283 -0.005404 0.000000 0.000000 0.000000
# 2 -0.004283 0.010486 -0.005275 0.000000 0.000000 0.000000
# 3 -0.005404 -0.005275 0.016350 0.000000 0.000000 0.000000
# 4 0.000000 0.000000 0.000000 0.028539 0.000000 0.000000
# 5 0.000000 0.000000 0.000000 0.000000 0.038456 0.000000
# 6 0.000000 0.000000 0.000000 0.000000 0.000000 0.044991
#
#
# Mechanical properties :
#
#
# Convention : Reuss Voigt Hill
#
# Bulk Modulus (GPa) = 54.43382 64.73703 59.58543
# Shear Modulus (GPa) = 25.46751 27.34318 26.40534
#
# Velocity S-wave (km/s) = 3.76243 3.89852 3.83108
# Velocity P-wave (km/s) = 7.00935 7.49987 7.25875
#
# Compressibility (1/GPa) = 0.01837093
#
# Stress axis : x y z
#
# Youngs Moduli (GPa) = 46.60100 95.36334 61.16183
#
# Poissons Ratio (x) = 0.40845 0.33051
# Poissons Ratio (y) = 0.19960 0.32264
# Poissons Ratio (z) = 0.25182 0.50305
#
# Static dielectric constant tensor:
#      x y z
#    x 3.083890 0.000000 0.000000 
#    y 0.000000 3.393750 0.000000 
#    z 0.000000 0.000000 3.409620 
# 
# 
# High freq. dielectric constant tensor:
#      x y z
#    x 1.662140 0.000000 0.000000 
#    y 0.000000 1.700470 0.000000 
#    z 0.000000 0.000000 1.710460 
# 
# From -- ./inp_files/9180.got.cif
#   From: 2010.03.12/outbox.cif.g09.slc.cpg/sg55_5_cif.got.tgz:9180.got - 2010.04.16 15:19:21.
