data_PCOD8224700
_publ_section_title
;
Structure prediction by ZEFSAII (Michael W. Deem and Ramdas Pophale) SiO2 
 PCOD8224700
Probable space group: P B A M
;
_chemical_formula_sum "Si O2"
_cell_formula_units_Z 40
_cell_length_a 7.461906
_cell_length_b 18.916325
_cell_length_c 13.687522
_cell_angle_alpha 90.000000
_cell_angle_beta 90.000000
_cell_angle_gamma 90.000000
_cell_volume 1932.018902
_symmetry_space_group_name_H-M "P B A M"
_symmetry_group_IT_number 55
_symmetry_cell_setting 'orthorhombic'
loop_
_space_group_symop_operation_xyz
x,y,z
-x,-y,z
1/2+x,1/2-y,-z
1/2-x,1/2+y,-z
-x,-y,-z
x,y,-z
1/2-x,1/2+y,z
1/2+x,1/2-y,z
loop_
_atom_site_type_symbol
_atom_site_label
_atom_site_fract_x
_atom_site_fract_y
_atom_site_fract_z
Si Si1 0.515723 0.418611 0.696566
Si Si2 0.395550 0.647500 0.891394
Si Si3 0.195557 0.679925 0.611908
Si Si4 0.316665 0.824906 0.303736
Si Si5 0.007183 0.302965 0.890728
O O1 0.500000 0.500000 0.668706
O O2 0.545040 0.410470 0.812846
O O3 0.681775 0.387026 0.636693
O O4 0.335134 0.379317 0.662807
O O5 0.186851 0.663895 0.877264
O O6 0.510156 0.718753 0.873580
O O7 0.430986 0.617295 0.000000
O O8 0.222793 0.702497 0.500000
O O9 0.249585 0.744738 0.681673
O O10 0.989972 0.659496 0.630411
O O11 0.361289 0.837128 0.189221
O O12 0.084322 0.317688 0.000000
#
# Coordination Sequence:
#
# PCOD8224700 Si02
#       5
#     8   8   8   8   8
#     4  12  27  44  65  98 139 175 217 274 335 395
#     4  10  19  35  60  94 134 173 215 265 325 389
#     4  12  25  44  71 100 127 166 225 279 328 392
#     4  12  22  42  72 100 131 171 221 272 327 389
#     4  10  18  33  64 101 130 164 219 276 318 376
#
# _framework density 20.703731000000001
#
# number of rings (size 3 to 8) (size 9 to 14) (size 15 to 20)
#    0.000    0.800    6.000    1.800    0.000    4.800 
#    0.000    1.000    0.000    2.400    0.000    0.000 
#    0.000    0.000    0.000    0.000    0.000    0.000 
#
# Total GULP energy -496197.460738 kJ/mol
# GULP energy per Si atom -12404.936518 kJ/mol
# Density = 2.065661 g / cm^3
# Si number density = 20.703731 Si / 1000 Ang^3
#
#
#
# Elastic Constant Matrix: (Units=GPa)
#
#
# Indices 1 2 3 4 5 6 
#
# 1 105.0230 37.3981 24.1324 0.0000 0.0000 0.0000
# 2 37.3981 98.9710 12.8790 0.0000 0.0000 0.0000
# 3 24.1324 12.8790 104.6338 0.0000 0.0000 0.0000
# 4 0.0000 0.0000 0.0000 10.9736 0.0000 0.0000
# 5 0.0000 0.0000 0.0000 0.0000 22.2045 0.0000
# 6 0.0000 0.0000 0.0000 0.0000 0.0000 25.4167
#
#
#
# Elastic Compliance Matrix: (Units=1/GPa)
#
#
# Indices 1 2 3 4 5 6 
#
# 1 0.011457 -0.004050 -0.002144 0.000000 0.000000 0.000000
# 2 -0.004050 0.011700 -0.000506 0.000000 0.000000 0.000000
# 3 -0.002144 -0.000506 0.010114 0.000000 0.000000 0.000000
# 4 0.000000 0.000000 0.000000 0.091128 0.000000 0.000000
# 5 0.000000 0.000000 0.000000 0.000000 0.045036 0.000000
# 6 0.000000 0.000000 0.000000 0.000000 0.000000 0.039344
#
#
# Mechanical properties :
#
#
# Convention : Reuss Voigt Hill
#
# Bulk Modulus (GPa) = 50.32516 50.82743 50.57630
# Shear Modulus (GPa) = 21.85296 27.33351 24.59323
#
# Velocity S-wave (km/s) = 3.25238 3.63743 3.45028
# Velocity P-wave (km/s) = 6.20194 6.49957 6.35250
#
# Compressibility (1/GPa) = 0.01987078
#
# Stress axis : x y z
#
# Youngs Moduli (GPa) = 87.28629 85.46833 98.87420
#
# Poissons Ratio (x) = 0.34616 0.21197
# Poissons Ratio (y) = 0.35352 0.05003
# Poissons Ratio (z) = 0.18712 0.04325
#
# Static dielectric constant tensor:
#      x y z
#    x 3.928570 0.000000 0.000000 
#    y 0.000000 3.196940 0.000000 
#    z 0.000000 0.000000 3.937140 
# 
# 
# High freq. dielectric constant tensor:
#      x y z
#    x 1.830190 0.000000 0.000000 
#    y 0.000000 1.751230 0.000000 
#    z 0.000000 0.000000 1.826120 
# 
# From -- ./inp_files/17092.got.cif
#   From: 2010.03.12/outbox.cif.g09.slc.cpg/sg55_9_cif.got.tgz:17092.got - 2010.04.16 15:19:21.
