data_PCOD8224278
_publ_section_title
;
Structure prediction by ZEFSAII (Michael W. Deem and Ramdas Pophale) SiO2 
 PCOD8224278
Probable space group: P B A M
;
_chemical_formula_sum "Si O2"
_cell_formula_units_Z 64
_cell_length_a 15.243504
_cell_length_b 24.787622
_cell_length_c 9.018342
_cell_angle_alpha 90.000000
_cell_angle_beta 90.000000
_cell_angle_gamma 90.000000
_cell_volume 3407.582465
_symmetry_space_group_name_H-M "P B A M"
_symmetry_group_IT_number 55
_symmetry_cell_setting 'orthorhombic'
loop_
_space_group_symop_operation_xyz
x,y,z
-x,-y,z
1/2+x,1/2-y,-z
1/2-x,1/2+y,-z
-x,-y,-z
x,y,-z
1/2-x,1/2+y,z
1/2+x,1/2-y,z
loop_
_atom_site_type_symbol
_atom_site_label
_atom_site_fract_x
_atom_site_fract_y
_atom_site_fract_z
Si Si1 0.884523 0.693622 0.323743
Si Si2 0.539997 0.391153 0.824683
Si Si3 0.124642 0.536745 0.324617
Si Si4 0.792591 0.189359 0.825386
Si Si5 0.485511 0.273663 0.173976
Si Si6 0.702055 0.458399 0.176310
Si Si7 0.060065 0.422819 0.324633
Si Si8 0.644821 0.574325 0.823794
O O1 0.881133 0.697354 0.500000
O O2 0.791754 0.714803 0.257821
O O3 0.898811 0.632538 0.264303
O O4 0.968030 0.727025 0.266960
O O5 0.535732 0.328488 0.780795
O O6 0.626604 0.419300 0.759301
O O7 0.454423 0.421794 0.761618
O O8 0.540402 0.397136 0.000000
O O9 0.137868 0.539298 0.500000
O O10 0.207400 0.563181 0.243221
O O11 0.114610 0.474674 0.268636
O O12 0.040773 0.571301 0.272475
O O13 0.881935 0.221766 0.784652
O O14 0.801419 0.127086 0.771526
O O15 0.775748 0.192964 0.000000
O O16 0.495835 0.261844 0.000000
O O17 0.686776 0.519252 0.236533
O O18 0.705741 0.456654 0.000000
O O19 0.060716 0.423195 0.500000
O O20 0.641329 0.574273 0.000000
#
# Coordination Sequence:
#
# PCOD8224278 Si02
#       8
#     8   8   8   8   8   8   8   8
#     4  11  21  34  55  80 102 128 170 220 263 299
#     4   8  15  29  48  69  99 134 164 198 244 299
#     4   9  17  33  52  68  96 135 166 192 239 307
#     4   9  18  34  55  77 101 133 172 210 254 306
#     4   9  19  37  55  72 100 139 176 210 250 304
#     4  10  17  26  46  78 105 125 158 203 247 291
#     4   8  17  34  53  70  93 131 169 200 242 303
#     4   8  14  26  48  75 100 129 165 203 243 292
#
# _framework density 18.781642999999999
#
# number of rings (size 3 to 8) (size 9 to 14) (size 15 to 20)
#    0.000    3.000    0.000    3.750    0.000    2.000 
#    2.250    3.750    0.000    3.000    0.000    0.000 
#    0.000    0.000    0.000    0.000    0.000    0.000 
#
# Total GULP energy -793238.779958 kJ/mol
# GULP energy per Si atom -12394.355937 kJ/mol
# Density = 1.873890 g / cm^3
# Si number density = 18.781643 Si / 1000 Ang^3
#
#
#
# Elastic Constant Matrix: (Units=GPa)
#
#
# Indices 1 2 3 4 5 6 
#
# 1 138.4060 44.9557 36.2764 0.0000 0.0000 0.0000
# 2 44.9557 58.1731 23.5887 0.0000 0.0000 0.0000
# 3 36.2764 23.5887 35.0727 0.0000 0.0000 0.0000
# 4 0.0000 0.0000 0.0000 15.3388 0.0000 0.0000
# 5 0.0000 0.0000 0.0000 0.0000 8.4950 0.0000
# 6 0.0000 0.0000 0.0000 0.0000 0.0000 25.5567
#
#
#
# Elastic Compliance Matrix: (Units=1/GPa)
#
#
# Indices 1 2 3 4 5 6 
#
# 1 0.011002 -0.005346 -0.007784 0.000000 0.000000 0.000000
# 2 -0.005346 0.026234 -0.012115 0.000000 0.000000 0.000000
# 3 -0.007784 -0.012115 0.044711 0.000000 0.000000 0.000000
# 4 0.000000 0.000000 0.000000 0.065194 0.000000 0.000000
# 5 0.000000 0.000000 0.000000 0.000000 0.117716 0.000000
# 6 0.000000 0.000000 0.000000 0.000000 0.000000 0.039129
#
#
# Mechanical properties :
#
#
# Convention : Reuss Voigt Hill
#
# Bulk Modulus (GPa) = 31.78853 49.03262 40.41058
# Shear Modulus (GPa) = 13.70014 18.33350 16.01682
#
# Velocity S-wave (km/s) = 2.70375 3.12771 2.92343
# Velocity P-wave (km/s) = 5.16808 6.26153 5.74090
#
# Compressibility (1/GPa) = 0.03145789
#
# Stress axis : x y z
#
# Youngs Moduli (GPa) = 90.89574 38.11904 22.36574
#
# Poissons Ratio (x) = 0.20377 0.17409
# Poissons Ratio (y) = 0.48590 0.27096
# Poissons Ratio (z) = 0.70752 0.46180
#
# Static dielectric constant tensor:
#      x y z
#    x 3.644690 0.000000 0.000000 
#    y 0.000000 3.576460 0.000000 
#    z 0.000000 0.000000 2.916440 
# 
# 
# High freq. dielectric constant tensor:
#      x y z
#    x 1.744220 0.000000 0.000000 
#    y 0.000000 1.716470 0.000000 
#    z 0.000000 0.000000 1.684020 
# 
# From -- ./inp_files/6526.got.cif
#   From: 2010.03.12/outbox.cif.g09.slc.cpg/sg55_4_cif.got.tgz:6526.got - 2010.04.16 15:19:21.
