data_PCOD8224668
_publ_section_title
;
Structure prediction by ZEFSAII (Michael W. Deem and Ramdas Pophale) SiO2 
 PCOD8224668
Probable space group: P B A M
;
_chemical_formula_sum "Si O2"
_cell_formula_units_Z 64
_cell_length_a 19.321673
_cell_length_b 19.190812
_cell_length_c 8.648211
_cell_angle_alpha 90.000000
_cell_angle_beta 90.000000
_cell_angle_gamma 90.000000
_cell_volume 3206.744480
_symmetry_space_group_name_H-M "P B A M"
_symmetry_group_IT_number 55
_symmetry_cell_setting 'orthorhombic'
loop_
_space_group_symop_operation_xyz
x,y,z
-x,-y,z
1/2+x,1/2-y,-z
1/2-x,1/2+y,-z
-x,-y,-z
x,y,-z
1/2-x,1/2+y,z
1/2+x,1/2-y,z
loop_
_atom_site_type_symbol
_atom_site_label
_atom_site_fract_x
_atom_site_fract_y
_atom_site_fract_z
Si Si1 0.121173 0.339088 0.816501
Si Si2 0.802936 0.525329 0.816072
Si Si3 0.593793 0.416100 0.323895
Si Si4 0.549190 0.655126 0.325010
Si Si5 0.307893 0.697513 0.182509
Si Si6 0.528519 0.800337 0.181373
Si Si7 0.665765 0.871807 0.816108
Si Si8 0.648156 0.551120 0.819650
O O1 0.148421 0.412874 0.750607
O O2 0.174292 0.277083 0.769998
O O3 0.044300 0.326813 0.746503
O O4 0.116832 0.342054 0.000000
O O5 0.825826 0.450146 0.749637
O O6 0.725721 0.540354 0.759531
O O7 0.805715 0.523545 0.000000
O O8 0.612654 0.435997 0.500000
O O9 0.513328 0.398777 0.308678
O O10 0.638699 0.350508 0.272626
O O11 0.606229 0.480828 0.212043
O O12 0.556837 0.682329 0.500000
O O13 0.536327 0.719129 0.212296
O O14 0.618656 0.616289 0.274160
O O15 0.229890 0.677627 0.234704
O O16 0.317803 0.685092 0.000000
O O17 0.594171 0.841493 0.253390
O O18 0.527213 0.812915 0.000000
O O19 0.662818 0.873665 0.000000
O O20 0.644893 0.568908 0.000000
#
# Coordination Sequence:
#
# PCOD8224668 Si02
#       8
#     8   8   8   8   8   8   8   8
#     4   9  18  31  53  84 115 143 183 234 282 328
#     4   9  18  33  54  84 115 145 179 231 291 328
#     4  11  22  37  57  80 113 152 185 225 281 335
#     4  11  24  39  54  79 117 152 182 229 282 334
#     4  10  18  33  56  82 112 146 185 233 279 328
#     4  10  20  35  58  85 109 145 192 235 274 331
#     4   9  18  32  54  84 116 143 182 237 288 325
#     4  11  22  36  59  85 112 148 188 228 276 338
#
# _framework density 19.957936
#
# number of rings (size 3 to 8) (size 9 to 14) (size 15 to 20)
#    0.000    2.000    2.500    1.500    1.750    3.500 
#    0.000    3.125    0.000    1.500    0.000    0.875 
#    0.000    0.000    0.000    0.000    0.000    0.000 
#
# Total GULP energy -793599.338386 kJ/mol
# GULP energy per Si atom -12399.989662 kJ/mol
# Density = 1.991251 g / cm^3
# Si number density = 19.957936 Si / 1000 Ang^3
#
#
#
# Elastic Constant Matrix: (Units=GPa)
#
#
# Indices 1 2 3 4 5 6 
#
# 1 143.2443 82.8602 20.2552 0.0000 0.0000 0.0000
# 2 82.8602 103.0640 7.0087 0.0000 0.0000 0.0000
# 3 20.2552 7.0087 13.4030 0.0000 0.0000 0.0000
# 4 0.0000 0.0000 0.0000 8.7165 0.0000 0.0000
# 5 0.0000 0.0000 0.0000 0.0000 10.7927 0.0000
# 6 0.0000 0.0000 0.0000 0.0000 0.0000 39.8492
#
#
#
# Elastic Compliance Matrix: (Units=1/GPa)
#
#
# Indices 1 2 3 4 5 6 
#
# 1 0.016641 -0.012099 -0.018822 0.000000 0.000000 0.000000
# 2 -0.012099 0.018857 0.008424 0.000000 0.000000 0.000000
# 3 -0.018822 0.008424 0.098650 0.000000 0.000000 0.000000
# 4 0.000000 0.000000 0.000000 0.114725 0.000000 0.000000
# 5 0.000000 0.000000 0.000000 0.000000 0.092656 0.000000
# 6 0.000000 0.000000 0.000000 0.000000 0.000000 0.025095
#
#
# Mechanical properties :
#
#
# Convention : Reuss Voigt Hill
#
# Bulk Modulus (GPa) = 11.21656 53.32885 32.27271
# Shear Modulus (GPa) = 11.32920 21.84415 16.58668
#
# Velocity S-wave (km/s) = 2.38513 3.31193 2.88598
# Velocity P-wave (km/s) = 3.63558 6.43458 5.22596
#
# Compressibility (1/GPa) = 0.08915387
#
# Stress axis : x y z
#
# Youngs Moduli (GPa) = 60.09080 53.03002 10.13681
#
# Poissons Ratio (x) = 0.64162 0.19080
# Poissons Ratio (y) = 0.72705 -0.08539
# Poissons Ratio (z) = 1.13105 -0.44673
#
# Static dielectric constant tensor:
#      x y z
#    x 3.986030 0.000000 0.000000 
#    y 0.000000 3.769900 0.000000 
#    z 0.000000 0.000000 3.179870 
# 
# 
# High freq. dielectric constant tensor:
#      x y z
#    x 1.789800 0.000000 0.000000 
#    y 0.000000 1.785000 0.000000 
#    z 0.000000 0.000000 1.732280 
# 
# From -- ./inp_files/8070.got.cif
#   From: 2010.03.12/outbox.cif.g09.slc.cpg/sg55_5_cif.got.tgz:8070.got - 2010.04.16 15:19:21.
