data_PCOD8224741
_publ_section_title
;
Structure prediction by ZEFSAII (Michael W. Deem and Ramdas Pophale) SiO2 
 PCOD8224741
Probable space group: P B A M
;
_chemical_formula_sum "Si O2"
_cell_formula_units_Z 56
_cell_length_a 14.733667
_cell_length_b 22.088095
_cell_length_c 8.579090
_cell_angle_alpha 90.000000
_cell_angle_beta 90.000000
_cell_angle_gamma 90.000000
_cell_volume 2791.967351
_symmetry_space_group_name_H-M "P B A M"
_symmetry_group_IT_number 55
_symmetry_cell_setting 'orthorhombic'
loop_
_space_group_symop_operation_xyz
x,y,z
-x,-y,z
1/2+x,1/2-y,-z
1/2-x,1/2+y,-z
-x,-y,-z
x,y,-z
1/2-x,1/2+y,z
1/2+x,1/2-y,z
loop_
_atom_site_type_symbol
_atom_site_label
_atom_site_fract_x
_atom_site_fract_y
_atom_site_fract_z
Si Si1 0.224294 0.485059 0.813773
Si Si2 0.454710 0.317972 0.181156
Si Si3 0.380462 0.101383 0.814846
Si Si4 0.576731 0.545394 0.185407
Si Si5 0.080577 0.389643 0.183299
Si Si6 0.704385 0.773388 0.180978
Si Si7 0.889643 0.739246 0.679449
O O1 0.186413 0.549251 0.751722
O O2 0.325573 0.475279 0.747571
O O3 0.159002 0.432365 0.745854
O O4 0.225734 0.483324 0.000000
O O5 0.444484 0.386620 0.241026
O O6 0.359346 0.284497 0.208744
O O7 0.533177 0.287542 0.281130
O O8 0.482529 0.315043 0.000000
O O9 0.482195 0.091253 0.748367
O O10 0.346733 0.166783 0.758790
O O11 0.383642 0.099501 0.000000
O O12 0.500000 0.500000 0.251457
O O13 0.578781 0.543025 0.000000
O O14 0.100320 0.320063 0.216618
O O15 0.079479 0.398843 0.000000
O O16 0.793011 0.768725 0.285640
O O17 0.732143 0.778921 0.000000
O O18 0.896728 0.720951 0.500000
#
# Coordination Sequence:
#
# PCOD8224741 Si02
#       7
#     8   8   8   8   8   8   8
#     4   9  17  29  52  86 118 145 177 232 291 336
#     4  10  20  38  61  85 112 148 191 238 287 335
#     4   9  17  30  54  88 115 139 179 235 292 338
#     4   9  18  30  49  82 117 145 180 228 282 335
#     4  10  18  35  58  84 114 146 189 235 284 337
#     4  10  20  36  59  86 113 146 192 240 290 342
#     4  12  25  37  55  83 116 154 193 233 286 341
#
# _framework density 20.057542000000002
#
# number of rings (size 3 to 8) (size 9 to 14) (size 15 to 20)
#    0.000    2.143    1.429    2.571    2.000    4.571 
#    0.000    0.000    0.000    3.000    0.000    0.000 
#    0.000    0.000    0.000    0.000    0.000    0.000 
#
# Total GULP energy -694453.377465 kJ/mol
# GULP energy per Si atom -12400.953169 kJ/mol
# Density = 2.001189 g / cm^3
# Si number density = 20.057542 Si / 1000 Ang^3
#
#
#
# Elastic Constant Matrix: (Units=GPa)
#
#
# Indices 1 2 3 4 5 6 
#
# 1 136.8221 53.9792 10.5689 0.0000 0.0000 0.0000
# 2 53.9792 141.4250 -0.3682 0.0000 0.0000 0.0000
# 3 10.5689 -0.3682 14.0716 0.0000 0.0000 0.0000
# 4 0.0000 0.0000 0.0000 3.3681 0.0000 0.0000
# 5 0.0000 0.0000 0.0000 0.0000 -0.3102 0.0000
# 6 0.0000 0.0000 0.0000 0.0000 0.0000 32.8863
#
#
#
# Elastic Compliance Matrix: (Units=1/GPa)
#
#
# Indices 1 2 3 4 5 6 
#
# 1 0.009253 -0.003550 -0.007043 0.000000 0.000000 0.000000
# 2 -0.003550 0.008433 0.002887 0.000000 0.000000 0.000000
# 3 -0.007043 0.002887 0.076431 0.000000 0.000000 0.000000
# 4 0.000000 0.000000 0.000000 0.296902 0.000000 0.000000
# 5 0.000000 0.000000 0.000000 0.000000 -3.224142 0.000000
# 6 0.000000 0.000000 0.000000 0.000000 0.000000 0.030408
#
#
# Mechanical properties :
#
#
# Convention : Reuss Voigt Hill
#
# Bulk Modulus (GPa) = 12.70561 46.74205 29.72383
# Shear Modulus (GPa) = -1.81089 22.39810 10.29360
#
# Velocity S-wave (km/s) = -0.95121 3.34532 2.26786
# Velocity P-wave (km/s) = 2.26758 6.18677 4.65929
#
# Compressibility (1/GPa) = 0.07870542
#
# Stress axis : x y z
#
# Youngs Moduli (GPa) = 108.06804 118.57554 13.08377
#
# Poissons Ratio (x) = 0.42097 0.09215
# Poissons Ratio (y) = 0.38366 -0.03778
# Poissons Ratio (z) = 0.76112 -0.34235
#
# Static dielectric constant tensor:
#      x y z
#    x 3.925250 0.000000 0.000000 
#    y 0.000000 3.802650 0.000000 
#    z 0.000000 0.000000 3.012200 
# 
# 
# High freq. dielectric constant tensor:
#      x y z
#    x 1.800360 0.000000 0.000000 
#    y 0.000000 1.795780 0.000000 
#    z 0.000000 0.000000 1.716940 
# 
# From -- ./inp_files/6046.got.cif
#   From: 2010.03.12/outbox.cif.g09.slc.cpg/sg55_4_cif.got.tgz:6046.got - 2010.04.16 15:19:21.
