data_PCOD8224084
_publ_section_title
;
Structure prediction by ZEFSAII (Michael W. Deem and Ramdas Pophale) SiO2 
 PCOD8224084
Probable space group: P C C A
;
_chemical_formula_sum "Si O2"
_cell_formula_units_Z 24
_cell_length_a 9.953663
_cell_length_b 6.734663
_cell_length_c 15.945545
_cell_angle_alpha 90.000000
_cell_angle_beta 90.000000
_cell_angle_gamma 90.000000
_cell_volume 1068.902687
_symmetry_space_group_name_H-M "P C C A"
_symmetry_group_IT_number 54
_symmetry_cell_setting 'orthorhombic'
loop_
_space_group_symop_operation_xyz
x,y,z
1/2-x,-y,z
1/2+x,-y,1/2-z
-x,y,1/2-z
-x,-y,-z
1/2+x,y,-z
1/2-x,y,1/2+z
x,-y,1/2+z
loop_
_atom_site_type_symbol
_atom_site_label
_atom_site_fract_x
_atom_site_fract_y
_atom_site_fract_z
Si Si1 0.750000 0.000000 0.325811
Si Si2 0.500000 0.213460 0.250000
Si Si3 0.607051 0.531623 0.608497
Si Si4 0.935058 0.805414 0.957507
O O1 0.635245 0.086162 0.263972
O O2 0.821095 0.155076 0.388266
O O3 0.492422 0.350703 0.331359
O O4 0.750000 0.500000 0.653709
O O5 0.552940 0.313457 0.588449
O O6 0.632547 0.662930 0.525778
O O7 0.000000 0.000000 0.000000
#
# Coordination Sequence:
#
# PCOD8224084 Si02
#       4
#     4   4   8   8
#     4  12  28  48  78 108 158 198 252 302 388 446
#     4  12  30  46  74 118 152 196 244 324 382 450
#     4  11  27  45  76 107 146 191 253 307 381 441
#     4  11  24  50  76 106 143 203 253 308 361 461
#
# _framework density 22.452933000000002
#
# number of rings (size 3 to 8) (size 9 to 14) (size 15 to 20)
#    0.000    0.667    3.333    2.000   14.000    1.333 
#    0.000    0.000    0.000    0.000    0.000    0.000 
#    0.000    0.000    0.000    0.000    0.000    0.000 
#
# Total GULP energy -297609.966081 kJ/mol
# GULP energy per Si atom -12400.415253 kJ/mol
# Density = 2.240183 g / cm^3
# Si number density = 22.452933 Si / 1000 Ang^3
#
#
#
# Elastic Constant Matrix: (Units=GPa)
#
#
# Indices 1 2 3 4 5 6 
#
# 1 152.7934 70.1324 42.8256 0.0000 0.0000 0.0000
# 2 70.1324 141.1102 48.9739 0.0000 0.0000 0.0000
# 3 42.8256 48.9739 96.3925 0.0000 0.0000 0.0000
# 4 0.0000 0.0000 0.0000 -6.5101 0.0000 0.0000
# 5 0.0000 0.0000 0.0000 0.0000 44.0714 0.0000
# 6 0.0000 0.0000 0.0000 0.0000 0.0000 29.1420
#
#
#
# Elastic Compliance Matrix: (Units=1/GPa)
#
#
# Indices 1 2 3 4 5 6 
#
# 1 0.008800 -0.003663 -0.002049 0.000000 0.000000 0.000000
# 2 -0.003663 0.010128 -0.003519 0.000000 0.000000 0.000000
# 3 -0.002049 -0.003519 0.013072 0.000000 0.000000 0.000000
# 4 0.000000 0.000000 0.000000 -0.153608 0.000000 0.000000
# 5 0.000000 0.000000 0.000000 0.000000 0.022690 0.000000
# 6 0.000000 0.000000 0.000000 0.000000 0.000000 0.034315
#
#
# Mechanical properties :
#
#
# Convention : Reuss Voigt Hill
#
# Bulk Modulus (GPa) = 73.85317 79.35110 76.60214
# Shear Modulus (GPa) = -120.10880 28.56495 -45.77192
#
# Velocity S-wave (km/s) = -7.32187 3.57068 -4.51995
# Velocity P-wave (km/s) = 6.20611 7.23999 2.63645
#
# Compressibility (1/GPa) = 0.01354038
#
# Stress axis : x y z
#
# Youngs Moduli (GPa) = 113.63345 98.73467 76.49823
#
# Poissons Ratio (x) = 0.36163 0.15674
# Poissons Ratio (y) = 0.41620 0.26916
# Poissons Ratio (z) = 0.23283 0.34740
#
# Static dielectric constant tensor:
#      x y z
#    x 4.181020 0.000000 0.000000 
#    y 0.000000 4.157490 0.000000 
#    z 0.000000 0.000000 4.067220 
# 
# 
# High freq. dielectric constant tensor:
#      x y z
#    x 1.897260 0.000000 0.000000 
#    y 0.000000 1.893190 0.000000 
#    z 0.000000 0.000000 1.887710 
# 
# From -- ./inp_files/12031.got.cif
#   From: 2010.03.12/outbox.cif.g09.slc.cpg/sg54_7_cif.got.tgz:12031.got - 2010.04.16 15:00:50.
