data_PCOD8224672
_publ_section_title
;
Structure prediction by ZEFSAII (Michael W. Deem and Ramdas Pophale) SiO2 
 PCOD8224672
Probable space group: P B A M
;
_chemical_formula_sum "Si O2"
_cell_formula_units_Z 48
_cell_length_a 21.974337
_cell_length_b 12.222876
_cell_length_c 8.982901
_cell_angle_alpha 90.000000
_cell_angle_beta 90.000000
_cell_angle_gamma 90.000000
_cell_volume 2412.713753
_symmetry_space_group_name_H-M "P B A M"
_symmetry_group_IT_number 55
_symmetry_cell_setting 'orthorhombic'
loop_
_space_group_symop_operation_xyz
x,y,z
-x,-y,z
1/2+x,1/2-y,-z
1/2-x,1/2+y,-z
-x,-y,-z
x,y,-z
1/2-x,1/2+y,z
1/2+x,1/2-y,z
loop_
_atom_site_type_symbol
_atom_site_label
_atom_site_fract_x
_atom_site_fract_y
_atom_site_fract_z
Si Si1 0.696182 0.581965 0.176519
Si Si2 0.568879 0.980819 0.323733
Si Si3 0.635873 0.362123 0.174518
Si Si4 0.831334 0.625770 0.826609
Si Si5 0.394055 0.260143 0.324730
Si Si6 0.997602 0.871394 0.833954
O O1 0.666090 0.471325 0.243675
O O2 0.767041 0.574017 0.220649
O O3 0.665640 0.689441 0.247541
O O4 0.688341 0.592636 0.000000
O O5 0.568695 0.988635 0.500000
O O6 0.594895 0.863891 0.269890
O O7 0.500000 0.000000 0.263318
O O8 0.613122 0.073864 0.262438
O O9 0.674910 0.254730 0.211870
O O10 0.567909 0.339737 0.234648
O O11 0.631075 0.384294 0.000000
O O12 0.845126 0.608167 0.000000
O O13 0.384876 0.265939 0.500000
O O14 0.452553 0.330113 0.280455
O O15 0.008092 0.821009 0.000000
O O16 0.000000 0.000000 0.846713
#
# Coordination Sequence:
#
# PCOD8224672 Si02
#       6
#     8   8   8   8   8   8
#     4  10  21  38  59  85 119 155 189 238 300 347
#     4  10  23  43  62  83 120 161 195 240 299 353
#     4   9  18  35  56  84 116 144 185 237 290 345
#     4  10  22  37  62  90 112 148 198 245 285 345
#     4  11  23  37  57  86 119 154 197 241 286 348
#     4  10  18  33  57  82 113 152 187 232 294 343
#
# _framework density 19.89461
#
# number of rings (size 3 to 8) (size 9 to 14) (size 15 to 20)
#    0.000    2.000    1.667    1.500    2.333    2.667 
#    0.000    0.833    0.000    0.000    0.000    0.000 
#    0.000    0.000    0.000    0.000    0.000    0.000 
#
# Total GULP energy -595165.828504 kJ/mol
# GULP energy per Si atom -12399.288094 kJ/mol
# Density = 1.984933 g / cm^3
# Si number density = 19.894610 Si / 1000 Ang^3
#
#
#
# Elastic Constant Matrix: (Units=GPa)
#
#
# Indices 1 2 3 4 5 6 
#
# 1 130.2830 50.2134 27.8238 0.0000 0.0000 0.0000
# 2 50.2134 103.9434 23.8456 0.0000 0.0000 0.0000
# 3 27.8238 23.8456 28.8304 0.0000 0.0000 0.0000
# 4 0.0000 0.0000 0.0000 31.5655 0.0000 0.0000
# 5 0.0000 0.0000 0.0000 0.0000 27.4768 0.0000
# 6 0.0000 0.0000 0.0000 0.0000 0.0000 31.9860
#
#
#
# Elastic Compliance Matrix: (Units=1/GPa)
#
#
# Indices 1 2 3 4 5 6 
#
# 1 0.010566 -0.003412 -0.007374 0.000000 0.000000 0.000000
# 2 -0.003412 0.012976 -0.007439 0.000000 0.000000 0.000000
# 3 -0.007374 -0.007439 0.047955 0.000000 0.000000 0.000000
# 4 0.000000 0.000000 0.000000 0.031680 0.000000 0.000000
# 5 0.000000 0.000000 0.000000 0.000000 0.036394 0.000000
# 6 0.000000 0.000000 0.000000 0.000000 0.000000 0.031264
#
#
# Mechanical properties :
#
#
# Convention : Reuss Voigt Hill
#
# Bulk Modulus (GPa) = 28.53459 51.86915 40.20187
# Shear Modulus (GPa) = 22.83437 28.95057 25.89247
#
# Velocity S-wave (km/s) = 3.39155 3.81884 3.61152
# Velocity P-wave (km/s) = 5.45076 6.75080 6.13531
#
# Compressibility (1/GPa) = 0.03504519
#
# Stress axis : x y z
#
# Youngs Moduli (GPa) = 94.64592 77.06754 20.85274
#
# Poissons Ratio (x) = 0.26298 0.15378
# Poissons Ratio (y) = 0.32296 0.15512
# Poissons Ratio (z) = 0.69796 0.57330
#
# Static dielectric constant tensor:
#      x y z
#    x 3.850730 0.000000 0.000000 
#    y 0.000000 3.978110 0.000000 
#    z 0.000000 0.000000 3.324230 
# 
# 
# High freq. dielectric constant tensor:
#      x y z
#    x 1.787950 0.000000 0.000000 
#    y 0.000000 1.784530 0.000000 
#    z 0.000000 0.000000 1.741680 
# 
# From -- ./inp_files/4070.got.cif
#   From: 2010.03.12/outbox.cif.g09.slc.cpg/sg55_3_cif.got.tgz:4070.got - 2010.04.16 15:19:21.
