data_PCOD8224358
_publ_section_title
;
Structure prediction by ZEFSAII (Michael W. Deem and Ramdas Pophale) SiO2 
 PCOD8224358
Probable space group: P B A M
;
_chemical_formula_sum "Si O2"
_cell_formula_units_Z 64
_cell_length_a 26.360485
_cell_length_b 18.348348
_cell_length_c 8.989020
_cell_angle_alpha 90.000000
_cell_angle_beta 90.000000
_cell_angle_gamma 90.000000
_cell_volume 4347.731459
_symmetry_space_group_name_H-M "P B A M"
_symmetry_group_IT_number 55
_symmetry_cell_setting 'orthorhombic'
loop_
_space_group_symop_operation_xyz
x,y,z
-x,-y,z
1/2+x,1/2-y,-z
1/2-x,1/2+y,-z
-x,-y,-z
x,y,-z
1/2-x,1/2+y,z
1/2+x,1/2-y,z
loop_
_atom_site_type_symbol
_atom_site_label
_atom_site_fract_x
_atom_site_fract_y
_atom_site_fract_z
Si Si1 0.651149 0.660415 0.673666
Si Si2 0.744419 0.586111 0.176664
Si Si3 0.050806 0.923294 0.675159
Si Si4 0.200065 0.697768 0.335155
Si Si5 0.149904 0.167595 0.825932
Si Si6 0.746796 0.421622 0.174843
Si Si7 0.052515 0.075716 0.176125
Si Si8 0.198744 0.292463 0.332962
O O1 0.665583 0.650406 0.500000
O O2 0.689394 0.611947 0.769338
O O3 0.594069 0.635926 0.707442
O O4 0.655671 0.746445 0.717409
O O5 0.752091 0.503630 0.234378
O O6 0.790598 0.633115 0.243839
O O7 0.746071 0.592202 0.000000
O O8 0.041425 0.934233 0.500000
O O9 0.999798 0.894502 0.754225
O O10 0.067529 0.999691 0.747229
O O11 0.188998 0.668237 0.500000
O O12 0.205848 0.627193 0.231175
O O13 0.250652 0.745372 0.330786
O O14 0.193444 0.111980 0.768807
O O15 0.095552 0.134223 0.785924
O O16 0.154320 0.245580 0.744632
O O17 0.156318 0.181536 0.000000
O O18 0.748812 0.421337 0.000000
O O19 0.046779 0.063433 0.000000
O O20 0.181759 0.311895 0.500000
#
# Coordination Sequence:
#
# PCOD8224358 Si02
#       8
#     8   8   8   8   8   8   8   8
#     4   9  18  30  42  58  80 107 140 172 202 239
#     4  10  18  27  41  60  83 109 136 166 200 239
#     4  10  19  30  43  59  82 110 140 174 209 243
#     4   8  15  27  40  55  76 102 131 164 199 232
#     4   9  17  29  43  58  79 108 139 170 204 239
#     4   9  17  27  39  58  81 105 134 164 196 236
#     4  10  19  30  43  60  83 108 139 176 208 242
#     4   9  17  28  41  58  80 105 135 168 200 238
#
# _framework density 14.720321
#
# number of rings (size 3 to 8) (size 9 to 14) (size 15 to 20)
#    0.000    2.750    0.000    3.750    0.000    7.000 
#    0.000    2.500    0.000    0.000    0.000    0.000 
#    0.000    1.000    0.000   11.250    0.000    5.000 
#
# Total GULP energy -793369.757859 kJ/mol
# GULP energy per Si atom -12396.402467 kJ/mol
# Density = 1.468682 g / cm^3
# Si number density = 14.720321 Si / 1000 Ang^3
#
#
#
# Elastic Constant Matrix: (Units=GPa)
#
#
# Indices 1 2 3 4 5 6 
#
# 1 78.0772 54.4460 33.6353 0.0000 0.0000 0.0000
# 2 54.4460 109.7305 43.6064 0.0000 0.0000 0.0000
# 3 33.6353 43.6064 62.8035 0.0000 0.0000 0.0000
# 4 0.0000 0.0000 0.0000 23.0209 0.0000 0.0000
# 5 0.0000 0.0000 0.0000 0.0000 19.6510 0.0000
# 6 0.0000 0.0000 0.0000 0.0000 0.0000 28.1041
#
#
#
# Elastic Compliance Matrix: (Units=1/GPa)
#
#
# Indices 1 2 3 4 5 6 
#
# 1 0.020878 -0.008170 -0.005509 0.000000 0.000000 0.000000
# 2 -0.008170 0.015783 -0.006583 0.000000 0.000000 0.000000
# 3 -0.005509 -0.006583 0.023444 0.000000 0.000000 0.000000
# 4 0.000000 0.000000 0.000000 0.043439 0.000000 0.000000
# 5 0.000000 0.000000 0.000000 0.000000 0.050888 0.000000
# 6 0.000000 0.000000 0.000000 0.000000 0.000000 0.035582
#
#
# Mechanical properties :
#
#
# Convention : Reuss Voigt Hill
#
# Bulk Modulus (GPa) = 51.06964 57.10962 54.08963
# Shear Modulus (GPa) = 21.09119 22.08344 21.58732
#
# Velocity S-wave (km/s) = 3.78933 3.87744 3.83364
# Velocity P-wave (km/s) = 7.34262 7.67638 7.51135
#
# Compressibility (1/GPa) = 0.01958110
#
# Stress axis : x y z
#
# Youngs Moduli (GPa) = 47.89632 63.35838 42.65498
#
# Poissons Ratio (x) = 0.51765 0.23498
# Poissons Ratio (y) = 0.39132 0.28080
# Poissons Ratio (z) = 0.26386 0.41710
#
# Static dielectric constant tensor:
#      x y z
#    x 2.725470 0.000000 0.000000 
#    y 0.000000 2.975030 0.000000 
#    z 0.000000 0.000000 2.951440 
# 
# 
# High freq. dielectric constant tensor:
#      x y z
#    x 1.529450 0.000000 0.000000 
#    y 0.000000 1.552430 0.000000 
#    z 0.000000 0.000000 1.573840 
# 
# From -- ./inp_files/10301.got.cif
#   From: 2010.03.12/outbox.cif.g09.slc.cpg/sg55_6_cif.got.tgz:10301.got - 2010.04.16 15:19:21.
