data_PCOD8224329
_publ_section_title
;
Structure prediction by ZEFSAII (Michael W. Deem and Ramdas Pophale) SiO2 
 PCOD8224329
Probable space group: P B A M
;
_chemical_formula_sum "Si O2"
_cell_formula_units_Z 64
_cell_length_a 19.719463
_cell_length_b 20.714743
_cell_length_c 9.065883
_cell_angle_alpha 90.000000
_cell_angle_beta 90.000000
_cell_angle_gamma 90.000000
_cell_volume 3703.264599
_symmetry_space_group_name_H-M "P B A M"
_symmetry_group_IT_number 55
_symmetry_cell_setting 'orthorhombic'
loop_
_space_group_symop_operation_xyz
x,y,z
-x,-y,z
1/2+x,1/2-y,-z
1/2-x,1/2+y,-z
-x,-y,-z
x,y,-z
1/2-x,1/2+y,z
1/2+x,1/2-y,z
loop_
_atom_site_type_symbol
_atom_site_label
_atom_site_fract_x
_atom_site_fract_y
_atom_site_fract_z
Si Si1 0.205337 0.434925 0.673814
Si Si2 0.717596 0.689770 0.672595
Si Si3 0.428611 0.125772 0.171854
Si Si4 0.928633 0.764659 0.327736
Si Si5 0.790759 0.818940 0.675539
Si Si6 0.077000 0.760490 0.328046
Si Si7 0.937996 0.619685 0.672863
Si Si8 0.786161 0.433958 0.172332
O O1 0.217549 0.443727 0.500000
O O2 0.247494 0.374020 0.739230
O O3 0.125879 0.425179 0.709381
O O4 0.232463 0.497338 0.757904
O O5 0.731899 0.687909 0.500000
O O6 0.750624 0.755695 0.732991
O O7 0.637192 0.689550 0.710865
O O8 0.411938 0.195386 0.238469
O O9 0.494907 0.093128 0.245545
O O10 0.364855 0.080197 0.205113
O O11 0.442174 0.134073 0.000000
O O12 0.915910 0.759483 0.500000
O O13 0.868805 0.810587 0.267934
O O14 0.922814 0.691777 0.265735
O O15 0.003765 0.792641 0.289943
O O16 0.784017 0.828006 0.500000
O O17 0.761914 0.881405 0.753976
O O18 0.079810 0.741270 0.500000
O O19 0.953932 0.621268 0.500000
O O20 0.770471 0.435179 0.000000
#
# Coordination Sequence:
#
# PCOD8224329 Si02
#       8
#     8   8   8   8   8   8   8   8
#     4  10  20  35  54  76 101 132 171 213 256 301
#     4   9  16  29  54  82 101 123 164 214 256 296
#     4  10  20  32  46  68 102 138 170 203 240 290
#     4   8  14  26  49  79 104 123 153 203 253 294
#     4  10  17  31  55  78  99 128 166 208 253 296
#     4   9  16  29  52  78 102 128 160 203 254 301
#     4   9  17  31  51  74 100 130 167 207 248 298
#     4  11  24  37  47  69 105 140 173 208 247 296
#
# _framework density 17.282048
#
# number of rings (size 3 to 8) (size 9 to 14) (size 15 to 20)
#    0.000    2.500    2.500    1.500    0.000    2.500 
#    0.000    6.250    0.000    0.750    0.000    5.250 
#    0.000    0.000    0.000    0.000    0.000    0.000 
#
# Total GULP energy -793308.171842 kJ/mol
# GULP energy per Si atom -12395.440185 kJ/mol
# Density = 1.724271 g / cm^3
# Si number density = 17.282048 Si / 1000 Ang^3
#
#
#
# Elastic Constant Matrix: (Units=GPa)
#
#
# Indices 1 2 3 4 5 6 
#
# 1 120.9384 60.1338 37.3994 0.0000 0.0000 0.0000
# 2 60.1338 106.3517 32.6234 0.0000 0.0000 0.0000
# 3 37.3994 32.6234 45.6292 0.0000 0.0000 0.0000
# 4 0.0000 0.0000 0.0000 7.8843 0.0000 0.0000
# 5 0.0000 0.0000 0.0000 0.0000 15.0242 0.0000
# 6 0.0000 0.0000 0.0000 0.0000 0.0000 23.7315
#
#
#
# Elastic Compliance Matrix: (Units=1/GPa)
#
#
# Indices 1 2 3 4 5 6 
#
# 1 0.013012 -0.005234 -0.006923 0.000000 0.000000 0.000000
# 2 -0.005234 0.014149 -0.005827 0.000000 0.000000 0.000000
# 3 -0.006923 -0.005827 0.031756 0.000000 0.000000 0.000000
# 4 0.000000 0.000000 0.000000 0.126835 0.000000 0.000000
# 5 0.000000 0.000000 0.000000 0.000000 0.066559 0.000000
# 6 0.000000 0.000000 0.000000 0.000000 0.000000 0.042138
#
#
# Mechanical properties :
#
#
# Convention : Reuss Voigt Hill
#
# Bulk Modulus (GPa) = 43.57199 59.24805 51.41002
# Shear Modulus (GPa) = 14.79000 18.84552 16.81776
#
# Velocity S-wave (km/s) = 2.92858 3.30581 3.12289
# Velocity P-wave (km/s) = 6.05826 6.99490 6.54336
#
# Compressibility (1/GPa) = 0.02295052
#
# Stress axis : x y z
#
# Youngs Moduli (GPa) = 76.85280 70.67508 31.48987
#
# Poissons Ratio (x) = 0.36988 0.21801
# Poissons Ratio (y) = 0.40221 0.18348
# Poissons Ratio (z) = 0.53207 0.41180
#
# Static dielectric constant tensor:
#      x y z
#    x 3.552010 0.000000 0.000000 
#    y 0.000000 3.037420 0.000000 
#    z 0.000000 0.000000 2.943090 
# 
# 
# High freq. dielectric constant tensor:
#      x y z
#    x 1.678550 0.000000 0.000000 
#    y 0.000000 1.641130 0.000000 
#    z 0.000000 0.000000 1.638430 
# 
# From -- ./inp_files/8956.got.cif
#   From: 2010.03.12/outbox.cif.g09.slc.cpg/sg55_5_cif.got.tgz:8956.got - 2010.04.16 15:19:21.
