data_PCOD8224951
_publ_section_title
;
Structure prediction by ZEFSAII (Michael W. Deem and Ramdas Pophale) SiO2 
 PCOD8224951
Probable space group: P B A M
;
_chemical_formula_sum "Si O2"
_cell_formula_units_Z 56
_cell_length_a 27.153893
_cell_length_b 10.435779
_cell_length_c 10.430120
_cell_angle_alpha 90.000000
_cell_angle_beta 90.000000
_cell_angle_gamma 90.000000
_cell_volume 2955.604239
_symmetry_space_group_name_H-M "P B A M"
_symmetry_group_IT_number 55
_symmetry_cell_setting 'orthorhombic'
loop_
_space_group_symop_operation_xyz
x,y,z
-x,-y,z
1/2+x,1/2-y,-z
1/2-x,1/2+y,-z
-x,-y,-z
x,y,-z
1/2-x,1/2+y,z
1/2+x,1/2-y,z
loop_
_atom_site_type_symbol
_atom_site_label
_atom_site_fract_x
_atom_site_fract_y
_atom_site_fract_z
Si Si1 0.328091 0.379011 0.645242
Si Si2 0.296925 0.710327 0.140530
Si Si3 0.627370 0.362953 0.349182
Si Si4 0.464555 0.109830 0.652475
Si Si5 0.646670 0.894347 0.347694
Si Si6 0.014936 0.137161 0.650572
Si Si7 0.235321 0.471777 0.772502
O O1 0.338947 0.347517 0.500000
O O2 0.366660 0.487562 0.689553
O O3 0.338180 0.243505 0.713742
O O4 0.272818 0.430720 0.660290
O O5 0.336690 0.716436 0.255774
O O6 0.269471 0.847815 0.136373
O O7 0.257429 0.595721 0.156349
O O8 0.321753 0.691308 0.000000
O O9 0.641448 0.339572 0.500000
O O10 0.571408 0.324928 0.320962
O O11 0.468985 0.113446 0.500000
O O12 0.409161 0.077025 0.695241
O O13 0.481172 0.248716 0.707489
O O14 0.500000 0.000000 0.709318
O O15 0.652507 0.901808 0.500000
O O16 0.682060 0.999830 0.286727
O O17 0.005942 0.126476 0.500000
O O18 0.000000 0.000000 0.713318
#
# Coordination Sequence:
#
# PCOD8224951 Si02
#       7
#     8   8   8   8   8   8   8
#     4   9  17  31  49  79 113 141 175 224 275 321
#     4  11  24  40  58  80 111 145 182 226 277 334
#     4   9  19  33  57  86 114 144 184 229 272 321
#     4   9  18  29  43  70 110 146 176 215 270 326
#     4  10  19  31  51  79 116 150 179 224 281 328
#     4   9  16  29  50  77 109 145 180 219 267 320
#     4  11  21  37  55  77 104 143 189 223 268 330
#
# _framework density 18.947057000000001
#
# number of rings (size 3 to 8) (size 9 to 14) (size 15 to 20)
#    0.000    2.286    1.429    1.714    2.000    5.143 
#    0.000    0.000    0.000    0.429    0.000    3.000 
#    0.000    0.000    0.000    0.000    0.000    0.000 
#
# Total GULP energy -693950.740674 kJ/mol
# GULP energy per Si atom -12391.977512 kJ/mol
# Density = 1.890393 g / cm^3
# Si number density = 18.947057 Si / 1000 Ang^3
#
#
#
# Elastic Constant Matrix: (Units=GPa)
#
#
# Indices 1 2 3 4 5 6 
#
# 1 115.1472 49.3170 23.7238 0.0000 0.0000 0.0000
# 2 49.3170 122.3267 17.2384 0.0000 0.0000 0.0000
# 3 23.7238 17.2384 46.1427 0.0000 0.0000 0.0000
# 4 0.0000 0.0000 0.0000 5.7309 0.0000 0.0000
# 5 0.0000 0.0000 0.0000 0.0000 7.6799 0.0000
# 6 0.0000 0.0000 0.0000 0.0000 0.0000 32.0938
#
#
#
# Elastic Compliance Matrix: (Units=1/GPa)
#
#
# Indices 1 2 3 4 5 6 
#
# 1 0.011258 -0.003930 -0.004320 0.000000 0.000000 0.000000
# 2 -0.003930 0.010001 -0.001716 0.000000 0.000000 0.000000
# 3 -0.004320 -0.001716 0.024534 0.000000 0.000000 0.000000
# 4 0.000000 0.000000 0.000000 0.174493 0.000000 0.000000
# 5 0.000000 0.000000 0.000000 0.000000 0.130209 0.000000
# 6 0.000000 0.000000 0.000000 0.000000 0.000000 0.031159
#
#
# Mechanical properties :
#
#
# Convention : Reuss Voigt Hill
#
# Bulk Modulus (GPa) = 38.66740 51.57499 45.12119
# Shear Modulus (GPa) = 12.18903 21.99009 17.08956
#
# Velocity S-wave (km/s) = 2.53913 3.41046 3.00653
# Velocity P-wave (km/s) = 5.38968 6.54126 5.99319
#
# Compressibility (1/GPa) = 0.02586158
#
# Stress axis : x y z
#
# Youngs Moduli (GPa) = 88.82805 99.99033 40.75995
#
# Poissons Ratio (x) = 0.39295 0.17608
# Poissons Ratio (y) = 0.34908 0.06993
# Poissons Ratio (z) = 0.38373 0.17156
#
# Static dielectric constant tensor:
#      x y z
#    x 3.469060 0.000000 0.000000 
#    y 0.000000 3.817660 0.000000 
#    z 0.000000 0.000000 2.920210 
# 
# 
# High freq. dielectric constant tensor:
#      x y z
#    x 1.737820 0.000000 0.000000 
#    y 0.000000 1.759180 0.000000 
#    z 0.000000 0.000000 1.662820 
# 
# From -- ./inp_files/15706.got.cif
#   From: 2010.03.12/outbox.cif.g09.slc.cpg/sg55_8_cif.got.tgz:15706.got - 2010.04.16 15:19:21.
