data_PCOD8224828
_publ_section_title
;
Structure prediction by ZEFSAII (Michael W. Deem and Ramdas Pophale) SiO2 
 PCOD8224828
Probable space group: P B A M
;
_chemical_formula_sum "Si O2"
_cell_formula_units_Z 56
_cell_length_a 18.211450
_cell_length_b 20.413109
_cell_length_c 8.801744
_cell_angle_alpha 90.000000
_cell_angle_beta 90.000000
_cell_angle_gamma 90.000000
_cell_volume 3272.068698
_symmetry_space_group_name_H-M "P B A M"
_symmetry_group_IT_number 55
_symmetry_cell_setting 'orthorhombic'
loop_
_space_group_symop_operation_xyz
x,y,z
-x,-y,z
1/2+x,1/2-y,-z
1/2-x,1/2+y,-z
-x,-y,-z
x,y,-z
1/2-x,1/2+y,z
1/2+x,1/2-y,z
loop_
_atom_site_type_symbol
_atom_site_label
_atom_site_fract_x
_atom_site_fract_y
_atom_site_fract_z
Si Si1 0.206265 0.678280 0.669628
Si Si2 0.421104 0.746240 0.679102
Si Si3 0.843816 0.875947 0.821185
Si Si4 0.718612 0.181494 0.331981
Si Si5 0.414685 0.500264 0.323585
Si Si6 0.425363 0.238217 0.824905
Si Si7 0.347933 0.376562 0.826526
O O1 0.189401 0.652176 0.500000
O O2 0.262320 0.629036 0.751491
O O3 0.243067 0.748591 0.661286
O O4 0.130924 0.683274 0.764243
O O5 0.418360 0.732799 0.500000
O O6 0.399761 0.678759 0.760548
O O7 0.364771 0.805052 0.723433
O O8 0.500843 0.769378 0.729212
O O9 0.874969 0.946608 0.779998
O O10 0.837667 0.867857 0.000000
O O11 0.719635 0.149403 0.500000
O O12 0.762221 0.134614 0.216291
O O13 0.500000 0.500000 0.282392
O O14 0.401437 0.516338 0.500000
O O15 0.382184 0.429504 0.285315
O O16 0.393272 0.310463 0.800739
O O17 0.442011 0.224036 0.000000
O O18 0.352038 0.400498 0.000000
#
# Coordination Sequence:
#
# PCOD8224828 Si02
#       7
#     8   8   8   8   8   8   8
#     4   9  17  31  49  68  93 125 160 195 235 286
#     4  10  19  31  48  71  98 128 161 196 239 287
#     4  11  21  33  49  69  96 127 161 201 241 282
#     4   8  16  30  47  66  90 122 158 194 232 279
#     4  11  23  36  50  68  93 128 166 198 231 278
#     4  10  19  30  47  73 101 127 157 197 244 285
#     4  10  20  32  47  68  95 126 159 196 237 280
#
# _framework density 17.114557000000001
#
# number of rings (size 3 to 8) (size 9 to 14) (size 15 to 20)
#    0.000    2.143    0.000    5.143    0.000    9.143 
#    0.000    0.000    0.000    0.000    0.000    1.000 
#    0.000    8.000    0.000    0.000    0.000    0.000 
#
# Total GULP energy -694440.493790 kJ/mol
# GULP energy per Si atom -12400.723103 kJ/mol
# Density = 1.707560 g / cm^3
# Si number density = 17.114557 Si / 1000 Ang^3
#
#
#
# Elastic Constant Matrix: (Units=GPa)
#
#
# Indices 1 2 3 4 5 6 
#
# 1 111.6565 35.5857 38.4666 0.0000 0.0000 0.0000
# 2 35.5857 43.5219 29.5658 0.0000 0.0000 0.0000
# 3 38.4666 29.5658 90.9905 0.0000 0.0000 0.0000
# 4 0.0000 0.0000 0.0000 24.2990 0.0000 0.0000
# 5 0.0000 0.0000 0.0000 0.0000 27.1626 0.0000
# 6 0.0000 0.0000 0.0000 0.0000 0.0000 23.0816
#
#
#
# Elastic Compliance Matrix: (Units=1/GPa)
#
#
# Indices 1 2 3 4 5 6 
#
# 1 0.012550 -0.008543 -0.002530 0.000000 0.000000 0.000000
# 2 -0.008543 0.035301 -0.007859 0.000000 0.000000 0.000000
# 3 -0.002530 -0.007859 0.014613 0.000000 0.000000 0.000000
# 4 0.000000 0.000000 0.000000 0.041154 0.000000 0.000000
# 5 0.000000 0.000000 0.000000 0.000000 0.036815 0.000000
# 6 0.000000 0.000000 0.000000 0.000000 0.000000 0.043325
#
#
# Mechanical properties :
#
#
# Convention : Reuss Voigt Hill
#
# Bulk Modulus (GPa) = 40.64867 50.37834 45.51350
# Shear Modulus (GPa) = 21.75595 24.41204 23.08400
#
# Velocity S-wave (km/s) = 3.56925 3.78086 3.67658
# Velocity P-wave (km/s) = 6.38659 6.96848 6.68387
#
# Compressibility (1/GPa) = 0.02460105
#
# Stress axis : x y z
#
# Youngs Moduli (GPa) = 79.67906 28.32780 68.43147
#
# Poissons Ratio (x) = 0.24201 0.17311
# Poissons Ratio (y) = 0.68072 0.53779
# Poissons Ratio (z) = 0.20157 0.22262
#
# Static dielectric constant tensor:
#      x y z
#    x 3.444040 0.000000 0.000000 
#    y 0.000000 2.844710 0.000000 
#    z 0.000000 0.000000 3.325930 
# 
# 
# High freq. dielectric constant tensor:
#      x y z
#    x 1.665110 0.000000 0.000000 
#    y 0.000000 1.614190 0.000000 
#    z 0.000000 0.000000 1.677250 
# 
# From -- ./inp_files/7843.got.cif
#   From: 2010.03.12/outbox.cif.g09.slc.cpg/sg55_4_cif.got.tgz:7843.got - 2010.04.16 15:19:21.
