data_PCOD8224031
_publ_section_title
;
Structure prediction by ZEFSAII (Michael W. Deem and Ramdas Pophale) SiO2 
 PCOD8224031
Probable space group: P C C A
;
_chemical_formula_sum "Si O2"
_cell_formula_units_Z 24
_cell_length_a 8.263399
_cell_length_b 11.741233
_cell_length_c 9.516328
_cell_angle_alpha 90.000000
_cell_angle_beta 90.000000
_cell_angle_gamma 90.000000
_cell_volume 923.297867
_symmetry_space_group_name_H-M "P C C A"
_symmetry_group_IT_number 54
_symmetry_cell_setting 'orthorhombic'
loop_
_space_group_symop_operation_xyz
x,y,z
1/2-x,-y,z
1/2+x,-y,1/2-z
-x,y,1/2-z
-x,-y,-z
1/2+x,y,-z
1/2-x,y,1/2+z
x,-y,1/2+z
loop_
_atom_site_type_symbol
_atom_site_label
_atom_site_fract_x
_atom_site_fract_y
_atom_site_fract_z
Si Si1 0.871472 0.915378 0.441603
Si Si2 0.145614 0.760782 0.389994
Si Si3 0.835875 0.382611 0.333101
O O1 0.774114 0.857812 0.569877
O O2 0.968249 0.818266 0.355012
O O3 0.750000 0.000000 0.352267
O O4 0.000000 0.000000 0.500000
O O5 0.211987 0.694062 0.255535
O O6 0.117294 0.677499 0.521670
O O7 0.750000 0.500000 0.371902
O O8 0.000000 0.407293 0.250000
#
# Coordination Sequence:
#
# PCOD8224031 Si02
#       3
#     8   8   8
#     4   9  20  42  72 106 139 184 238 290 359 429
#     4  11  23  46  73 104 150 186 238 300 361 431
#     4  12  28  46  71 107 145 193 247 301 366 432
#
# _framework density 25.993780000000001
#
# number of rings (size 3 to 8) (size 9 to 14) (size 15 to 20)
#    0.000    1.333    3.333    1.000    4.667    2.667 
#    0.000   25.000    0.000    0.000    0.000    0.000 
#    0.000    0.000    0.000    0.000    0.000    0.000 
#
# Total GULP energy -297327.747117 kJ/mol
# GULP energy per Si atom -12388.656130 kJ/mol
# Density = 2.593462 g / cm^3
# Si number density = 25.993780 Si / 1000 Ang^3
#
#
#
# Elastic Constant Matrix: (Units=GPa)
#
#
# Indices 1 2 3 4 5 6 
#
# 1 165.9830 90.1355 29.1621 0.0000 0.0000 0.0000
# 2 90.1355 179.2281 50.0333 0.0000 0.0000 0.0000
# 3 29.1621 50.0333 109.5817 0.0000 0.0000 0.0000
# 4 0.0000 0.0000 0.0000 5.5752 0.0000 0.0000
# 5 0.0000 0.0000 0.0000 0.0000 15.4876 0.0000
# 6 0.0000 0.0000 0.0000 0.0000 0.0000 77.6951
#
#
#
# Elastic Compliance Matrix: (Units=1/GPa)
#
#
# Indices 1 2 3 4 5 6 
#
# 1 0.008300 -0.004077 -0.000347 0.000000 0.000000 0.000000
# 2 -0.004077 0.008397 -0.002749 0.000000 0.000000 0.000000
# 3 -0.000347 -0.002749 0.010473 0.000000 0.000000 0.000000
# 4 0.000000 0.000000 0.000000 0.179366 0.000000 0.000000
# 5 0.000000 0.000000 0.000000 0.000000 0.064568 0.000000
# 6 0.000000 0.000000 0.000000 0.000000 0.000000 0.012871
#
#
# Mechanical properties :
#
#
# Convention : Reuss Voigt Hill
#
# Bulk Modulus (GPa) = 77.98184 88.16163 83.07173
# Shear Modulus (GPa) = 16.52367 38.78237 27.65302
#
# Velocity S-wave (km/s) = 2.52400 3.86681 3.26518
# Velocity P-wave (km/s) = 6.20962 7.34346 6.80021
#
# Compressibility (1/GPa) = 0.01282350
#
# Stress axis : x y z
#
# Youngs Moduli (GPa) = 120.48563 119.08559 95.48182
#
# Poissons Ratio (x) = 0.48552 0.03315
# Poissons Ratio (y) = 0.49123 0.26249
# Poissons Ratio (z) = 0.04183 0.32738
#
# Static dielectric constant tensor:
#      x y z
#    x 5.199130 0.000000 0.000000 
#    y 0.000000 4.786920 0.000000 
#    z 0.000000 0.000000 4.894650 
# 
# 
# High freq. dielectric constant tensor:
#      x y z
#    x 2.075230 0.000000 0.000000 
#    y 0.000000 2.065080 0.000000 
#    z 0.000000 0.000000 2.028640 
# 
# From -- ./inp_files/2430.got.cif
#   From: 2010.03.12/outbox.cif.g09.slc.cpg/sg54_2_cif.got.tgz:2430.got - 2010.04.16 15:00:50.
