data_PCOD8224544
_publ_section_title
;
Structure prediction by ZEFSAII (Michael W. Deem and Ramdas Pophale) SiO2 
 PCOD8224544
Probable space group: P B A M
;
_chemical_formula_sum "Si O2"
_cell_formula_units_Z 64
_cell_length_a 20.390355
_cell_length_b 11.990420
_cell_length_c 13.658454
_cell_angle_alpha 90.000000
_cell_angle_beta 90.000000
_cell_angle_gamma 90.000000
_cell_volume 3339.340673
_symmetry_space_group_name_H-M "P B A M"
_symmetry_group_IT_number 55
_symmetry_cell_setting 'orthorhombic'
loop_
_space_group_symop_operation_xyz
x,y,z
-x,-y,z
1/2+x,1/2-y,-z
1/2-x,1/2+y,-z
-x,-y,-z
x,y,-z
1/2-x,1/2+y,z
1/2+x,1/2-y,z
loop_
_atom_site_type_symbol
_atom_site_label
_atom_site_fract_x
_atom_site_fract_y
_atom_site_fract_z
Si Si1 0.831871 0.883622 0.393401
Si Si2 0.459838 0.328410 0.767137
Si Si3 0.509878 0.127712 0.113403
Si Si4 0.686006 0.965320 0.605316
Si Si5 0.092530 0.054975 0.782766
Si Si6 0.352689 0.755459 0.111061
Si Si7 0.644771 0.728843 0.614978
Si Si8 0.784402 0.677297 0.706229
O O1 0.866581 0.891677 0.500000
O O2 0.756874 0.912536 0.404303
O O3 0.864674 0.966604 0.315262
O O4 0.833819 0.757726 0.352739
O O5 0.461620 0.213868 0.829559
O O6 0.426056 0.432984 0.826154
O O7 0.532381 0.370503 0.742937
O O8 0.421208 0.315064 0.665273
O O9 0.585108 0.164011 0.129021
O O10 0.500000 0.000000 0.150942
O O11 0.489869 0.136071 0.000000
O O12 0.667537 0.020134 0.500000
O O13 0.638371 0.862221 0.628254
O O14 0.684561 0.055379 0.690946
O O15 0.129775 0.126122 0.865838
O O16 0.291623 0.794733 0.178451
O O17 0.328141 0.762287 0.000000
O O18 0.648043 0.693483 0.500000
O O19 0.709330 0.681750 0.670320
#
# Coordination Sequence:
#
# PCOD8224544 Si02
#       8
#     8   8   8   8   8   8   8   8
#     4   9  17  30  49  73 101 135 179 223 259 311
#     4  10  20  34  53  78 109 139 178 219 265 318
#     4   9  19  36  58  81 104 137 179 221 271 325
#     4   9  17  29  48  73 100 136 177 216 262 314
#     4   9  19  33  51  78 104 139 178 217 267 317
#     4   9  19  35  55  79 105 137 178 222 269 317
#     4  10  21  34  50  77 111 143 177 218 264 315
#     4  10  18  31  53  75 102 139 181 218 264 317
#
# _framework density 19.165461000000001
#
# number of rings (size 3 to 8) (size 9 to 14) (size 15 to 20)
#    0.000    2.625    0.000    2.625    1.750    2.500 
#    0.000    4.375    0.000   11.625    0.000    0.000 
#    0.000    0.000    0.000    0.000    0.000    0.000 
#
# Total GULP energy -792997.827785 kJ/mol
# GULP energy per Si atom -12390.591059 kJ/mol
# Density = 1.912184 g / cm^3
# Si number density = 19.165461 Si / 1000 Ang^3
#
#
#
# Elastic Constant Matrix: (Units=GPa)
#
#
# Indices 1 2 3 4 5 6 
#
# 1 43.4124 14.5484 32.7641 0.0000 0.0000 0.0000
# 2 14.5484 114.3398 44.0360 0.0000 0.0000 0.0000
# 3 32.7641 44.0360 115.9784 0.0000 0.0000 0.0000
# 4 0.0000 0.0000 0.0000 16.9422 0.0000 0.0000
# 5 0.0000 0.0000 0.0000 0.0000 27.8253 0.0000
# 6 0.0000 0.0000 0.0000 0.0000 0.0000 18.7915
#
#
#
# Elastic Compliance Matrix: (Units=1/GPa)
#
#
# Indices 1 2 3 4 5 6 
#
# 1 0.029316 -0.000633 -0.008041 0.000000 0.000000 0.000000
# 2 -0.000633 0.010258 -0.003716 0.000000 0.000000 0.000000
# 3 -0.008041 -0.003716 0.012305 0.000000 0.000000 0.000000
# 4 0.000000 0.000000 0.000000 0.059024 0.000000 0.000000
# 5 0.000000 0.000000 0.000000 0.000000 0.035939 0.000000
# 6 0.000000 0.000000 0.000000 0.000000 0.000000 0.053216
#
#
# Mechanical properties :
#
#
# Convention : Reuss Voigt Hill
#
# Bulk Modulus (GPa) = 36.90349 50.71418 43.80884
# Shear Modulus (GPa) = 21.37937 24.87059 23.12498
#
# Velocity S-wave (km/s) = 3.34356 3.60624 3.47738
# Velocity P-wave (km/s) = 5.84832 6.62258 6.24746
#
# Compressibility (1/GPa) = 0.02709771
#
# Stress axis : x y z
#
# Youngs Moduli (GPa) = 34.11095 97.48956 81.26844
#
# Poissons Ratio (x) = 0.06172 0.65352
# Poissons Ratio (y) = 0.02159 0.30198
# Poissons Ratio (z) = 0.27430 0.36226
#
# Static dielectric constant tensor:
#      x y z
#    x 3.255040 0.000000 0.000000 
#    y 0.000000 3.853860 0.000000 
#    z 0.000000 0.000000 3.453520 
# 
# 
# High freq. dielectric constant tensor:
#      x y z
#    x 1.714840 0.000000 0.000000 
#    y 0.000000 1.761710 0.000000 
#    z 0.000000 0.000000 1.729590 
# 
# From -- ./inp_files/15751.got.cif
#   From: 2010.03.12/outbox.cif.g09.slc.cpg/sg55_8_cif.got.tgz:15751.got - 2010.04.16 15:19:21.
