data_PCOD8224207
_publ_section_title
;
Structure prediction by ZEFSAII (Michael W. Deem and Ramdas Pophale) SiO2 
 PCOD8224207
Probable space group: P C C A
;
_chemical_formula_sum "Si O2"
_cell_formula_units_Z 40
_cell_length_a 22.431964
_cell_length_b 6.436724
_cell_length_c 11.683015
_cell_angle_alpha 90.000000
_cell_angle_beta 90.000000
_cell_angle_gamma 90.000000
_cell_volume 1686.891388
_symmetry_space_group_name_H-M "P C C A"
_symmetry_group_IT_number 54
_symmetry_cell_setting 'orthorhombic'
loop_
_space_group_symop_operation_xyz
x,y,z
1/2-x,-y,z
1/2+x,-y,1/2-z
-x,y,1/2-z
-x,-y,-z
1/2+x,y,-z
1/2-x,y,1/2+z
x,-y,1/2+z
loop_
_atom_site_type_symbol
_atom_site_label
_atom_site_fract_x
_atom_site_fract_y
_atom_site_fract_z
Si Si1 0.192447 0.872196 0.662264
Si Si2 0.250000 0.500000 0.801700
Si Si3 0.948063 0.557323 0.412254
Si Si4 0.915110 0.107498 0.734253
Si Si5 0.643859 0.347874 0.046916
Si Si6 0.000000 0.234816 0.250000
O O1 0.212957 0.660820 0.724736
O O2 0.157761 0.828610 0.545355
O O3 0.250000 0.000000 0.628183
O O4 0.150201 0.016968 0.738949
O O5 0.296400 0.606992 0.885610
O O6 0.947726 0.776553 0.343210
O O7 0.884635 0.544054 0.478811
O O8 0.953791 0.369637 0.322446
O O9 0.000000 0.500000 0.500000
O O10 0.907850 0.273186 0.633242
O O11 0.955541 0.921754 0.683179
#
# Coordination Sequence:
#
# PCOD8224207 Si02
#       6
#     8   4   8   8   8   4
#     4  12  28  49  74 111 155 199 254 310 384 456
#     4  12  28  50  72 114 154 202 252 320 374 464
#     4  12  28  49  76 111 153 199 252 316 388 451
#     4  12  28  49  76 115 150 197 263 309 378 468
#     4  12  27  47  80 107 153 201 248 319 378 453
#     4  12  26  50  74 106 154 194 250 320 372 460
#
# _framework density 23.712257000000001
#
# number of rings (size 3 to 8) (size 9 to 14) (size 15 to 20)
#    0.000    0.000    4.000    4.800   11.200    1.600 
#    0.000    0.000    0.000    0.000    0.000    0.000 
#    0.000    0.000    0.000    0.000    0.000    0.000 
#
# Total GULP energy -495776.705496 kJ/mol
# GULP energy per Si atom -12394.417637 kJ/mol
# Density = 2.365829 g / cm^3
# Si number density = 23.712257 Si / 1000 Ang^3
#
#
#
# Elastic Constant Matrix: (Units=GPa)
#
#
# Indices 1 2 3 4 5 6 
#
# 1 86.3774 22.5600 19.1282 0.0000 0.0000 0.0000
# 2 22.5600 100.0639 30.2693 0.0000 0.0000 0.0000
# 3 19.1282 30.2693 96.9178 0.0000 0.0000 0.0000
# 4 0.0000 0.0000 0.0000 37.5118 0.0000 0.0000
# 5 0.0000 0.0000 0.0000 0.0000 48.5700 0.0000
# 6 0.0000 0.0000 0.0000 0.0000 0.0000 56.0254
#
#
#
# Elastic Compliance Matrix: (Units=1/GPa)
#
#
# Indices 1 2 3 4 5 6 
#
# 1 0.012568 -0.002301 -0.001762 0.000000 0.000000 0.000000
# 2 -0.002301 0.011457 -0.003124 0.000000 0.000000 0.000000
# 3 -0.001762 -0.003124 0.011642 0.000000 0.000000 0.000000
# 4 0.000000 0.000000 0.000000 0.026658 0.000000 0.000000
# 5 0.000000 0.000000 0.000000 0.000000 0.020589 0.000000
# 6 0.000000 0.000000 0.000000 0.000000 0.000000 0.017849
#
#
# Mechanical properties :
#
#
# Convention : Reuss Voigt Hill
#
# Bulk Modulus (GPa) = 46.96303 47.47491 47.21897
# Shear Modulus (GPa) = 40.90487 42.51488 41.70988
#
# Velocity S-wave (km/s) = 4.15788 4.23892 4.19859
# Velocity P-wave (km/s) = 6.54973 6.63495 6.59248
#
# Compressibility (1/GPa) = 0.02129335
#
# Stress axis : x y z
#
# Youngs Moduli (GPa) = 79.56617 87.27982 85.89907
#
# Poissons Ratio (x) = 0.20079 0.15135
# Poissons Ratio (y) = 0.18305 0.26838
# Poissons Ratio (z) = 0.14020 0.27269
#
# Static dielectric constant tensor:
#      x y z
#    x 4.550500 0.000000 0.000000 
#    y 0.000000 4.812520 0.000000 
#    z 0.000000 0.000000 4.563400 
# 
# 
# High freq. dielectric constant tensor:
#      x y z
#    x 1.965340 0.000000 0.000000 
#    y 0.000000 1.940680 0.000000 
#    z 0.000000 0.000000 1.938440 
# 
# From -- ./inp_files/10194.got.cif
#   From: 2010.03.12/outbox.cif.g09.slc.cpg/sg54_6_cif.got.tgz:10194.got - 2010.04.16 15:00:50.
