data_PCOD8224550
_publ_section_title
;
Structure prediction by ZEFSAII (Michael W. Deem and Ramdas Pophale) SiO2 
 PCOD8224550
Probable space group: P B A M
;
_chemical_formula_sum "Si O2"
_cell_formula_units_Z 64
_cell_length_a 22.399367
_cell_length_b 15.902529
_cell_length_c 9.543489
_cell_angle_alpha 90.000000
_cell_angle_beta 90.000000
_cell_angle_gamma 90.000000
_cell_volume 3399.453609
_symmetry_space_group_name_H-M "P B A M"
_symmetry_group_IT_number 55
_symmetry_cell_setting 'orthorhombic'
loop_
_space_group_symop_operation_xyz
x,y,z
-x,-y,z
1/2+x,1/2-y,-z
1/2-x,1/2+y,-z
-x,-y,-z
x,y,-z
1/2-x,1/2+y,z
1/2+x,1/2-y,z
loop_
_atom_site_type_symbol
_atom_site_label
_atom_site_fract_x
_atom_site_fract_y
_atom_site_fract_z
Si Si1 0.049960 0.929541 0.835921
Si Si2 0.737987 0.664393 0.346754
Si Si3 0.332544 0.217097 0.840227
Si Si4 0.468152 0.241642 0.159865
Si Si5 0.035345 0.418753 0.833531
Si Si6 0.839778 0.006090 0.655257
Si Si7 0.329971 0.901180 0.843601
Si Si8 0.250744 0.066139 0.156309
O O1 0.027501 0.837505 0.779582
O O2 0.105978 0.956191 0.743378
O O3 0.069048 0.922811 0.000000
O O4 0.000000 0.000000 0.814203
O O5 0.748654 0.705625 0.500000
O O6 0.685970 0.708847 0.261292
O O7 0.713596 0.571224 0.367077
O O8 0.800657 0.666884 0.261612
O O9 0.402576 0.202552 0.822651
O O10 0.297595 0.134863 0.790514
O O11 0.317320 0.242092 0.000000
O O12 0.511017 0.170655 0.229905
O O13 0.487454 0.250384 0.000000
O O14 0.104489 0.427228 0.789878
O O15 0.000000 0.500000 0.771674
O O16 0.026407 0.418188 0.000000
O O17 0.861405 0.975652 0.500000
O O18 0.807777 0.931776 0.743874
O O19 0.286226 0.979640 0.845701
O O20 0.334698 0.862036 0.000000
O O21 0.227718 0.086845 0.000000
#
# Coordination Sequence:
#
# PCOD8224550 Si02
#       8
#     8   8   8   8   8   8   8   8
#     4  10  20  35  55  77 104 142 184 229 274 317
#     4  10  20  33  51  73 102 137 173 214 262 315
#     4  10  18  31  53  78 102 132 174 220 267 316
#     4   9  17  30  51  78 107 139 178 223 267 315
#     4   9  16  28  50  81 112 139 171 218 272 323
#     4  10  20  35  54  75 102 138 176 218 272 323
#     4   9  17  31  51  75 105 137 169 207 259 316
#     4   9  18  31  51  79 105 133 171 217 266 322
#
# _framework density 18.826554000000002
#
# number of rings (size 3 to 8) (size 9 to 14) (size 15 to 20)
#    0.000    2.500    1.250    1.500    0.000    4.750 
#    2.250    0.000    0.000    1.875    0.000    0.000 
#    0.000    0.000    0.000    0.000    0.000    0.000 
#
# Total GULP energy -793019.384673 kJ/mol
# GULP energy per Si atom -12390.927886 kJ/mol
# Density = 1.878370 g / cm^3
# Si number density = 18.826554 Si / 1000 Ang^3
#
#
#
# Elastic Constant Matrix: (Units=GPa)
#
#
# Indices 1 2 3 4 5 6 
#
# 1 84.5999 20.9755 39.3885 0.0000 0.0000 0.0000
# 2 20.9755 68.5842 16.2937 0.0000 0.0000 0.0000
# 3 39.3885 16.2937 76.6451 0.0000 0.0000 0.0000
# 4 0.0000 0.0000 0.0000 8.5922 0.0000 0.0000
# 5 0.0000 0.0000 0.0000 0.0000 9.7842 0.0000
# 6 0.0000 0.0000 0.0000 0.0000 0.0000 33.3087
#
#
#
# Elastic Compliance Matrix: (Units=1/GPa)
#
#
# Indices 1 2 3 4 5 6 
#
# 1 0.016150 -0.003125 -0.007635 0.000000 0.000000 0.000000
# 2 -0.003125 0.015961 -0.001787 0.000000 0.000000 0.000000
# 3 -0.007635 -0.001787 0.017351 0.000000 0.000000 0.000000
# 4 0.000000 0.000000 0.000000 0.116385 0.000000 0.000000
# 5 0.000000 0.000000 0.000000 0.000000 0.102206 0.000000
# 6 0.000000 0.000000 0.000000 0.000000 0.000000 0.030022
#
#
# Mechanical properties :
#
#
# Convention : Reuss Voigt Hill
#
# Bulk Modulus (GPa) = 41.03940 42.57163 41.80551
# Shear Modulus (GPa) = 15.09242 20.54844 17.82043
#
# Velocity S-wave (km/s) = 2.83442 3.30731 3.07996
# Velocity P-wave (km/s) = 5.70596 6.10295 5.90779
#
# Compressibility (1/GPa) = 0.02436683
#
# Stress axis : x y z
#
# Youngs Moduli (GPa) = 61.91907 62.65271 57.63403
#
# Poissons Ratio (x) = 0.19581 0.44005
# Poissons Ratio (y) = 0.19352 0.10299
# Poissons Ratio (z) = 0.47277 0.11196
#
# Static dielectric constant tensor:
#      x y z
#    x 3.388800 0.000000 0.000000 
#    y 0.000000 3.550910 0.000000 
#    z 0.000000 0.000000 3.529580 
# 
# 
# High freq. dielectric constant tensor:
#      x y z
#    x 1.727880 0.000000 0.000000 
#    y 0.000000 1.720630 0.000000 
#    z 0.000000 0.000000 1.699310 
# 
# From -- ./inp_files/9719.got.cif
#   From: 2010.03.12/outbox.cif.g09.slc.cpg/sg55_5_cif.got.tgz:9719.got - 2010.04.16 15:19:21.
