data_PCOD8224883
_publ_section_title
;
Structure prediction by ZEFSAII (Michael W. Deem and Ramdas Pophale) SiO2 
 PCOD8224883
Probable space group: P B A M
;
_chemical_formula_sum "Si O2"
_cell_formula_units_Z 40
_cell_length_a 5.214227
_cell_length_b 44.932697
_cell_length_c 9.067006
_cell_angle_alpha 90.000000
_cell_angle_beta 90.000000
_cell_angle_gamma 90.000000
_cell_volume 2124.302325
_symmetry_space_group_name_H-M "P B A M"
_symmetry_group_IT_number 55
_symmetry_cell_setting 'orthorhombic'
loop_
_space_group_symop_operation_xyz
x,y,z
-x,-y,z
1/2+x,1/2-y,-z
1/2-x,1/2+y,-z
-x,-y,-z
x,y,-z
1/2-x,1/2+y,z
1/2+x,1/2-y,z
loop_
_atom_site_type_symbol
_atom_site_label
_atom_site_fract_x
_atom_site_fract_y
_atom_site_fract_z
Si Si1 0.996097 0.831101 0.175254
Si Si2 0.996458 0.634683 0.824428
Si Si3 0.023582 0.231438 0.328831
Si Si4 0.999534 0.033613 0.175862
Si Si5 0.999536 0.432454 0.175929
O O1 0.744538 0.847881 0.235757
O O2 0.004603 0.797897 0.233619
O O3 0.243418 0.848816 0.234786
O O4 0.995321 0.829938 0.000000
O O5 0.000132 0.601130 0.762295
O O6 0.998302 0.634001 0.000000
O O7 0.013036 0.222719 0.500000
O O8 0.291096 0.246786 0.286765
O O9 0.749260 0.050515 0.236405
O O10 0.249290 0.050625 0.236405
O O11 0.999648 0.033444 0.000000
O O12 0.000000 0.000000 0.236952
O O13 0.999736 0.432226 0.000000
#
# Coordination Sequence:
#
# PCOD8224883 Si02
#       5
#     8   8   8   8   8
#     4  10  19  31  48  69  91 115 149 188 220 259
#     4   9  17  28  42  62  86 113 147 186 226 265
#     4  10  21  36  52  70  93 120 148 178 218 269
#     4   9  15  21  30  46  69 102 146 186 214 249
#     4   9  15  23  34  48  72 105 140 180 220 255
#
# _framework density 18.829713000000002
#
# number of rings (size 3 to 8) (size 9 to 14) (size 15 to 20)
#    0.000    2.600    0.000    3.000    0.000    8.000 
#    0.000    0.000    0.000    0.000    0.000    0.000 
#    0.000    0.000    0.000    0.000    0.000   70.000 
#
# Total GULP energy -496028.422483 kJ/mol
# GULP energy per Si atom -12400.710562 kJ/mol
# Density = 1.878686 g / cm^3
# Si number density = 18.829713 Si / 1000 Ang^3
#
#
#
# Elastic Constant Matrix: (Units=GPa)
#
#
# Indices 1 2 3 4 5 6 
#
# 1 167.1135 63.4647 14.3587 0.0000 0.0000 0.0000
# 2 63.4647 143.2596 16.9826 0.0000 0.0000 0.0000
# 3 14.3587 16.9826 7.3860 0.0000 0.0000 0.0000
# 4 0.0000 0.0000 0.0000 -2.8327 0.0000 0.0000
# 5 0.0000 0.0000 0.0000 0.0000 5.4622 0.0000
# 6 0.0000 0.0000 0.0000 0.0000 0.0000 40.7008
#
#
#
# Elastic Compliance Matrix: (Units=1/GPa)
#
#
# Indices 1 2 3 4 5 6 
#
# 1 0.007674 -0.002242 -0.009764 0.000000 0.000000 0.000000
# 2 -0.002242 0.010251 -0.019211 0.000000 0.000000 0.000000
# 3 -0.009764 -0.019211 0.198544 0.000000 0.000000 0.000000
# 4 0.000000 0.000000 0.000000 -0.353020 0.000000 0.000000
# 5 0.000000 0.000000 0.000000 0.000000 0.183075 0.000000
# 6 0.000000 0.000000 0.000000 0.000000 0.000000 0.024570
#
#
# Mechanical properties :
#
#
# Convention : Reuss Voigt Hill
#
# Bulk Modulus (GPa) = 6.49198 56.37455 31.43326
# Shear Modulus (GPa) = 27.04549 23.52961 25.28755
#
# Velocity S-wave (km/s) = 3.79399 3.53880 3.66862
# Velocity P-wave (km/s) = 4.75896 6.83386 5.88852
#
# Compressibility (1/GPa) = 0.15403618
#
# Stress axis : x y z
#
# Youngs Moduli (GPa) = 130.30240 97.55067 5.03665
#
# Poissons Ratio (x) = 0.21875 0.04918
# Poissons Ratio (y) = 0.29219 0.09676
# Poissons Ratio (z) = 1.27221 1.87405
#
# Static dielectric constant tensor:
#      x y z
#    x 3.885190 0.000000 0.000000 
#    y 0.000000 3.593020 0.000000 
#    z 0.000000 0.000000 2.685580 
# 
# 
# High freq. dielectric constant tensor:
#      x y z
#    x 1.755970 0.000000 0.000000 
#    y 0.000000 1.750270 0.000000 
#    z 0.000000 0.000000 1.648470 
# 
# From -- ./inp_files/11394.got.cif
#   From: 2010.03.12/outbox.cif.g09.slc.cpg/sg55_6_cif.got.tgz:11394.got - 2010.04.16 15:19:21.
