data_PCOD8224879
_publ_section_title
;
Structure prediction by ZEFSAII (Michael W. Deem and Ramdas Pophale) SiO2 
 PCOD8224879
Probable space group: P B A M
;
_chemical_formula_sum "Si O2"
_cell_formula_units_Z 64
_cell_length_a 14.272185
_cell_length_b 29.934882
_cell_length_c 9.004830
_cell_angle_alpha 90.000000
_cell_angle_beta 90.000000
_cell_angle_gamma 90.000000
_cell_volume 3847.189115
_symmetry_space_group_name_H-M "P B A M"
_symmetry_group_IT_number 55
_symmetry_cell_setting 'orthorhombic'
loop_
_space_group_symop_operation_xyz
x,y,z
-x,-y,z
1/2+x,1/2-y,-z
1/2-x,1/2+y,-z
-x,-y,-z
x,y,-z
1/2-x,1/2+y,z
1/2+x,1/2-y,z
loop_
_atom_site_type_symbol
_atom_site_label
_atom_site_fract_x
_atom_site_fract_y
_atom_site_fract_z
Si Si1 0.015703 0.316292 0.166797
Si Si2 0.109174 0.451501 0.673605
Si Si3 0.895996 0.447480 0.674598
Si Si4 0.014833 0.227385 0.673279
Si Si5 0.662264 0.701675 0.174377
Si Si6 0.325653 0.134499 0.167364
Si Si7 0.730222 0.284103 0.675737
Si Si8 0.808721 0.628701 0.827477
O O1 0.987828 0.277403 0.279458
O O2 0.933380 0.351707 0.165178
O O3 0.108016 0.339713 0.231047
O O4 0.033254 0.297213 0.000000
O O5 0.114311 0.443801 0.500000
O O6 0.136255 0.502282 0.713703
O O7 0.185945 0.419048 0.747473
O O8 0.003523 0.440833 0.728335
O O9 0.888709 0.438194 0.500000
O O10 0.824588 0.414587 0.759402
O O11 0.997680 0.221202 0.500000
O O12 0.942172 0.195504 0.760376
O O13 0.120963 0.217259 0.719312
O O14 0.716699 0.742886 0.248978
O O15 0.712471 0.654480 0.207933
O O16 0.658559 0.712150 0.000000
O O17 0.265611 0.168590 0.264713
O O18 0.284917 0.132507 0.000000
O O19 0.745664 0.280917 0.500000
O O20 0.821882 0.619397 0.000000
#
# Coordination Sequence:
#
# PCOD8224879 Si02
#       8
#     8   8   8   8   8   8   8   8
#     4  10  19  31  47  70 103 136 169 205 246 295
#     4   9  18  31  49  72 100 135 169 203 248 296
#     4   9  18  32  48  71 103 135 167 205 247 296
#     4  11  23  36  51  72  99 133 173 214 254 294
#     4  11  22  35  52  73 100 135 171 209 253 300
#     4  11  21  32  50  75 100 136 173 205 250 299
#     4  11  23  36  51  73 100 133 172 212 252 297
#     4  10  20  33  49  72 101 134 170 206 246 294
#
# _framework density 16.635522000000002
#
# number of rings (size 3 to 8) (size 9 to 14) (size 15 to 20)
#    0.000    1.750    3.750    2.250    0.000    4.000 
#    0.000    1.250    0.000    0.000    0.000    0.875 
#    0.000    7.000    0.000    0.000    0.000    0.000 
#
# Total GULP energy -793589.188576 kJ/mol
# GULP energy per Si atom -12399.831072 kJ/mol
# Density = 1.659766 g / cm^3
# Si number density = 16.635522 Si / 1000 Ang^3
#
#
#
# Elastic Constant Matrix: (Units=GPa)
#
#
# Indices 1 2 3 4 5 6 
#
# 1 70.6776 28.7945 37.2658 0.0000 0.0000 0.0000
# 2 28.7945 100.5755 43.0174 0.0000 0.0000 0.0000
# 3 37.2658 43.0174 72.7905 0.0000 0.0000 0.0000
# 4 0.0000 0.0000 0.0000 28.8443 0.0000 0.0000
# 5 0.0000 0.0000 0.0000 0.0000 24.9227 0.0000
# 6 0.0000 0.0000 0.0000 0.0000 0.0000 24.1138
#
#
#
# Elastic Compliance Matrix: (Units=1/GPa)
#
#
# Indices 1 2 3 4 5 6 
#
# 1 0.019612 -0.001767 -0.008996 0.000000 0.000000 0.000000
# 2 -0.001767 0.013465 -0.007053 0.000000 0.000000 0.000000
# 3 -0.008996 -0.007053 0.022512 0.000000 0.000000 0.000000
# 4 0.000000 0.000000 0.000000 0.034669 0.000000 0.000000
# 5 0.000000 0.000000 0.000000 0.000000 0.040124 0.000000
# 6 0.000000 0.000000 0.000000 0.000000 0.000000 0.041470
#
#
# Mechanical properties :
#
#
# Convention : Reuss Voigt Hill
#
# Bulk Modulus (GPa) = 50.10868 51.35544 50.73206
# Shear Modulus (GPa) = 23.34947 24.57387 23.96167
#
# Velocity S-wave (km/s) = 3.75052 3.84760 3.79937
# Velocity P-wave (km/s) = 6.99586 7.11875 7.05757
#
# Compressibility (1/GPa) = 0.01995662
#
# Stress axis : x y z
#
# Youngs Moduli (GPa) = 50.98886 74.26463 44.42079
#
# Poissons Ratio (x) = 0.13123 0.39962
# Poissons Ratio (y) = 0.09010 0.31330
# Poissons Ratio (z) = 0.45871 0.52379
#
# Static dielectric constant tensor:
#      x y z
#    x 3.098000 0.000000 0.000000 
#    y 0.000000 3.057330 0.000000 
#    z 0.000000 0.000000 3.181480 
# 
# 
# High freq. dielectric constant tensor:
#      x y z
#    x 1.616640 0.000000 0.000000 
#    y 0.000000 1.629470 0.000000 
#    z 0.000000 0.000000 1.648910 
# 
# From -- ./inp_files/6919.got.cif
#   From: 2010.03.12/outbox.cif.g09.slc.cpg/sg55_4_cif.got.tgz:6919.got - 2010.04.16 15:19:21.
