data_PCOD8224345
_publ_section_title
;
Structure prediction by ZEFSAII (Michael W. Deem and Ramdas Pophale) SiO2 
 PCOD8224345
Probable space group: P B A M
;
_chemical_formula_sum "Si O2"
_cell_formula_units_Z 44
_cell_length_a 13.877076
_cell_length_b 9.523263
_cell_length_c 16.254108
_cell_angle_alpha 90.000000
_cell_angle_beta 90.000000
_cell_angle_gamma 90.000000
_cell_volume 2148.062365
_symmetry_space_group_name_H-M "P B A M"
_symmetry_group_IT_number 55
_symmetry_cell_setting 'orthorhombic'
loop_
_space_group_symop_operation_xyz
x,y,z
-x,-y,z
1/2+x,1/2-y,-z
1/2-x,1/2+y,-z
-x,-y,-z
x,y,-z
1/2-x,1/2+y,z
1/2+x,1/2-y,z
loop_
_atom_site_type_symbol
_atom_site_label
_atom_site_fract_x
_atom_site_fract_y
_atom_site_fract_z
Si Si1 0.676432 0.443029 0.906190
Si Si2 0.293010 0.835276 0.694801
Si Si3 0.799616 0.935313 0.593160
Si Si4 0.961549 0.776100 0.212185
Si Si5 0.665577 0.746841 0.840482
Si Si6 0.000000 0.000000 0.345378
O O1 0.592559 0.381458 0.849475
O O2 0.680510 0.610592 0.897684
O O3 0.779205 0.378859 0.879386
O O4 0.653996 0.403130 0.000000
O O5 0.275053 0.986385 0.654038
O O6 0.306127 0.725266 0.621040
O O7 0.387804 0.842297 0.753630
O O8 0.202347 0.790469 0.749554
O O9 0.761543 0.942671 0.500000
O O10 0.905030 0.006276 0.597907
O O11 0.052973 0.708912 0.165584
O O12 0.999850 0.862460 0.289525
#
# Coordination Sequence:
#
# PCOD8224345 Si02
#       6
#     8   8   8   8   8   4
#     4  11  23  36  59  92 120 150 200 256 305 354
#     4  10  21  37  61  86 117 157 206 238 289 368
#     4  11  21  36  60  89 123 154 193 256 303 338
#     4  10  19  36  63  83 112 160 207 237 289 363
#     4  11  20  40  60  82 116 160 199 246 299 361
#     4  10  17  36  59  88 108 156 210 232 273 376
#
# _framework density 20.483577
#
# number of rings (size 3 to 8) (size 9 to 14) (size 15 to 20)
#    0.000    1.455    3.636    3.545    0.000    2.182 
#    0.000    8.182    0.000    6.545    0.000    0.000 
#    0.000    0.000    0.000    0.000    0.000    0.000 
#
# Total GULP energy -545658.207632 kJ/mol
# GULP energy per Si atom -12401.322901 kJ/mol
# Density = 2.043696 g / cm^3
# Si number density = 20.483577 Si / 1000 Ang^3
#
#
#
# Elastic Constant Matrix: (Units=GPa)
#
#
# Indices 1 2 3 4 5 6 
#
# 1 125.6686 35.1381 18.8235 0.0000 0.0000 0.0000
# 2 35.1381 44.1653 15.2014 0.0000 0.0000 0.0000
# 3 18.8235 15.2014 98.5471 0.0000 0.0000 0.0000
# 4 0.0000 0.0000 0.0000 28.5792 0.0000 0.0000
# 5 0.0000 0.0000 0.0000 0.0000 8.0009 0.0000
# 6 0.0000 0.0000 0.0000 0.0000 0.0000 24.8564
#
#
#
# Elastic Compliance Matrix: (Units=1/GPa)
#
#
# Indices 1 2 3 4 5 6 
#
# 1 0.010285 -0.007928 -0.000742 0.000000 0.000000 0.000000
# 2 -0.007928 0.030022 -0.003117 0.000000 0.000000 0.000000
# 3 -0.000742 -0.003117 0.010770 0.000000 0.000000 0.000000
# 4 0.000000 0.000000 0.000000 0.034991 0.000000 0.000000
# 5 0.000000 0.000000 0.000000 0.000000 0.124986 0.000000
# 6 0.000000 0.000000 0.000000 0.000000 0.000000 0.040231
#
#
# Mechanical properties :
#
#
# Convention : Reuss Voigt Hill
#
# Bulk Modulus (GPa) = 36.35702 45.18965 40.77334
# Shear Modulus (GPa) = 17.60401 25.56847 21.58624
#
# Velocity S-wave (km/s) = 2.93477 3.53688 3.24980
# Velocity P-wave (km/s) = 5.41033 6.22805 5.83354
#
# Compressibility (1/GPa) = 0.02750501
#
# Stress axis : x y z
#
# Youngs Moduli (GPa) = 97.22727 33.30857 92.85140
#
# Poissons Ratio (x) = 0.26406 0.06887
# Poissons Ratio (y) = 0.77078 0.28940
# Poissons Ratio (z) = 0.07211 0.10382
#
# Static dielectric constant tensor:
#      x y z
#    x 3.974950 0.000000 0.000000 
#    y 0.000000 3.486580 0.000000 
#    z 0.000000 0.000000 3.619220 
# 
# 
# High freq. dielectric constant tensor:
#      x y z
#    x 1.804420 0.000000 0.000000 
#    y 0.000000 1.779130 0.000000 
#    z 0.000000 0.000000 1.798260 
# 
# From -- ./inp_files/21460.got.cif
#   From: 2010.03.12/outbox.cif.g09.slc.cpg/sg55_11_cif.got.tgz:21460.got - 2010.04.16 15:19:21.
