data_PCOD8224021
_publ_section_title
;
Structure prediction by ZEFSAII (Michael W. Deem and Ramdas Pophale) SiO2 
 PCOD8224021
Probable space group: P C C A
;
_chemical_formula_sum "Si O2"
_cell_formula_units_Z 32
_cell_length_a 5.164144
_cell_length_b 8.798464
_cell_length_c 29.573512
_cell_angle_alpha 90.000000
_cell_angle_beta 90.000000
_cell_angle_gamma 90.000000
_cell_volume 1343.717915
_symmetry_space_group_name_H-M "P C C A"
_symmetry_group_IT_number 54
_symmetry_cell_setting 'orthorhombic'
loop_
_space_group_symop_operation_xyz
x,y,z
1/2-x,-y,z
1/2+x,-y,1/2-z
-x,y,1/2-z
-x,-y,-z
1/2+x,y,-z
1/2-x,y,1/2+z
x,-y,1/2+z
loop_
_atom_site_type_symbol
_atom_site_label
_atom_site_fract_x
_atom_site_fract_y
_atom_site_fract_z
Si Si1 0.178972 0.171992 0.520613
Si Si2 0.822700 0.825825 0.208825
Si Si3 0.671320 0.170406 0.376273
Si Si4 0.496950 0.401155 0.668827
O O1 0.456129 0.251875 0.510207
O O2 0.078173 0.179941 0.572126
O O3 0.250000 0.000000 0.505271
O O4 0.570444 0.716761 0.209312
O O5 0.000000 0.772622 0.250000
O O6 0.949730 0.789663 0.159907
O O7 0.750000 0.000000 0.215334
O O8 0.904721 0.292665 0.372550
O O9 0.750000 0.000000 0.363502
O O10 0.750000 0.500000 0.654935
O O11 0.250000 0.500000 0.685122
#
# Coordination Sequence:
#
# PCOD8224021 Si02
#       4
#     8   8   8   8
#     4   9  20  35  63 103 140 176 232 300 358 413
#     4  12  27  47  77 110 145 189 245 297 352 427
#     4  11  23  44  74 105 144 193 242 298 359 424
#     4  12  27  49  72 106 145 190 239 293 357 427
#
# _framework density 23.814523000000001
#
# number of rings (size 3 to 8) (size 9 to 14) (size 15 to 20)
#    0.000    1.000    5.000    0.750    3.500    1.000 
#    4.500    0.000    0.000    4.500    0.000    0.000 
#    0.000    0.000    0.000    0.000    0.000    0.000 
#
# Total GULP energy -396431.755371 kJ/mol
# GULP energy per Si atom -12388.492355 kJ/mol
# Density = 2.376032 g / cm^3
# Si number density = 23.814523 Si / 1000 Ang^3
#
#
#
# Elastic Constant Matrix: (Units=GPa)
#
#
# Indices 1 2 3 4 5 6 
#
# 1 165.3974 46.9781 53.7642 0.0000 0.0000 0.0000
# 2 46.9781 138.0583 8.2858 0.0000 0.0000 0.0000
# 3 53.7642 8.2858 123.8351 0.0000 0.0000 0.0000
# 4 0.0000 0.0000 0.0000 -22.6650 0.0000 0.0000
# 5 0.0000 0.0000 0.0000 0.0000 35.1095 0.0000
# 6 0.0000 0.0000 0.0000 0.0000 0.0000 39.1405
#
#
#
# Elastic Compliance Matrix: (Units=1/GPa)
#
#
# Indices 1 2 3 4 5 6 
#
# 1 0.007790 -0.002458 -0.003218 0.000000 0.000000 0.000000
# 2 -0.002458 0.008048 0.000529 0.000000 0.000000 0.000000
# 3 -0.003218 0.000529 0.009437 0.000000 0.000000 0.000000
# 4 0.000000 0.000000 0.000000 -0.044121 0.000000 0.000000
# 5 0.000000 0.000000 0.000000 0.000000 0.028482 0.000000
# 6 0.000000 0.000000 0.000000 0.000000 0.000000 0.025549
#
#
# Mechanical properties :
#
#
# Convention : Reuss Voigt Hill
#
# Bulk Modulus (GPa) = 66.75038 71.70523 69.22780
# Shear Modulus (GPa) = 99.06373 31.53452 65.29913
#
# Velocity S-wave (km/s) = 6.45665 3.64287 5.24208
# Velocity P-wave (km/s) = 9.14738 6.91876 8.10999
#
# Compressibility (1/GPa) = 0.01498119
#
# Stress axis : x y z
#
# Youngs Moduli (GPa) = 128.36910 124.25633 105.96723
#
# Poissons Ratio (x) = 0.30538 0.34097
# Poissons Ratio (y) = 0.31549 -0.05601
# Poissons Ratio (z) = 0.41305 -0.06567
#
# Static dielectric constant tensor:
#      x y z
#    x 4.774970 0.000000 0.000000 
#    y 0.000000 4.523620 0.000000 
#    z 0.000000 0.000000 3.910120 
# 
# 
# High freq. dielectric constant tensor:
#      x y z
#    x 1.962600 0.000000 0.000000 
#    y 0.000000 1.931290 0.000000 
#    z 0.000000 0.000000 1.923610 
# 
# From -- ./inp_files/26934.got.cif
#   From: 2010.03.12/outbox.cif.g09.slc.cpg/sg54_14_cif.got.tgz:26934.got - 2010.04.16 15:00:50.
