data_PCOD8224929
_publ_section_title
;
Structure prediction by ZEFSAII (Michael W. Deem and Ramdas Pophale) SiO2 
 PCOD8224929
Probable space group: P B A M
;
_chemical_formula_sum "Si O2"
_cell_formula_units_Z 64
_cell_length_a 20.225422
_cell_length_b 10.649801
_cell_length_c 16.362583
_cell_angle_alpha 90.000000
_cell_angle_beta 90.000000
_cell_angle_gamma 90.000000
_cell_volume 3524.446700
_symmetry_space_group_name_H-M "P B A M"
_symmetry_group_IT_number 55
_symmetry_cell_setting 'orthorhombic'
loop_
_space_group_symop_operation_xyz
x,y,z
-x,-y,z
1/2+x,1/2-y,-z
1/2-x,1/2+y,-z
-x,-y,-z
x,y,-z
1/2-x,1/2+y,z
1/2+x,1/2-y,z
loop_
_atom_site_type_symbol
_atom_site_label
_atom_site_fract_x
_atom_site_fract_y
_atom_site_fract_z
Si Si1 0.854564 0.176415 0.703699
Si Si2 0.208290 0.026175 0.904171
Si Si3 0.882683 0.775766 0.293138
Si Si4 0.842705 0.387664 0.409573
Si Si5 0.195680 0.045081 0.596126
Si Si6 0.574439 0.495597 0.184335
Si Si7 0.264310 0.788802 0.816356
Si Si8 0.056789 0.403636 0.409234
O O1 0.881806 0.292941 0.650700
O O2 0.803370 0.232375 0.768408
O O3 0.815052 0.084491 0.643190
O O4 0.914935 0.106931 0.749331
O O5 0.131346 0.994135 0.884461
O O6 0.226666 0.164151 0.871204
O O7 0.256840 0.918710 0.867464
O O8 0.218662 0.026167 0.000000
O O9 0.853631 0.851397 0.369637
O O10 0.919251 0.862970 0.228631
O O11 0.826426 0.696536 0.245244
O O12 0.939929 0.693607 0.334976
O O13 0.847022 0.328646 0.500000
O O14 0.767605 0.403306 0.381732
O O15 0.873534 0.525182 0.409270
O O16 0.184664 0.024990 0.500000
O O17 0.500000 0.500000 0.147041
O O18 0.044285 0.344113 0.500000
O O19 0.000000 0.500000 0.387023
#
# Coordination Sequence:
#
# PCOD8224929 Si02
#       8
#     8   8   8   8   8   8   8   8
#     4  10  19  32  52  73 108 133 172 224 260 309
#     4  10  21  38  60  86 113 138 164 211 268 335
#     4  10  19  34  54  73 106 138 176 226 265 306
#     4  10  20  30  48  72  99 136 176 220 264 303
#     4  10  19  31  50  76 104 140 179 224 277 311
#     4   9  21  36  54  80  99 136 177 212 257 311
#     4  10  20  34  57  85 110 137 171 211 274 327
#     4  10  22  35  47  68 101 145 189 219 257 304
#
# _framework density 18.15888
#
# number of rings (size 3 to 8) (size 9 to 14) (size 15 to 20)
#    0.000    2.125    1.250    2.625    3.500    0.250 
#    0.000    0.000    0.000    2.250    0.000    0.000 
#    0.000   11.250    0.000    0.000    0.000    0.000 
#
# Total GULP energy -793271.972191 kJ/mol
# GULP energy per Si atom -12394.874565 kJ/mol
# Density = 1.811755 g / cm^3
# Si number density = 18.158880 Si / 1000 Ang^3
#
#
#
# Elastic Constant Matrix: (Units=GPa)
#
#
# Indices 1 2 3 4 5 6 
#
# 1 65.2634 13.1393 12.7350 0.0000 0.0000 0.0000
# 2 13.1393 59.9172 22.0841 0.0000 0.0000 0.0000
# 3 12.7350 22.0841 69.9887 0.0000 0.0000 0.0000
# 4 0.0000 0.0000 0.0000 26.7079 0.0000 0.0000
# 5 0.0000 0.0000 0.0000 0.0000 17.9693 0.0000
# 6 0.0000 0.0000 0.0000 0.0000 0.0000 16.8964
#
#
#
# Elastic Compliance Matrix: (Units=1/GPa)
#
#
# Indices 1 2 3 4 5 6 
#
# 1 0.016293 -0.002807 -0.002079 0.000000 0.000000 0.000000
# 2 -0.002807 0.019370 -0.005601 0.000000 0.000000 0.000000
# 3 -0.002079 -0.005601 0.016434 0.000000 0.000000 0.000000
# 4 0.000000 0.000000 0.000000 0.037442 0.000000 0.000000
# 5 0.000000 0.000000 0.000000 0.000000 0.055650 0.000000
# 6 0.000000 0.000000 0.000000 0.000000 0.000000 0.059184
#
#
# Mechanical properties :
#
#
# Convention : Reuss Voigt Hill
#
# Bulk Modulus (GPa) = 32.13079 32.34290 32.23685
# Shear Modulus (GPa) = 21.21147 22.12878 21.67012
#
# Velocity S-wave (km/s) = 3.42146 3.49466 3.45826
# Velocity P-wave (km/s) = 5.77418 5.84237 5.80838
#
# Compressibility (1/GPa) = 0.03112280
#
# Stress axis : x y z
#
# Youngs Moduli (GPa) = 61.37501 51.62717 60.85056
#
# Poissons Ratio (x) = 0.14490 0.12651
# Poissons Ratio (y) = 0.17226 0.34083
# Poissons Ratio (z) = 0.12760 0.28917
#
# Static dielectric constant tensor:
#      x y z
#    x 3.192390 0.000000 0.000000 
#    y 0.000000 3.405140 0.000000 
#    z 0.000000 0.000000 3.276290 
# 
# 
# High freq. dielectric constant tensor:
#      x y z
#    x 1.690380 0.000000 0.000000 
#    y 0.000000 1.705600 0.000000 
#    z 0.000000 0.000000 1.694530 
# 
# From -- ./inp_files/19508.got.cif
#   From: 2010.03.12/outbox.cif.g09.slc.cpg/sg55_10_cif.got.tgz:19508.got - 2010.04.16 15:19:21.
