data_PCOD8224020
_publ_section_title
;
Structure prediction by ZEFSAII (Michael W. Deem and Ramdas Pophale) SiO2 
 PCOD8224020
Probable space group: P C C A
;
_chemical_formula_sum "Si O2"
_cell_formula_units_Z 56
_cell_length_a 14.012346
_cell_length_b 11.122384
_cell_length_c 16.321614
_cell_angle_alpha 90.000000
_cell_angle_beta 90.000000
_cell_angle_gamma 90.000000
_cell_volume 2543.734852
_symmetry_space_group_name_H-M "P C C A"
_symmetry_group_IT_number 54
_symmetry_cell_setting 'orthorhombic'
loop_
_space_group_symop_operation_xyz
x,y,z
1/2-x,-y,z
1/2+x,-y,1/2-z
-x,y,1/2-z
-x,-y,-z
1/2+x,y,-z
1/2-x,y,1/2+z
x,-y,1/2+z
loop_
_atom_site_type_symbol
_atom_site_label
_atom_site_fract_x
_atom_site_fract_y
_atom_site_fract_z
Si Si1 0.444574 0.979017 0.916724
Si Si2 0.901025 0.188283 0.207604
Si Si3 0.942694 0.775861 0.328046
Si Si4 0.739192 0.866534 0.344839
Si Si5 0.850421 0.777011 0.004148
Si Si6 0.289754 0.370429 0.894417
Si Si7 0.534852 0.633531 0.986963
O O1 0.509584 0.899803 0.857102
O O2 0.352758 0.903879 0.947062
O O3 0.415423 0.101741 0.871124
O O4 0.500000 0.000000 0.000000
O O5 0.840624 0.118753 0.275519
O O6 0.839467 0.305673 0.182957
O O7 0.000000 0.228558 0.250000
O O8 0.833925 0.808387 0.305916
O O9 0.000000 0.726952 0.250000
O O10 0.946140 0.666951 0.392596
O O11 0.707977 0.783181 0.420352
O O12 0.750000 0.000000 0.380864
O O13 0.805166 0.689862 0.070910
O O14 0.956086 0.728098 0.979513
O O15 0.250000 0.500000 0.866911
O O16 0.365770 0.360387 0.966760
O O17 0.500000 0.500000 0.000000
#
# Coordination Sequence:
#
# PCOD8224020 Si02
#       7
#     8   8   8   8   8   8   8
#     4  11  23  44  72 105 145 193 235 291 362 444
#     4  12  27  47  71 106 152 188 233 301 371 425
#     4  11  24  42  65 105 146 185 237 297 367 436
#     4  12  25  41  68 107 145 184 226 297 366 434
#     4  11  25  43  72 105 140 187 246 293 363 434
#     4  12  26  47  75 107 136 191 255 296 352 438
#     4  11  23  46  74  96 138 186 239 306 354 427
#
# _framework density 22.014873000000001
#
# number of rings (size 3 to 8) (size 9 to 14) (size 15 to 20)
#    0.000    0.571    2.857    6.429    8.000    0.000 
#    0.000    5.714    0.000    0.000    0.000    0.000 
#    0.000    0.000    0.000    0.000    0.000    0.000 
#
# Total GULP energy -694300.426012 kJ/mol
# GULP energy per Si atom -12398.221893 kJ/mol
# Density = 2.196477 g / cm^3
# Si number density = 22.014873 Si / 1000 Ang^3
#
#
#
# Elastic Constant Matrix: (Units=GPa)
#
#
# Indices 1 2 3 4 5 6 
#
# 1 117.2671 38.1278 34.8607 0.0000 0.0000 0.0000
# 2 38.1278 124.6203 39.5678 0.0000 0.0000 0.0000
# 3 34.8607 39.5678 95.4085 0.0000 0.0000 0.0000
# 4 0.0000 0.0000 0.0000 28.8637 0.0000 0.0000
# 5 0.0000 0.0000 0.0000 0.0000 45.7468 0.0000
# 6 0.0000 0.0000 0.0000 0.0000 0.0000 38.7615
#
#
#
# Elastic Compliance Matrix: (Units=1/GPa)
#
#
# Indices 1 2 3 4 5 6 
#
# 1 0.010065 -0.002202 -0.002765 0.000000 0.000000 0.000000
# 2 -0.002202 0.009723 -0.003228 0.000000 0.000000 0.000000
# 3 -0.002765 -0.003228 0.012830 0.000000 0.000000 0.000000
# 4 0.000000 0.000000 0.000000 0.034646 0.000000 0.000000
# 5 0.000000 0.000000 0.000000 0.000000 0.021859 0.000000
# 6 0.000000 0.000000 0.000000 0.000000 0.000000 0.025799
#
#
# Mechanical properties :
#
#
# Convention : Reuss Voigt Hill
#
# Bulk Modulus (GPa) = 61.61455 62.48984 62.05219
# Shear Modulus (GPa) = 36.57111 37.65707 37.11409
#
# Velocity S-wave (km/s) = 4.08020 4.14034 4.11038
# Velocity P-wave (km/s) = 7.08843 7.16264 7.12563
#
# Compressibility (1/GPa) = 0.01622993
#
# Stress axis : x y z
#
# Youngs Moduli (GPa) = 99.35185 102.85068 77.94230
#
# Poissons Ratio (x) = 0.22645 0.21548
# Poissons Ratio (y) = 0.21874 0.25158
# Poissons Ratio (z) = 0.27467 0.33198
#
# Static dielectric constant tensor:
#      x y z
#    x 3.879550 0.000000 0.000000 
#    y 0.000000 4.009210 0.000000 
#    z 0.000000 0.000000 4.059720 
# 
# 
# High freq. dielectric constant tensor:
#      x y z
#    x 1.885970 0.000000 0.000000 
#    y 0.000000 1.858350 0.000000 
#    z 0.000000 0.000000 1.865790 
# 
# From -- ./inp_files/13480.got.cif
#   From: 2010.03.12/outbox.cif.g09.slc.cpg/sg54_7_cif.got.tgz:13480.got - 2010.04.16 15:00:50.
