data_PCOD8224974
_publ_section_title
;
Structure prediction by ZEFSAII (Michael W. Deem and Ramdas Pophale) SiO2 
 PCOD8224974
Probable space group: P B A M
;
_chemical_formula_sum "Si O2"
_cell_formula_units_Z 64
_cell_length_a 18.522967
_cell_length_b 11.454351
_cell_length_c 14.782897
_cell_angle_alpha 90.000000
_cell_angle_beta 90.000000
_cell_angle_gamma 90.000000
_cell_volume 3136.466052
_symmetry_space_group_name_H-M "P B A M"
_symmetry_group_IT_number 55
_symmetry_cell_setting 'orthorhombic'
loop_
_space_group_symop_operation_xyz
x,y,z
-x,-y,z
1/2+x,1/2-y,-z
1/2-x,1/2+y,-z
-x,-y,-z
x,y,-z
1/2-x,1/2+y,z
1/2+x,1/2-y,z
loop_
_atom_site_type_symbol
_atom_site_label
_atom_site_fract_x
_atom_site_fract_y
_atom_site_fract_z
Si Si1 0.630999 0.341440 0.280754
Si Si2 0.454640 0.821175 0.400124
Si Si3 0.683824 0.739148 0.097565
Si Si4 0.350727 0.785031 0.098929
Si Si5 0.105642 0.566270 0.359885
Si Si6 0.832874 0.482274 0.179220
Si Si7 0.815151 0.083510 0.739983
Si Si8 0.768605 0.268290 0.602535
O O1 0.562930 0.281863 0.329510
O O2 0.628631 0.308632 0.174718
O O3 0.627601 0.481652 0.283637
O O4 0.702633 0.296993 0.331212
O O5 0.444709 0.768661 0.500000
O O6 0.536694 0.859606 0.388134
O O7 0.401003 0.931699 0.390574
O O8 0.765795 0.700789 0.090558
O O9 0.683633 0.878197 0.110733
O O10 0.650276 0.664796 0.180492
O O11 0.646180 0.710979 0.000000
O O12 0.375985 0.914433 0.128600
O O13 0.383791 0.751256 0.000000
O O14 0.111586 0.569363 0.252009
O O15 0.176790 0.622627 0.404093
O O16 0.760470 0.526043 0.229720
O O17 0.807325 0.157007 0.647831
O O18 0.742867 0.238971 0.500000
#
# Coordination Sequence:
#
# PCOD8224974 Si02
#       8
#     8   8   8   8   8   8   8   8
#     4  12  22  38  56  85 123 156 190 243 291 347
#     4  11  24  40  60  89 118 153 199 246 295 351
#     4  10  19  32  55  87 120 152 187 238 292 346
#     4  10  19  31  53  84 118 150 184 235 293 345
#     4  11  20  40  64  84 117 154 195 245 294 349
#     4  11  17  35  58  84 120 147 190 240 292 342
#     4  11  20  36  52  86 119 151 193 236 290 345
#     4  12  23  37  59  84 115 155 196 240 292 349
#
# _framework density 20.405131999999998
#
# number of rings (size 3 to 8) (size 9 to 14) (size 15 to 20)
#    0.000    1.000    7.500    2.250    0.000    2.000 
#    0.000    0.625    0.000    3.750    0.000    0.875 
#    0.000    0.000    0.000    0.000    0.000    0.000 
#
# Total GULP energy -793326.156047 kJ/mol
# GULP energy per Si atom -12395.721188 kJ/mol
# Density = 2.035869 g / cm^3
# Si number density = 20.405132 Si / 1000 Ang^3
#
#
#
# Elastic Constant Matrix: (Units=GPa)
#
#
# Indices 1 2 3 4 5 6 
#
# 1 20.6579 -5.5196 8.3339 0.0000 0.0000 0.0000
# 2 -5.5196 85.7992 32.2767 0.0000 0.0000 0.0000
# 3 8.3339 32.2767 160.8696 0.0000 0.0000 0.0000
# 4 0.0000 0.0000 0.0000 17.6354 0.0000 0.0000
# 5 0.0000 0.0000 0.0000 0.0000 46.5881 0.0000
# 6 0.0000 0.0000 0.0000 0.0000 0.0000 19.3247
#
#
#
# Elastic Compliance Matrix: (Units=1/GPa)
#
#
# Indices 1 2 3 4 5 6 
#
# 1 0.051088 0.004632 -0.003576 0.000000 0.000000 0.000000
# 2 0.004632 0.013027 -0.002854 0.000000 0.000000 0.000000
# 3 -0.003576 -0.002854 0.006974 0.000000 0.000000 0.000000
# 4 0.000000 0.000000 0.000000 0.056704 0.000000 0.000000
# 5 0.000000 0.000000 0.000000 0.000000 0.021465 0.000000
# 6 0.000000 0.000000 0.000000 0.000000 0.000000 0.051747
#
#
# Mechanical properties :
#
#
# Convention : Reuss Voigt Hill
#
# Bulk Modulus (GPa) = 14.81636 37.50095 26.15865
# Shear Modulus (GPa) = 22.01695 32.19201 27.10448
#
# Velocity S-wave (km/s) = 3.28836 3.97626 3.64856
# Velocity P-wave (km/s) = 4.65775 6.28482 5.53144
#
# Compressibility (1/GPa) = 0.06749298
#
# Stress axis : x y z
#
# Youngs Moduli (GPa) = 19.57413 76.76613 143.38964
#
# Poissons Ratio (x) = -0.35556 0.51275
# Poissons Ratio (y) = -0.09066 0.40917
# Poissons Ratio (z) = 0.07000 0.21906
#
# Static dielectric constant tensor:
#      x y z
#    x 3.235460 0.000000 0.000000 
#    y 0.000000 3.933930 0.000000 
#    z 0.000000 0.000000 4.204180 
# 
# 
# High freq. dielectric constant tensor:
#      x y z
#    x 1.736590 0.000000 0.000000 
#    y 0.000000 1.800960 0.000000 
#    z 0.000000 0.000000 1.815890 
# 
# From -- ./inp_files/19528.got.cif
#   From: 2010.03.12/outbox.cif.g09.slc.cpg/sg55_10_cif.got.tgz:19528.got - 2010.04.16 15:19:21.
