data_PCOD8224903
_publ_section_title
;
Structure prediction by ZEFSAII (Michael W. Deem and Ramdas Pophale) SiO2 
 PCOD8224903
Probable space group: P B A M
;
_chemical_formula_sum "Si O2"
_cell_formula_units_Z 48
_cell_length_a 15.520243
_cell_length_b 19.133090
_cell_length_c 9.199701
_cell_angle_alpha 90.000000
_cell_angle_beta 90.000000
_cell_angle_gamma 90.000000
_cell_volume 2731.853108
_symmetry_space_group_name_H-M "P B A M"
_symmetry_group_IT_number 55
_symmetry_cell_setting 'orthorhombic'
loop_
_space_group_symop_operation_xyz
x,y,z
-x,-y,z
1/2+x,1/2-y,-z
1/2-x,1/2+y,-z
-x,-y,-z
x,y,-z
1/2-x,1/2+y,z
1/2+x,1/2-y,z
loop_
_atom_site_type_symbol
_atom_site_label
_atom_site_fract_x
_atom_site_fract_y
_atom_site_fract_z
Si Si1 0.577747 0.545908 0.670208
Si Si2 0.071504 0.444482 0.829374
Si Si3 0.918940 0.206349 0.331064
Si Si4 0.252127 0.289634 0.163849
Si Si5 0.917398 0.699708 0.671255
Si Si6 0.259250 0.455752 0.160110
O O1 0.500000 0.500000 0.735925
O O2 0.583018 0.535457 0.500000
O O3 0.563289 0.626242 0.714812
O O4 0.667790 0.516093 0.732046
O O5 0.057319 0.375362 0.735224
O O6 0.163742 0.480805 0.793124
O O7 0.000000 0.500000 0.783656
O O8 0.067120 0.424383 0.000000
O O9 0.894606 0.211072 0.500000
O O10 0.838660 0.238606 0.241648
O O11 0.004220 0.248881 0.293246
O O12 0.167293 0.267058 0.253536
O O13 0.255520 0.372541 0.161843
O O14 0.247308 0.259263 0.000000
O O15 0.900005 0.692622 0.500000
O O16 0.282515 0.483617 0.000000
#
# Coordination Sequence:
#
# PCOD8224903 Si02
#       6
#     8   8   8   8   8   8
#     4   9  17  30  48  68  90 119 154 190 230 275
#     4   9  18  33  51  70  95 125 157 195 236 280
#     4   9  18  32  49  70  96 125 157 196 240 283
#     4   9  17  30  49  70  92 123 163 199 232 281
#     4  10  19  31  49  72  98 126 157 196 242 292
#     4   8  15  28  46  67  89 117 152 187 226 272
#
# _framework density 17.570491000000001
#
# number of rings (size 3 to 8) (size 9 to 14) (size 15 to 20)
#    0.000    3.000    0.000    2.000    0.000    6.000 
#    0.000    1.667    0.000    6.000    0.000    0.000 
#    0.000    0.000    0.000    0.000    0.000    0.000 
#
# Total GULP energy -595045.107292 kJ/mol
# GULP energy per Si atom -12396.773069 kJ/mol
# Density = 1.753050 g / cm^3
# Si number density = 17.570491 Si / 1000 Ang^3
#
#
#
# Elastic Constant Matrix: (Units=GPa)
#
#
# Indices 1 2 3 4 5 6 
#
# 1 181.4509 57.5494 75.9385 0.0000 0.0000 0.0000
# 2 57.5494 46.5521 36.2590 0.0000 0.0000 0.0000
# 3 75.9385 36.2590 84.9177 0.0000 0.0000 0.0000
# 4 0.0000 0.0000 0.0000 16.0957 0.0000 0.0000
# 5 0.0000 0.0000 0.0000 0.0000 34.7815 0.0000
# 6 0.0000 0.0000 0.0000 0.0000 0.0000 29.3884
#
#
#
# Elastic Compliance Matrix: (Units=1/GPa)
#
#
# Indices 1 2 3 4 5 6 
#
# 1 0.010727 -0.008674 -0.005889 0.000000 0.000000 0.000000
# 2 -0.008674 0.039200 -0.008981 0.000000 0.000000 0.000000
# 3 -0.005889 -0.008981 0.020877 0.000000 0.000000 0.000000
# 4 0.000000 0.000000 0.000000 0.062128 0.000000 0.000000
# 5 0.000000 0.000000 0.000000 0.000000 0.028751 0.000000
# 6 0.000000 0.000000 0.000000 0.000000 0.000000 0.034027
#
#
# Mechanical properties :
#
#
# Convention : Reuss Voigt Hill
#
# Bulk Modulus (GPa) = 42.16602 72.49049 57.32826
# Shear Modulus (GPa) = 19.94398 25.59805 22.77102
#
# Velocity S-wave (km/s) = 3.37276 3.82105 3.60388
# Velocity P-wave (km/s) = 6.26240 7.79832 7.07218
#
# Compressibility (1/GPa) = 0.02371578
#
# Stress axis : x y z
#
# Youngs Moduli (GPa) = 93.22547 25.51043 47.89974
#
# Poissons Ratio (x) = 0.22128 0.28207
# Poissons Ratio (y) = 0.80864 0.43019
# Poissons Ratio (z) = 0.54898 0.22911
#
# Static dielectric constant tensor:
#      x y z
#    x 3.660850 0.000000 0.000000 
#    y 0.000000 2.902220 0.000000 
#    z 0.000000 0.000000 3.349180 
# 
# 
# High freq. dielectric constant tensor:
#      x y z
#    x 1.697350 0.000000 0.000000 
#    y 0.000000 1.633030 0.000000 
#    z 0.000000 0.000000 1.681510 
# 
# From -- ./inp_files/5566.got.cif
#   From: 2010.03.12/outbox.cif.g09.slc.cpg/sg55_3_cif.got.tgz:5566.got - 2010.04.16 15:19:21.
