data_PCOD8224019
_publ_section_title
;
Structure prediction by ZEFSAII (Michael W. Deem and Ramdas Pophale) SiO2 
 PCOD8224019
Probable space group: P C C A
;
_chemical_formula_sum "Si O2"
_cell_formula_units_Z 40
_cell_length_a 16.910258
_cell_length_b 12.104169
_cell_length_c 9.611784
_cell_angle_alpha 90.000000
_cell_angle_beta 90.000000
_cell_angle_gamma 90.000000
_cell_volume 1967.384362
_symmetry_space_group_name_H-M "P C C A"
_symmetry_group_IT_number 54
_symmetry_cell_setting 'orthorhombic'
loop_
_space_group_symop_operation_xyz
x,y,z
1/2-x,-y,z
1/2+x,-y,1/2-z
-x,y,1/2-z
-x,-y,-z
1/2+x,y,-z
1/2-x,y,1/2+z
x,-y,1/2+z
loop_
_atom_site_type_symbol
_atom_site_label
_atom_site_fract_x
_atom_site_fract_y
_atom_site_fract_z
Si Si1 0.166436 0.442874 0.500199
Si Si2 0.090803 0.404816 0.788872
Si Si3 0.187377 0.809136 0.979695
Si Si4 0.337425 0.829314 0.799880
Si Si5 0.945661 0.031973 0.127276
O O1 0.250000 0.500000 0.478108
O O2 0.142398 0.447893 0.660415
O O3 0.100267 0.507617 0.412574
O O4 0.172436 0.318553 0.444351
O O5 0.120673 0.285417 0.838575
O O6 0.000000 0.394125 0.750000
O O7 0.266690 0.852443 0.906966
O O8 0.113228 0.872766 0.918295
O O9 0.197001 0.828864 0.143964
O O10 0.400907 0.925261 0.814813
O O11 0.000000 0.080614 0.250000
O O12 0.000000 0.000000 0.000000
#
# Coordination Sequence:
#
# PCOD8224019 Si02
#       5
#     8   8   8   8   8
#     4  11  23  44  67 101 135 178 228 276 336 408
#     4  11  24  42  68  98 138 178 224 285 340 398
#     4  11  26  43  71  99 133 182 228 277 338 410
#     4  11  25  45  68  97 136 180 228 277 341 399
#     4  12  26  47  69  99 138 175 224 282 340 401
#
# _framework density 20.331565000000001
#
# number of rings (size 3 to 8) (size 9 to 14) (size 15 to 20)
#    0.000    0.800    4.000    2.400    8.400    2.400 
#    0.000    0.000    0.000    0.000    0.000    0.000 
#    0.000    0.000    0.000    0.000    0.000    0.000 
#
# Total GULP energy -496322.945258 kJ/mol
# GULP energy per Si atom -12408.073631 kJ/mol
# Density = 2.028529 g / cm^3
# Si number density = 20.331565 Si / 1000 Ang^3
#
#
#
# Elastic Constant Matrix: (Units=GPa)
#
#
# Indices 1 2 3 4 5 6 
#
# 1 124.8837 45.6262 36.3362 0.0000 0.0000 0.0000
# 2 45.6262 118.2814 43.7329 0.0000 0.0000 0.0000
# 3 36.3362 43.7329 81.5167 0.0000 0.0000 0.0000
# 4 0.0000 0.0000 0.0000 28.8586 0.0000 0.0000
# 5 0.0000 0.0000 0.0000 0.0000 34.6103 0.0000
# 6 0.0000 0.0000 0.0000 0.0000 0.0000 28.9715
#
#
#
# Elastic Compliance Matrix: (Units=1/GPa)
#
#
# Indices 1 2 3 4 5 6 
#
# 1 0.009854 -0.002716 -0.002935 0.000000 0.000000 0.000000
# 2 -0.002716 0.011295 -0.004849 0.000000 0.000000 0.000000
# 3 -0.002935 -0.004849 0.016177 0.000000 0.000000 0.000000
# 4 0.000000 0.000000 0.000000 0.034652 0.000000 0.000000
# 5 0.000000 0.000000 0.000000 0.000000 0.028893 0.000000
# 6 0.000000 0.000000 0.000000 0.000000 0.000000 0.034517
#
#
# Mechanical properties :
#
#
# Convention : Reuss Voigt Hill
#
# Bulk Modulus (GPa) = 61.25319 64.00804 62.63062
# Shear Modulus (GPa) = 30.89672 31.75385 31.32528
#
# Velocity S-wave (km/s) = 3.90249 3.95625 3.92946
# Velocity P-wave (km/s) = 7.10623 7.24014 7.17350
#
# Compressibility (1/GPa) = 0.01632568
#
# Stress axis : x y z
#
# Youngs Moduli (GPa) = 101.48476 88.53601 61.81493
#
# Poissons Ratio (x) = 0.24044 0.18145
# Poissons Ratio (y) = 0.27560 0.29974
# Poissons Ratio (z) = 0.29789 0.42932
#
# Static dielectric constant tensor:
#      x y z
#    x 3.624330 0.000000 0.000000 
#    y 0.000000 3.997190 0.000000 
#    z 0.000000 0.000000 3.841690 
# 
# 
# High freq. dielectric constant tensor:
#      x y z
#    x 1.808060 0.000000 0.000000 
#    y 0.000000 1.805650 0.000000 
#    z 0.000000 0.000000 1.804700 
# 
# From -- ./inp_files/3440.got.cif
#   From: 2010.03.12/outbox.cif.g09.slc.cpg/sg54_2_cif.got.tgz:3440.got - 2010.04.16 15:00:50.
