data_PCOD8224899
_publ_section_title
;
Structure prediction by ZEFSAII (Michael W. Deem and Ramdas Pophale) SiO2 
 PCOD8224899
Probable space group: P B A M
;
_chemical_formula_sum "Si O2"
_cell_formula_units_Z 48
_cell_length_a 18.565307
_cell_length_b 16.697896
_cell_length_c 8.626090
_cell_angle_alpha 90.000000
_cell_angle_beta 90.000000
_cell_angle_gamma 90.000000
_cell_volume 2674.101404
_symmetry_space_group_name_H-M "P B A M"
_symmetry_group_IT_number 55
_symmetry_cell_setting 'orthorhombic'
loop_
_space_group_symop_operation_xyz
x,y,z
-x,-y,z
1/2+x,1/2-y,-z
1/2-x,1/2+y,-z
-x,-y,-z
x,y,-z
1/2-x,1/2+y,z
1/2+x,1/2-y,z
loop_
_atom_site_type_symbol
_atom_site_label
_atom_site_fract_x
_atom_site_fract_y
_atom_site_fract_z
Si Si1 0.284011 0.934150 0.679589
Si Si2 0.577340 0.982173 0.320164
Si Si3 0.211358 0.082846 0.178644
Si Si4 0.829546 0.162687 0.817319
Si Si5 0.165204 0.670724 0.681631
Si Si6 0.079172 0.988007 0.183483
O O1 0.265998 0.953745 0.500000
O O2 0.248614 0.850086 0.732402
O O3 0.370564 0.940332 0.704159
O O4 0.249478 0.998126 0.795189
O O5 0.564222 0.965462 0.500000
O O6 0.615066 0.901640 0.253593
O O7 0.500000 0.000000 0.239208
O O8 0.250768 0.150731 0.280571
O O9 0.127852 0.066275 0.226610
O O10 0.217739 0.108390 0.000000
O O11 0.859699 0.248989 0.768051
O O12 0.885303 0.094933 0.755790
O O13 0.818472 0.158924 0.000000
O O14 0.156814 0.683021 0.500000
O O15 0.073177 0.980832 0.000000
O O16 0.000000 0.000000 0.258139
#
# Coordination Sequence:
#
# PCOD8224899 Si02
#       6
#     8   8   8   8   8   8
#     4   9  16  28  48  70  93 121 154 190 226 274
#     4   8  15  29  49  71  94 123 156 190 234 285
#     4   9  16  28  48  70  93 121 154 190 226 274
#     4  10  19  31  49  70  94 124 159 200 241 282
#     4  10  19  31  49  70  94 124 159 200 241 282
#     4   8  15  29  49  71  94 123 156 190 234 285
#
# _framework density 17.949954999999999
#
# number of rings (size 3 to 8) (size 9 to 14) (size 15 to 20)
#    0.000    3.000    0.000    4.000    0.000    0.000 
#    0.000    1.667    0.000   40.000    0.000    0.000 
#    0.000    0.000    0.000    0.000    0.000    0.000 
#
# Total GULP energy -594643.920264 kJ/mol
# GULP energy per Si atom -12388.415006 kJ/mol
# Density = 1.790910 g / cm^3
# Si number density = 17.949955 Si / 1000 Ang^3
#
#
#
# Elastic Constant Matrix: (Units=GPa)
#
#
# Indices 1 2 3 4 5 6 
#
# 1 140.9282 51.5206 28.6086 0.0000 0.0000 0.0000
# 2 51.5206 89.4997 17.1155 0.0000 0.0000 0.0000
# 3 28.6086 17.1155 40.9854 0.0000 0.0000 0.0000
# 4 0.0000 0.0000 0.0000 27.2117 0.0000 0.0000
# 5 0.0000 0.0000 0.0000 0.0000 16.7882 0.0000
# 6 0.0000 0.0000 0.0000 0.0000 0.0000 19.5272
#
#
#
# Elastic Compliance Matrix: (Units=1/GPa)
#
#
# Indices 1 2 3 4 5 6 
#
# 1 0.009809 -0.004714 -0.004879 0.000000 0.000000 0.000000
# 2 -0.004714 0.014408 -0.002726 0.000000 0.000000 0.000000
# 3 -0.004879 -0.002726 0.028943 0.000000 0.000000 0.000000
# 4 0.000000 0.000000 0.000000 0.036749 0.000000 0.000000
# 5 0.000000 0.000000 0.000000 0.000000 0.059566 0.000000
# 6 0.000000 0.000000 0.000000 0.000000 0.000000 0.051211
#
#
# Mechanical properties :
#
#
# Convention : Reuss Voigt Hill
#
# Bulk Modulus (GPa) = 35.06002 51.76697 43.41350
# Shear Modulus (GPa) = 21.29187 24.31666 22.80427
#
# Velocity S-wave (km/s) = 3.44783 3.68461 3.56818
# Velocity P-wave (km/s) = 5.95185 6.85595 6.41983
#
# Compressibility (1/GPa) = 0.02852252
#
# Stress axis : x y z
#
# Youngs Moduli (GPa) = 101.94204 69.40516 34.55072
#
# Poissons Ratio (x) = 0.32717 0.16856
# Poissons Ratio (y) = 0.48054 0.09420
# Poissons Ratio (z) = 0.49735 0.18923
#
# Static dielectric constant tensor:
#      x y z
#    x 3.777950 0.000000 0.000000 
#    y 0.000000 3.290930 0.000000 
#    z 0.000000 0.000000 3.075260 
# 
# 
# High freq. dielectric constant tensor:
#      x y z
#    x 1.687750 0.000000 0.000000 
#    y 0.000000 1.672130 0.000000 
#    z 0.000000 0.000000 1.675940 
# 
# From -- ./inp_files/7545.got.cif
#   From: 2010.03.12/outbox.cif.g09.slc.cpg/sg55_4_cif.got.tgz:7545.got - 2010.04.16 15:19:21.
