data_PCOD8224950
_publ_section_title
;
Structure prediction by ZEFSAII (Michael W. Deem and Ramdas Pophale) SiO2 
 PCOD8224950
Probable space group: P B A M
;
_chemical_formula_sum "Si O2"
_cell_formula_units_Z 56
_cell_length_a 22.402827
_cell_length_b 14.232351
_cell_length_c 9.451930
_cell_angle_alpha 90.000000
_cell_angle_beta 90.000000
_cell_angle_gamma 90.000000
_cell_volume 3013.699650
_symmetry_space_group_name_H-M "P B A M"
_symmetry_group_IT_number 55
_symmetry_cell_setting 'orthorhombic'
loop_
_space_group_symop_operation_xyz
x,y,z
-x,-y,z
1/2+x,1/2-y,-z
1/2-x,1/2+y,-z
-x,-y,-z
x,y,-z
1/2-x,1/2+y,z
1/2+x,1/2-y,z
loop_
_atom_site_type_symbol
_atom_site_label
_atom_site_fract_x
_atom_site_fract_y
_atom_site_fract_z
Si Si1 0.100590 0.291431 0.339222
Si Si2 0.213084 0.415889 0.337979
Si Si3 0.386431 0.225475 0.837592
Si Si4 0.151489 0.892356 0.661633
Si Si5 0.724104 0.904882 0.835196
Si Si6 0.499599 0.107068 0.832661
Si Si7 0.841409 0.896434 0.337013
O O1 0.079755 0.310534 0.500000
O O2 0.166001 0.333872 0.311387
O O3 0.106645 0.179835 0.309233
O O4 0.053799 0.335746 0.233494
O O5 0.212023 0.451846 0.500000
O O6 0.278837 0.377623 0.300641
O O7 0.196755 0.502168 0.236261
O O8 0.389254 0.323337 0.753877
O O9 0.322746 0.178131 0.812238
O O10 0.438036 0.155224 0.784026
O O11 0.397307 0.250360 0.000000
O O12 0.138607 0.866786 0.500000
O O13 0.132756 0.999932 0.695557
O O14 0.785439 0.873898 0.762524
O O15 0.735131 0.925485 0.000000
O O16 0.500000 0.000000 0.776587
O O17 0.508157 0.108907 0.000000
O O18 0.819314 0.891140 0.500000
#
# Coordination Sequence:
#
# PCOD8224950 Si02
#       7
#     8   8   8   8   8   8   8
#     4  10  20  35  56  79 103 135 176 218 257 304
#     4   9  18  32  51  78 109 137 166 207 261 308
#     4  10  21  35  51  74 104 137 172 212 257 301
#     4   9  18  33  54  77 102 136 171 205 253 309
#     4  10  19  31  51  79 107 138 175 210 251 308
#     4  10  22  40  57  74 103 139 171 210 260 307
#     4   9  19  36  54  76 108 138 166 209 263 308
#
# _framework density 18.581811999999999
#
# number of rings (size 3 to 8) (size 9 to 14) (size 15 to 20)
#    0.000    2.429    0.000    3.000    0.000    7.714 
#    0.000    0.714    0.000    4.286    0.000    0.000 
#    0.000    0.000    0.000    0.000    0.000    0.000 
#
# Total GULP energy -694455.681351 kJ/mol
# GULP energy per Si atom -12400.994310 kJ/mol
# Density = 1.853952 g / cm^3
# Si number density = 18.581812 Si / 1000 Ang^3
#
#
#
# Elastic Constant Matrix: (Units=GPa)
#
#
# Indices 1 2 3 4 5 6 
#
# 1 68.6264 58.9704 37.7015 0.0000 0.0000 0.0000
# 2 58.9704 138.2196 58.6176 0.0000 0.0000 0.0000
# 3 37.7015 58.6176 64.7233 0.0000 0.0000 0.0000
# 4 0.0000 0.0000 0.0000 33.7235 0.0000 0.0000
# 5 0.0000 0.0000 0.0000 0.0000 29.7718 0.0000
# 6 0.0000 0.0000 0.0000 0.0000 0.0000 28.5252
#
#
#
# Elastic Compliance Matrix: (Units=1/GPa)
#
#
# Indices 1 2 3 4 5 6 
#
# 1 0.025364 -0.007397 -0.008076 0.000000 0.000000 0.000000
# 2 -0.007397 0.013903 -0.008283 0.000000 0.000000 0.000000
# 3 -0.008076 -0.008283 0.027657 0.000000 0.000000 0.000000
# 4 0.000000 0.000000 0.000000 0.029653 0.000000 0.000000
# 5 0.000000 0.000000 0.000000 0.000000 0.033589 0.000000
# 6 0.000000 0.000000 0.000000 0.000000 0.000000 0.035057
#
#
# Mechanical properties :
#
#
# Convention : Reuss Voigt Hill
#
# Bulk Modulus (GPa) = 51.51302 64.68314 58.09808
# Shear Modulus (GPa) = 22.80970 26.15608 24.48289
#
# Velocity S-wave (km/s) = 3.50741 3.75589 3.63378
# Velocity P-wave (km/s) = 6.64718 7.32765 6.99570
#
# Compressibility (1/GPa) = 0.01941257
#
# Stress axis : x y z
#
# Youngs Moduli (GPa) = 39.42576 71.92478 36.15779
#
# Poissons Ratio (x) = 0.53199 0.29201
# Poissons Ratio (y) = 0.29161 0.29951
# Poissons Ratio (z) = 0.31840 0.59578
#
# Static dielectric constant tensor:
#      x y z
#    x 3.221870 0.000000 0.000000 
#    y 0.000000 3.527930 0.000000 
#    z 0.000000 0.000000 3.365370 
# 
# 
# High freq. dielectric constant tensor:
#      x y z
#    x 1.698930 0.000000 0.000000 
#    y 0.000000 1.730870 0.000000 
#    z 0.000000 0.000000 1.717680 
# 
# From -- ./inp_files/6090.got.cif
#   From: 2010.03.12/outbox.cif.g09.slc.cpg/sg55_4_cif.got.tgz:6090.got - 2010.04.16 15:19:21.
