data_PCOD8224753
_publ_section_title
;
Structure prediction by ZEFSAII (Michael W. Deem and Ramdas Pophale) SiO2 
 PCOD8224753
Probable space group: P B A M
;
_chemical_formula_sum "Si O2"
_cell_formula_units_Z 64
_cell_length_a 30.713725
_cell_length_b 11.949164
_cell_length_c 8.497349
_cell_angle_alpha 90.000000
_cell_angle_beta 90.000000
_cell_angle_gamma 90.000000
_cell_volume 3118.555439
_symmetry_space_group_name_H-M "P B A M"
_symmetry_group_IT_number 55
_symmetry_cell_setting 'orthorhombic'
loop_
_space_group_symop_operation_xyz
x,y,z
-x,-y,z
1/2+x,1/2-y,-z
1/2-x,1/2+y,-z
-x,-y,-z
x,y,-z
1/2-x,1/2+y,z
1/2+x,1/2-y,z
loop_
_atom_site_type_symbol
_atom_site_label
_atom_site_fract_x
_atom_site_fract_y
_atom_site_fract_z
Si Si1 0.872727 0.867410 0.182446
Si Si2 0.202908 0.714353 0.319518
Si Si3 0.953692 0.744281 0.314470
Si Si4 0.664547 0.000163 0.821327
Si Si5 0.550903 0.765076 0.314879
Si Si6 0.700838 0.212381 0.317947
Si Si7 0.073082 0.494854 0.681598
Si Si8 0.871303 0.110283 0.683205
O O1 0.921197 0.827370 0.226443
O O2 0.837016 0.800789 0.281957
O O3 0.868446 0.997999 0.217214
O O4 0.864122 0.844406 0.000000
O O5 0.197828 0.674952 0.500000
O O6 0.188404 0.616480 0.204417
O O7 0.252588 0.736843 0.275630
O O8 0.173540 0.823513 0.289663
O O9 0.943525 0.748816 0.500000
O O10 0.948578 0.617448 0.247590
O O11 0.003041 0.783680 0.277439
O O12 0.697198 0.101438 0.786592
O O13 0.624585 0.013145 0.702739
O O14 0.647858 0.006920 0.000000
O O15 0.558978 0.776757 0.500000
O O16 0.588040 0.682501 0.248714
O O17 0.555727 0.889864 0.239307
O O18 0.698314 0.178819 0.500000
O O19 0.060585 0.497660 0.500000
O O20 0.878302 0.080722 0.500000
#
# Coordination Sequence:
#
# PCOD8224753 Si02
#       8
#     8   8   8   8   8   8   8   8
#     4  12  26  42  59  86 125 164 202 252 312 370
#     4  10  23  43  68  93 119 157 208 255 299 355
#     4  10  20  36  63  93 120 158 204 253 301 359
#     4  12  24  38  62  95 132 163 194 243 308 368
#     4   9  18  35  63  95 120 151 205 257 300 351
#     4  11  24  43  67  92 119 160 211 257 297 354
#     4  10  18  35  62  91 125 160 201 249 297 355
#     4  10  21  41  65  89 119 158 206 256 299 358
#
# _framework density 20.522321999999999
#
# number of rings (size 3 to 8) (size 9 to 14) (size 15 to 20)
#    0.000    1.500    2.500    3.000    1.750    3.500 
#    0.000    3.750    0.000    1.500    0.000    0.000 
#    0.000    0.000    0.000    0.000    0.000    0.000 
#
# Total GULP energy -793742.474654 kJ/mol
# GULP energy per Si atom -12402.226166 kJ/mol
# Density = 2.047561 g / cm^3
# Si number density = 20.522322 Si / 1000 Ang^3
#
#
#
# Elastic Constant Matrix: (Units=GPa)
#
#
# Indices 1 2 3 4 5 6 
#
# 1 97.5172 7.3166 18.4433 0.0000 0.0000 0.0000
# 2 7.3166 85.2436 24.2142 0.0000 0.0000 0.0000
# 3 18.4433 24.2142 33.0569 0.0000 0.0000 0.0000
# 4 0.0000 0.0000 0.0000 11.4628 0.0000 0.0000
# 5 0.0000 0.0000 0.0000 0.0000 5.3332 0.0000
# 6 0.0000 0.0000 0.0000 0.0000 0.0000 15.7578
#
#
#
# Elastic Compliance Matrix: (Units=1/GPa)
#
#
# Indices 1 2 3 4 5 6 
#
# 1 0.011539 0.001059 -0.007214 0.000000 0.000000 0.000000
# 2 0.001059 0.014910 -0.011513 0.000000 0.000000 0.000000
# 3 -0.007214 -0.011513 0.042708 0.000000 0.000000 0.000000
# 4 0.000000 0.000000 0.000000 0.087238 0.000000 0.000000
# 5 0.000000 0.000000 0.000000 0.000000 0.187505 0.000000
# 6 0.000000 0.000000 0.000000 0.000000 0.000000 0.063461
#
#
# Mechanical properties :
#
#
# Convention : Reuss Voigt Hill
#
# Bulk Modulus (GPa) = 29.56541 35.08511 32.32526
# Shear Modulus (GPa) = 11.01389 17.56701 14.29045
#
# Velocity S-wave (km/s) = 2.31915 2.92891 2.64168
# Velocity P-wave (km/s) = 4.64855 5.34521 5.00900
#
# Compressibility (1/GPa) = 0.03382331
#
# Stress axis : x y z
#
# Youngs Moduli (GPa) = 86.65904 67.06703 23.41459
#
# Poissons Ratio (x) = -0.07100 0.16890
# Poissons Ratio (y) = -0.09174 0.26956
# Poissons Ratio (z) = 0.62512 0.77211
#
# Static dielectric constant tensor:
#      x y z
#    x 3.808110 0.000000 0.000000 
#    y 0.000000 3.814010 0.000000 
#    z 0.000000 0.000000 3.435290 
# 
# 
# High freq. dielectric constant tensor:
#      x y z
#    x 1.812620 0.000000 0.000000 
#    y 0.000000 1.809000 0.000000 
#    z 0.000000 0.000000 1.771740 
# 
# From -- ./inp_files/10812.got.cif
#   From: 2010.03.12/outbox.cif.g09.slc.cpg/sg55_6_cif.got.tgz:10812.got - 2010.04.16 15:19:21.
