data_PCOD8224003
_publ_section_title
;
Structure prediction by ZEFSAII (Michael W. Deem and Ramdas Pophale) SiO2 
 PCOD8224003
Probable space group: P C C A
;
_chemical_formula_sum "Si O2"
_cell_formula_units_Z 60
_cell_length_a 25.056602
_cell_length_b 13.057417
_cell_length_c 8.366086
_cell_angle_alpha 90.000000
_cell_angle_beta 90.000000
_cell_angle_gamma 90.000000
_cell_volume 2737.170012
_symmetry_space_group_name_H-M "P C C A"
_symmetry_group_IT_number 54
_symmetry_cell_setting 'orthorhombic'
loop_
_space_group_symop_operation_xyz
x,y,z
1/2-x,-y,z
1/2+x,-y,1/2-z
-x,y,1/2-z
-x,-y,-z
1/2+x,y,-z
1/2-x,y,1/2+z
x,-y,1/2+z
loop_
_atom_site_type_symbol
_atom_site_label
_atom_site_fract_x
_atom_site_fract_y
_atom_site_fract_z
Si Si1 0.138018 0.870171 0.011486
Si Si2 0.608198 0.606000 0.757845
Si Si3 0.964019 0.232199 0.905433
Si Si4 0.679403 0.229479 0.778328
Si Si5 0.702017 0.236032 0.237861
Si Si6 0.000000 0.704346 0.750000
Si Si7 0.899340 0.390898 0.396452
Si Si8 0.696270 0.938517 0.494604
O O1 0.142680 0.781242 0.878609
O O2 0.146137 0.988733 0.958772
O O3 0.080465 0.857704 0.093779
O O4 0.188097 0.849307 0.129201
O O5 0.564630 0.658902 0.873028
O O6 0.663072 0.668188 0.750651
O O7 0.582573 0.597748 0.580688
O O8 0.624230 0.496814 0.830226
O O9 0.000000 0.205815 0.750000
O O10 0.992490 0.231440 0.081908
O O11 0.737735 0.278880 0.751002
O O12 0.646263 0.303766 0.894443
O O13 0.687946 0.107364 0.817568
O O14 0.695436 0.173323 0.075655
O O15 0.948940 0.634341 0.781893
O O16 0.750000 0.000000 0.525666
#
# Coordination Sequence:
#
# PCOD8224003 Si02
#       8
#     8   8   8   8   8   4   8   8
#     4  11  24  38  67 105 140 182 230 289 359 430
#     4  11  26  45  68 104 138 186 233 294 361 430
#     4  11  24  46  74 106 144 183 242 306 363 423
#     4  12  23  42  66 105 140 182 235 296 346 433
#     4  11  23  42  66 102 145 179 229 292 351 422
#     4  12  24  46  76 106 132 182 244 316 348 420
#     4  12  26  44  70  99 138 184 242 292 364 421
#     4  12  22  40  70 104 138 185 236 288 352 423
#
# _framework density 21.920449999999999
#
# number of rings (size 3 to 8) (size 9 to 14) (size 15 to 20)
#    0.000    0.533    6.667    1.600    2.800    1.600 
#    0.000    1.333    1.467    4.800    0.000    0.000 
#    0.000    0.000    0.000    0.000    0.000    0.000 
#
# Total GULP energy -743556.529012 kJ/mol
# GULP energy per Si atom -12392.608817 kJ/mol
# Density = 2.187056 g / cm^3
# Si number density = 21.920450 Si / 1000 Ang^3
#
#
#
# Elastic Constant Matrix: (Units=GPa)
#
#
# Indices 1 2 3 4 5 6 
#
# 1 110.7088 62.3542 44.5879 0.0000 0.0000 0.0000
# 2 62.3542 107.7235 22.6033 0.0000 0.0000 0.0000
# 3 44.5879 22.6033 109.8594 0.0000 0.0000 0.0000
# 4 0.0000 0.0000 0.0000 31.4511 0.0000 0.0000
# 5 0.0000 0.0000 0.0000 0.0000 35.2741 0.0000
# 6 0.0000 0.0000 0.0000 0.0000 0.0000 20.6628
#
#
#
# Elastic Compliance Matrix: (Units=1/GPa)
#
#
# Indices 1 2 3 4 5 6 
#
# 1 0.015344 -0.007916 -0.004599 0.000000 0.000000 0.000000
# 2 -0.007916 0.013786 0.000377 0.000000 0.000000 0.000000
# 3 -0.004599 0.000377 0.010891 0.000000 0.000000 0.000000
# 4 0.000000 0.000000 0.000000 0.031795 0.000000 0.000000
# 5 0.000000 0.000000 0.000000 0.000000 0.028349 0.000000
# 6 0.000000 0.000000 0.000000 0.000000 0.000000 0.048396
#
#
# Mechanical properties :
#
#
# Convention : Reuss Voigt Hill
#
# Bulk Modulus (GPa) = 63.51522 65.26470 64.38996
# Shear Modulus (GPa) = 28.07607 30.72736 29.40172
#
# Velocity S-wave (km/s) = 3.58273 3.74808 3.66634
# Velocity P-wave (km/s) = 6.79359 6.96914 6.88192
#
# Compressibility (1/GPa) = 0.01574426
#
# Stress axis : x y z
#
# Youngs Moduli (GPa) = 65.17387 72.53539 91.81487
#
# Poissons Ratio (x) = 0.57423 0.42222
# Poissons Ratio (y) = 0.51595 -0.03457
# Poissons Ratio (z) = 0.29971 -0.02731
#
# Static dielectric constant tensor:
#      x y z
#    x 3.785650 0.000000 0.000000 
#    y 0.000000 3.702590 0.000000 
#    z 0.000000 0.000000 4.334820 
# 
# 
# High freq. dielectric constant tensor:
#      x y z
#    x 1.855950 0.000000 0.000000 
#    y 0.000000 1.842420 0.000000 
#    z 0.000000 0.000000 1.885190 
# 
# From -- ./inp_files/5580.got.cif
#   From: 2010.03.12/outbox.cif.g09.slc.cpg/sg54_3_cif.got.tgz:5580.got - 2010.04.16 15:00:50.
