data_PCOD8224365
_publ_section_title
;
Structure prediction by ZEFSAII (Michael W. Deem and Ramdas Pophale) SiO2 
 PCOD8224365
Probable space group: P B A M
;
_chemical_formula_sum "Si O2"
_cell_formula_units_Z 56
_cell_length_a 17.930510
_cell_length_b 20.833183
_cell_length_c 9.520694
_cell_angle_alpha 90.000000
_cell_angle_beta 90.000000
_cell_angle_gamma 90.000000
_cell_volume 3556.451398
_symmetry_space_group_name_H-M "P B A M"
_symmetry_group_IT_number 55
_symmetry_cell_setting 'orthorhombic'
loop_
_space_group_symop_operation_xyz
x,y,z
-x,-y,z
1/2+x,1/2-y,-z
1/2-x,1/2+y,-z
-x,-y,-z
x,y,-z
1/2-x,1/2+y,z
1/2+x,1/2-y,z
loop_
_atom_site_type_symbol
_atom_site_label
_atom_site_fract_x
_atom_site_fract_y
_atom_site_fract_z
Si Si1 0.798387 0.814278 0.155466
Si Si2 0.431946 0.249269 0.164442
Si Si3 0.334290 0.872602 0.662233
Si Si4 0.286546 0.319394 0.845424
Si Si5 0.080711 0.242157 0.335254
Si Si6 0.585470 0.997536 0.334577
Si Si7 0.650505 0.881319 0.836585
O O1 0.755942 0.747434 0.150296
O O2 0.864315 0.811697 0.269900
O O3 0.737632 0.868007 0.197230
O O4 0.831565 0.828729 0.000000
O O5 0.371397 0.304567 0.200441
O O6 0.501750 0.264720 0.261186
O O7 0.399992 0.179575 0.204830
O O8 0.453582 0.251224 0.000000
O O9 0.314037 0.875093 0.500000
O O10 0.254903 0.867984 0.740789
O O11 0.387809 0.812882 0.696658
O O12 0.376904 0.935980 0.712148
O O13 0.285582 0.350959 0.000000
O O14 0.072417 0.228873 0.500000
O O15 0.591917 0.985536 0.500000
O O16 0.627091 0.940709 0.256976
O O17 0.500000 0.000000 0.286129
O O18 0.639845 0.897792 0.000000
#
# Coordination Sequence:
#
# PCOD8224365 Si02
#       7
#     8   8   8   8   8   8   8
#     4   8  15  29  45  61  85 113 141 179 223 258
#     4   9  17  29  44  64  90 115 140 177 224 261
#     4   9  18  30  42  60  88 119 148 178 212 250
#     4   8  15  28  45  62  81 110 145 178 215 259
#     4  10  18  27  43  67  90 114 146 178 212 260
#     4  10  20  32  44  61  90 124 151 178 214 251
#     4   9  18  31  46  64  86 116 153 185 213 253
#
# _framework density 15.746033000000001
#
# number of rings (size 3 to 8) (size 9 to 14) (size 15 to 20)
#    0.000    3.000    0.000    3.000    0.000    4.286 
#    0.000    2.857    0.000    0.000    0.000    1.000 
#    0.000    8.000    0.000    0.000    0.000    0.000 
#
# Total GULP energy -694217.012331 kJ/mol
# GULP energy per Si atom -12396.732363 kJ/mol
# Density = 1.571019 g / cm^3
# Si number density = 15.746033 Si / 1000 Ang^3
#
#
#
# Elastic Constant Matrix: (Units=GPa)
#
#
# Indices 1 2 3 4 5 6 
#
# 1 128.0184 52.6056 75.8676 0.0000 0.0000 0.0000
# 2 52.6056 68.4695 42.5448 0.0000 0.0000 0.0000
# 3 75.8676 42.5448 80.1624 0.0000 0.0000 0.0000
# 4 0.0000 0.0000 0.0000 24.6040 0.0000 0.0000
# 5 0.0000 0.0000 0.0000 0.0000 31.1473 0.0000
# 6 0.0000 0.0000 0.0000 0.0000 0.0000 24.3787
#
#
#
# Elastic Compliance Matrix: (Units=1/GPa)
#
#
# Indices 1 2 3 4 5 6 
#
# 1 0.018905 -0.005084 -0.015194 0.000000 0.000000 0.000000
# 2 -0.005084 0.023158 -0.007480 0.000000 0.000000 0.000000
# 3 -0.015194 -0.007480 0.030824 0.000000 0.000000 0.000000
# 4 0.000000 0.000000 0.000000 0.040644 0.000000 0.000000
# 5 0.000000 0.000000 0.000000 0.000000 0.032106 0.000000
# 6 0.000000 0.000000 0.000000 0.000000 0.000000 0.041019
#
#
# Mechanical properties :
#
#
# Convention : Reuss Voigt Hill
#
# Bulk Modulus (GPa) = 57.56028 68.74292 63.15160
# Shear Modulus (GPa) = 20.16446 23.06816 21.61631
#
# Velocity S-wave (km/s) = 3.58244 3.83170 3.70916
# Velocity P-wave (km/s) = 7.33121 7.95789 7.65097
#
# Compressibility (1/GPa) = 0.01737309
#
# Stress axis : x y z
#
# Youngs Moduli (GPa) = 52.89710 43.18074 32.44216
#
# Poissons Ratio (x) = 0.21952 0.49292
# Poissons Ratio (y) = 0.26891 0.24266
# Poissons Ratio (z) = 0.80370 0.32298
#
# Static dielectric constant tensor:
#      x y z
#    x 3.863730 0.000000 0.000000 
#    y 0.000000 2.786660 0.000000 
#    z 0.000000 0.000000 3.074150 
# 
# 
# High freq. dielectric constant tensor:
#      x y z
#    x 1.605150 0.000000 0.000000 
#    y 0.000000 1.567320 0.000000 
#    z 0.000000 0.000000 1.608000 
# 
# From -- ./inp_files/7825.got.cif
#   From: 2010.03.12/outbox.cif.g09.slc.cpg/sg55_4_cif.got.tgz:7825.got - 2010.04.16 15:19:21.
