data_PCOD8224557
_publ_section_title
;
Structure prediction by ZEFSAII (Michael W. Deem and Ramdas Pophale) SiO2 
 PCOD8224557
Probable space group: P B A M
;
_chemical_formula_sum "Si O2"
_cell_formula_units_Z 64
_cell_length_a 23.064551
_cell_length_b 14.688050
_cell_length_c 9.554813
_cell_angle_alpha 90.000000
_cell_angle_beta 90.000000
_cell_angle_gamma 90.000000
_cell_volume 3236.915324
_symmetry_space_group_name_H-M "P B A M"
_symmetry_group_IT_number 55
_symmetry_cell_setting 'orthorhombic'
loop_
_space_group_symop_operation_xyz
x,y,z
-x,-y,z
1/2+x,1/2-y,-z
1/2-x,1/2+y,-z
-x,-y,-z
x,y,-z
1/2-x,1/2+y,z
1/2+x,1/2-y,z
loop_
_atom_site_type_symbol
_atom_site_label
_atom_site_fract_x
_atom_site_fract_y
_atom_site_fract_z
Si Si1 0.954538 0.813940 0.834707
Si Si2 0.847957 0.859222 0.339812
Si Si3 0.916708 0.146285 0.841546
Si Si4 0.466221 0.861119 0.342760
Si Si5 0.847353 0.324059 0.840290
Si Si6 0.588739 0.953829 0.343580
Si Si7 0.752253 0.228889 0.661470
Si Si8 0.820148 0.056634 0.340309
O O1 0.902853 0.869635 0.762085
O O2 0.953417 0.712997 0.773439
O O3 0.015661 0.863013 0.800002
O O4 0.944021 0.808834 0.000000
O O5 0.869871 0.857957 0.500000
O O6 0.812903 0.765166 0.308558
O O7 0.807449 0.949294 0.313936
O O8 0.899797 0.252248 0.826224
O O9 0.877186 0.083876 0.745159
O O10 0.906815 0.113004 0.000000
O O11 0.463165 0.819331 0.500000
O O12 0.527855 0.905891 0.315593
O O13 0.416915 0.937961 0.326380
O O14 0.865368 0.418640 0.769154
O O15 0.791577 0.287305 0.762686
O O16 0.830786 0.343579 0.000000
O O17 0.610721 0.930232 0.500000
O O18 0.767960 0.249566 0.500000
O O19 0.763999 0.121056 0.695924
O O20 0.837317 0.074008 0.500000
#
# Coordination Sequence:
#
# PCOD8224557 Si02
#       8
#     8   8   8   8   8   8   8   8
#     4  11  22  36  54  79 116 154 188 227 284 347
#     4  10  22  40  59  82 112 145 187 238 288 338
#     4   9  19  34  53  81 114 149 181 221 278 334
#     4   9  18  32  50  75 109 148 188 229 273 326
#     4  10  18  31  53  80 110 142 183 230 276 332
#     4   9  17  30  50  77 108 144 187 231 277 327
#     4   9  19  38  60  80 106 142 184 233 283 331
#     4   9  19  37  62  86 107 141 187 234 284 335
#
# _framework density 19.771909999999998
#
# number of rings (size 3 to 8) (size 9 to 14) (size 15 to 20)
#    0.000    2.500    1.250    1.500    0.000    3.500 
#    2.250    3.750    0.000    0.000    0.000    0.000 
#    0.000    0.000    0.000    0.000    0.000    0.000 
#
# Total GULP energy -793245.691315 kJ/mol
# GULP energy per Si atom -12394.463927 kJ/mol
# Density = 1.972691 g / cm^3
# Si number density = 19.771910 Si / 1000 Ang^3
#
#
#
# Elastic Constant Matrix: (Units=GPa)
#
#
# Indices 1 2 3 4 5 6 
#
# 1 66.9651 23.1297 32.3709 0.0000 0.0000 0.0000
# 2 23.1297 80.0461 24.0398 0.0000 0.0000 0.0000
# 3 32.3709 24.0398 79.4705 0.0000 0.0000 0.0000
# 4 0.0000 0.0000 0.0000 23.3070 0.0000 0.0000
# 5 0.0000 0.0000 0.0000 0.0000 26.9939 0.0000
# 6 0.0000 0.0000 0.0000 0.0000 0.0000 24.7131
#
#
#
# Elastic Compliance Matrix: (Units=1/GPa)
#
#
# Indices 1 2 3 4 5 6 
#
# 1 0.019480 -0.003570 -0.006855 0.000000 0.000000 0.000000
# 2 -0.003570 0.014395 -0.002900 0.000000 0.000000 0.000000
# 3 -0.006855 -0.002900 0.016253 0.000000 0.000000 0.000000
# 4 0.000000 0.000000 0.000000 0.042906 0.000000 0.000000
# 5 0.000000 0.000000 0.000000 0.000000 0.037045 0.000000
# 6 0.000000 0.000000 0.000000 0.000000 0.000000 0.040464
#
#
# Mechanical properties :
#
#
# Convention : Reuss Voigt Hill
#
# Bulk Modulus (GPa) = 42.59398 42.84028 42.71713
# Shear Modulus (GPa) = 24.38784 24.79887 24.59336
#
# Velocity S-wave (km/s) = 3.51587 3.54538 3.53066
# Velocity P-wave (km/s) = 6.17019 6.20273 6.18648
#
# Compressibility (1/GPa) = 0.02347750
#
# Stress axis : x y z
#
# Youngs Moduli (GPa) = 51.33493 69.46625 61.52764
#
# Poissons Ratio (x) = 0.24800 0.42176
# Poissons Ratio (y) = 0.18327 0.17845
# Poissons Ratio (z) = 0.35189 0.20148
#
# Static dielectric constant tensor:
#      x y z
#    x 3.408090 0.000000 0.000000 
#    y 0.000000 3.726690 0.000000 
#    z 0.000000 0.000000 3.608100 
# 
# 
# High freq. dielectric constant tensor:
#      x y z
#    x 1.750990 0.000000 0.000000 
#    y 0.000000 1.766260 0.000000 
#    z 0.000000 0.000000 1.769000 
# 
# From -- ./inp_files/9817.got.cif
#   From: 2010.03.12/outbox.cif.g09.slc.cpg/sg55_5_cif.got.tgz:9817.got - 2010.04.16 15:19:21.
