data_PCOD8224407
_publ_section_title
;
Structure prediction by ZEFSAII (Michael W. Deem and Ramdas Pophale) SiO2 
 PCOD8224407
Probable space group: P B A M
;
_chemical_formula_sum "Si O2"
_cell_formula_units_Z 64
_cell_length_a 14.894903
_cell_length_b 18.924876
_cell_length_c 12.090682
_cell_angle_alpha 90.000000
_cell_angle_beta 90.000000
_cell_angle_gamma 90.000000
_cell_volume 3408.172130
_symmetry_space_group_name_H-M "P B A M"
_symmetry_group_IT_number 55
_symmetry_cell_setting 'orthorhombic'
loop_
_space_group_symop_operation_xyz
x,y,z
-x,-y,z
1/2+x,1/2-y,-z
1/2-x,1/2+y,-z
-x,-y,-z
x,y,-z
1/2-x,1/2+y,z
1/2+x,1/2-y,z
loop_
_atom_site_type_symbol
_atom_site_label
_atom_site_fract_x
_atom_site_fract_y
_atom_site_fract_z
Si Si1 0.760770 0.539277 0.223634
Si Si2 0.988761 0.238839 0.376276
Si Si3 0.610219 0.135793 0.123137
Si Si4 0.250770 0.614511 0.128319
Si Si5 0.674815 0.259320 0.272724
Si Si6 0.318230 0.347030 0.373784
Si Si7 0.897187 0.480792 0.620299
Si Si8 0.070550 0.638421 0.225416
O O1 0.806674 0.580902 0.121928
O O2 0.727020 0.463743 0.178765
O O3 0.687345 0.586723 0.288111
O O4 0.842196 0.538055 0.311500
O O5 0.982462 0.273475 0.500000
O O6 0.093494 0.220400 0.355962
O O7 0.924070 0.170932 0.372437
O O8 0.951114 0.285990 0.276358
O O9 0.638089 0.207295 0.180951
O O10 0.520385 0.103103 0.178715
O O11 0.584565 0.156401 0.000000
O O12 0.299325 0.669357 0.209073
O O13 0.145468 0.636214 0.128910
O O14 0.283507 0.617700 0.000000
O O15 0.757105 0.220596 0.336555
O O16 0.289969 0.367413 0.500000
O O17 0.853113 0.476657 0.500000
O O18 0.885622 0.404998 0.675088
O O19 0.000000 0.500000 0.613026
#
# Coordination Sequence:
#
# PCOD8224407 Si02
#       8
#     8   8   8   8   8   8   8   8
#     4  10  21  35  53  78 111 151 192 235 280 339
#     4  10  20  36  60  86 114 148 184 232 290 343
#     4  10  19  33  53  76 107 146 189 230 279 333
#     4  11  22  37  57  81 115 153 191 241 289 326
#     4  10  21  37  57  84 115 148 188 233 281 341
#     4  10  20  38  60  85 115 148 185 232 286 347
#     4  10  18  29  45  72 109 146 176 213 272 341
#     4  10  19  33  51  83 113 143 182 230 281 347
#
# _framework density 18.778395
#
# number of rings (size 3 to 8) (size 9 to 14) (size 15 to 20)
#    0.000    1.875    2.500    2.250    0.000    0.000 
#    0.000    4.375    0.000    2.250    0.000    0.000 
#    0.000    0.000    0.000    0.000    0.000    0.000 
#
# Total GULP energy -792904.427386 kJ/mol
# GULP energy per Si atom -12389.131678 kJ/mol
# Density = 1.873565 g / cm^3
# Si number density = 18.778395 Si / 1000 Ang^3
#
#
#
# Elastic Constant Matrix: (Units=GPa)
#
#
# Indices 1 2 3 4 5 6 
#
# 1 66.0258 32.4701 17.9101 0.0000 0.0000 0.0000
# 2 32.4701 82.2448 26.3881 0.0000 0.0000 0.0000
# 3 17.9101 26.3881 98.9400 0.0000 0.0000 0.0000
# 4 0.0000 0.0000 0.0000 12.0860 0.0000 0.0000
# 5 0.0000 0.0000 0.0000 0.0000 23.0764 0.0000
# 6 0.0000 0.0000 0.0000 0.0000 0.0000 25.3355
#
#
#
# Elastic Compliance Matrix: (Units=1/GPa)
#
#
# Indices 1 2 3 4 5 6 
#
# 1 0.019016 -0.007002 -0.001575 0.000000 0.000000 0.000000
# 2 -0.007002 0.015875 -0.002966 0.000000 0.000000 0.000000
# 3 -0.001575 -0.002966 0.011183 0.000000 0.000000 0.000000
# 4 0.000000 0.000000 0.000000 0.082740 0.000000 0.000000
# 5 0.000000 0.000000 0.000000 0.000000 0.043334 0.000000
# 6 0.000000 0.000000 0.000000 0.000000 0.000000 0.039470
#
#
# Mechanical properties :
#
#
# Convention : Reuss Voigt Hill
#
# Bulk Modulus (GPa) = 43.50150 44.52748 44.01449
# Shear Modulus (GPa) = 20.62967 23.46242 22.04605
#
# Velocity S-wave (km/s) = 3.31809 3.53857 3.43010
# Velocity P-wave (km/s) = 6.15594 6.36073 6.25917
#
# Compressibility (1/GPa) = 0.02298771
#
# Stress axis : x y z
#
# Youngs Moduli (GPa) = 52.58627 62.99161 89.41844
#
# Poissons Ratio (x) = 0.44109 0.14081
# Poissons Ratio (y) = 0.36823 0.26526
# Poissons Ratio (z) = 0.08281 0.18686
#
# Static dielectric constant tensor:
#      x y z
#    x 3.582930 0.000000 0.000000 
#    y 0.000000 3.259020 0.000000 
#    z 0.000000 0.000000 3.616960 
# 
# 
# High freq. dielectric constant tensor:
#      x y z
#    x 1.713060 0.000000 0.000000 
#    y 0.000000 1.713260 0.000000 
#    z 0.000000 0.000000 1.739860 
# 
# From -- ./inp_files/14411.got.cif
#   From: 2010.03.12/outbox.cif.g09.slc.cpg/sg55_8_cif.got.tgz:14411.got - 2010.04.16 15:19:21.
