data_PCOD8224470
_publ_section_title
;
Structure prediction by ZEFSAII (Michael W. Deem and Ramdas Pophale) SiO2 
 PCOD8224470
Probable space group: P B A M
;
_chemical_formula_sum "Si O2"
_cell_formula_units_Z 48
_cell_length_a 19.531806
_cell_length_b 17.186184
_cell_length_c 9.009358
_cell_angle_alpha 90.000000
_cell_angle_beta 90.000000
_cell_angle_gamma 90.000000
_cell_volume 3024.236173
_symmetry_space_group_name_H-M "P B A M"
_symmetry_group_IT_number 55
_symmetry_cell_setting 'orthorhombic'
loop_
_space_group_symop_operation_xyz
x,y,z
-x,-y,z
1/2+x,1/2-y,-z
1/2-x,1/2+y,-z
-x,-y,-z
x,y,-z
1/2-x,1/2+y,z
1/2+x,1/2-y,z
loop_
_atom_site_type_symbol
_atom_site_label
_atom_site_fract_x
_atom_site_fract_y
_atom_site_fract_z
Si Si1 0.063079 0.946939 0.825052
Si Si2 0.596646 0.851104 0.175823
Si Si3 0.305572 0.450484 0.667329
Si Si4 0.040782 0.420172 0.836768
Si Si5 0.156007 0.497811 0.324720
Si Si6 0.386943 0.306843 0.667785
O O1 0.134220 0.987703 0.769936
O O2 0.055645 0.862066 0.746373
O O3 0.064842 0.934813 0.000000
O O4 0.000000 0.000000 0.774457
O O5 0.515437 0.856711 0.216658
O O6 0.639340 0.920982 0.247362
O O7 0.625505 0.771131 0.240117
O O8 0.607443 0.854681 0.000000
O O9 0.314278 0.482664 0.500000
O O10 0.231185 0.472139 0.729397
O O11 0.315654 0.356146 0.668279
O O12 0.103623 0.429143 0.723230
O O13 0.000000 0.500000 0.847841
O O14 0.069757 0.398449 0.000000
O O15 0.151158 0.507939 0.500000
O O16 0.410078 0.286890 0.500000
#
# Coordination Sequence:
#
# PCOD8224470 Si02
#       6
#     8   8   8   8   8   8
#     4   9  17  30  51  74  94 120 157 198 235 280
#     4  10  19  31  48  72  99 127 161 199 241 286
#     4   8  18  32  48  71  97 127 161 198 239 284
#     4   8  16  29  44  67  97 125 156 196 236 280
#     4  10  18  30  49  72  98 127 162 200 237 286
#     4   9  18  32  50  70  95 124 158 197 242 286
#
# _framework density 15.871776000000001
#
# number of rings (size 3 to 8) (size 9 to 14) (size 15 to 20)
#    1.000    2.000    0.000    2.500    0.000    6.333 
#    0.000    0.000    3.667    0.000    0.000    0.000 
#    0.000    0.000    0.000    0.000    0.000    0.000 
#
# Total GULP energy -594640.578439 kJ/mol
# GULP energy per Si atom -12388.345384 kJ/mol
# Density = 1.583565 g / cm^3
# Si number density = 15.871776 Si / 1000 Ang^3
#
#
#
# Elastic Constant Matrix: (Units=GPa)
#
#
# Indices 1 2 3 4 5 6 
#
# 1 115.5253 45.8187 54.6198 0.0000 0.0000 0.0000
# 2 45.8187 74.1156 40.2428 0.0000 0.0000 0.0000
# 3 54.6198 40.2428 87.9185 0.0000 0.0000 0.0000
# 4 0.0000 0.0000 0.0000 20.8291 0.0000 0.0000
# 5 0.0000 0.0000 0.0000 0.0000 25.3942 0.0000
# 6 0.0000 0.0000 0.0000 0.0000 0.0000 19.3976
#
#
#
# Elastic Compliance Matrix: (Units=1/GPa)
#
#
# Indices 1 2 3 4 5 6 
#
# 1 0.013548 -0.005064 -0.006099 0.000000 0.000000 0.000000
# 2 -0.005064 0.019848 -0.005939 0.000000 0.000000 0.000000
# 3 -0.006099 -0.005939 0.017882 0.000000 0.000000 0.000000
# 4 0.000000 0.000000 0.000000 0.048010 0.000000 0.000000
# 5 0.000000 0.000000 0.000000 0.000000 0.039379 0.000000
# 6 0.000000 0.000000 0.000000 0.000000 0.000000 0.051553
#
#
# Mechanical properties :
#
#
# Convention : Reuss Voigt Hill
#
# Bulk Modulus (GPa) = 58.56901 62.10245 60.33573
# Shear Modulus (GPa) = 21.72841 22.24938 21.98889
#
# Velocity S-wave (km/s) = 3.70401 3.74815 3.72615
# Velocity P-wave (km/s) = 7.43467 7.61210 7.52391
#
# Compressibility (1/GPa) = 0.01707387
#
# Stress axis : x y z
#
# Youngs Moduli (GPa) = 73.81124 50.38381 55.92371
#
# Poissons Ratio (x) = 0.25514 0.34107
# Poissons Ratio (y) = 0.37378 0.33212
# Poissons Ratio (z) = 0.45017 0.29922
#
# Static dielectric constant tensor:
#      x y z
#    x 3.048760 0.000000 0.000000 
#    y 0.000000 2.833860 0.000000 
#    z 0.000000 0.000000 3.065710 
# 
# 
# High freq. dielectric constant tensor:
#      x y z
#    x 1.592330 0.000000 0.000000 
#    y 0.000000 1.582380 0.000000 
#    z 0.000000 0.000000 1.623460 
# 
# From -- ./inp_files/8852.got.cif
#   From: 2010.03.12/outbox.cif.g09.slc.cpg/sg55_5_cif.got.tgz:8852.got - 2010.04.16 15:19:21.
