data_PCOD8224497
_publ_section_title
;
Structure prediction by ZEFSAII (Michael W. Deem and Ramdas Pophale) SiO2 
 PCOD8224497
Probable space group: P B A M
;
_chemical_formula_sum "Si O2"
_cell_formula_units_Z 56
_cell_length_a 21.840123
_cell_length_b 15.663219
_cell_length_c 9.296262
_cell_angle_alpha 90.000000
_cell_angle_beta 90.000000
_cell_angle_gamma 90.000000
_cell_volume 3180.126935
_symmetry_space_group_name_H-M "P B A M"
_symmetry_group_IT_number 55
_symmetry_cell_setting 'orthorhombic'
loop_
_space_group_symop_operation_xyz
x,y,z
-x,-y,z
1/2+x,1/2-y,-z
1/2-x,1/2+y,-z
-x,-y,-z
x,y,-z
1/2-x,1/2+y,z
1/2+x,1/2-y,z
loop_
_atom_site_type_symbol
_atom_site_label
_atom_site_fract_x
_atom_site_fract_y
_atom_site_fract_z
Si Si1 0.178417 0.050096 0.671595
Si Si2 0.941800 0.940792 0.164542
Si Si3 0.957652 0.774693 0.336789
Si Si4 0.317099 0.740839 0.662358
Si Si5 0.101490 0.489605 0.161678
Si Si6 0.512095 0.865868 0.837768
Si Si7 0.285853 0.923066 0.329409
O O1 0.168315 0.053883 0.500000
O O2 0.115236 0.021446 0.745543
O O3 0.196744 0.146334 0.729705
O O4 0.227318 0.978649 0.718036
O O5 0.964133 0.853286 0.231605
O O6 0.921002 0.927821 0.000000
O O7 0.000000 0.000000 0.176890
O O8 0.973632 0.800669 0.500000
O O9 0.889033 0.737533 0.326860
O O10 0.007551 0.707419 0.281255
O O11 0.294219 0.734767 0.500000
O O12 0.282945 0.824423 0.731895
O O13 0.075752 0.584877 0.188670
O O14 0.155132 0.472204 0.272628
O O15 0.045564 0.426489 0.185321
O O16 0.127512 0.481011 0.000000
O O17 0.510787 0.828428 0.000000
O O18 0.291834 0.919816 0.500000
#
# Coordination Sequence:
#
# PCOD8224497 Si02
#       7
#     8   8   8   8   8   8   8
#     4   9  19  34  53  76 102 132 169 213 258 306
#     4  10  21  37  56  76 100 131 168 212 260 309
#     4  10  18  30  52  78 102 130 171 216 256 307
#     4   8  15  29  47  70  96 125 166 209 249 300
#     4   9  18  30  46  70 104 140 172 207 246 297
#     4   9  17  30  46  70 104 139 172 207 249 294
#     4  10  18  31  51  73 101 136 170 212 260 303
#
# _framework density 17.609359999999999
#
# number of rings (size 3 to 8) (size 9 to 14) (size 15 to 20)
#    0.000    2.714    1.429    2.571    0.000    2.286 
#    0.000    2.857    0.000    1.714    0.000    0.000 
#    0.000    0.000    0.000    0.000    0.000    0.000 
#
# Total GULP energy -693898.911177 kJ/mol
# GULP energy per Si atom -12391.051985 kJ/mol
# Density = 1.756928 g / cm^3
# Si number density = 17.609360 Si / 1000 Ang^3
#
#
#
# Elastic Constant Matrix: (Units=GPa)
#
#
# Indices 1 2 3 4 5 6 
#
# 1 59.1680 49.5967 40.2016 0.0000 0.0000 0.0000
# 2 49.5967 99.5322 39.6050 0.0000 0.0000 0.0000
# 3 40.2016 39.6050 47.1739 0.0000 0.0000 0.0000
# 4 0.0000 0.0000 0.0000 23.9446 0.0000 0.0000
# 5 0.0000 0.0000 0.0000 0.0000 23.8694 0.0000
# 6 0.0000 0.0000 0.0000 0.0000 0.0000 27.5534
#
#
#
# Elastic Compliance Matrix: (Units=1/GPa)
#
#
# Indices 1 2 3 4 5 6 
#
# 1 0.047348 -0.011319 -0.030847 0.000000 0.000000 0.000000
# 2 -0.011319 0.017793 -0.005292 0.000000 0.000000 0.000000
# 3 -0.030847 -0.005292 0.051929 0.000000 0.000000 0.000000
# 4 0.000000 0.000000 0.000000 0.041763 0.000000 0.000000
# 5 0.000000 0.000000 0.000000 0.000000 0.041895 0.000000
# 6 0.000000 0.000000 0.000000 0.000000 0.000000 0.036293
#
#
# Mechanical properties :
#
#
# Convention : Reuss Voigt Hill
#
# Bulk Modulus (GPa) = 45.13921 51.63119 48.38520
# Shear Modulus (GPa) = 14.73528 20.17153 17.45340
#
# Velocity S-wave (km/s) = 2.89586 3.38820 3.15166
# Velocity P-wave (km/s) = 6.07212 6.68509 6.38597
#
# Compressibility (1/GPa) = 0.02215369
#
# Stress axis : x y z
#
# Youngs Moduli (GPa) = 21.12024 56.20159 19.25708
#
# Poissons Ratio (x) = 0.63615 0.59402
# Poissons Ratio (y) = 0.23906 0.10191
# Poissons Ratio (z) = 0.65149 0.29743
#
# Static dielectric constant tensor:
#      x y z
#    x 3.196450 0.000000 0.000000 
#    y 0.000000 3.804680 0.000000 
#    z 0.000000 0.000000 3.200470 
# 
# 
# High freq. dielectric constant tensor:
#      x y z
#    x 1.652760 0.000000 0.000000 
#    y 0.000000 1.685090 0.000000 
#    z 0.000000 0.000000 1.669480 
# 
# From -- ./inp_files/9841.got.cif
#   From: 2010.03.12/outbox.cif.g09.slc.cpg/sg55_5_cif.got.tgz:9841.got - 2010.04.16 15:19:21.
