data_PCOD8224609
_publ_section_title
;
Structure prediction by ZEFSAII (Michael W. Deem and Ramdas Pophale) SiO2 
 PCOD8224609
Probable space group: P B A M
;
_chemical_formula_sum "Si O2"
_cell_formula_units_Z 56
_cell_length_a 20.002117
_cell_length_b 16.972628
_cell_length_c 8.714461
_cell_angle_alpha 90.000000
_cell_angle_beta 90.000000
_cell_angle_gamma 90.000000
_cell_volume 2958.459215
_symmetry_space_group_name_H-M "P B A M"
_symmetry_group_IT_number 55
_symmetry_cell_setting 'orthorhombic'
loop_
_space_group_symop_operation_xyz
x,y,z
-x,-y,z
1/2+x,1/2-y,-z
1/2-x,1/2+y,-z
-x,-y,-z
x,y,-z
1/2-x,1/2+y,z
1/2+x,1/2-y,z
loop_
_atom_site_type_symbol
_atom_site_label
_atom_site_fract_x
_atom_site_fract_y
_atom_site_fract_z
Si Si1 0.142928 0.652546 0.817056
Si Si2 0.251301 0.260009 0.319739
Si Si3 0.519895 0.742590 0.182802
Si Si4 0.452850 0.432134 0.180794
Si Si5 0.165466 0.480629 0.179604
Si Si6 0.881813 0.685426 0.182846
Si Si7 0.304076 0.414733 0.821373
O O1 0.211154 0.683692 0.743907
O O2 0.080021 0.702630 0.756175
O O3 0.135200 0.562281 0.756960
O O4 0.149030 0.656267 0.000000
O O5 0.243076 0.254397 0.500000
O O6 0.178222 0.261033 0.244131
O O7 0.295046 0.335889 0.275846
O O8 0.528167 0.653919 0.247969
O O9 0.451008 0.779225 0.245650
O O10 0.520876 0.742071 0.000000
O O11 0.500000 0.500000 0.254368
O O12 0.375720 0.452798 0.220305
O O13 0.464607 0.429982 0.000000
O O14 0.127186 0.404081 0.247499
O O15 0.244896 0.475934 0.217937
O O16 0.154216 0.479018 0.000000
O O17 0.879398 0.686485 0.000000
O O18 0.302012 0.389640 0.000000
#
# Coordination Sequence:
#
# PCOD8224609 Si02
#       7
#     8   8   8   8   8   8   8
#     4  10  18  32  53  78 105 133 171 212 260 315
#     4  11  21  33  51  74  99 138 181 215 256 302
#     4   9  17  29  50  77 103 136 168 207 260 309
#     4   9  16  26  46  77 107 131 163 207 254 306
#     4   8  16  28  49  78 101 130 166 211 259 304
#     4   9  18  34  53  75 103 133 171 215 264 313
#     4   9  16  32  53  74 102 133 168 212 261 307
#
# _framework density 18.928771999999999
#
# number of rings (size 3 to 8) (size 9 to 14) (size 15 to 20)
#    0.000    2.714    1.429    2.143    0.000    1.714 
#    0.000   10.714    0.000    0.429    0.000    5.000 
#    0.000    0.000    0.000    0.000    0.000    0.000 
#
# Total GULP energy -694152.592235 kJ/mol
# GULP energy per Si atom -12395.582004 kJ/mol
# Density = 1.888569 g / cm^3
# Si number density = 18.928772 Si / 1000 Ang^3
#
#
#
# Elastic Constant Matrix: (Units=GPa)
#
#
# Indices 1 2 3 4 5 6 
#
# 1 146.9601 87.3939 13.0976 0.0000 0.0000 0.0000
# 2 87.3939 139.1711 10.5296 0.0000 0.0000 0.0000
# 3 13.0976 10.5296 24.4999 0.0000 0.0000 0.0000
# 4 0.0000 0.0000 0.0000 5.1147 0.0000 0.0000
# 5 0.0000 0.0000 0.0000 0.0000 4.5128 0.0000
# 6 0.0000 0.0000 0.0000 0.0000 0.0000 33.1211
#
#
#
# Elastic Compliance Matrix: (Units=1/GPa)
#
#
# Indices 1 2 3 4 5 6 
#
# 1 0.011074 -0.006724 -0.003030 0.000000 0.000000 0.000000
# 2 -0.006724 0.011510 -0.001352 0.000000 0.000000 0.000000
# 3 -0.003030 -0.001352 0.043017 0.000000 0.000000 0.000000
# 4 0.000000 0.000000 0.000000 0.195516 0.000000 0.000000
# 5 0.000000 0.000000 0.000000 0.000000 0.221592 0.000000
# 6 0.000000 0.000000 0.000000 0.000000 0.000000 0.030192
#
#
# Mechanical properties :
#
#
# Convention : Reuss Voigt Hill
#
# Bulk Modulus (GPa) = 23.04761 59.18594 41.11677
# Shear Modulus (GPa) = 9.09792 21.85705 15.47749
#
# Velocity S-wave (km/s) = 2.19473 3.40177 2.86259
# Velocity P-wave (km/s) = 4.31565 6.83850 5.71795
#
# Compressibility (1/GPa) = 0.04338845
#
# Stress axis : x y z
#
# Youngs Moduli (GPa) = 90.30566 86.87793 23.24648
#
# Poissons Ratio (x) = 0.58421 0.07043
# Poissons Ratio (y) = 0.60726 0.03143
# Poissons Ratio (z) = 0.27361 0.11746
#
# Static dielectric constant tensor:
#      x y z
#    x 3.665170 0.000000 0.000000 
#    y 0.000000 3.806930 0.000000 
#    z 0.000000 0.000000 2.875460 
# 
# 
# High freq. dielectric constant tensor:
#      x y z
#    x 1.743210 0.000000 0.000000 
#    y 0.000000 1.735910 0.000000 
#    z 0.000000 0.000000 1.674940 
# 
# From -- ./inp_files/7883.got.cif
#   From: 2010.03.12/outbox.cif.g09.slc.cpg/sg55_4_cif.got.tgz:7883.got - 2010.04.16 15:19:21.
