data_PCOD8224184
_publ_section_title
;
Structure prediction by ZEFSAII (Michael W. Deem and Ramdas Pophale) SiO2 
 PCOD8224184
Probable space group: P C C A
;
_chemical_formula_sum "Si O2"
_cell_formula_units_Z 60
_cell_length_a 9.549573
_cell_length_b 17.115378
_cell_length_c 16.809281
_cell_angle_alpha 90.000000
_cell_angle_beta 90.000000
_cell_angle_gamma 90.000000
_cell_volume 2747.385396
_symmetry_space_group_name_H-M "P C C A"
_symmetry_group_IT_number 54
_symmetry_cell_setting 'orthorhombic'
loop_
_space_group_symop_operation_xyz
x,y,z
1/2-x,-y,z
1/2+x,-y,1/2-z
-x,y,1/2-z
-x,-y,-z
1/2+x,y,-z
1/2-x,y,1/2+z
x,-y,1/2+z
loop_
_atom_site_type_symbol
_atom_site_label
_atom_site_fract_x
_atom_site_fract_y
_atom_site_fract_z
Si Si1 0.860938 0.937290 0.780612
Si Si2 0.922313 0.075743 0.464367
Si Si3 0.999990 0.350939 0.331336
Si Si4 0.500000 0.716849 0.750000
Si Si5 0.309171 0.319482 0.107448
Si Si6 0.375569 0.445210 0.975121
Si Si7 0.283210 0.217295 0.814064
Si Si8 0.819690 0.824452 0.511229
O O1 0.877865 0.928255 0.873753
O O2 0.835446 0.858926 0.731338
O O3 0.000000 0.977681 0.750000
O O4 0.750000 0.000000 0.755762
O O5 0.773130 0.096563 0.503407
O O6 0.019921 0.150666 0.478021
O O7 0.000000 0.000000 0.500000
O O8 0.845241 0.323205 0.355518
O O9 0.000000 0.404213 0.250000
O O10 0.077445 0.392783 0.402388
O O11 0.098757 0.281334 0.298879
O O12 0.569861 0.669528 0.824561
O O13 0.372091 0.767828 0.781782
O O14 0.328270 0.391040 0.047663
O O15 0.316114 0.235825 0.062662
O O16 0.250000 0.500000 0.946621
O O17 0.500000 0.500000 0.000000
O O18 0.265798 0.214684 0.908715
#
# Coordination Sequence:
#
# PCOD8224184 Si02
#       8
#     8   8   8   4   8   8   8   8
#     4  12  28  47  70  99 146 195 250 321 392 458
#     4  12  27  46  69 106 143 194 250 316 381 450
#     4  12  26  52  78 110 160 200 255 312 382 462
#     4  12  28  42  76 114 154 186 266 312 376 452
#     4  12  27  48  77 116 149 208 254 316 379 467
#     4  12  28  51  80 115 158 200 250 305 384 463
#     4  12  26  46  73 108 147 198 251 319 378 450
#     4  12  25  44  75 101 146 197 257 306 378 453
#
# _framework density 21.838944999999999
#
# number of rings (size 3 to 8) (size 9 to 14) (size 15 to 20)
#    0.000    0.000    5.333    4.000    6.533    0.000 
#    3.600    0.000    0.000    0.000    0.000    0.000 
#    0.000    0.000    0.000    0.000    0.000    0.000 
#
# Total GULP energy -743512.674454 kJ/mol
# GULP energy per Si atom -12391.877908 kJ/mol
# Density = 2.178924 g / cm^3
# Si number density = 21.838945 Si / 1000 Ang^3
#
#
#
# Elastic Constant Matrix: (Units=GPa)
#
#
# Indices 1 2 3 4 5 6 
#
# 1 161.0300 48.9225 35.5543 0.0000 0.0000 0.0000
# 2 48.9225 96.1909 32.9647 0.0000 0.0000 0.0000
# 3 35.5543 32.9647 129.0635 0.0000 0.0000 0.0000
# 4 0.0000 0.0000 0.0000 103.5155 0.0000 0.0000
# 5 0.0000 0.0000 0.0000 0.0000 46.7852 0.0000
# 6 0.0000 0.0000 0.0000 0.0000 0.0000 33.2272
#
#
#
# Elastic Compliance Matrix: (Units=1/GPa)
#
#
# Indices 1 2 3 4 5 6 
#
# 1 0.007510 -0.003409 -0.001198 0.000000 0.000000 0.000000
# 2 -0.003409 0.012941 -0.002366 0.000000 0.000000 0.000000
# 3 -0.001198 -0.002366 0.008683 0.000000 0.000000 0.000000
# 4 0.000000 0.000000 0.000000 0.009660 0.000000 0.000000
# 5 0.000000 0.000000 0.000000 0.000000 0.021374 0.000000
# 6 0.000000 0.000000 0.000000 0.000000 0.000000 0.030096
#
#
# Mechanical properties :
#
#
# Convention : Reuss Voigt Hill
#
# Bulk Modulus (GPa) = 65.84691 69.01860 67.43276
# Shear Modulus (GPa) = 45.75692 54.62845 50.19268
#
# Velocity S-wave (km/s) = 4.58230 5.00685 4.79927
# Velocity P-wave (km/s) = 7.62976 8.06826 7.85207
#
# Compressibility (1/GPa) = 0.01518674
#
# Stress axis : x y z
#
# Youngs Moduli (GPa) = 133.15060 77.27545 115.17365
#
# Poissons Ratio (x) = 0.26344 0.13800
# Poissons Ratio (y) = 0.45392 0.27251
# Poissons Ratio (z) = 0.15954 0.18284
#
# Static dielectric constant tensor:
#      x y z
#    x 4.279240 0.000000 0.000000 
#    y 0.000000 3.671240 0.000000 
#    z 0.000000 0.000000 4.199150 
# 
# 
# High freq. dielectric constant tensor:
#      x y z
#    x 1.889660 0.000000 0.000000 
#    y 0.000000 1.842000 0.000000 
#    z 0.000000 0.000000 1.888180 
# 
# From -- ./inp_files/16821.got.cif
#   From: 2010.03.12/outbox.cif.g09.slc.cpg/sg54_9_cif.got.tgz:16821.got - 2010.04.16 15:00:50.
