data_PCOD8224835
_publ_section_title
;
Structure prediction by ZEFSAII (Michael W. Deem and Ramdas Pophale) SiO2 
 PCOD8224835
Probable space group: P B A M
;
_chemical_formula_sum "Si O2"
_cell_formula_units_Z 64
_cell_length_a 20.087830
_cell_length_b 19.803703
_cell_length_c 9.111293
_cell_angle_alpha 90.000000
_cell_angle_beta 90.000000
_cell_angle_gamma 90.000000
_cell_volume 3624.594622
_symmetry_space_group_name_H-M "P B A M"
_symmetry_group_IT_number 55
_symmetry_cell_setting 'orthorhombic'
loop_
_space_group_symop_operation_xyz
x,y,z
-x,-y,z
1/2+x,1/2-y,-z
1/2-x,1/2+y,-z
-x,-y,-z
x,y,-z
1/2-x,1/2+y,z
1/2+x,1/2-y,z
loop_
_atom_site_type_symbol
_atom_site_label
_atom_site_fract_x
_atom_site_fract_y
_atom_site_fract_z
Si Si1 0.558645 0.549257 0.669736
Si Si2 0.356138 0.840034 0.166281
Si Si3 0.067761 0.810304 0.831578
Si Si4 0.515537 0.197331 0.672895
Si Si5 0.670666 0.003746 0.170696
Si Si6 0.449418 0.057567 0.327380
Si Si7 0.703812 0.527862 0.332739
Si Si8 0.288671 0.338415 0.165699
O O1 0.500000 0.500000 0.719122
O O2 0.551438 0.572245 0.500000
O O3 0.556457 0.614242 0.773553
O O4 0.626984 0.506058 0.690814
O O5 0.408597 0.803485 0.271055
O O6 0.348151 0.918952 0.208920
O O7 0.283805 0.802891 0.185338
O O8 0.382083 0.833488 0.000000
O O9 0.146700 0.789986 0.817753
O O10 0.023932 0.759757 0.738113
O O11 0.044601 0.806908 0.000000
O O12 0.517500 0.205270 0.500000
O O13 0.479082 0.128982 0.722281
O O14 0.744620 0.986682 0.231302
O O15 0.620377 0.952393 0.247369
O O16 0.669408 0.988836 0.000000
O O17 0.437363 0.053459 0.500000
O O18 0.500000 0.000000 0.273807
O O19 0.726792 0.518716 0.500000
O O20 0.705646 0.606424 0.291778
O O21 0.289428 0.371054 0.000000
#
# Coordination Sequence:
#
# PCOD8224835 Si02
#       8
#     8   8   8   8   8   8   8   8
#     4   9  18  34  57  83 108 134 169 213 260 310
#     4   9  17  30  49  74 100 129 168 211 254 300
#     4  10  20  35  55  78 106 137 171 212 259 313
#     4  11  22  34  51  75 105 138 174 216 260 310
#     4  10  19  30  48  73 103 135 172 215 254 300
#     4  10  20  34  50  72 103 138 177 217 257 303
#     4   9  16  27  48  76 103 132 164 205 254 301
#     4   8  16  31  50  73  99 128 165 210 252 298
#
# _framework density 17.657147999999999
#
# number of rings (size 3 to 8) (size 9 to 14) (size 15 to 20)
#    0.000    2.500    1.250    2.250    0.000    4.500 
#    0.000    0.000    2.750    0.000    0.000    0.000 
#    0.000    0.000    0.000    0.000    0.000    0.000 
#
# Total GULP energy -793271.609029 kJ/mol
# GULP energy per Si atom -12394.868891 kJ/mol
# Density = 1.761696 g / cm^3
# Si number density = 17.657148 Si / 1000 Ang^3
#
#
#
# Elastic Constant Matrix: (Units=GPa)
#
#
# Indices 1 2 3 4 5 6 
#
# 1 150.5602 45.2523 51.6202 0.0000 0.0000 0.0000
# 2 45.2523 49.7935 25.3034 0.0000 0.0000 0.0000
# 3 51.6202 25.3034 60.1903 0.0000 0.0000 0.0000
# 4 0.0000 0.0000 0.0000 18.7592 0.0000 0.0000
# 5 0.0000 0.0000 0.0000 0.0000 29.0969 0.0000
# 6 0.0000 0.0000 0.0000 0.0000 0.0000 24.8497
#
#
#
# Elastic Compliance Matrix: (Units=1/GPa)
#
#
# Indices 1 2 3 4 5 6 
#
# 1 0.010855 -0.006529 -0.006565 0.000000 0.000000 0.000000
# 2 -0.006529 0.029466 -0.006788 0.000000 0.000000 0.000000
# 3 -0.006565 -0.006788 0.025097 0.000000 0.000000 0.000000
# 4 0.000000 0.000000 0.000000 0.053307 0.000000 0.000000
# 5 0.000000 0.000000 0.000000 0.000000 0.034368 0.000000
# 6 0.000000 0.000000 0.000000 0.000000 0.000000 0.040242
#
#
# Mechanical properties :
#
#
# Convention : Reuss Voigt Hill
#
# Bulk Modulus (GPa) = 38.97816 56.09951 47.53884
# Shear Modulus (GPa) = 20.69109 23.76569 22.22839
#
# Velocity S-wave (km/s) = 3.42691 3.67270 3.55193
# Velocity P-wave (km/s) = 6.14664 7.05872 6.61841
#
# Compressibility (1/GPa) = 0.02565539
#
# Stress axis : x y z
#
# Youngs Moduli (GPa) = 92.12396 33.93760 39.84473
#
# Poissons Ratio (x) = 0.22158 0.26157
# Poissons Ratio (y) = 0.60148 0.27046
# Poissons Ratio (z) = 0.60476 0.23036
#
# Static dielectric constant tensor:
#      x y z
#    x 3.658060 0.000000 0.000000 
#    y 0.000000 2.819360 0.000000 
#    z 0.000000 0.000000 3.309200 
# 
# 
# High freq. dielectric constant tensor:
#      x y z
#    x 1.702870 0.000000 0.000000 
#    y 0.000000 1.624600 0.000000 
#    z 0.000000 0.000000 1.692840 
# 
# From -- ./inp_files/9024.got.cif
#   From: 2010.03.12/outbox.cif.g09.slc.cpg/sg55_5_cif.got.tgz:9024.got - 2010.04.16 15:19:21.
