data_PCOD8224029
_publ_section_title
;
Structure prediction by ZEFSAII (Michael W. Deem and Ramdas Pophale) SiO2 
 PCOD8224029
Probable space group: P C C A
;
_chemical_formula_sum "Si O2"
_cell_formula_units_Z 32
_cell_length_a 22.747349
_cell_length_b 5.871934
_cell_length_c 9.457386
_cell_angle_alpha 90.000000
_cell_angle_beta 90.000000
_cell_angle_gamma 90.000000
_cell_volume 1263.231862
_symmetry_space_group_name_H-M "P C C A"
_symmetry_group_IT_number 54
_symmetry_cell_setting 'orthorhombic'
loop_
_space_group_symop_operation_xyz
x,y,z
1/2-x,-y,z
1/2+x,-y,1/2-z
-x,y,1/2-z
-x,-y,-z
1/2+x,y,-z
1/2-x,y,1/2+z
x,-y,1/2+z
loop_
_atom_site_type_symbol
_atom_site_label
_atom_site_fract_x
_atom_site_fract_y
_atom_site_fract_z
Si Si1 0.673989 0.962316 0.721807
Si Si2 0.294940 0.707521 0.509911
Si Si3 0.061457 0.749894 0.701431
Si Si4 0.103913 0.417093 0.925287
O O1 0.714266 0.144270 0.634003
O O2 0.614778 0.078874 0.777650
O O3 0.711908 0.867955 0.853162
O O4 0.654670 0.759725 0.618726
O O5 0.250000 0.500000 0.517577
O O6 0.361643 0.615423 0.509790
O O7 0.057555 0.691922 0.534712
O O8 0.000000 0.864889 0.750000
O O9 0.069557 0.517804 0.791543
#
# Coordination Sequence:
#
# PCOD8224029 Si02
#       4
#     8   8   8   8
#     4  11  24  49  74 108 151 189 254 307 363 455
#     4  11  26  50  76 106 146 196 247 310 379 436
#     4  11  24  43  74 108 150 198 243 307 370 436
#     4  11  23  46  69 110 147 188 255 305 354 452
#
# _framework density 25.331852000000001
#
# number of rings (size 3 to 8) (size 9 to 14) (size 15 to 20)
#    0.000    1.000    5.000    0.750    0.000    4.000 
#    4.500    1.250    0.000    0.000    0.000    0.000 
#    0.000    0.000    0.000    0.000    0.000    0.000 
#
# Total GULP energy -396934.769529 kJ/mol
# GULP energy per Si atom -12404.211548 kJ/mol
# Density = 2.527420 g / cm^3
# Si number density = 25.331852 Si / 1000 Ang^3
#
#
#
# Elastic Constant Matrix: (Units=GPa)
#
#
# Indices 1 2 3 4 5 6 
#
# 1 93.6904 45.4080 42.7939 0.0000 0.0000 0.0000
# 2 45.4080 123.1921 64.7275 0.0000 0.0000 0.0000
# 3 42.7939 64.7275 170.2402 0.0000 0.0000 0.0000
# 4 0.0000 0.0000 0.0000 46.4582 0.0000 0.0000
# 5 0.0000 0.0000 0.0000 0.0000 33.4047 0.0000
# 6 0.0000 0.0000 0.0000 0.0000 0.0000 30.0742
#
#
#
# Elastic Compliance Matrix: (Units=1/GPa)
#
#
# Indices 1 2 3 4 5 6 
#
# 1 0.013455 -0.003977 -0.001870 0.000000 0.000000 0.000000
# 2 -0.003977 0.011319 -0.003304 0.000000 0.000000 0.000000
# 3 -0.001870 -0.003304 0.007600 0.000000 0.000000 0.000000
# 4 0.000000 0.000000 0.000000 0.021525 0.000000 0.000000
# 5 0.000000 0.000000 0.000000 0.000000 0.029936 0.000000
# 6 0.000000 0.000000 0.000000 0.000000 0.000000 0.033251
#
#
# Mechanical properties :
#
#
# Convention : Reuss Voigt Hill
#
# Bulk Modulus (GPa) = 71.06025 76.99795 74.02910
# Shear Modulus (GPa) = 35.69401 37.60032 36.64716
#
# Velocity S-wave (km/s) = 3.75781 3.85685 3.80766
# Velocity P-wave (km/s) = 6.85134 7.09193 6.97267
#
# Compressibility (1/GPa) = 0.01407257
#
# Stress axis : x y z
#
# Youngs Moduli (GPa) = 74.32127 88.34497 131.57166
#
# Poissons Ratio (x) = 0.35133 0.24607
# Poissons Ratio (y) = 0.29556 0.43472
# Poissons Ratio (z) = 0.13900 0.29190
#
# Static dielectric constant tensor:
#      x y z
#    x 4.357140 0.000000 0.000000 
#    y 0.000000 4.761990 0.000000 
#    z 0.000000 0.000000 4.592510 
# 
# 
# High freq. dielectric constant tensor:
#      x y z
#    x 2.011260 0.000000 0.000000 
#    y 0.000000 2.015320 0.000000 
#    z 0.000000 0.000000 2.022760 
# 
# From -- ./inp_files/5692.got.cif
#   From: 2010.03.12/outbox.cif.g09.slc.cpg/sg54_3_cif.got.tgz:5692.got - 2010.04.16 15:00:50.
