data_PCOD8224402
_publ_section_title
;
Structure prediction by ZEFSAII (Michael W. Deem and Ramdas Pophale) SiO2 
 PCOD8224402
Probable space group: P B A M
;
_chemical_formula_sum "Si O2"
_cell_formula_units_Z 64
_cell_length_a 17.028981
_cell_length_b 12.345605
_cell_length_c 13.642755
_cell_angle_alpha 90.000000
_cell_angle_beta 90.000000
_cell_angle_gamma 90.000000
_cell_volume 2868.158308
_symmetry_space_group_name_H-M "P B A M"
_symmetry_group_IT_number 55
_symmetry_cell_setting 'orthorhombic'
loop_
_space_group_symop_operation_xyz
x,y,z
-x,-y,z
1/2+x,1/2-y,-z
1/2-x,1/2+y,-z
-x,-y,-z
x,y,-z
1/2-x,1/2+y,z
1/2+x,1/2-y,z
loop_
_atom_site_type_symbol
_atom_site_label
_atom_site_fract_x
_atom_site_fract_y
_atom_site_fract_z
Si Si1 0.301912 0.758201 0.887783
Si Si2 0.303650 0.962334 0.775762
Si Si3 0.136462 0.686749 0.193322
Si Si4 0.020275 0.853539 0.889011
Si Si5 0.451899 0.606727 0.690557
Si Si6 0.806456 0.003149 0.610687
Si Si7 0.408416 0.281428 0.391803
Si Si8 0.842946 0.979530 0.106914
O O1 0.214373 0.736555 0.851510
O O2 0.352977 0.649740 0.879618
O O3 0.339818 0.848254 0.813293
O O4 0.300683 0.801526 0.000000
O O5 0.360990 0.056128 0.816873
O O6 0.279618 0.976616 0.661205
O O7 0.215845 0.967178 0.818343
O O8 0.066441 0.741547 0.131978
O O9 0.128732 0.704423 0.309799
O O10 0.953078 0.865086 0.806602
O O11 0.926266 0.038865 0.878247
O O12 0.984488 0.848347 0.000000
O O13 0.500000 0.500000 0.663907
O O14 0.359800 0.592455 0.661584
O O15 0.498551 0.699553 0.630228
O O16 0.787982 0.966643 0.500000
O O17 0.858594 0.109685 0.613097
O O18 0.401320 0.228465 0.500000
O O19 0.808629 0.004705 0.000000
#
# Coordination Sequence:
#
# PCOD8224402 Si02
#       8
#     8   8   8   8   8   8   8   8
#     4  10  18  29  44  65  93 131 168 197 237 289
#     4  11  19  30  46  68 101 137 169 203 241 297
#     4  10  19  29  44  67  98 134 167 203 241 297
#     4  10  18  31  48  71 104 137 167 202 251 303
#     4   9  17  29  46  70  98 127 165 206 252 304
#     4  10  19  32  49  69  98 135 170 208 256 306
#     4   9  16  29  47  65  90 126 163 204 250 299
#     4   9  17  28  46  67  94 129 163 201 240 289
#
# _framework density 22.313970999999999
#
# number of rings (size 3 to 8) (size 9 to 14) (size 15 to 20)
#    0.000    2.250    2.500    2.625    0.000    3.750 
#    0.000    1.250    0.000    0.000    0.000    0.000 
#    0.000   53.000    0.000  183.625    0.000    1.625 
#
# Total GULP energy -792868.244248 kJ/mol
# GULP energy per Si atom -12388.566316 kJ/mol
# Density = 2.226318 g / cm^3
# Si number density = 22.313971 Si / 1000 Ang^3
#
#
#
# Elastic Constant Matrix: (Units=GPa)
#
#
# Indices 1 2 3 4 5 6 
#
# 1 28.5071 3.0999 19.4382 0.0000 0.0000 0.0000
# 2 3.0999 64.0937 18.6511 0.0000 0.0000 0.0000
# 3 19.4382 18.6511 142.0056 0.0000 0.0000 0.0000
# 4 0.0000 0.0000 0.0000 16.3902 0.0000 0.0000
# 5 0.0000 0.0000 0.0000 0.0000 21.0979 0.0000
# 6 0.0000 0.0000 0.0000 0.0000 0.0000 17.4312
#
#
#
# Elastic Compliance Matrix: (Units=1/GPa)
#
#
# Indices 1 2 3 4 5 6 
#
# 1 0.038697 -0.000343 -0.005252 0.000000 0.000000 0.000000
# 2 -0.000343 0.016225 -0.002084 0.000000 0.000000 0.000000
# 3 -0.005252 -0.002084 0.008035 0.000000 0.000000 0.000000
# 4 0.000000 0.000000 0.000000 0.061012 0.000000 0.000000
# 5 0.000000 0.000000 0.000000 0.000000 0.047398 0.000000
# 6 0.000000 0.000000 0.000000 0.000000 0.000000 0.057368
#
#
# Mechanical properties :
#
#
# Convention : Reuss Voigt Hill
#
# Bulk Modulus (GPa) = 21.00898 35.22053 28.11475
# Shear Modulus (GPa) = 19.23369 23.87834 21.55601
#
# Velocity S-wave (km/s) = 2.93910 3.27480 3.11148
# Velocity P-wave (km/s) = 4.57748 5.48793 5.05325
#
# Compressibility (1/GPa) = 0.04759869
#
# Stress axis : x y z
#
# Youngs Moduli (GPa) = 25.84147 61.63247 124.46176
#
# Poissons Ratio (x) = 0.02116 0.65367
# Poissons Ratio (y) = 0.00887 0.25938
# Poissons Ratio (z) = 0.13572 0.12844
#
# Static dielectric constant tensor:
#      x y z
#    x 3.884690 0.000000 0.000000 
#    y 0.000000 4.008030 0.000000 
#    z 0.000000 0.000000 4.508360 
# 
# 
# High freq. dielectric constant tensor:
#      x y z
#    x 1.852800 0.000000 0.000000 
#    y 0.000000 1.849720 0.000000 
#    z 0.000000 0.000000 1.895300 
# 
# From -- ./inp_files/19575.got.cif
#   From: 2010.03.12/outbox.cif.g09.slc.cpg/sg55_10_cif.got.tgz:19575.got - 2010.04.16 15:19:21.
