data_PCOD8224888
_publ_section_title
;
Structure prediction by ZEFSAII (Michael W. Deem and Ramdas Pophale) SiO2 
 PCOD8224888
Probable space group: P B A M
;
_chemical_formula_sum "Si O2"
_cell_formula_units_Z 64
_cell_length_a 13.848414
_cell_length_b 27.478226
_cell_length_c 9.503394
_cell_angle_alpha 90.000000
_cell_angle_beta 90.000000
_cell_angle_gamma 90.000000
_cell_volume 3616.325090
_symmetry_space_group_name_H-M "P B A M"
_symmetry_group_IT_number 55
_symmetry_cell_setting 'orthorhombic'
loop_
_space_group_symop_operation_xyz
x,y,z
-x,-y,z
1/2+x,1/2-y,-z
1/2-x,1/2+y,-z
-x,-y,-z
x,y,-z
1/2-x,1/2+y,z
1/2+x,1/2-y,z
loop_
_atom_site_type_symbol
_atom_site_label
_atom_site_fract_x
_atom_site_fract_y
_atom_site_fract_z
Si Si1 0.903660 0.755637 0.657383
Si Si2 0.239276 0.306364 0.162969
Si Si3 0.008109 0.642920 0.849939
Si Si4 0.160354 0.384055 0.336509
Si Si5 0.888285 0.505310 0.336270
Si Si6 0.811468 0.421513 0.839855
Si Si7 0.270344 0.660260 0.344978
Si Si8 0.609035 0.768877 0.253697
O O1 0.868852 0.740448 0.500000
O O2 0.854037 0.721409 0.773850
O O3 0.869817 0.811164 0.687844
O O4 0.019773 0.753537 0.659715
O O5 0.246428 0.358185 0.247059
O O6 0.336945 0.275839 0.179154
O O7 0.219840 0.316411 0.000000
O O8 0.938655 0.641369 0.715618
O O9 0.080705 0.598417 0.834156
O O10 0.066419 0.693507 0.859731
O O11 0.952568 0.637187 0.000000
O O12 0.174212 0.372504 0.500000
O O13 0.153013 0.441080 0.306692
O O14 0.880331 0.491163 0.500000
O O15 0.816019 0.471552 0.246986
O O16 0.000000 0.500000 0.287870
O O17 0.739329 0.382723 0.768361
O O18 0.776559 0.430816 0.000000
O O19 0.272308 0.636371 0.500000
O O20 0.183765 0.700124 0.347333
#
# Coordination Sequence:
#
# PCOD8224888 Si02
#       8
#     8   8   8   8   8   8   8   8
#     4  10  20  34  54  78 103 138 181 222 261 304
#     4  11  23  36  51  74 108 143 179 218 262 314
#     4  10  19  31  48  70  99 134 170 206 251 299
#     4  11  22  34  50  73 102 136 175 214 257 307
#     4  10  20  34  51  72  99 135 174 211 258 319
#     4  10  20  32  49  73 101 132 169 212 254 306
#     4   9  19  33  50  75 106 139 174 214 259 308
#     4  10  20  33  53  76 103 141 182 214 256 307
#
# _framework density 17.697524000000001
#
# number of rings (size 3 to 8) (size 9 to 14) (size 15 to 20)
#    0.000    1.875    2.500    1.875    0.000    8.250 
#    0.000    0.000    0.000    0.000    0.000    0.875 
#    0.000    6.000    0.000    0.000    0.000    0.000 
#
# Total GULP energy -793125.241466 kJ/mol
# GULP energy per Si atom -12392.581898 kJ/mol
# Density = 1.765724 g / cm^3
# Si number density = 17.697524 Si / 1000 Ang^3
#
#
#
# Elastic Constant Matrix: (Units=GPa)
#
#
# Indices 1 2 3 4 5 6 
#
# 1 54.3530 33.7245 18.6527 0.0000 0.0000 0.0000
# 2 33.7245 116.8157 61.7537 0.0000 0.0000 0.0000
# 3 18.6527 61.7537 126.8933 0.0000 0.0000 0.0000
# 4 0.0000 0.0000 0.0000 22.0954 0.0000 0.0000
# 5 0.0000 0.0000 0.0000 0.0000 15.8464 0.0000
# 6 0.0000 0.0000 0.0000 0.0000 0.0000 27.1183
#
#
#
# Elastic Compliance Matrix: (Units=1/GPa)
#
#
# Indices 1 2 3 4 5 6 
#
# 1 0.022417 -0.006368 -0.000196 0.000000 0.000000 0.000000
# 2 -0.006368 0.013335 -0.005553 0.000000 0.000000 0.000000
# 3 -0.000196 -0.005553 0.010612 0.000000 0.000000 0.000000
# 4 0.000000 0.000000 0.000000 0.045258 0.000000 0.000000
# 5 0.000000 0.000000 0.000000 0.000000 0.063106 0.000000
# 6 0.000000 0.000000 0.000000 0.000000 0.000000 0.036876
#
#
# Mechanical properties :
#
#
# Convention : Reuss Voigt Hill
#
# Bulk Modulus (GPa) = 45.19058 58.48042 51.83550
# Shear Modulus (GPa) = 22.40002 25.27409 23.83706
#
# Velocity S-wave (km/s) = 3.56155 3.78314 3.67402
# Velocity P-wave (km/s) = 6.51945 7.22489 6.88122
#
# Compressibility (1/GPa) = 0.02212850
#
# Stress axis : x y z
#
# Youngs Moduli (GPa) = 44.60956 74.99250 94.23244
#
# Poissons Ratio (x) = 0.47755 0.01848
# Poissons Ratio (y) = 0.28407 0.52331
# Poissons Ratio (z) = 0.00875 0.41646
#
# Static dielectric constant tensor:
#      x y z
#    x 3.054210 0.000000 0.000000 
#    y 0.000000 3.337700 0.000000 
#    z 0.000000 0.000000 3.319690 
# 
# 
# High freq. dielectric constant tensor:
#      x y z
#    x 1.641460 0.000000 0.000000 
#    y 0.000000 1.679680 0.000000 
#    z 0.000000 0.000000 1.694690 
# 
# From -- ./inp_files/6935.got.cif
#   From: 2010.03.12/outbox.cif.g09.slc.cpg/sg55_4_cif.got.tgz:6935.got - 2010.04.16 15:19:21.
