data_PCOD8224396
_publ_section_title
;
Structure prediction by ZEFSAII (Michael W. Deem and Ramdas Pophale) SiO2 
 PCOD8224396
Probable space group: P B A M
;
_chemical_formula_sum "Si O2"
_cell_formula_units_Z 64
_cell_length_a 21.862488
_cell_length_b 21.227260
_cell_length_c 9.220149
_cell_angle_alpha 90.000000
_cell_angle_beta 90.000000
_cell_angle_gamma 90.000000
_cell_volume 4278.893359
_symmetry_space_group_name_H-M "P B A M"
_symmetry_group_IT_number 55
_symmetry_cell_setting 'orthorhombic'
loop_
_space_group_symop_operation_xyz
x,y,z
-x,-y,z
1/2+x,1/2-y,-z
1/2-x,1/2+y,-z
-x,-y,-z
x,y,-z
1/2-x,1/2+y,z
1/2+x,1/2-y,z
loop_
_atom_site_type_symbol
_atom_site_label
_atom_site_fract_x
_atom_site_fract_y
_atom_site_fract_z
Si Si1 0.154076 0.229584 0.341164
Si Si2 0.334442 0.262610 0.840268
Si Si3 0.157729 0.420100 0.172991
Si Si4 0.935679 0.334358 0.170862
Si Si5 0.763304 0.847961 0.840054
Si Si6 0.338575 0.064700 0.828664
Si Si7 0.748745 0.659424 0.338351
Si Si8 0.063235 0.332101 0.326529
O O1 0.141026 0.202111 0.500000
O O2 0.174915 0.169929 0.245923
O O3 0.206936 0.281313 0.347607
O O4 0.093414 0.264846 0.281755
O O5 0.397217 0.228660 0.793148
O O6 0.280983 0.211613 0.847440
O O7 0.316161 0.318219 0.729016
O O8 0.342440 0.292617 0.000000
O O9 0.154260 0.492985 0.218653
O O10 0.221308 0.393251 0.235112
O O11 0.099536 0.388073 0.247645
O O12 0.155444 0.410246 0.000000
O O13 0.897751 0.395864 0.222317
O O14 0.994769 0.332359 0.270592
O O15 0.952319 0.337938 0.000000
O O16 0.724763 0.905183 0.765500
O O17 0.785627 0.867193 0.000000
O O18 0.333486 0.073275 0.000000
O O19 0.737407 0.632100 0.500000
O O20 0.066843 0.342127 0.500000
#
# Coordination Sequence:
#
# PCOD8224396 Si02
#       8
#     8   8   8   8   8   8   8   8
#     4   8  15  26  38  54  77 102 127 161 204 244
#     4   8  14  25  42  61  78  99 130 167 205 247
#     4  10  18  29  44  58  78 111 145 171 201 239
#     4   9  17  30  45  60  80 108 144 177 204 240
#     4   8  13  24  42  60  76  95 125 165 206 244
#     4   8  16  29  43  60  81 106 137 174 207 236
#     4   9  16  26  40  59  82 103 128 166 208 245
#     4  10  20  31  40  56  84 112 141 175 207 239
#
# _framework density 14.957138
#
# number of rings (size 3 to 8) (size 9 to 14) (size 15 to 20)
#    0.000    3.250    0.000    3.375    0.000    4.500 
#    0.000    6.875    0.000    0.000    0.000    0.000 
#    0.000    1.000    0.000   11.250    0.000    6.375 
#
# Total GULP energy -793030.410667 kJ/mol
# GULP energy per Si atom -12391.100167 kJ/mol
# Density = 1.492309 g / cm^3
# Si number density = 14.957138 Si / 1000 Ang^3
#
#
#
# Elastic Constant Matrix: (Units=GPa)
#
#
# Indices 1 2 3 4 5 6 
#
# 1 80.6960 67.4910 48.8727 0.0000 0.0000 0.0000
# 2 67.4910 54.5485 41.5770 0.0000 0.0000 0.0000
# 3 48.8727 41.5770 77.6713 0.0000 0.0000 0.0000
# 4 0.0000 0.0000 0.0000 10.7872 0.0000 0.0000
# 5 0.0000 0.0000 0.0000 0.0000 21.9250 0.0000
# 6 0.0000 0.0000 0.0000 0.0000 0.0000 15.6931
#
#
#
# Elastic Compliance Matrix: (Units=1/GPa)
#
#
# Indices 1 2 3 4 5 6 
#
# 1 -0.338768 0.433573 -0.018928 0.000000 0.000000 0.000000
# 2 0.433573 -0.523943 0.007649 0.000000 0.000000 0.000000
# 3 -0.018928 0.007649 0.020690 0.000000 0.000000 0.000000
# 4 0.000000 0.000000 0.000000 0.092703 0.000000 0.000000
# 5 0.000000 0.000000 0.000000 0.000000 0.045610 0.000000
# 6 0.000000 0.000000 0.000000 0.000000 0.000000 0.063722
#
#
# Mechanical properties :
#
#
# Convention : Reuss Voigt Hill
#
# Bulk Modulus (GPa) = 389.52680 58.75526 224.14103
# Shear Modulus (GPa) = -3.36992 13.34606 4.98807
#
# Velocity S-wave (km/s) = -1.50264 2.99036 1.82816
# Velocity P-wave (km/s) = 16.06186 7.16175 12.43532
#
# Compressibility (1/GPa) = 0.00256722
#
# Stress axis : x y z
#
# Youngs Moduli (GPa) = -2.95188 -1.90861 48.33153
#
# Poissons Ratio (x) = 0.82752 0.91483
# Poissons Ratio (y) = 1.27985 -0.36968
# Poissons Ratio (z) = -0.05587 0.01460
#
# Static dielectric constant tensor:
#      x y z
#    x 2.820910 0.000000 0.000000 
#    y 0.000000 2.821480 0.000000 
#    z 0.000000 0.000000 3.024510 
# 
# 
# High freq. dielectric constant tensor:
#      x y z
#    x 1.550520 0.000000 0.000000 
#    y 0.000000 1.541420 0.000000 
#    z 0.000000 0.000000 1.572240 
# 
# From -- ./inp_files/8179.got.cif
#   From: 2010.03.12/outbox.cif.g09.slc.cpg/sg55_5_cif.got.tgz:8179.got - 2010.04.16 15:19:21.
