data_PCOD8224404
_publ_section_title
;
Structure prediction by ZEFSAII (Michael W. Deem and Ramdas Pophale) SiO2 
 PCOD8224404
Probable space group: P B A M
;
_chemical_formula_sum "Si O2"
_cell_formula_units_Z 64
_cell_length_a 19.009718
_cell_length_b 23.368937
_cell_length_c 9.040000
_cell_angle_alpha 90.000000
_cell_angle_beta 90.000000
_cell_angle_gamma 90.000000
_cell_volume 4015.901597
_symmetry_space_group_name_H-M "P B A M"
_symmetry_group_IT_number 55
_symmetry_cell_setting 'orthorhombic'
loop_
_space_group_symop_operation_xyz
x,y,z
-x,-y,z
1/2+x,1/2-y,-z
1/2-x,1/2+y,-z
-x,-y,-z
x,y,-z
1/2-x,1/2+y,z
1/2+x,1/2-y,z
loop_
_atom_site_type_symbol
_atom_site_label
_atom_site_fract_x
_atom_site_fract_y
_atom_site_fract_z
Si Si1 0.355597 0.931972 0.828040
Si Si2 0.501499 0.247960 0.672360
Si Si3 0.345662 0.261730 0.330871
Si Si4 0.640009 0.940266 0.825245
Si Si5 0.996407 0.373114 0.171981
Si Si6 0.770160 0.337710 0.826536
Si Si7 0.636406 0.271690 0.175230
Si Si8 0.713083 0.168432 0.673134
O O1 0.434398 0.910496 0.802887
O O2 0.299683 0.894720 0.735969
O O3 0.350521 0.996103 0.761157
O O4 0.334343 0.929409 0.000000
O O5 0.519844 0.246424 0.500000
O O6 0.426397 0.278504 0.702707
O O7 0.501428 0.183777 0.732380
O O8 0.560281 0.285899 0.756351
O O9 0.336474 0.242907 0.500000
O O10 0.326339 0.206537 0.236475
O O11 0.294446 0.315028 0.294695
O O12 0.568706 0.910591 0.767282
O O13 0.707606 0.901703 0.777359
O O14 0.633509 0.945782 0.000000
O O15 0.986836 0.356363 0.000000
O O16 0.690622 0.322096 0.776760
O O17 0.776849 0.331168 0.000000
O O18 0.661798 0.211403 0.240581
O O19 0.630361 0.265318 0.000000
O O20 0.695171 0.171132 0.500000
#
# Coordination Sequence:
#
# PCOD8224404 Si02
#       8
#     8   8   8   8   8   8   8   8
#     4  10  19  30  46  68  94 124 159 189 220 268
#     4  11  20  30  46  68  94 124 153 186 230 275
#     4   9  19  32  46  65  91 120 151 188 232 275
#     4   9  17  30  47  67  92 125 158 189 224 263
#     4  10  18  29  45  65  93 126 159 187 214 259
#     4   9  17  30  48  68  89 118 155 190 225 268
#     4  10  19  30  46  68  92 118 152 191 229 272
#     4  10  19  32  47  65  91 121 152 190 231 269
#
# _framework density 15.936646
#
# number of rings (size 3 to 8) (size 9 to 14) (size 15 to 20)
#    0.000    2.250    2.500    1.500    0.000    3.000 
#    0.000    1.250    0.000    1.500    0.000    0.875 
#    0.000    7.000    0.000    0.000    0.000    0.000 
#
# Total GULP energy -793446.189352 kJ/mol
# GULP energy per Si atom -12397.596709 kJ/mol
# Density = 1.590037 g / cm^3
# Si number density = 15.936646 Si / 1000 Ang^3
#
#
#
# Elastic Constant Matrix: (Units=GPa)
#
#
# Indices 1 2 3 4 5 6 
#
# 1 118.0314 54.0480 38.8422 0.0000 0.0000 0.0000
# 2 54.0480 77.2008 25.8524 0.0000 0.0000 0.0000
# 3 38.8422 25.8524 48.9646 0.0000 0.0000 0.0000
# 4 0.0000 0.0000 0.0000 9.0383 0.0000 0.0000
# 5 0.0000 0.0000 0.0000 0.0000 22.5249 0.0000
# 6 0.0000 0.0000 0.0000 0.0000 0.0000 22.8790
#
#
#
# Elastic Compliance Matrix: (Units=1/GPa)
#
#
# Indices 1 2 3 4 5 6 
#
# 1 0.014385 -0.007592 -0.007403 0.000000 0.000000 0.000000
# 2 -0.007592 0.019742 -0.004401 0.000000 0.000000 0.000000
# 3 -0.007403 -0.004401 0.028619 0.000000 0.000000 0.000000
# 4 0.000000 0.000000 0.000000 0.110641 0.000000 0.000000
# 5 0.000000 0.000000 0.000000 0.000000 0.044395 0.000000
# 6 0.000000 0.000000 0.000000 0.000000 0.000000 0.043708
#
#
# Mechanical properties :
#
#
# Convention : Reuss Voigt Hill
#
# Bulk Modulus (GPa) = 41.74564 53.52025 47.63295
# Shear Modulus (GPa) = 16.21974 19.25203 17.73589
#
# Velocity S-wave (km/s) = 3.19370 3.47945 3.33963
# Velocity P-wave (km/s) = 6.31279 7.05678 6.69513
#
# Compressibility (1/GPa) = 0.02395460
#
# Stress axis : x y z
#
# Youngs Moduli (GPa) = 69.51781 50.65338 34.94187
#
# Poissons Ratio (x) = 0.38455 0.25866
# Poissons Ratio (y) = 0.52776 0.15378
# Poissons Ratio (z) = 0.51462 0.22293
#
# Static dielectric constant tensor:
#      x y z
#    x 3.330590 0.000000 0.000000 
#    y 0.000000 3.036630 0.000000 
#    z 0.000000 0.000000 2.983160 
# 
# 
# High freq. dielectric constant tensor:
#      x y z
#    x 1.614330 0.000000 0.000000 
#    y 0.000000 1.583210 0.000000 
#    z 0.000000 0.000000 1.607950 
# 
# From -- ./inp_files/8140.got.cif
#   From: 2010.03.12/outbox.cif.g09.slc.cpg/sg55_5_cif.got.tgz:8140.got - 2010.04.16 15:19:21.
