data_PCOD8224040
_publ_section_title
;
Structure prediction by ZEFSAII (Michael W. Deem and Ramdas Pophale) SiO2 
 PCOD8224040
Probable space group: P C C A
;
_chemical_formula_sum "Si O2"
_cell_formula_units_Z 48
_cell_length_a 17.971809
_cell_length_b 13.893092
_cell_length_c 8.726820
_cell_angle_alpha 90.000000
_cell_angle_beta 90.000000
_cell_angle_gamma 90.000000
_cell_volume 2178.947289
_symmetry_space_group_name_H-M "P C C A"
_symmetry_group_IT_number 54
_symmetry_cell_setting 'orthorhombic'
loop_
_space_group_symop_operation_xyz
x,y,z
1/2-x,-y,z
1/2+x,-y,1/2-z
-x,y,1/2-z
-x,-y,-z
1/2+x,y,-z
1/2-x,y,1/2+z
x,-y,1/2+z
loop_
_atom_site_type_symbol
_atom_site_label
_atom_site_fract_x
_atom_site_fract_y
_atom_site_fract_z
Si Si1 0.172829 0.295544 0.378106
Si Si2 0.185999 0.762143 0.523703
Si Si3 0.106458 0.886336 0.050884
Si Si4 0.322745 0.051962 0.365371
Si Si5 0.033895 0.587237 0.907493
Si Si6 0.476963 0.240045 0.414394
O O1 0.256538 0.312740 0.442795
O O2 0.142389 0.209304 0.480982
O O3 0.124068 0.394123 0.400285
O O4 0.174765 0.263425 0.200632
O O5 0.210658 0.873159 0.493452
O O6 0.110875 0.764839 0.425477
O O7 0.135827 0.898344 0.223571
O O8 0.017481 0.863656 0.060262
O O9 0.119736 0.979362 0.946883
O O10 0.250000 0.000000 0.298595
O O11 0.000000 0.557776 0.750000
O O12 0.000000 0.500000 0.000000
O O13 0.001121 0.688858 0.953035
O O14 0.500000 0.283862 0.250000
#
# Coordination Sequence:
#
# PCOD8224040 Si02
#       6
#     8   8   8   8   8   8
#     4  11  25  44  72 105 140 191 240 296 373 438
#     4  12  24  44  71  99 147 190 247 300 360 433
#     4  11  24  40  64  97 138 194 250 305 360 424
#     4  12  23  38  64  99 144 197 257 312 358 419
#     4  11  24  49  81 108 139 180 229 295 371 455
#     4  11  24  45  70 103 141 190 240 300 371 434
#
# _framework density 22.028987999999998
#
# number of rings (size 3 to 8) (size 9 to 14) (size 15 to 20)
#    0.000    0.667    5.000    3.000    2.333    0.667 
#    0.000    0.833    0.000    0.000    0.000    0.000 
#    0.000    0.000    0.000    0.000    0.000    0.000 
#
# Total GULP energy -594704.330565 kJ/mol
# GULP energy per Si atom -12389.673553 kJ/mol
# Density = 2.197885 g / cm^3
# Si number density = 22.028988 Si / 1000 Ang^3
#
#
#
# Elastic Constant Matrix: (Units=GPa)
#
#
# Indices 1 2 3 4 5 6 
#
# 1 175.7965 59.2223 58.4037 0.0000 0.0000 0.0000
# 2 59.2223 98.2208 56.1569 0.0000 0.0000 0.0000
# 3 58.4037 56.1569 162.0381 0.0000 0.0000 0.0000
# 4 0.0000 0.0000 0.0000 -56.8976 0.0000 0.0000
# 5 0.0000 0.0000 0.0000 0.0000 28.4521 0.0000
# 6 0.0000 0.0000 0.0000 0.0000 0.0000 26.9623
#
#
#
# Elastic Compliance Matrix: (Units=1/GPa)
#
#
# Indices 1 2 3 4 5 6 
#
# 1 0.007383 -0.003654 -0.001395 0.000000 0.000000 0.000000
# 2 -0.003654 0.014506 -0.003710 0.000000 0.000000 0.000000
# 3 -0.001395 -0.003710 0.007960 0.000000 0.000000 0.000000
# 4 0.000000 0.000000 0.000000 -0.017575 0.000000 0.000000
# 5 0.000000 0.000000 0.000000 0.000000 0.035147 0.000000
# 6 0.000000 0.000000 0.000000 0.000000 0.000000 0.037089
#
#
# Mechanical properties :
#
#
# Convention : Reuss Voigt Hill
#
# Bulk Modulus (GPa) = 81.09894 87.06902 84.08398
# Shear Modulus (GPa) = 47.10935 17.18818 32.14876
#
# Velocity S-wave (km/s) = 4.62943 2.79633 3.82433
# Velocity P-wave (km/s) = 8.09135 7.07365 7.59956
#
# Compressibility (1/GPa) = 0.01233062
#
# Stress axis : x y z
#
# Youngs Moduli (GPa) = 135.45205 68.93904 125.63075
#
# Poissons Ratio (x) = 0.25191 0.17520
# Poissons Ratio (y) = 0.49495 0.46610
# Poissons Ratio (z) = 0.18890 0.25577
#
# Static dielectric constant tensor:
#      x y z
#    x 7.701930 0.000000 0.000000 
#    y 0.000000 3.825150 0.000000 
#    z 0.000000 0.000000 4.489000 
# 
# 
# High freq. dielectric constant tensor:
#      x y z
#    x 1.883930 0.000000 0.000000 
#    y 0.000000 1.835780 0.000000 
#    z 0.000000 0.000000 1.886140 
# 
# From -- ./inp_files/4185.got.cif
#   From: 2010.03.12/outbox.cif.g09.slc.cpg/sg54_3_cif.got.tgz:4185.got - 2010.04.16 15:00:50.
