data_PCOD8224359
_publ_section_title
;
Structure prediction by ZEFSAII (Michael W. Deem and Ramdas Pophale) SiO2 
 PCOD8224359
Probable space group: P B A M
;
_chemical_formula_sum "Si O2"
_cell_formula_units_Z 56
_cell_length_a 29.183229
_cell_length_b 13.410612
_cell_length_c 9.200798
_cell_angle_alpha 90.000000
_cell_angle_beta 90.000000
_cell_angle_gamma 90.000000
_cell_volume 3600.869951
_symmetry_space_group_name_H-M "P B A M"
_symmetry_group_IT_number 55
_symmetry_cell_setting 'orthorhombic'
loop_
_space_group_symop_operation_xyz
x,y,z
-x,-y,z
1/2+x,1/2-y,-z
1/2-x,1/2+y,-z
-x,-y,-z
x,y,-z
1/2-x,1/2+y,z
1/2+x,1/2-y,z
loop_
_atom_site_type_symbol
_atom_site_label
_atom_site_fract_x
_atom_site_fract_y
_atom_site_fract_z
Si Si1 0.004985 0.118382 0.839252
Si Si2 0.733677 0.909769 0.830530
Si Si3 0.408344 0.597355 0.668307
Si Si4 0.686885 0.309070 0.666332
Si Si5 0.766609 0.605701 0.330622
Si Si6 0.906003 0.107361 0.169476
Si Si7 0.686976 0.706604 0.167277
O O1 0.045965 0.149862 0.732254
O O2 0.954914 0.158036 0.786541
O O3 0.016793 0.159196 0.000000
O O4 0.000000 0.000000 0.841198
O O5 0.783495 0.880318 0.769487
O O6 0.697347 0.822013 0.798701
O O7 0.714789 0.007524 0.749796
O O8 0.738913 0.932513 0.000000
O O9 0.416930 0.576746 0.500000
O O10 0.366581 0.672988 0.695960
O O11 0.396186 0.493009 0.742606
O O12 0.700061 0.334422 0.500000
O O13 0.697107 0.193496 0.700670
O O14 0.761019 0.582994 0.500000
O O15 0.717010 0.634902 0.268067
O O16 0.866269 0.187123 0.202496
O O17 0.907701 0.077416 0.000000
O O18 0.698829 0.681598 0.000000
#
# Coordination Sequence:
#
# PCOD8224359 Si02
#       7
#     8   8   8   8   8   8   8
#     4   8  15  27  41  58  82 111 138 164 203 253
#     4  10  19  30  45  65  87 110 140 178 213 245
#     4  10  18  27  41  62  86 110 139 174 206 239
#     4   9  19  32  44  61  85 115 146 172 206 250
#     4  10  19  31  45  61  86 116 143 173 208 249
#     4   9  17  29  43  60  85 114 139 165 204 252
#     4   9  18  31  46  64  85 111 143 176 209 246
#
# _framework density 15.551797000000001
#
# number of rings (size 3 to 8) (size 9 to 14) (size 15 to 20)
#    0.000    2.714    0.000    3.000    0.000    7.714 
#    0.000    0.000    0.000    0.000    0.000    1.000 
#    0.000    8.000    0.000    0.000    0.000    0.000 
#
# Total GULP energy -694304.479483 kJ/mol
# GULP energy per Si atom -12398.294276 kJ/mol
# Density = 1.551640 g / cm^3
# Si number density = 15.551797 Si / 1000 Ang^3
#
#
#
# Elastic Constant Matrix: (Units=GPa)
#
#
# Indices 1 2 3 4 5 6 
#
# 1 128.7345 47.4336 53.1743 0.0000 0.0000 0.0000
# 2 47.4336 77.1182 46.1578 0.0000 0.0000 0.0000
# 3 53.1743 46.1578 85.6713 0.0000 0.0000 0.0000
# 4 0.0000 0.0000 0.0000 23.3848 0.0000 0.0000
# 5 0.0000 0.0000 0.0000 0.0000 24.0843 0.0000
# 6 0.0000 0.0000 0.0000 0.0000 0.0000 19.1890
#
#
#
# Elastic Compliance Matrix: (Units=1/GPa)
#
#
# Indices 1 2 3 4 5 6 
#
# 1 0.011239 -0.004041 -0.004799 0.000000 0.000000 0.000000
# 2 -0.004041 0.020592 -0.008586 0.000000 0.000000 0.000000
# 3 -0.004799 -0.008586 0.019277 0.000000 0.000000 0.000000
# 4 0.000000 0.000000 0.000000 0.042763 0.000000 0.000000
# 5 0.000000 0.000000 0.000000 0.000000 0.041521 0.000000
# 6 0.000000 0.000000 0.000000 0.000000 0.000000 0.052113
#
#
# Mechanical properties :
#
#
# Convention : Reuss Voigt Hill
#
# Bulk Modulus (GPa) = 61.51500 65.00614 63.26057
# Shear Modulus (GPa) = 21.95152 22.98217 22.46685
#
# Velocity S-wave (km/s) = 3.76108 3.84836 3.80497
# Velocity P-wave (km/s) = 7.64865 7.85093 7.75045
#
# Compressibility (1/GPa) = 0.01625620
#
# Stress axis : x y z
#
# Youngs Moduli (GPa) = 88.97702 48.56348 51.87487
#
# Poissons Ratio (x) = 0.19622 0.24893
# Poissons Ratio (y) = 0.35952 0.44542
# Poissons Ratio (z) = 0.42698 0.41699
#
# Static dielectric constant tensor:
#      x y z
#    x 3.207530 0.000000 0.000000 
#    y 0.000000 2.790230 0.000000 
#    z 0.000000 0.000000 3.083570 
# 
# 
# High freq. dielectric constant tensor:
#      x y z
#    x 1.593920 0.000000 0.000000 
#    y 0.000000 1.562560 0.000000 
#    z 0.000000 0.000000 1.606940 
# 
# From -- ./inp_files/10884.got.cif
#   From: 2010.03.12/outbox.cif.g09.slc.cpg/sg55_6_cif.got.tgz:10884.got - 2010.04.16 15:19:21.
