data_PCOD8224295
_publ_section_title
;
Structure prediction by ZEFSAII (Michael W. Deem and Ramdas Pophale) SiO2 
 PCOD8224295
Probable space group: P B A M
;
_chemical_formula_sum "Si O2"
_cell_formula_units_Z 56
_cell_length_a 18.458170
_cell_length_b 20.999549
_cell_length_c 8.507906
_cell_angle_alpha 90.000000
_cell_angle_beta 90.000000
_cell_angle_gamma 90.000000
_cell_volume 3297.777056
_symmetry_space_group_name_H-M "P B A M"
_symmetry_group_IT_number 55
_symmetry_cell_setting 'orthorhombic'
loop_
_space_group_symop_operation_xyz
x,y,z
-x,-y,z
1/2+x,1/2-y,-z
1/2-x,1/2+y,-z
-x,-y,-z
x,y,-z
1/2-x,1/2+y,z
1/2+x,1/2-y,z
loop_
_atom_site_type_symbol
_atom_site_label
_atom_site_fract_x
_atom_site_fract_y
_atom_site_fract_z
Si Si1 0.077403 0.748804 0.686257
Si Si2 0.715583 0.684478 0.681430
Si Si3 0.083619 0.502339 0.183804
Si Si4 0.782661 0.808543 0.817160
Si Si5 0.152131 0.368967 0.182263
Si Si6 0.916169 0.756458 0.684621
Si Si7 0.841212 0.375924 0.316022
O O1 0.073744 0.743383 0.500000
O O2 0.997606 0.762403 0.753981
O O3 0.131391 0.807216 0.734787
O O4 0.107402 0.680967 0.750029
O O5 0.720890 0.664858 0.500000
O O6 0.751155 0.753341 0.706387
O O7 0.760992 0.632732 0.782170
O O8 0.120825 0.436547 0.234398
O O9 0.122425 0.557199 0.280361
O O10 0.000000 0.500000 0.233031
O O11 0.092817 0.516159 0.000000
O O12 0.868029 0.810718 0.772436
O O13 0.737373 0.871869 0.771766
O O14 0.773781 0.792143 0.000000
O O15 0.112268 0.314711 0.282046
O O16 0.137747 0.355715 0.000000
O O17 0.914595 0.769555 0.500000
O O18 0.827673 0.369416 0.500000
#
# Coordination Sequence:
#
# PCOD8224295 Si02
#       7
#     8   8   8   8   8   8   8
#     4   8  16  28  44  67  91 114 143 185 227 263
#     4   9  16  29  46  64  87 116 151 186 223 265
#     4  10  21  34  46  64  93 126 156 187 223 263
#     4  10  18  29  44  64  90 118 148 182 225 270
#     4  10  19  30  43  63  91 121 153 184 219 263
#     4  10  17  28  46  67  91 117 147 183 224 264
#     4  10  19  32  48  66  89 120 158 191 222 263
#
# _framework density 16.981134999999998
#
# number of rings (size 3 to 8) (size 9 to 14) (size 15 to 20)
#    0.000    2.429    0.000    6.429    0.000    1.429 
#    0.000    7.857    0.000    0.000    0.000    1.000 
#    0.000    8.000    0.000    0.000    0.000    0.000 
#
# Total GULP energy -694056.749828 kJ/mol
# GULP energy per Si atom -12393.870533 kJ/mol
# Density = 1.694249 g / cm^3
# Si number density = 16.981135 Si / 1000 Ang^3
#
#
#
# Elastic Constant Matrix: (Units=GPa)
#
#
# Indices 1 2 3 4 5 6 
#
# 1 153.4080 55.9340 28.4308 0.0000 0.0000 0.0000
# 2 55.9340 63.2632 17.7587 0.0000 0.0000 0.0000
# 3 28.4308 17.7587 45.8827 0.0000 0.0000 0.0000
# 4 0.0000 0.0000 0.0000 22.6593 0.0000 0.0000
# 5 0.0000 0.0000 0.0000 0.0000 21.3976 0.0000
# 6 0.0000 0.0000 0.0000 0.0000 0.0000 27.7115
#
#
#
# Elastic Compliance Matrix: (Units=1/GPa)
#
#
# Indices 1 2 3 4 5 6 
#
# 1 0.010001 -0.007968 -0.003113 0.000000 0.000000 0.000000
# 2 -0.007968 0.024083 -0.004384 0.000000 0.000000 0.000000
# 3 -0.003113 -0.004384 0.025420 0.000000 0.000000 0.000000
# 4 0.000000 0.000000 0.000000 0.044132 0.000000 0.000000
# 5 0.000000 0.000000 0.000000 0.000000 0.046734 0.000000
# 6 0.000000 0.000000 0.000000 0.000000 0.000000 0.036086
#
#
# Mechanical properties :
#
#
# Convention : Reuss Voigt Hill
#
# Bulk Modulus (GPa) = 34.99661 51.86678 43.43169
# Shear Modulus (GPa) = 22.03515 25.04905 23.54210
#
# Velocity S-wave (km/s) = 3.60616 3.84488 3.72744
# Velocity P-wave (km/s) = 6.16385 7.09372 6.64507
#
# Compressibility (1/GPa) = 0.02857420
#
# Stress axis : x y z
#
# Youngs Moduli (GPa) = 99.99197 41.52353 39.33886
#
# Poissons Ratio (x) = 0.33088 0.12245
# Poissons Ratio (y) = 0.79678 0.17244
# Poissons Ratio (z) = 0.31125 0.18202
#
# Static dielectric constant tensor:
#      x y z
#    x 4.121190 0.000000 0.000000 
#    y 0.000000 2.916440 0.000000 
#    z 0.000000 0.000000 3.039900 
# 
# 
# High freq. dielectric constant tensor:
#      x y z
#    x 1.665360 0.000000 0.000000 
#    y 0.000000 1.606000 0.000000 
#    z 0.000000 0.000000 1.654510 
# 
# From -- ./inp_files/8118.got.cif
#   From: 2010.03.12/outbox.cif.g09.slc.cpg/sg55_5_cif.got.tgz:8118.got - 2010.04.16 15:19:21.
