data_PCOD8224380
_publ_section_title
;
Structure prediction by ZEFSAII (Michael W. Deem and Ramdas Pophale) SiO2 
 PCOD8224380
Probable space group: P B A M
;
_chemical_formula_sum "Si O2"
_cell_formula_units_Z 56
_cell_length_a 18.185707
_cell_length_b 20.821020
_cell_length_c 9.131174
_cell_angle_alpha 90.000000
_cell_angle_beta 90.000000
_cell_angle_gamma 90.000000
_cell_volume 3457.473098
_symmetry_space_group_name_H-M "P B A M"
_symmetry_group_IT_number 55
_symmetry_cell_setting 'orthorhombic'
loop_
_space_group_symop_operation_xyz
x,y,z
-x,-y,z
1/2+x,1/2-y,-z
1/2-x,1/2+y,-z
-x,-y,-z
x,y,-z
1/2-x,1/2+y,z
1/2+x,1/2-y,z
loop_
_atom_site_type_symbol
_atom_site_label
_atom_site_fract_x
_atom_site_fract_y
_atom_site_fract_z
Si Si1 0.156133 0.125922 0.326812
Si Si2 0.715841 0.815759 0.834663
Si Si3 0.908720 0.248667 0.326214
Si Si4 0.802797 0.683158 0.838426
Si Si5 0.914524 0.991984 0.831204
Si Si6 0.076238 0.255163 0.670499
Si Si7 0.655656 0.627591 0.171622
O O1 0.167880 0.123948 0.500000
O O2 0.235770 0.131012 0.249492
O O3 0.116663 0.061833 0.274822
O O4 0.104891 0.185495 0.277609
O O5 0.639948 0.804444 0.747687
O O6 0.759746 0.749844 0.836099
O O7 0.699264 0.839386 0.000000
O O8 0.896421 0.249106 0.500000
O O9 0.890177 0.178140 0.266496
O O10 0.992341 0.264034 0.281568
O O11 0.874736 0.687263 0.737641
O O12 0.742746 0.630279 0.786149
O O13 0.831524 0.666550 0.000000
O O14 0.873313 0.057456 0.790885
O O15 0.901267 0.972489 0.000000
O O16 0.000000 0.000000 0.797705
O O17 0.086157 0.261859 0.500000
O O18 0.645482 0.645029 0.000000
#
# Coordination Sequence:
#
# PCOD8224380 Si02
#       7
#     8   8   8   8   8   8   8
#     4  10  19  31  46  65  91 122 155 188 222 263
#     4   9  17  30  46  64  87 116 149 183 222 267
#     4  10  18  28  44  67  92 116 144 181 225 266
#     4   8  15  27  43  61  82 111 146 182 216 256
#     4  10  20  32  46  65  91 124 158 189 221 260
#     4   9  18  29  42  64  92 117 142 179 224 267
#     4   9  18  31  44  62  89 120 154 186 217 259
#
# _framework density 16.1968
#
# number of rings (size 3 to 8) (size 9 to 14) (size 15 to 20)
#    0.000    2.714    0.000    3.000    0.000    6.000 
#    0.000    0.000    0.000    0.000    0.000    1.000 
#    0.000    8.000    0.000    0.000    0.000    0.000 
#
# Total GULP energy -694269.738684 kJ/mol
# GULP energy per Si atom -12397.673905 kJ/mol
# Density = 1.615994 g / cm^3
# Si number density = 16.196800 Si / 1000 Ang^3
#
#
#
# Elastic Constant Matrix: (Units=GPa)
#
#
# Indices 1 2 3 4 5 6 
#
# 1 136.9095 51.8335 63.2806 0.0000 0.0000 0.0000
# 2 51.8335 58.1784 32.1919 0.0000 0.0000 0.0000
# 3 63.2806 32.1919 74.7050 0.0000 0.0000 0.0000
# 4 0.0000 0.0000 0.0000 22.4083 0.0000 0.0000
# 5 0.0000 0.0000 0.0000 0.0000 30.0935 0.0000
# 6 0.0000 0.0000 0.0000 0.0000 0.0000 25.3905
#
#
#
# Elastic Compliance Matrix: (Units=1/GPa)
#
#
# Indices 1 2 3 4 5 6 
#
# 1 0.014350 -0.007956 -0.008727 0.000000 0.000000 0.000000
# 2 -0.007956 0.026981 -0.004887 0.000000 0.000000 0.000000
# 3 -0.008727 -0.004887 0.022885 0.000000 0.000000 0.000000
# 4 0.000000 0.000000 0.000000 0.044626 0.000000 0.000000
# 5 0.000000 0.000000 0.000000 0.000000 0.033230 0.000000
# 6 0.000000 0.000000 0.000000 0.000000 0.000000 0.039385
#
#
# Mechanical properties :
#
#
# Convention : Reuss Voigt Hill
#
# Bulk Modulus (GPa) = 47.45025 62.71166 55.08096
# Shear Modulus (GPa) = 21.58686 23.74424 22.66555
#
# Velocity S-wave (km/s) = 3.65469 3.83297 3.74489
# Velocity P-wave (km/s) = 6.86795 7.64143 7.26499
#
# Compressibility (1/GPa) = 0.02107470
#
# Stress axis : x y z
#
# Youngs Moduli (GPa) = 69.68686 37.06284 43.69766
#
# Poissons Ratio (x) = 0.29487 0.38135
# Poissons Ratio (y) = 0.55443 0.21357
# Poissons Ratio (z) = 0.60816 0.18114
#
# Static dielectric constant tensor:
#      x y z
#    x 3.289770 0.000000 0.000000 
#    y 0.000000 2.820850 0.000000 
#    z 0.000000 0.000000 3.141770 
# 
# 
# High freq. dielectric constant tensor:
#      x y z
#    x 1.626250 0.000000 0.000000 
#    y 0.000000 1.581630 0.000000 
#    z 0.000000 0.000000 1.630600 
# 
# From -- ./inp_files/7818.got.cif
#   From: 2010.03.12/outbox.cif.g09.slc.cpg/sg55_4_cif.got.tgz:7818.got - 2010.04.16 15:19:21.
