data_PCOD8224785
_publ_section_title
;
Structure prediction by ZEFSAII (Michael W. Deem and Ramdas Pophale) SiO2 
 PCOD8224785
Probable space group: P B A M
;
_chemical_formula_sum "Si O2"
_cell_formula_units_Z 40
_cell_length_a 20.647769
_cell_length_b 12.520006
_cell_length_c 9.398950
_cell_angle_alpha 90.000000
_cell_angle_beta 90.000000
_cell_angle_gamma 90.000000
_cell_volume 2429.724367
_symmetry_space_group_name_H-M "P B A M"
_symmetry_group_IT_number 55
_symmetry_cell_setting 'orthorhombic'
loop_
_space_group_symop_operation_xyz
x,y,z
-x,-y,z
1/2+x,1/2-y,-z
1/2-x,1/2+y,-z
-x,-y,-z
x,y,-z
1/2-x,1/2+y,z
1/2+x,1/2-y,z
loop_
_atom_site_type_symbol
_atom_site_label
_atom_site_fract_x
_atom_site_fract_y
_atom_site_fract_z
Si Si1 0.072744 0.987462 0.334153
Si Si2 0.671066 0.328146 0.333234
Si Si3 0.805124 0.629532 0.837231
Si Si4 0.343519 0.328132 0.838452
Si Si5 0.704850 0.894732 0.163659
O O1 0.073155 0.961476 0.500000
O O2 0.105287 0.885714 0.261100
O O3 0.109998 0.097021 0.300083
O O4 0.000000 0.000000 0.275989
O O5 0.682966 0.313444 0.500000
O O6 0.657108 0.212130 0.263965
O O7 0.733809 0.382296 0.265274
O O8 0.728744 0.632281 0.803450
O O9 0.829376 0.508755 0.806086
O O10 0.818212 0.663100 0.000000
O O11 0.346675 0.200198 0.809791
O O12 0.361911 0.355627 0.000000
O O13 0.729847 0.890017 0.000000
#
# Coordination Sequence:
#
# PCOD8224785 Si02
#       5
#     8   8   8   8   8
#     4  10  21  35  48  65  96 133 163 196 235 275
#     4  10  19  29  45  70  97 123 159 199 234 279
#     4   9  17  30  49  70  98 127 150 189 243 293
#     4   9  17  29  48  72  94 120 158 195 234 283
#     4   9  17  31  49  70  98 126 150 189 244 291
#
# _framework density 16.462772000000001
#
# number of rings (size 3 to 8) (size 9 to 14) (size 15 to 20)
#    0.000    2.600    2.000    1.800    0.000    5.200 
#    0.000    0.000    0.000    1.200    0.000    8.400 
#    0.000    0.000    0.000    0.000    0.000    0.000 
#
# Total GULP energy -495911.858226 kJ/mol
# GULP energy per Si atom -12397.796456 kJ/mol
# Density = 1.642530 g / cm^3
# Si number density = 16.462772 Si / 1000 Ang^3
#
#
#
# Elastic Constant Matrix: (Units=GPa)
#
#
# Indices 1 2 3 4 5 6 
#
# 1 75.7674 49.4492 46.1383 0.0000 0.0000 0.0000
# 2 49.4492 155.2585 64.4218 0.0000 0.0000 0.0000
# 3 46.1383 64.4218 77.0062 0.0000 0.0000 0.0000
# 4 0.0000 0.0000 0.0000 29.0196 0.0000 0.0000
# 5 0.0000 0.0000 0.0000 0.0000 16.2370 0.0000
# 6 0.0000 0.0000 0.0000 0.0000 0.0000 20.0316
#
#
#
# Elastic Compliance Matrix: (Units=1/GPa)
#
#
# Indices 1 2 3 4 5 6 
#
# 1 0.021294 -0.002279 -0.010851 0.000000 0.000000 0.000000
# 2 -0.002279 0.010109 -0.007092 0.000000 0.000000 0.000000
# 3 -0.010851 -0.007092 0.025420 0.000000 0.000000 0.000000
# 4 0.000000 0.000000 0.000000 0.034459 0.000000 0.000000
# 5 0.000000 0.000000 0.000000 0.000000 0.061588 0.000000
# 6 0.000000 0.000000 0.000000 0.000000 0.000000 0.049921
#
#
# Mechanical properties :
#
#
# Convention : Reuss Voigt Hill
#
# Bulk Modulus (GPa) = 61.05454 69.78342 65.41898
# Shear Modulus (GPa) = 20.10488 22.92582 21.51535
#
# Velocity S-wave (km/s) = 3.49841 3.73578 3.61904
# Velocity P-wave (km/s) = 7.31337 7.81593 7.56882
#
# Compressibility (1/GPa) = 0.01637880
#
# Stress axis : x y z
#
# Youngs Moduli (GPa) = 46.96200 98.91793 39.33887
#
# Poissons Ratio (x) = 0.22548 0.42688
# Poissons Ratio (y) = 0.10705 0.27897
# Poissons Ratio (z) = 0.50960 0.70148
#
# Static dielectric constant tensor:
#      x y z
#    x 2.741820 0.000000 0.000000 
#    y 0.000000 3.448390 0.000000 
#    z 0.000000 0.000000 3.099090 
# 
# 
# High freq. dielectric constant tensor:
#      x y z
#    x 1.580580 0.000000 0.000000 
#    y 0.000000 1.652620 0.000000 
#    z 0.000000 0.000000 1.636330 
# 
# From -- ./inp_files/3641.got.cif
#   From: 2010.03.12/outbox.cif.g09.slc.cpg/sg55_2_cif.got.tgz:3641.got - 2010.04.16 15:19:21.
