data_PCOD8224882
_publ_section_title
;
Structure prediction by ZEFSAII (Michael W. Deem and Ramdas Pophale) SiO2 
 PCOD8224882
Probable space group: P B A M
;
_chemical_formula_sum "Si O2"
_cell_formula_units_Z 64
_cell_length_a 9.350842
_cell_length_b 30.052524
_cell_length_c 13.616810
_cell_angle_alpha 90.000000
_cell_angle_beta 90.000000
_cell_angle_gamma 90.000000
_cell_volume 3826.546975
_symmetry_space_group_name_H-M "P B A M"
_symmetry_group_IT_number 55
_symmetry_cell_setting 'orthorhombic'
loop_
_space_group_symop_operation_xyz
x,y,z
-x,-y,z
1/2+x,1/2-y,-z
1/2-x,1/2+y,-z
-x,-y,-z
x,y,-z
1/2-x,1/2+y,z
1/2+x,1/2-y,z
loop_
_atom_site_type_symbol
_atom_site_label
_atom_site_fract_x
_atom_site_fract_y
_atom_site_fract_z
Si Si1 0.664007 0.190071 0.391322
Si Si2 0.609607 0.636085 0.115545
Si Si3 0.592213 0.135451 0.795714
Si Si4 0.628447 0.794071 0.810772
Si Si5 0.566888 0.280985 0.887293
Si Si6 0.413261 0.957539 0.111960
Si Si7 0.086726 0.960389 0.111062
Si Si8 0.876741 0.263519 0.608994
O O1 0.661297 0.168439 0.500000
O O2 0.625111 0.150087 0.316745
O O3 0.549191 0.230951 0.385317
O O4 0.819660 0.212908 0.371829
O O5 0.769630 0.651075 0.143245
O O6 0.495590 0.672198 0.150908
O O7 0.567414 0.588091 0.162998
O O8 0.610220 0.629891 0.000000
O O9 0.448534 0.159395 0.835954
O O10 0.563341 0.083069 0.811693
O O11 0.503243 0.757276 0.821869
O O12 0.761521 0.783221 0.880362
O O13 0.684383 0.794057 0.697646
O O14 0.524833 0.272244 0.000000
O O15 0.251303 0.973666 0.112923
O O16 0.500000 0.000000 0.150201
O O17 0.457412 0.943649 0.000000
O O18 0.027625 0.956995 0.000000
O O19 0.000000 0.000000 0.166346
O O20 0.823332 0.278972 0.500000
#
# Coordination Sequence:
#
# PCOD8224882 Si02
#       8
#     8   8   8   8   8   8   8   8
#     4   9  17  29  47  69  92 120 153 190 232 276
#     4   9  18  31  45  63  89 120 151 184 225 269
#     4  10  19  31  48  67  91 118 148 191 233 275
#     4  11  21  32  46  65  89 122 159 191 228 270
#     4  11  22  32  42  60  90 126 159 186 214 263
#     4   9  18  31  47  67  90 116 147 186 232 279
#     4   8  14  26  44  63  83 108 139 179 224 264
#     4   9  17  30  47  66  87 113 148 191 234 269
#
# _framework density 16.725262000000001
#
# number of rings (size 3 to 8) (size 9 to 14) (size 15 to 20)
#    0.000    2.500    0.000    4.500    0.000    4.000 
#    0.000    2.500    0.000    0.375    0.000    0.000 
#    0.000    8.000    0.000    0.000    0.000    2.000 
#
# Total GULP energy -792863.271879 kJ/mol
# GULP energy per Si atom -12388.488623 kJ/mol
# Density = 1.668719 g / cm^3
# Si number density = 16.725262 Si / 1000 Ang^3
#
#
#
# Elastic Constant Matrix: (Units=GPa)
#
#
# Indices 1 2 3 4 5 6 
#
# 1 70.6889 51.8826 17.1089 0.0000 0.0000 0.0000
# 2 51.8826 105.0064 45.6939 0.0000 0.0000 0.0000
# 3 17.1089 45.6939 46.0989 0.0000 0.0000 0.0000
# 4 0.0000 0.0000 0.0000 18.9060 0.0000 0.0000
# 5 0.0000 0.0000 0.0000 0.0000 17.8636 0.0000
# 6 0.0000 0.0000 0.0000 0.0000 0.0000 33.3809
#
#
#
# Elastic Compliance Matrix: (Units=1/GPa)
#
#
# Indices 1 2 3 4 5 6 
#
# 1 0.022772 -0.013318 0.004750 0.000000 0.000000 0.000000
# 2 -0.013318 0.024536 -0.019377 0.000000 0.000000 0.000000
# 3 0.004750 -0.019377 0.039137 0.000000 0.000000 0.000000
# 4 0.000000 0.000000 0.000000 0.052893 0.000000 0.000000
# 5 0.000000 0.000000 0.000000 0.000000 0.055980 0.000000
# 6 0.000000 0.000000 0.000000 0.000000 0.000000 0.029957
#
#
# Mechanical properties :
#
#
# Convention : Reuss Voigt Hill
#
# Bulk Modulus (GPa) = 32.73010 50.12943 41.42977
# Shear Modulus (GPa) = 17.16145 21.17070 19.16607
#
# Velocity S-wave (km/s) = 3.20672 3.56166 3.38884
# Velocity P-wave (km/s) = 5.77256 6.85210 6.33537
#
# Compressibility (1/GPa) = 0.03055292
#
# Stress axis : x y z
#
# Youngs Moduli (GPa) = 43.91366 40.75671 25.55139
#
# Poissons Ratio (x) = 0.54281 -0.12137
# Poissons Ratio (y) = 0.58486 0.49512
# Poissons Ratio (z) = -0.20858 0.78976
#
# Static dielectric constant tensor:
#      x y z
#    x 3.181050 0.000000 0.000000 
#    y 0.000000 3.196990 0.000000 
#    z 0.000000 0.000000 3.091640 
# 
# 
# High freq. dielectric constant tensor:
#      x y z
#    x 1.647760 0.000000 0.000000 
#    y 0.000000 1.623250 0.000000 
#    z 0.000000 0.000000 1.621020 
# 
# From -- ./inp_files/17929.got.cif
#   From: 2010.03.12/outbox.cif.g09.slc.cpg/sg55_9_cif.got.tgz:17929.got - 2010.04.16 15:19:21.
