data_PCOD8224839
_publ_section_title
;
Structure prediction by ZEFSAII (Michael W. Deem and Ramdas Pophale) SiO2 
 PCOD8224839
Probable space group: P B A M
;
_chemical_formula_sum "Si O2"
_cell_formula_units_Z 56
_cell_length_a 9.341264
_cell_length_b 22.274659
_cell_length_c 14.524653
_cell_angle_alpha 90.000000
_cell_angle_beta 90.000000
_cell_angle_gamma 90.000000
_cell_volume 3022.194954
_symmetry_space_group_name_H-M "P B A M"
_symmetry_group_IT_number 55
_symmetry_cell_setting 'orthorhombic'
loop_
_space_group_symop_operation_xyz
x,y,z
-x,-y,z
1/2+x,1/2-y,-z
1/2-x,1/2+y,-z
-x,-y,-z
x,y,-z
1/2-x,1/2+y,z
1/2+x,1/2-y,z
loop_
_atom_site_type_symbol
_atom_site_label
_atom_site_fract_x
_atom_site_fract_y
_atom_site_fract_z
Si Si1 0.967092 0.351576 0.393433
Si Si2 0.350167 0.612341 0.396050
Si Si3 0.059483 0.173675 0.104126
Si Si4 0.222194 0.360960 0.271213
Si Si5 0.429222 0.285560 0.395252
Si Si6 0.011224 0.933769 0.233214
Si Si7 0.254131 0.783946 0.105096
O O1 0.009134 0.360214 0.500000
O O2 0.816064 0.381997 0.371548
O O3 0.963951 0.281849 0.365973
O O4 0.085312 0.383463 0.328994
O O5 0.371135 0.588983 0.500000
O O6 0.424142 0.677346 0.383447
O O7 0.424238 0.564420 0.329124
O O8 0.063106 0.115158 0.167643
O O9 0.916600 0.213154 0.119781
O O10 0.193191 0.216583 0.128314
O O11 0.068223 0.150146 0.000000
O O12 0.307032 0.311141 0.329718
O O13 0.322690 0.418178 0.251135
O O14 0.172760 0.331690 0.174246
O O15 0.371317 0.288086 0.500000
O O16 0.000000 0.000000 0.188756
O O17 0.297401 0.800728 0.000000
#
# Coordination Sequence:
#
# PCOD8224839 Si02
#       7
#     8   8   8   8   8   8   8
#     4  10  19  30  48  77 107 133 168 215 265 318
#     4   9  19  33  49  72 102 138 174 212 258 306
#     4   9  19  35  56  82 108 134 164 210 264 312
#     4  10  20  30  53  76 104 141 171 212 260 308
#     4   9  17  29  46  74 109 138 164 200 257 323
#     4  10  22  38  53  73 101 141 187 218 248 301
#     4   9  19  33  50  78 110 133 164 204 257 319
#
# _framework density 18.529578000000001
#
# number of rings (size 3 to 8) (size 9 to 14) (size 15 to 20)
#    0.000    2.571    0.000    1.286    8.000    3.429 
#    0.000    0.714    0.000    1.714    0.000    0.000 
#    0.000   16.000    0.000    0.000    0.000    0.000 
#
# Total GULP energy -694419.439823 kJ/mol
# GULP energy per Si atom -12400.347140 kJ/mol
# Density = 1.848740 g / cm^3
# Si number density = 18.529578 Si / 1000 Ang^3
#
#
#
# Elastic Constant Matrix: (Units=GPa)
#
#
# Indices 1 2 3 4 5 6 
#
# 1 79.7556 35.0868 48.7147 0.0000 0.0000 0.0000
# 2 35.0868 91.8559 42.7516 0.0000 0.0000 0.0000
# 3 48.7147 42.7516 94.4969 0.0000 0.0000 0.0000
# 4 0.0000 0.0000 0.0000 15.9372 0.0000 0.0000
# 5 0.0000 0.0000 0.0000 0.0000 27.7377 0.0000
# 6 0.0000 0.0000 0.0000 0.0000 0.0000 12.7178
#
#
#
# Elastic Compliance Matrix: (Units=1/GPa)
#
#
# Indices 1 2 3 4 5 6 
#
# 1 0.019122 -0.003441 -0.008301 0.000000 0.000000 0.000000
# 2 -0.003441 0.014409 -0.004745 0.000000 0.000000 0.000000
# 3 -0.008301 -0.004745 0.017009 0.000000 0.000000 0.000000
# 4 0.000000 0.000000 0.000000 0.062746 0.000000 0.000000
# 5 0.000000 0.000000 0.000000 0.000000 0.036052 0.000000
# 6 0.000000 0.000000 0.000000 0.000000 0.000000 0.078630
#
#
# Mechanical properties :
#
#
# Convention : Reuss Voigt Hill
#
# Bulk Modulus (GPa) = 56.92842 57.69051 57.30946
# Shear Modulus (GPa) = 18.74075 20.58224 19.66149
#
# Velocity S-wave (km/s) = 3.18370 3.33645 3.26097
# Velocity P-wave (km/s) = 6.65614 6.78560 6.72118
#
# Compressibility (1/GPa) = 0.01756592
#
# Stress axis : x y z
#
# Youngs Moduli (GPa) = 52.29466 69.39905 58.79371
#
# Poissons Ratio (x) = 0.23878 0.48806
# Poissons Ratio (y) = 0.17993 0.27899
# Poissons Ratio (z) = 0.43411 0.32932
#
# Static dielectric constant tensor:
#      x y z
#    x 3.412360 0.000000 0.000000 
#    y 0.000000 2.966790 0.000000 
#    z 0.000000 0.000000 3.653640 
# 
# 
# High freq. dielectric constant tensor:
#      x y z
#    x 1.715050 0.000000 0.000000 
#    y 0.000000 1.672900 0.000000 
#    z 0.000000 0.000000 1.730610 
# 
# From -- ./inp_files/17619.got.cif
#   From: 2010.03.12/outbox.cif.g09.slc.cpg/sg55_9_cif.got.tgz:17619.got - 2010.04.16 15:19:21.
