data_PCOD8224844
_publ_section_title
;
Structure prediction by ZEFSAII (Michael W. Deem and Ramdas Pophale) SiO2 
 PCOD8224844
Probable space group: P B A M
;
_chemical_formula_sum "Si O2"
_cell_formula_units_Z 48
_cell_length_a 4.981851
_cell_length_b 16.357031
_cell_length_c 29.286295
_cell_angle_alpha 90.000000
_cell_angle_beta 90.000000
_cell_angle_gamma 90.000000
_cell_volume 2386.490136
_symmetry_space_group_name_H-M "P B A M"
_symmetry_group_IT_number 55
_symmetry_cell_setting 'orthorhombic'
loop_
_space_group_symop_operation_xyz
x,y,z
-x,-y,z
1/2+x,1/2-y,-z
1/2-x,1/2+y,-z
-x,-y,-z
x,y,-z
1/2-x,1/2+y,z
1/2+x,1/2-y,z
loop_
_atom_site_type_symbol
_atom_site_label
_atom_site_fract_x
_atom_site_fract_y
_atom_site_fract_z
Si Si1 0.998511 0.404766 0.766542
Si Si2 0.899517 0.805037 0.380746
Si Si3 0.366923 0.804378 0.048777
Si Si4 0.511615 0.195388 0.144386
Si Si5 0.240617 0.554666 0.551367
Si Si6 0.497990 0.595825 0.709096
O O1 0.076046 0.363368 0.813830
O O2 0.207868 0.378423 0.726732
O O3 0.000000 0.500000 0.776019
O O4 0.702736 0.380783 0.750050
O O5 0.703125 0.727289 0.384029
O O6 0.807169 0.863920 0.421212
O O7 0.889085 0.854503 0.333828
O O8 0.559075 0.724497 0.049945
O O9 0.434286 0.853104 0.095919
O O10 0.416105 0.852003 0.000000
O O11 0.206473 0.226016 0.146813
O O12 0.500000 0.500000 0.550970
O O13 0.157869 0.581212 0.500000
O O14 0.000000 0.500000 0.573272
O O15 0.500000 0.500000 0.696201
#
# Coordination Sequence:
#
# PCOD8224844 Si02
#       6
#     8   8   8   8   8   8
#     4  10  21  36  53  74 102 138 178 219 264 316
#     4  12  25  38  59  91 120 145 180 235 289 319
#     4   8  14  25  41  64  93 123 159 202 250 308
#     4  10  19  30  49  74  98 129 167 213 264 311
#     4  10  22  42  66  88 115 156 196 224 263 330
#     4  10  22  39  56  74 104 148 186 215 260 329
#
# _framework density 20.113219000000001
#
# number of rings (size 3 to 8) (size 9 to 14) (size 15 to 20)
#    0.000    2.000    0.000    3.500    0.000    6.667 
#    0.000    0.000    0.000    0.500    0.000    0.000 
#    0.000   17.333    0.000    0.000    0.000    2.667 
#
# Total GULP energy -594825.912710 kJ/mol
# GULP energy per Si atom -12392.206515 kJ/mol
# Density = 2.006744 g / cm^3
# Si number density = 20.113219 Si / 1000 Ang^3
#
#
#
# Elastic Constant Matrix: (Units=GPa)
#
#
# Indices 1 2 3 4 5 6 
#
# 1 92.3951 20.7226 15.1980 0.0000 0.0000 0.0000
# 2 20.7226 52.3886 54.9503 0.0000 0.0000 0.0000
# 3 15.1980 54.9503 132.7861 0.0000 0.0000 0.0000
# 4 0.0000 0.0000 0.0000 -20.7799 0.0000 0.0000
# 5 0.0000 0.0000 0.0000 0.0000 25.8923 0.0000
# 6 0.0000 0.0000 0.0000 0.0000 0.0000 28.4372
#
#
#
# Elastic Compliance Matrix: (Units=1/GPa)
#
#
# Indices 1 2 3 4 5 6 
#
# 1 0.011958 -0.005821 0.001040 0.000000 0.000000 0.000000
# 2 -0.005821 0.036562 -0.014464 0.000000 0.000000 0.000000
# 3 0.001040 -0.014464 0.013397 0.000000 0.000000 0.000000
# 4 0.000000 0.000000 0.000000 -0.048123 0.000000 0.000000
# 5 0.000000 0.000000 0.000000 0.000000 0.038622 0.000000
# 6 0.000000 0.000000 0.000000 0.000000 0.000000 0.035165
#
#
# Mechanical properties :
#
#
# Convention : Reuss Voigt Hill
#
# Bulk Modulus (GPa) = 42.68512 51.03462 46.85987
# Shear Modulus (GPa) = 37.34726 19.15652 28.25189
#
# Velocity S-wave (km/s) = 4.31379 3.08950 3.75192
# Velocity P-wave (km/s) = 6.78824 6.17701 6.48983
#
# Compressibility (1/GPa) = 0.02342737
#
# Stress axis : x y z
#
# Youngs Moduli (GPa) = 83.62944 27.35090 74.64130
#
# Poissons Ratio (x) = 0.15921 -0.07765
# Poissons Ratio (y) = 0.48681 1.07961
# Poissons Ratio (z) = -0.08700 0.39560
#
# Static dielectric constant tensor:
#      x y z
#    x 3.979300 0.000000 0.000000 
#    y 0.000000 3.212640 0.000000 
#    z 0.000000 0.000000 4.068990 
# 
# 
# High freq. dielectric constant tensor:
#      x y z
#    x 1.809070 0.000000 0.000000 
#    y 0.000000 1.732480 0.000000 
#    z 0.000000 0.000000 1.805120 
# 
# From -- ./inp_files/23814.got.cif
#   From: 2010.03.12/outbox.cif.g09.slc.cpg/sg55_12_cif.got.tgz:23814.got - 2010.04.16 15:19:21.
