data_PCOD8224884
_publ_section_title
;
Structure prediction by ZEFSAII (Michael W. Deem and Ramdas Pophale) SiO2 
 PCOD8224884
Probable space group: P B A M
;
_chemical_formula_sum "Si O2"
_cell_formula_units_Z 60
_cell_length_a 16.913655
_cell_length_b 5.118867
_cell_length_c 36.924999
_cell_angle_alpha 90.000000
_cell_angle_beta 90.000000
_cell_angle_gamma 90.000000
_cell_volume 3196.920273
_symmetry_space_group_name_H-M "P B A M"
_symmetry_group_IT_number 55
_symmetry_cell_setting 'orthorhombic'
loop_
_space_group_symop_operation_xyz
x,y,z
-x,-y,z
1/2+x,1/2-y,-z
1/2-x,1/2+y,-z
-x,-y,-z
x,y,-z
1/2-x,1/2+y,z
1/2+x,1/2-y,z
loop_
_atom_site_type_symbol
_atom_site_label
_atom_site_fract_x
_atom_site_fract_y
_atom_site_fract_z
Si Si1 0.905927 0.499818 0.309945
Si Si2 0.700861 0.439918 0.500000
Si Si3 0.406195 0.500184 0.646504
Si Si4 0.802916 0.039027 0.422469
Si Si5 0.300951 0.440016 0.961352
Si Si6 0.093830 0.999972 0.814950
Si Si7 0.803257 0.963916 0.884267
Si Si8 0.094042 0.499980 0.228663
O O1 0.874804 0.750834 0.331442
O O2 0.870983 0.500623 0.269300
O O3 0.000000 0.500000 0.308103
O O4 0.874814 0.247607 0.331179
O O5 0.722569 0.133221 0.500000
O O6 0.655667 0.505986 0.537677
O O7 0.500000 0.500000 0.642589
O O8 0.371258 0.503228 0.606496
O O9 0.766627 0.326816 0.417920
O O10 0.273200 0.139667 0.960680
O O11 0.347056 0.500379 0.923737
O O12 0.347594 0.484958 0.000000
O O13 0.129408 0.995215 0.854811
O O14 0.125034 0.751912 0.792650
O O15 0.125067 0.248614 0.792784
O O16 0.000000 0.000000 0.819081
O O17 0.733586 0.176384 0.880164
O O18 0.000000 0.500000 0.230572
#
# Coordination Sequence:
#
# PCOD8224884 Si02
#       8
#     8   4   8   8   8   8   8   8
#     4   9  17  30  49  71  94 121 157 196 231 273
#     4   8  16  30  49  70  91 124 164 190 216 266
#     4  10  19  31  50  75  98 121 153 196 240 276
#     4  10  19  33  52  72  97 128 160 192 227 275
#     4   8  14  25  42  64  87 114 151 188 218 261
#     4  10  19  31  49  71  93 119 157 198 231 270
#     4  10  19  31  48  69  95 124 152 187 235 282
#     4   9  17  30  49  70  90 120 161 197 226 267
#
# _framework density 18.768062
#
# number of rings (size 3 to 8) (size 9 to 14) (size 15 to 20)
#    0.000    2.667    0.000    2.400    0.000    3.200 
#    0.000    0.333    0.000   16.400    0.000    8.400 
#    0.000   13.867    0.000    0.000    0.000    2.133 
#
# Total GULP energy -743496.304050 kJ/mol
# GULP energy per Si atom -12391.605068 kJ/mol
# Density = 1.872534 g / cm^3
# Si number density = 18.768062 Si / 1000 Ang^3
#
#
#
# Elastic Constant Matrix: (Units=GPa)
#
#
# Indices 1 2 3 4 5 6 
#
# 1 16.8896 12.5410 34.7275 0.0000 0.0000 0.0000
# 2 12.5410 135.1851 59.8066 0.0000 0.0000 0.0000
# 3 34.7275 59.8066 221.7650 0.0000 0.0000 0.0000
# 4 0.0000 0.0000 0.0000 28.6248 0.0000 0.0000
# 5 0.0000 0.0000 0.0000 0.0000 26.5804 0.0000
# 6 0.0000 0.0000 0.0000 0.0000 0.0000 5.5057
#
#
#
# Elastic Compliance Matrix: (Units=1/GPa)
#
#
# Indices 1 2 3 4 5 6 
#
# 1 0.087976 -0.002347 -0.013144 0.000000 0.000000 0.000000
# 2 -0.002347 0.008462 -0.001915 0.000000 0.000000 0.000000
# 3 -0.013144 -0.001915 0.007084 0.000000 0.000000 0.000000
# 4 0.000000 0.000000 0.000000 0.034935 0.000000 0.000000
# 5 0.000000 0.000000 0.000000 0.000000 0.037622 0.000000
# 6 0.000000 0.000000 0.000000 0.000000 0.000000 0.181630
#
#
# Mechanical properties :
#
#
# Convention : Reuss Voigt Hill
#
# Bulk Modulus (GPa) = 14.55349 65.33221 39.94285
# Shear Modulus (GPa) = 12.03594 29.92649 20.98121
#
# Velocity S-wave (km/s) = 2.53514 3.99751 3.34716
# Velocity P-wave (km/s) = 4.04233 7.49617 6.02217
#
# Compressibility (1/GPa) = 0.06871206
#
# Stress axis : x y z
#
# Youngs Moduli (GPa) = 11.36670 118.17559 141.16509
#
# Poissons Ratio (x) = 0.27730 1.85546
# Poissons Ratio (y) = 0.02667 0.27028
# Poissons Ratio (z) = 0.14940 0.22626
#
# Static dielectric constant tensor:
#      x y z
#    x 2.668410 0.000000 0.000000 
#    y 0.000000 3.782030 0.000000 
#    z 0.000000 0.000000 3.980630 
# 
# 
# High freq. dielectric constant tensor:
#      x y z
#    x 1.643410 0.000000 0.000000 
#    y 0.000000 1.755030 0.000000 
#    z 0.000000 0.000000 1.761020 
# 
# From -- ./inp_files/24216.got.cif
#   From: 2010.03.12/outbox.cif.g09.slc.cpg/sg55_13_cif.got.tgz:24216.got - 2010.04.16 15:19:21.
