data_PCOD8224036
_publ_section_title
;
Structure prediction by ZEFSAII (Michael W. Deem and Ramdas Pophale) SiO2 
 PCOD8224036
Probable space group: P C C A
;
_chemical_formula_sum "Si O2"
_cell_formula_units_Z 40
_cell_length_a 13.134221
_cell_length_b 6.966411
_cell_length_c 20.177873
_cell_angle_alpha 90.000000
_cell_angle_beta 90.000000
_cell_angle_gamma 90.000000
_cell_volume 1846.242725
_symmetry_space_group_name_H-M "P C C A"
_symmetry_group_IT_number 54
_symmetry_cell_setting 'orthorhombic'
loop_
_space_group_symop_operation_xyz
x,y,z
1/2-x,-y,z
1/2+x,-y,1/2-z
-x,y,1/2-z
-x,-y,-z
1/2+x,y,-z
1/2-x,y,1/2+z
x,-y,1/2+z
loop_
_atom_site_type_symbol
_atom_site_label
_atom_site_fract_x
_atom_site_fract_y
_atom_site_fract_z
Si Si1 0.346718 0.872419 0.458524
Si Si2 0.250000 0.500000 0.910194
Si Si3 0.570399 0.326826 0.164305
Si Si4 0.366830 0.003417 0.735355
Si Si5 0.000000 0.650192 0.750000
Si Si6 0.454442 0.046480 0.092338
O O1 0.314024 0.648279 0.456206
O O2 0.376226 0.946762 0.531719
O O3 0.250000 0.000000 0.433756
O O4 0.450205 0.897023 0.414946
O O5 0.318455 0.620533 0.860100
O O6 0.504935 0.510169 0.186990
O O7 0.508287 0.252375 0.100611
O O8 0.577743 0.161945 0.221558
O O9 0.401493 0.215742 0.756184
O O10 0.250000 0.000000 0.751338
O O11 0.388651 0.991480 0.657482
#
# Coordination Sequence:
#
# PCOD8224036 Si02
#       6
#     8   4   8   8   4   8
#     4  11  25  47  72  98 134 191 228 284 344 408
#     4  12  26  42  70 102 128 184 242 280 336 422
#     4  12  24  43  68 104 135 176 231 281 347 415
#     4  12  25  44  71 105 140 183 222 285 352 407
#     4  12  22  44  70 102 140 182 216 282 352 404
#     4  11  23  48  68  98 148 174 229 285 342 413
#
# _framework density 21.665624000000001
#
# number of rings (size 3 to 8) (size 9 to 14) (size 15 to 20)
#    0.000    0.400    6.000    3.000    2.800    0.800 
#    7.200    0.000    0.000    0.000    0.000    0.000 
#    0.000    0.000    0.000    0.000    0.000    0.000 
#
# Total GULP energy -495679.739898 kJ/mol
# GULP energy per Si atom -12391.993497 kJ/mol
# Density = 2.161631 g / cm^3
# Si number density = 21.665624 Si / 1000 Ang^3
#
#
#
# Elastic Constant Matrix: (Units=GPa)
#
#
# Indices 1 2 3 4 5 6 
#
# 1 106.3116 43.2961 6.1881 0.0000 0.0000 0.0000
# 2 43.2961 146.6334 24.4107 0.0000 0.0000 0.0000
# 3 6.1881 24.4107 53.9662 0.0000 0.0000 0.0000
# 4 0.0000 0.0000 0.0000 59.6687 0.0000 0.0000
# 5 0.0000 0.0000 0.0000 0.0000 32.0389 0.0000
# 6 0.0000 0.0000 0.0000 0.0000 0.0000 42.1971
#
#
#
# Elastic Compliance Matrix: (Units=1/GPa)
#
#
# Indices 1 2 3 4 5 6 
#
# 1 0.010694 -0.003194 0.000219 0.000000 0.000000 0.000000
# 2 -0.003194 0.008329 -0.003401 0.000000 0.000000 0.000000
# 3 0.000219 -0.003401 0.020044 0.000000 0.000000 0.000000
# 4 0.000000 0.000000 0.000000 0.016759 0.000000 0.000000
# 5 0.000000 0.000000 0.000000 0.000000 0.031212 0.000000
# 6 0.000000 0.000000 0.000000 0.000000 0.000000 0.023698
#
#
# Mechanical properties :
#
#
# Convention : Reuss Voigt Hill
#
# Bulk Modulus (GPa) = 38.00352 50.52233 44.26293
# Shear Modulus (GPa) = 37.80393 42.31536 40.05964
#
# Velocity S-wave (km/s) = 4.18171 4.42420 4.30466
# Velocity P-wave (km/s) = 6.39489 7.03333 6.72169
#
# Compressibility (1/GPa) = 0.02631335
#
# Stress axis : x y z
#
# Youngs Moduli (GPa) = 93.50678 120.06155 49.89136
#
# Poissons Ratio (x) = 0.38349 -0.01090
# Poissons Ratio (y) = 0.29867 0.16969
# Poissons Ratio (z) = -0.02043 0.40836
#
# Static dielectric constant tensor:
#      x y z
#    x 3.681400 0.000000 0.000000 
#    y 0.000000 4.034590 0.000000 
#    z 0.000000 0.000000 3.890540 
# 
# 
# High freq. dielectric constant tensor:
#      x y z
#    x 1.863260 0.000000 0.000000 
#    y 0.000000 1.854630 0.000000 
#    z 0.000000 0.000000 1.848120 
# 
# From -- ./inp_files/24342.got.cif
#   From: 2010.03.12/outbox.cif.g09.slc.cpg/sg54_13_cif.got.tgz:24342.got - 2010.04.16 15:00:50.
