data_PCOD8224033
_publ_section_title
;
Structure prediction by ZEFSAII (Michael W. Deem and Ramdas Pophale) SiO2 
 PCOD8224033
Probable space group: P C C A
;
_chemical_formula_sum "Si O2"
_cell_formula_units_Z 48
_cell_length_a 10.974856
_cell_length_b 8.539972
_cell_length_c 22.285411
_cell_angle_alpha 90.000000
_cell_angle_beta 90.000000
_cell_angle_gamma 90.000000
_cell_volume 2088.699320
_symmetry_space_group_name_H-M "P C C A"
_symmetry_group_IT_number 54
_symmetry_cell_setting 'orthorhombic'
loop_
_space_group_symop_operation_xyz
x,y,z
1/2-x,-y,z
1/2+x,-y,1/2-z
-x,y,1/2-z
-x,-y,-z
1/2+x,y,-z
1/2-x,y,1/2+z
x,-y,1/2+z
loop_
_atom_site_type_symbol
_atom_site_label
_atom_site_fract_x
_atom_site_fract_y
_atom_site_fract_z
Si Si1 0.899928 0.671819 0.116715
Si Si2 0.086448 0.155555 0.119529
Si Si3 0.919760 0.857940 0.303812
Si Si4 0.626729 0.095271 0.008939
Si Si5 0.130515 0.676343 0.853312
Si Si6 0.808584 0.333338 0.276520
O O1 0.904180 0.483303 0.110865
O O2 0.772331 0.716800 0.146221
O O3 0.008621 0.722008 0.160851
O O4 0.905105 0.762143 0.053352
O O5 0.155968 0.169338 0.056411
O O6 0.117973 0.302176 0.162266
O O7 0.939615 0.179905 0.113541
O O8 0.117038 0.990094 0.148925
O O9 0.797653 0.795742 0.273407
O O10 0.000000 0.930657 0.250000
O O11 0.750000 0.000000 0.028353
O O12 0.500000 0.000000 0.000000
O O13 0.103079 0.669957 0.781663
O O14 0.750000 0.500000 0.282465
#
# Coordination Sequence:
#
# PCOD8224033 Si02
#       6
#     8   8   8   8   8   8
#     4  11  24  44  74  98 139 198 243 292 370 439
#     4  12  27  42  69 105 142 186 237 303 371 435
#     4  12  22  40  67 102 135 182 237 298 367 437
#     4  12  26  50  75 105 151 192 250 314 365 443
#     4  11  23  47  67 103 140 186 244 297 366 453
#     4  12  23  43  67  99 147 184 229 307 369 436
#
# _framework density 22.980809000000001
#
# number of rings (size 3 to 8) (size 9 to 14) (size 15 to 20)
#    0.000    0.333    5.000    5.000    0.000    0.667 
#    3.000    0.000    0.000    0.000    0.000    0.000 
#    0.000    0.000    0.000    0.000    0.000    0.000 
#
# Total GULP energy -594999.048408 kJ/mol
# GULP energy per Si atom -12395.813509 kJ/mol
# Density = 2.292850 g / cm^3
# Si number density = 22.980809 Si / 1000 Ang^3
#
#
#
# Elastic Constant Matrix: (Units=GPa)
#
#
# Indices 1 2 3 4 5 6 
#
# 1 68.9250 15.3351 8.0020 0.0000 0.0000 0.0000
# 2 15.3351 86.4666 35.5989 0.0000 0.0000 0.0000
# 3 8.0020 35.5989 136.6451 0.0000 0.0000 0.0000
# 4 0.0000 0.0000 0.0000 39.8587 0.0000 0.0000
# 5 0.0000 0.0000 0.0000 0.0000 29.1713 0.0000
# 6 0.0000 0.0000 0.0000 0.0000 0.0000 30.5252
#
#
#
# Elastic Compliance Matrix: (Units=1/GPa)
#
#
# Indices 1 2 3 4 5 6 
#
# 1 0.015110 -0.002594 -0.000209 0.000000 0.000000 0.000000
# 2 -0.002594 0.013400 -0.003339 0.000000 0.000000 0.000000
# 3 -0.000209 -0.003339 0.008200 0.000000 0.000000 0.000000
# 4 0.000000 0.000000 0.000000 0.025089 0.000000 0.000000
# 5 0.000000 0.000000 0.000000 0.000000 0.034280 0.000000
# 6 0.000000 0.000000 0.000000 0.000000 0.000000 0.032760
#
#
# Mechanical properties :
#
#
# Convention : Reuss Voigt Hill
#
# Bulk Modulus (GPa) = 40.93936 45.54541 43.24238
# Shear Modulus (GPa) = 33.49755 35.45109 34.47432
#
# Velocity S-wave (km/s) = 3.82204 3.93191 3.87736
# Velocity P-wave (km/s) = 6.10987 6.36200 6.23721
#
# Compressibility (1/GPa) = 0.02442637
#
# Stress axis : x y z
#
# Youngs Moduli (GPa) = 66.18191 74.62764 121.94572
#
# Poissons Ratio (x) = 0.19356 0.02550
# Poissons Ratio (y) = 0.17165 0.40718
# Poissons Ratio (z) = 0.01384 0.24919
#
# Static dielectric constant tensor:
#      x y z
#    x 4.602340 0.000000 0.000000 
#    y 0.000000 4.145070 0.000000 
#    z 0.000000 0.000000 4.509630 
# 
# 
# High freq. dielectric constant tensor:
#      x y z
#    x 1.927950 0.000000 0.000000 
#    y 0.000000 1.896660 0.000000 
#    z 0.000000 0.000000 1.908700 
# 
# From -- ./inp_files/24041.got.cif
#   From: 2010.03.12/outbox.cif.g09.slc.cpg/sg54_13_cif.got.tgz:24041.got - 2010.04.16 15:00:50.
