data_PCOD8224977
_publ_section_title
;
Structure prediction by ZEFSAII (Michael W. Deem and Ramdas Pophale) SiO2 
 PCOD8224977
Probable space group: P B A M
;
_chemical_formula_sum "Si O2"
_cell_formula_units_Z 52
_cell_length_a 5.141670
_cell_length_b 25.562080
_cell_length_c 21.196832
_cell_angle_alpha 90.000000
_cell_angle_beta 90.000000
_cell_angle_gamma 90.000000
_cell_volume 2785.937357
_symmetry_space_group_name_H-M "P B A M"
_symmetry_group_IT_number 55
_symmetry_cell_setting 'orthorhombic'
loop_
_space_group_symop_operation_xyz
x,y,z
-x,-y,z
1/2+x,1/2-y,-z
1/2-x,1/2+y,-z
-x,-y,-z
x,y,-z
1/2-x,1/2+y,z
1/2+x,1/2-y,z
loop_
_atom_site_type_symbol
_atom_site_label
_atom_site_fract_x
_atom_site_fract_y
_atom_site_fract_z
Si Si1 0.644616 0.283442 0.500000
Si Si2 0.563353 0.217279 0.073843
Si Si3 0.353098 0.852846 0.302667
Si Si4 0.146073 0.159511 0.370450
Si Si5 0.984309 0.058015 0.326453
Si Si6 0.582173 0.442588 0.182033
Si Si7 0.420052 0.878546 0.163551
O O1 0.440546 0.236101 0.500000
O O2 0.592182 0.318435 0.560877
O O3 0.330908 0.255527 0.094148
O O4 0.533136 0.162229 0.108190
O O5 0.552835 0.204983 0.000000
O O6 0.573048 0.824094 0.344171
O O7 0.583605 0.677179 0.321514
O O8 0.433940 0.847328 0.229952
O O9 0.305013 0.915427 0.318696
O O10 0.148671 0.095796 0.372899
O O11 0.113734 0.057583 0.257431
O O12 0.000000 0.000000 0.355713
O O13 0.500000 0.500000 0.157581
O O14 0.364624 0.403110 0.156744
O O15 0.861809 0.423817 0.156427
#
# Coordination Sequence:
#
# PCOD8224977 Si02
#       7
#     4   8   8   8   8   8   8
#     4  12  26  44  63  73  97 151 196 222 276 332
#     4  10  22  39  58  81 109 150 197 234 282 345
#     4   9  18  33  56  81 115 132 171 223 271 317
#     4  10  20  38  55  80 109 137 181 230 260 328
#     4   8  17  31  56  83 112 142 166 210 276 327
#     4  10  19  31  55  87 117 152 184 218 273 348
#     4  11  18  35  57  83 118 148 183 232 287 320
#
# _framework density 18.665171000000001
#
# number of rings (size 3 to 8) (size 9 to 14) (size 15 to 20)
#    0.923    1.231    1.538    2.308    0.000    0.615 
#    0.000    5.000    0.000    3.692    0.000    0.000 
#    0.000    0.000    0.000    0.000    0.000    0.000 
#
# Total GULP energy -644317.810248 kJ/mol
# GULP energy per Si atom -12390.727120 kJ/mol
# Density = 1.862269 g / cm^3
# Si number density = 18.665171 Si / 1000 Ang^3
#
#
#
# Elastic Constant Matrix: (Units=GPa)
#
#
# Indices 1 2 3 4 5 6 
#
# 1 105.4417 11.4842 24.8882 0.0000 0.0000 0.0000
# 2 11.4842 68.5742 40.1703 0.0000 0.0000 0.0000
# 3 24.8882 40.1703 57.8841 0.0000 0.0000 0.0000
# 4 0.0000 0.0000 0.0000 20.2006 0.0000 0.0000
# 5 0.0000 0.0000 0.0000 0.0000 11.9652 0.0000
# 6 0.0000 0.0000 0.0000 0.0000 0.0000 29.0145
#
#
#
# Elastic Compliance Matrix: (Units=1/GPa)
#
#
# Indices 1 2 3 4 5 6 
#
# 1 0.010648 0.001514 -0.005629 0.000000 0.000000 0.000000
# 2 0.001514 0.024787 -0.017853 0.000000 0.000000 0.000000
# 3 -0.005629 -0.017853 0.032086 0.000000 0.000000 0.000000
# 4 0.000000 0.000000 0.000000 0.049504 0.000000 0.000000
# 5 0.000000 0.000000 0.000000 0.000000 0.083575 0.000000
# 6 0.000000 0.000000 0.000000 0.000000 0.000000 0.034466
#
#
# Mechanical properties :
#
#
# Convention : Reuss Voigt Hill
#
# Bulk Modulus (GPa) = 42.39921 42.77614 42.58767
# Shear Modulus (GPa) = 17.42996 22.59321 20.01158
#
# Velocity S-wave (km/s) = 3.05917 3.48292 3.27790
# Velocity P-wave (km/s) = 5.93658 6.25633 6.09855
#
# Compressibility (1/GPa) = 0.02358535
#
# Stress axis : x y z
#
# Youngs Moduli (GPa) = 93.91750 40.34328 31.16650
#
# Poissons Ratio (x) = -0.06109 0.17544
# Poissons Ratio (y) = -0.14222 0.55641
# Poissons Ratio (z) = 0.52866 0.72025
#
# Static dielectric constant tensor:
#      x y z
#    x 3.543520 0.000000 0.000000 
#    y 0.000000 3.313960 0.000000 
#    z 0.000000 0.000000 3.092050 
# 
# 
# High freq. dielectric constant tensor:
#      x y z
#    x 1.739790 0.000000 0.000000 
#    y 0.000000 1.710270 0.000000 
#    z 0.000000 0.000000 1.689570 
# 
# From -- ./inp_files/22357.got.cif
#   From: 2010.03.12/outbox.cif.g09.slc.cpg/sg55_12_cif.got.tgz:22357.got - 2010.04.16 15:19:21.
