data_PCOD8224831
_publ_section_title
;
Structure prediction by ZEFSAII (Michael W. Deem and Ramdas Pophale) SiO2 
 PCOD8224831
Probable space group: P B A M
;
_chemical_formula_sum "Si O2"
_cell_formula_units_Z 64
_cell_length_a 16.534966
_cell_length_b 22.694412
_cell_length_c 9.104977
_cell_angle_alpha 90.000000
_cell_angle_beta 90.000000
_cell_angle_gamma 90.000000
_cell_volume 3416.654736
_symmetry_space_group_name_H-M "P B A M"
_symmetry_group_IT_number 55
_symmetry_cell_setting 'orthorhombic'
loop_
_space_group_symop_operation_xyz
x,y,z
-x,-y,z
1/2+x,1/2-y,-z
1/2-x,1/2+y,-z
-x,-y,-z
x,y,-z
1/2-x,1/2+y,z
1/2+x,1/2-y,z
loop_
_atom_site_type_symbol
_atom_site_label
_atom_site_fract_x
_atom_site_fract_y
_atom_site_fract_z
Si Si1 0.564666 0.352292 0.174707
Si Si2 0.009934 0.433991 0.657598
Si Si3 0.397841 0.139629 0.830925
Si Si4 0.042707 0.941453 0.331486
Si Si5 0.770336 0.034553 0.670018
Si Si6 0.148435 0.385732 0.827538
Si Si7 0.769429 0.911036 0.170751
Si Si8 0.541155 0.221902 0.172650
O O1 0.487537 0.387188 0.234558
O O2 0.647972 0.381961 0.231168
O O3 0.556942 0.286227 0.240937
O O4 0.561788 0.351945 0.000000
O O5 0.029827 0.401632 0.500000
O O6 0.926109 0.412247 0.725291
O O7 0.000000 0.500000 0.614471
O O8 0.077654 0.430058 0.782789
O O9 0.300543 0.139439 0.807832
O O10 0.450547 0.197823 0.784554
O O11 0.418636 0.125323 0.000000
O O12 0.018692 0.929717 0.500000
O O13 0.136893 0.949865 0.309909
O O14 0.000000 0.000000 0.271515
O O15 0.744807 0.029641 0.500000
O O16 0.727168 0.091415 0.742371
O O17 0.749819 0.971919 0.745302
O O18 0.114022 0.321645 0.775356
O O19 0.166054 0.387613 0.000000
O O20 0.777483 0.927628 0.000000
O O21 0.546649 0.227248 0.000000
#
# Coordination Sequence:
#
# PCOD8224831 Si02
#       8
#     8   8   8   8   8   8   8   8
#     4  10  20  36  59  84 108 140 187 236 276 323
#     4  10  19  30  47  74 106 141 180 220 265 316
#     4   9  18  33  51  73 106 146 181 221 273 327
#     4  10  21  39  58  78 108 147 181 218 280 338
#     4  11  22  36  56  81 114 146 180 227 277 333
#     4  10  20  35  55  79 110 145 180 220 272 326
#     4  10  20  33  54  83 111 140 181 231 281 331
#     4   8  17  36  56  78 110 146 183 223 272 326
#
# _framework density 18.731771999999999
#
# number of rings (size 3 to 8) (size 9 to 14) (size 15 to 20)
#    0.000    2.250    1.250    2.625    0.000    4.750 
#    2.250    3.125    0.000    0.000    0.000    0.000 
#    0.000    0.000    0.000    0.000    0.000    0.000 
#
# Total GULP energy -792922.870268 kJ/mol
# GULP energy per Si atom -12389.419848 kJ/mol
# Density = 1.868914 g / cm^3
# Si number density = 18.731772 Si / 1000 Ang^3
#
#
#
# Elastic Constant Matrix: (Units=GPa)
#
#
# Indices 1 2 3 4 5 6 
#
# 1 91.1853 47.5116 30.4541 0.0000 0.0000 0.0000
# 2 47.5116 126.4307 35.1566 0.0000 0.0000 0.0000
# 3 30.4541 35.1566 57.3023 0.0000 0.0000 0.0000
# 4 0.0000 0.0000 0.0000 18.4810 0.0000 0.0000
# 5 0.0000 0.0000 0.0000 0.0000 33.8157 0.0000
# 6 0.0000 0.0000 0.0000 0.0000 0.0000 25.9546
#
#
#
# Elastic Compliance Matrix: (Units=1/GPa)
#
#
# Indices 1 2 3 4 5 6 
#
# 1 0.014909 -0.004099 -0.005409 0.000000 0.000000 0.000000
# 2 -0.004099 0.010663 -0.004364 0.000000 0.000000 0.000000
# 3 -0.005409 -0.004364 0.023003 0.000000 0.000000 0.000000
# 4 0.000000 0.000000 0.000000 0.054110 0.000000 0.000000
# 5 0.000000 0.000000 0.000000 0.000000 0.029572 0.000000
# 6 0.000000 0.000000 0.000000 0.000000 0.000000 0.038529
#
#
# Mechanical properties :
#
#
# Convention : Reuss Voigt Hill
#
# Bulk Modulus (GPa) = 48.00191 55.68478 51.84334
# Shear Modulus (GPa) = 24.33416 26.43664 25.38540
#
# Velocity S-wave (km/s) = 3.60819 3.76084 3.68531
# Velocity P-wave (km/s) = 6.56051 6.97499 6.77092
#
# Compressibility (1/GPa) = 0.02083251
#
# Stress axis : x y z
#
# Youngs Moduli (GPa) = 67.07522 93.78103 43.47198
#
# Poissons Ratio (x) = 0.38436 0.23513
# Poissons Ratio (y) = 0.27491 0.18971
# Poissons Ratio (z) = 0.36280 0.40925
#
# Static dielectric constant tensor:
#      x y z
#    x 3.566880 0.000000 0.000000 
#    y 0.000000 3.778190 0.000000 
#    z 0.000000 0.000000 3.420540 
# 
# 
# High freq. dielectric constant tensor:
#      x y z
#    x 1.730950 0.000000 0.000000 
#    y 0.000000 1.712380 0.000000 
#    z 0.000000 0.000000 1.720800 
# 
# From -- ./inp_files/6666.got.cif
#   From: 2010.03.12/outbox.cif.g09.slc.cpg/sg55_4_cif.got.tgz:6666.got - 2010.04.16 15:19:21.
