data_PCOD8224898
_publ_section_title
;
Structure prediction by ZEFSAII (Michael W. Deem and Ramdas Pophale) SiO2 
 PCOD8224898
Probable space group: P B A M
;
_chemical_formula_sum "Si O2"
_cell_formula_units_Z 48
_cell_length_a 8.586671
_cell_length_b 14.401448
_cell_length_c 19.220185
_cell_angle_alpha 90.000000
_cell_angle_beta 90.000000
_cell_angle_gamma 90.000000
_cell_volume 2376.777608
_symmetry_space_group_name_H-M "P B A M"
_symmetry_group_IT_number 55
_symmetry_cell_setting 'orthorhombic'
loop_
_space_group_symop_operation_xyz
x,y,z
-x,-y,z
1/2+x,1/2-y,-z
1/2-x,1/2+y,-z
-x,-y,-z
x,y,-z
1/2-x,1/2+y,z
1/2+x,1/2-y,z
loop_
_atom_site_type_symbol
_atom_site_label
_atom_site_fract_x
_atom_site_fract_y
_atom_site_fract_z
Si Si1 0.879940 0.821837 0.000000
Si Si2 0.821280 0.971616 0.893958
Si Si3 0.391018 0.634774 0.500000
Si Si4 0.325208 0.536690 0.737993
Si Si5 0.065753 0.198190 0.351167
Si Si6 0.736804 0.556798 0.500000
Si Si7 0.263169 0.377304 0.000000
Si Si8 0.281060 0.877770 0.352787
O O1 0.064260 0.835903 0.000000
O O2 0.803432 0.872816 0.933113
O O3 0.851413 0.711146 0.000000
O O4 0.731611 0.056472 0.932743
O O5 0.757510 0.956203 0.816070
O O6 0.000000 0.000000 0.893748
O O7 0.367821 0.694537 0.569781
O O8 0.559757 0.589469 0.500000
O O9 0.260780 0.554697 0.500000
O O10 0.500000 0.500000 0.738550
O O11 0.327106 0.634955 0.698832
O O12 0.212459 0.467173 0.696463
O O13 0.089680 0.304439 0.326703
O O14 0.887174 0.170491 0.347637
O O15 0.822974 0.592614 0.568741
#
# Coordination Sequence:
#
# PCOD8224898 Si02
#       8
#     4   8   4   8   8   4   4   8
#     4   9  17  31  52  74  96 123 155 191 228 270
#     4   8  16  31  49  70  96 126 158 188 223 274
#     4   9  15  28  49  68  87 118 161 197 226 272
#     4   9  17  31  50  69  92 126 162 189 222 278
#     4  10  19  31  49  70  92 121 157 196 235 276
#     4   9  15  28  49  68  87 118 161 197 226 272
#     4   9  17  31  52  74  96 123 155 191 228 270
#     4  10  19  31  49  70  92 121 157 196 235 276
#
# _framework density 20.195411
#
# number of rings (size 3 to 8) (size 9 to 14) (size 15 to 20)
#    0.000    2.833    1.667    1.500    0.000    1.333 
#    0.000    2.500    0.000    3.000    0.000    0.000 
#    0.000    0.000    0.000    0.000    0.000    0.000 
#
# Total GULP energy -594934.469551 kJ/mol
# GULP energy per Si atom -12394.468116 kJ/mol
# Density = 2.014945 g / cm^3
# Si number density = 20.195411 Si / 1000 Ang^3
#
#
#
# Elastic Constant Matrix: (Units=GPa)
#
#
# Indices 1 2 3 4 5 6 
#
# 1 7.2826 -7.6168 1.9544 0.0000 0.0000 0.0000
# 2 -7.6168 26.5415 7.0407 0.0000 0.0000 0.0000
# 3 1.9544 7.0407 144.1626 0.0000 0.0000 0.0000
# 4 0.0000 0.0000 0.0000 12.9880 0.0000 0.0000
# 5 0.0000 0.0000 0.0000 0.0000 8.7014 0.0000
# 6 0.0000 0.0000 0.0000 0.0000 0.0000 31.8737
#
#
#
# Elastic Compliance Matrix: (Units=1/GPa)
#
#
# Indices 1 2 3 4 5 6 
#
# 1 0.200573 0.059046 -0.005603 0.000000 0.000000 0.000000
# 2 0.059046 0.055554 -0.003514 0.000000 0.000000 0.000000
# 3 -0.005603 -0.003514 0.007184 0.000000 0.000000 0.000000
# 4 0.000000 0.000000 0.000000 0.076994 0.000000 0.000000
# 5 0.000000 0.000000 0.000000 0.000000 0.114925 0.000000
# 6 0.000000 0.000000 0.000000 0.000000 0.000000 0.031374
#
#
# Mechanical properties :
#
#
# Convention : Reuss Voigt Hill
#
# Bulk Modulus (GPa) = 2.75354 20.08261 11.41807
# Shear Modulus (GPa) = 9.84639 22.48652 16.16645
#
# Velocity S-wave (km/s) = 2.21046 3.34046 2.83238
# Velocity P-wave (km/s) = 2.80736 4.98437 4.04507
#
# Compressibility (1/GPa) = 0.36316907
#
# Stress axis : x y z
#
# Youngs Moduli (GPa) = 4.98573 18.00061 139.19489
#
# Poissons Ratio (x) = -1.06286 0.77990
# Poissons Ratio (y) = -0.29439 0.48908
# Poissons Ratio (z) = 0.02793 0.06325
#
# Static dielectric constant tensor:
#      x y z
#    x 3.034910 0.000000 0.000000 
#    y 0.000000 3.701650 0.000000 
#    z 0.000000 0.000000 4.069670 
# 
# 
# High freq. dielectric constant tensor:
#      x y z
#    x 1.735800 0.000000 0.000000 
#    y 0.000000 1.793800 0.000000 
#    z 0.000000 0.000000 1.787220 
# 
# From -- ./inp_files/22818.got.cif
#   From: 2010.03.12/outbox.cif.g09.slc.cpg/sg55_12_cif.got.tgz:22818.got - 2010.04.16 15:19:21.
