data_PCOD8224102
_publ_section_title
;
Structure prediction by ZEFSAII (Michael W. Deem and Ramdas Pophale) SiO2 
 PCOD8224102
Probable space group: P C C A
;
_chemical_formula_sum "Si O2"
_cell_formula_units_Z 64
_cell_length_a 11.311001
_cell_length_b 15.340883
_cell_length_c 16.986771
_cell_angle_alpha 90.000000
_cell_angle_beta 90.000000
_cell_angle_gamma 90.000000
_cell_volume 2947.557124
_symmetry_space_group_name_H-M "P C C A"
_symmetry_group_IT_number 54
_symmetry_cell_setting 'orthorhombic'
loop_
_space_group_symop_operation_xyz
x,y,z
1/2-x,-y,z
1/2+x,-y,1/2-z
-x,y,1/2-z
-x,-y,-z
1/2+x,y,-z
1/2-x,y,1/2+z
x,-y,1/2+z
loop_
_atom_site_type_symbol
_atom_site_label
_atom_site_fract_x
_atom_site_fract_y
_atom_site_fract_z
Si Si1 0.284867 0.903237 0.617135
Si Si2 0.090275 0.249843 0.321536
Si Si3 0.112472 0.243279 0.059664
Si Si4 0.286454 0.403682 0.052799
Si Si5 0.743410 0.597962 0.125863
Si Si6 0.978626 0.823904 0.101547
Si Si7 0.277654 0.902354 0.800409
Si Si8 0.999703 0.647055 0.339358
O O1 0.179229 0.838192 0.597796
O O2 0.405836 0.876906 0.571947
O O3 0.311869 0.898282 0.709409
O O4 0.250000 0.000000 0.589629
O O5 0.171049 0.337139 0.316711
O O6 0.171200 0.163834 0.320103
O O7 0.000000 0.249560 0.250000
O O8 0.016057 0.252257 0.401581
O O9 0.187518 0.331438 0.073185
O O10 0.090877 0.223352 0.968781
O O11 0.250000 0.500000 0.076615
O O12 0.401626 0.394014 0.105468
O O13 0.317640 0.399860 0.960123
O O14 0.750000 0.500000 0.160959
O O15 0.876582 0.630082 0.118258
O O16 0.891102 0.886140 0.146892
O O17 0.023588 0.750366 0.162481
O O18 0.250000 0.000000 0.825365
O O19 0.000000 0.610162 0.250000
#
# Coordination Sequence:
#
# PCOD8224102 Si02
#       8
#     8   8   8   8   8   8   8   8
#     4  11  26  46  70 103 138 183 232 288 355 421
#     4  12  26  45  70 102 145 188 231 295 359 416
#     4  12  26  45  69 102 140 181 238 291 352 421
#     4  11  26  47  74 102 143 190 236 293 365 425
#     4  11  27  47  71 105 140 187 241 289 360 434
#     4  12  25  44  74  98 139 185 233 291 347 420
#     4  11  25  46  73 104 141 187 235 282 353 427
#     4  12  25  44  71 102 141 184 241 293 354 427
#
# _framework density 21.712896000000001
#
# number of rings (size 3 to 8) (size 9 to 14) (size 15 to 20)
#    0.000    0.500    5.000    1.875    7.000    3.000 
#    0.000    0.000    0.000    0.000    0.000    0.000 
#    0.000    0.000    0.000    0.000    0.000    0.000 
#
# Total GULP energy -793672.678673 kJ/mol
# GULP energy per Si atom -12401.135604 kJ/mol
# Density = 2.166348 g / cm^3
# Si number density = 21.712896 Si / 1000 Ang^3
#
#
#
# Elastic Constant Matrix: (Units=GPa)
#
#
# Indices 1 2 3 4 5 6 
#
# 1 134.0309 67.1230 21.5263 0.0000 0.0000 0.0000
# 2 67.1230 187.2849 18.7096 0.0000 0.0000 0.0000
# 3 21.5263 18.7096 65.2175 0.0000 0.0000 0.0000
# 4 0.0000 0.0000 0.0000 22.8672 0.0000 0.0000
# 5 0.0000 0.0000 0.0000 0.0000 44.3013 0.0000
# 6 0.0000 0.0000 0.0000 0.0000 0.0000 25.5983
#
#
#
# Elastic Compliance Matrix: (Units=1/GPa)
#
#
# Indices 1 2 3 4 5 6 
#
# 1 0.009389 -0.003146 -0.002197 0.000000 0.000000 0.000000
# 2 -0.003146 0.006551 -0.000841 0.000000 0.000000 0.000000
# 3 -0.002197 -0.000841 0.016300 0.000000 0.000000 0.000000
# 4 0.000000 0.000000 0.000000 0.043731 0.000000 0.000000
# 5 0.000000 0.000000 0.000000 0.000000 0.022573 0.000000
# 6 0.000000 0.000000 0.000000 0.000000 0.000000 0.039065
#
#
# Mechanical properties :
#
#
# Convention : Reuss Voigt Hill
#
# Bulk Modulus (GPa) = 50.31952 66.80567 58.56260
# Shear Modulus (GPa) = 31.92864 37.16496 34.54680
#
# Velocity S-wave (km/s) = 3.83886 4.14170 3.99315
# Velocity P-wave (km/s) = 6.54785 7.32845 6.94912
#
# Compressibility (1/GPa) = 0.01987300
#
# Stress axis : x y z
#
# Youngs Moduli (GPa) = 106.50656 152.65157 61.35105
#
# Poissons Ratio (x) = 0.48018 0.13477
# Poissons Ratio (y) = 0.33503 0.05160
# Poissons Ratio (z) = 0.23396 0.12839
#
# Static dielectric constant tensor:
#      x y z
#    x 3.738040 0.000000 0.000000 
#    y 0.000000 4.198750 0.000000 
#    z 0.000000 0.000000 3.854420 
# 
# 
# High freq. dielectric constant tensor:
#      x y z
#    x 1.864940 0.000000 0.000000 
#    y 0.000000 1.867920 0.000000 
#    z 0.000000 0.000000 1.849850 
# 
# From -- ./inp_files/17455.got.cif
#   From: 2010.03.12/outbox.cif.g09.slc.cpg/sg54_9_cif.got.tgz:17455.got - 2010.04.16 15:00:50.
