data_PCOD8224174
_publ_section_title
;
Structure prediction by ZEFSAII (Michael W. Deem and Ramdas Pophale) SiO2 
 PCOD8224174
Probable space group: P C C A
;
_chemical_formula_sum "Si O2"
_cell_formula_units_Z 36
_cell_length_a 8.986676
_cell_length_b 7.725488
_cell_length_c 22.145716
_cell_angle_alpha 90.000000
_cell_angle_beta 90.000000
_cell_angle_gamma 90.000000
_cell_volume 1537.498613
_symmetry_space_group_name_H-M "P C C A"
_symmetry_group_IT_number 54
_symmetry_cell_setting 'orthorhombic'
loop_
_space_group_symop_operation_xyz
x,y,z
1/2-x,-y,z
1/2+x,-y,1/2-z
-x,y,1/2-z
-x,-y,-z
1/2+x,y,-z
1/2-x,y,1/2+z
x,-y,1/2+z
loop_
_atom_site_type_symbol
_atom_site_label
_atom_site_fract_x
_atom_site_fract_y
_atom_site_fract_z
Si Si1 0.742870 0.193473 0.684010
Si Si2 0.035299 0.354323 0.131115
Si Si3 0.750000 0.500000 0.775349
Si Si4 0.584431 0.320298 0.072095
Si Si5 0.239641 0.799088 0.038338
O O1 0.574706 0.216857 0.660728
O O2 0.783146 0.331555 0.735306
O O3 0.859111 0.212330 0.629464
O O4 0.750000 0.000000 0.711101
O O5 0.105320 0.472814 0.183429
O O6 0.164779 0.252032 0.096814
O O7 0.937436 0.477519 0.087760
O O8 0.431072 0.240844 0.049503
O O9 0.704233 0.310132 0.018687
O O10 0.250000 0.000000 0.023121
#
# Coordination Sequence:
#
# PCOD8224174 Si02
#       5
#     8   8   4   8   8
#     4  12  27  49  79 110 151 200 255 316 381 449
#     4  12  25  49  73 107 150 202 251 310 386 453
#     4  12  26  52  74 108 152 196 260 316 376 456
#     4  12  24  47  73 111 154 198 252 307 386 454
#     4  12  25  43  74 113 155 197 253 310 380 463
#
# _framework density 23.414656999999998
#
# number of rings (size 3 to 8) (size 9 to 14) (size 15 to 20)
#    0.000    0.000    4.444    5.333    0.000    2.667 
#    8.000    0.000    0.000    0.000    0.000    0.000 
#    0.000    0.000    0.000    0.000    0.000    0.000 
#
# Total GULP energy -446728.147861 kJ/mol
# GULP energy per Si atom -12409.115218 kJ/mol
# Density = 2.336136 g / cm^3
# Si number density = 23.414657 Si / 1000 Ang^3
#
#
#
# Elastic Constant Matrix: (Units=GPa)
#
#
# Indices 1 2 3 4 5 6 
#
# 1 125.6790 51.0627 65.9572 0.0000 0.0000 0.0000
# 2 51.0627 155.0223 53.9063 0.0000 0.0000 0.0000
# 3 65.9572 53.9063 137.7641 0.0000 0.0000 0.0000
# 4 0.0000 0.0000 0.0000 5.4215 0.0000 0.0000
# 5 0.0000 0.0000 0.0000 0.0000 7.9478 0.0000
# 6 0.0000 0.0000 0.0000 0.0000 0.0000 33.0930
#
#
#
# Elastic Compliance Matrix: (Units=1/GPa)
#
#
# Indices 1 2 3 4 5 6 
#
# 1 0.011193 -0.002111 -0.004533 0.000000 0.000000 0.000000
# 2 -0.002111 0.007865 -0.002067 0.000000 0.000000 0.000000
# 3 -0.004533 -0.002067 0.010238 0.000000 0.000000 0.000000
# 4 0.000000 0.000000 0.000000 0.184452 0.000000 0.000000
# 5 0.000000 0.000000 0.000000 0.000000 0.125821 0.000000
# 6 0.000000 0.000000 0.000000 0.000000 0.000000 0.030218
#
#
# Mechanical properties :
#
#
# Convention : Reuss Voigt Hill
#
# Bulk Modulus (GPa) = 84.21393 84.47975 84.34684
# Shear Modulus (GPa) = 12.78230 25.79507 19.28868
#
# Velocity S-wave (km/s) = 2.33901 3.32273 2.87328
# Velocity P-wave (km/s) = 6.58324 7.13295 6.86360
#
# Compressibility (1/GPa) = 0.01187452
#
# Stress axis : x y z
#
# Youngs Moduli (GPa) = 89.33877 127.15155 97.67650
#
# Poissons Ratio (x) = 0.26837 0.44278
# Poissons Ratio (y) = 0.18856 0.20189
# Poissons Ratio (z) = 0.40499 0.26281
#
# Static dielectric constant tensor:
#      x y z
#    x 4.446370 0.000000 0.000000 
#    y 0.000000 4.121920 0.000000 
#    z 0.000000 0.000000 4.439890 
# 
# 
# High freq. dielectric constant tensor:
#      x y z
#    x 1.948400 0.000000 0.000000 
#    y 0.000000 1.926050 0.000000 
#    z 0.000000 0.000000 1.935820 
# 
# From -- ./inp_files/20148.got.cif
#   From: 2010.03.12/outbox.cif.g09.slc.cpg/sg54_11_cif.got.tgz:20148.got - 2010.04.16 15:00:50.
