data_PCOD8224868
_publ_section_title
;
Structure prediction by ZEFSAII (Michael W. Deem and Ramdas Pophale) SiO2 
 PCOD8224868
Probable space group: P B A M
;
_chemical_formula_sum "Si O2"
_cell_formula_units_Z 64
_cell_length_a 19.075542
_cell_length_b 23.112354
_cell_length_c 8.769967
_cell_angle_alpha 90.000000
_cell_angle_beta 90.000000
_cell_angle_gamma 90.000000
_cell_volume 3866.509010
_symmetry_space_group_name_H-M "P B A M"
_symmetry_group_IT_number 55
_symmetry_cell_setting 'orthorhombic'
loop_
_space_group_symop_operation_xyz
x,y,z
-x,-y,z
1/2+x,1/2-y,-z
1/2-x,1/2+y,-z
-x,-y,-z
x,y,-z
1/2-x,1/2+y,z
1/2+x,1/2-y,z
loop_
_atom_site_type_symbol
_atom_site_label
_atom_site_fract_x
_atom_site_fract_y
_atom_site_fract_z
Si Si1 0.995388 0.249322 0.679720
Si Si2 0.756123 0.345729 0.319344
Si Si3 0.341683 0.263285 0.321658
Si Si4 0.207559 0.327762 0.678288
Si Si5 0.649507 0.936512 0.179620
Si Si6 0.865963 0.780796 0.820293
Si Si7 0.863740 0.567765 0.823699
Si Si8 0.491593 0.127918 0.823487
O O1 0.004289 0.240417 0.500000
O O2 0.054016 0.211664 0.765546
O O3 0.003105 0.316911 0.717457
O O4 0.919847 0.226720 0.743100
O O5 0.750617 0.345499 0.500000
O O6 0.808357 0.295913 0.255472
O O7 0.783933 0.407206 0.260942
O O8 0.679213 0.332530 0.252822
O O9 0.349401 0.253980 0.500000
O O10 0.289820 0.316595 0.282917
O O11 0.193416 0.317706 0.500000
O O12 0.159716 0.282547 0.768969
O O13 0.188753 0.392407 0.726767
O O14 0.578112 0.905082 0.230018
O O15 0.646653 0.002627 0.234639
O O16 0.659652 0.932557 0.000000
O O17 0.861515 0.785351 0.000000
O O18 0.944304 0.584334 0.796487
O O19 0.843265 0.574319 0.000000
O O20 0.487402 0.147364 0.000000
#
# Coordination Sequence:
#
# PCOD8224868 Si02
#       8
#     8   8   8   8   8   8   8   8
#     4  11  19  31  50  73  99 131 163 201 247 296
#     4  10  19  34  51  71  96 128 167 208 248 290
#     4   8  17  31  48  69  96 124 157 201 248 291
#     4  10  19  33  50  71  96 128 166 207 247 290
#     4  10  20  33  49  70  99 137 174 207 245 287
#     4  11  21  33  49  72  99 128 161 202 250 301
#     4  10  20  33  48  69 100 137 173 207 243 288
#     4  10  19  31  46  68 100 137 174 206 237 284
#
# _framework density 16.552399000000001
#
# number of rings (size 3 to 8) (size 9 to 14) (size 15 to 20)
#    0.000    2.000    2.500    3.375    0.000    2.000 
#    0.000    1.875    0.000    2.250    0.000    0.875 
#    0.000    7.000    0.000    0.000    0.000    0.000 
#
# Total GULP energy -793627.008830 kJ/mol
# GULP energy per Si atom -12400.422013 kJ/mol
# Density = 1.651473 g / cm^3
# Si number density = 16.552399 Si / 1000 Ang^3
#
#
#
# Elastic Constant Matrix: (Units=GPa)
#
#
# Indices 1 2 3 4 5 6 
#
# 1 102.9495 31.0912 25.1067 0.0000 0.0000 0.0000
# 2 31.0912 58.4877 18.2598 0.0000 0.0000 0.0000
# 3 25.1067 18.2598 55.3591 0.0000 0.0000 0.0000
# 4 0.0000 0.0000 0.0000 20.8210 0.0000 0.0000
# 5 0.0000 0.0000 0.0000 0.0000 23.2163 0.0000
# 6 0.0000 0.0000 0.0000 0.0000 0.0000 26.6219
#
#
#
# Elastic Compliance Matrix: (Units=1/GPa)
#
#
# Indices 1 2 3 4 5 6 
#
# 1 0.012248 -0.005325 -0.003798 0.000000 0.000000 0.000000
# 2 -0.005325 0.021376 -0.004636 0.000000 0.000000 0.000000
# 3 -0.003798 -0.004636 0.021316 0.000000 0.000000 0.000000
# 4 0.000000 0.000000 0.000000 0.048028 0.000000 0.000000
# 5 0.000000 0.000000 0.000000 0.000000 0.043073 0.000000
# 6 0.000000 0.000000 0.000000 0.000000 0.000000 0.037563
#
#
# Mechanical properties :
#
#
# Convention : Reuss Voigt Hill
#
# Bulk Modulus (GPa) = 36.46806 40.63462 38.55134
# Shear Modulus (GPa) = 22.70025 23.62108 23.16067
#
# Velocity S-wave (km/s) = 3.70728 3.78173 3.74469
# Velocity P-wave (km/s) = 6.35649 6.60840 6.48367
#
# Compressibility (1/GPa) = 0.02742125
#
# Stress axis : x y z
#
# Youngs Moduli (GPa) = 81.64594 46.78251 46.91417
#
# Poissons Ratio (x) = 0.24912 0.17820
# Poissons Ratio (y) = 0.43477 0.21747
# Poissons Ratio (z) = 0.31012 0.21686
#
# Static dielectric constant tensor:
#      x y z
#    x 3.397190 0.000000 0.000000 
#    y 0.000000 2.935590 0.000000 
#    z 0.000000 0.000000 3.020220 
# 
# 
# High freq. dielectric constant tensor:
#      x y z
#    x 1.640120 0.000000 0.000000 
#    y 0.000000 1.604850 0.000000 
#    z 0.000000 0.000000 1.635640 
# 
# From -- ./inp_files/8084.got.cif
#   From: 2010.03.12/outbox.cif.g09.slc.cpg/sg55_5_cif.got.tgz:8084.got - 2010.04.16 15:19:21.
