data_PCOD8224523
_publ_section_title
;
Structure prediction by ZEFSAII (Michael W. Deem and Ramdas Pophale) SiO2 
 PCOD8224523
Probable space group: P B A M
;
_chemical_formula_sum "Si O2"
_cell_formula_units_Z 56
_cell_length_a 22.913370
_cell_length_b 14.656217
_cell_length_c 8.466077
_cell_angle_alpha 90.000000
_cell_angle_beta 90.000000
_cell_angle_gamma 90.000000
_cell_volume 2843.106110
_symmetry_space_group_name_H-M "P B A M"
_symmetry_group_IT_number 55
_symmetry_cell_setting 'orthorhombic'
loop_
_space_group_symop_operation_xyz
x,y,z
-x,-y,z
1/2+x,1/2-y,-z
1/2-x,1/2+y,-z
-x,-y,-z
x,y,-z
1/2-x,1/2+y,z
1/2+x,1/2-y,z
loop_
_atom_site_type_symbol
_atom_site_label
_atom_site_fract_x
_atom_site_fract_y
_atom_site_fract_z
Si Si1 0.715082 0.104625 0.683516
Si Si2 0.285437 0.089034 0.812952
Si Si3 0.001823 0.395859 0.189022
Si Si4 0.157464 0.898031 0.187012
Si Si5 0.609429 0.788122 0.186216
Si Si6 0.845925 0.901229 0.186837
Si Si7 0.611548 0.214929 0.814698
O O1 0.706007 0.122654 0.500000
O O2 0.781503 0.123634 0.730713
O O3 0.674201 0.172672 0.779860
O O4 0.695128 0.003101 0.727287
O O5 0.330352 0.166318 0.755941
O O6 0.220585 0.116311 0.756628
O O7 0.287974 0.072221 0.000000
O O8 0.058904 0.344523 0.259388
O O9 0.000000 0.500000 0.251970
O O10 0.946348 0.340197 0.258559
O O11 0.002134 0.396380 0.000000
O O12 0.111305 0.819066 0.235558
O O13 0.133318 0.997528 0.242771
O O14 0.169023 0.897988 0.000000
O O15 0.604812 0.796966 0.000000
O O16 0.887221 0.819786 0.253025
O O17 0.847530 0.896832 0.000000
O O18 0.601224 0.217903 0.000000
#
# Coordination Sequence:
#
# PCOD8224523 Si02
#       7
#     8   8   8   8   8   8   8
#     4  11  21  31  46  72 101 125 157 199 244 287
#     4   9  16  29  49  70  94 124 158 193 237 290
#     4   9  17  28  46  74 100 122 157 202 238 274
#     4   9  17  32  51  70  96 126 158 195 239 289
#     4   9  16  28  50  76  97 124 162 200 236 280
#     4   8  15  27  46  71  93 121 159 195 232 279
#     4  10  18  31  50  69  95 131 166 196 234 284
#
# _framework density 19.696767999999999
#
# number of rings (size 3 to 8) (size 9 to 14) (size 15 to 20)
#    0.000    2.714    0.000    3.857    0.000    4.571 
#    0.000    7.143    0.000    9.000    0.000    0.000 
#    0.000    5.714    0.000    0.000    0.000    0.000 
#
# Total GULP energy -693972.699528 kJ/mol
# GULP energy per Si atom -12392.369634 kJ/mol
# Density = 1.965194 g / cm^3
# Si number density = 19.696768 Si / 1000 Ang^3
#
#
#
# Elastic Constant Matrix: (Units=GPa)
#
#
# Indices 1 2 3 4 5 6 
#
# 1 81.8272 91.9440 7.4625 0.0000 0.0000 0.0000
# 2 91.9440 197.3305 2.4689 0.0000 0.0000 0.0000
# 3 7.4625 2.4689 7.6921 0.0000 0.0000 0.0000
# 4 0.0000 0.0000 0.0000 2.8594 0.0000 0.0000
# 5 0.0000 0.0000 0.0000 0.0000 3.8025 0.0000
# 6 0.0000 0.0000 0.0000 0.0000 0.0000 37.3886
#
#
#
# Elastic Compliance Matrix: (Units=1/GPa)
#
#
# Indices 1 2 3 4 5 6 
#
# 1 0.029598 -0.013486 -0.024386 0.000000 0.000000 0.000000
# 2 -0.013486 0.011233 0.009478 0.000000 0.000000 0.000000
# 3 -0.024386 0.009478 0.150618 0.000000 0.000000 0.000000
# 4 0.000000 0.000000 0.000000 0.349720 0.000000 0.000000
# 5 0.000000 0.000000 0.000000 0.000000 0.262983 0.000000
# 6 0.000000 0.000000 0.000000 0.000000 0.000000 0.026746
#
#
# Mechanical properties :
#
#
# Convention : Reuss Voigt Hill
#
# Bulk Modulus (GPa) = 7.42602 54.51117 30.96860
# Shear Modulus (GPa) = 5.36152 21.14175 13.25163
#
# Velocity S-wave (km/s) = 1.65165 3.27977 2.59662
# Velocity P-wave (km/s) = 2.72316 6.48674 4.97461
#
# Compressibility (1/GPa) = 0.13466167
#
# Stress axis : x y z
#
# Youngs Moduli (GPa) = 33.78636 89.02698 6.63930
#
# Poissons Ratio (x) = 1.20059 0.16190
# Poissons Ratio (y) = 0.45563 -0.06293
# Poissons Ratio (z) = 0.82390 -0.84377
#
# Static dielectric constant tensor:
#      x y z
#    x 3.581030 0.000000 0.000000 
#    y 0.000000 4.204660 0.000000 
#    z 0.000000 0.000000 2.959850 
# 
# 
# High freq. dielectric constant tensor:
#      x y z
#    x 1.745950 0.000000 0.000000 
#    y 0.000000 1.789920 0.000000 
#    z 0.000000 0.000000 1.706140 
# 
# From -- ./inp_files/8775.got.cif
#   From: 2010.03.12/outbox.cif.g09.slc.cpg/sg55_5_cif.got.tgz:8775.got - 2010.04.16 15:19:21.
