data_PCOD8224023
_publ_section_title
;
Structure prediction by ZEFSAII (Michael W. Deem and Ramdas Pophale) SiO2 
 PCOD8224023
Probable space group: P C C A
;
_chemical_formula_sum "Si O2"
_cell_formula_units_Z 48
_cell_length_a 9.255796
_cell_length_b 13.704699
_cell_length_c 17.051715
_cell_angle_alpha 90.000000
_cell_angle_beta 90.000000
_cell_angle_gamma 90.000000
_cell_volume 2162.974208
_symmetry_space_group_name_H-M "P C C A"
_symmetry_group_IT_number 54
_symmetry_cell_setting 'orthorhombic'
loop_
_space_group_symop_operation_xyz
x,y,z
1/2-x,-y,z
1/2+x,-y,1/2-z
-x,y,1/2-z
-x,-y,-z
1/2+x,y,-z
1/2-x,y,1/2+z
x,-y,1/2+z
loop_
_atom_site_type_symbol
_atom_site_label
_atom_site_fract_x
_atom_site_fract_y
_atom_site_fract_z
Si Si1 0.280101 0.791218 0.838287
Si Si2 0.225181 0.785029 0.661701
Si Si3 0.522508 0.871753 0.076125
Si Si4 0.030703 0.907876 0.103644
Si Si5 0.167623 0.404409 0.921456
Si Si6 0.827010 0.403136 0.917694
O O1 0.202909 0.795899 0.754364
O O2 0.187003 0.844606 0.905433
O O3 0.428604 0.851522 0.835104
O O4 0.310539 0.679266 0.857938
O O5 0.307532 0.878915 0.626440
O O6 0.309389 0.684745 0.643639
O O7 0.070732 0.787810 0.618861
O O8 0.487500 0.977118 0.112194
O O9 0.494606 0.869895 0.983665
O O10 0.250000 0.500000 0.888780
O O11 0.996449 0.423433 0.933947
O O12 0.244458 0.373826 0.002548
O O13 0.750000 0.500000 0.882902
#
# Coordination Sequence:
#
# PCOD8224023 Si02
#       6
#     8   8   8   8   8   8
#     4  12  26  42  65 100 139 174 214 274 338 392
#     4  12  26  42  65 100 139 174 214 274 338 392
#     4  11  25  43  68  99 126 181 227 276 318 397
#     4  11  23  45  70  93 132 173 233 272 328 385
#     4  11  24  43  71 100 132 174 223 273 326 392
#     4  11  24  43  71 100 132 174 223 273 326 392
#
# _framework density 22.191665
#
# number of rings (size 3 to 8) (size 9 to 14) (size 15 to 20)
#    0.000    0.667    1.667    7.000    4.667    7.333 
#    0.000    0.000    0.000    0.000    0.000    0.000 
#    0.000    0.000    0.000    0.000    0.000    0.000 
#
# Total GULP energy -595438.623348 kJ/mol
# GULP energy per Si atom -12404.971320 kJ/mol
# Density = 2.214116 g / cm^3
# Si number density = 22.191665 Si / 1000 Ang^3
#
#
#
# Elastic Constant Matrix: (Units=GPa)
#
#
# Indices 1 2 3 4 5 6 
#
# 1 109.9890 33.1837 27.8483 0.0000 0.0000 0.0000
# 2 33.1837 100.9283 29.2735 0.0000 0.0000 0.0000
# 3 27.8483 29.2735 70.8722 0.0000 0.0000 0.0000
# 4 0.0000 0.0000 0.0000 17.2939 0.0000 0.0000
# 5 0.0000 0.0000 0.0000 0.0000 30.0962 0.0000
# 6 0.0000 0.0000 0.0000 0.0000 0.0000 40.8569
#
#
#
# Elastic Compliance Matrix: (Units=1/GPa)
#
#
# Indices 1 2 3 4 5 6 
#
# 1 0.010666 -0.002603 -0.003116 0.000000 0.000000 0.000000
# 2 -0.002603 0.011892 -0.003889 0.000000 0.000000 0.000000
# 3 -0.003116 -0.003889 0.016941 0.000000 0.000000 0.000000
# 4 0.000000 0.000000 0.000000 0.057824 0.000000 0.000000
# 5 0.000000 0.000000 0.000000 0.000000 0.033227 0.000000
# 6 0.000000 0.000000 0.000000 0.000000 0.000000 0.024476
#
#
# Mechanical properties :
#
#
# Convention : Reuss Voigt Hill
#
# Bulk Modulus (GPa) = 49.30359 51.37782 50.34071
# Shear Modulus (GPa) = 27.62402 30.41500 29.01951
#
# Velocity S-wave (km/s) = 3.53199 3.70612 3.62010
# Velocity P-wave (km/s) = 6.23688 6.44328 6.34092
#
# Compressibility (1/GPa) = 0.02028250
#
# Stress axis : x y z
#
# Youngs Moduli (GPa) = 93.75503 84.09108 59.02979
#
# Poissons Ratio (x) = 0.21890 0.18393
# Poissons Ratio (y) = 0.24405 0.22957
# Poissons Ratio (z) = 0.29213 0.32703
#
# Static dielectric constant tensor:
#      x y z
#    x 4.052810 0.000000 0.000000 
#    y 0.000000 4.047260 0.000000 
#    z 0.000000 0.000000 3.692650 
# 
# 
# High freq. dielectric constant tensor:
#      x y z
#    x 1.889200 0.000000 0.000000 
#    y 0.000000 1.882060 0.000000 
#    z 0.000000 0.000000 1.858450 
# 
# From -- ./inp_files/16587.got.cif
#   From: 2010.03.12/outbox.cif.g09.slc.cpg/sg54_9_cif.got.tgz:16587.got - 2010.04.16 15:00:50.
