data_PCOD8224917
_publ_section_title
;
Structure prediction by ZEFSAII (Michael W. Deem and Ramdas Pophale) SiO2 
 PCOD8224917
Probable space group: P B A M
;
_chemical_formula_sum "Si O2"
_cell_formula_units_Z 56
_cell_length_a 19.278304
_cell_length_b 18.912080
_cell_length_c 9.210144
_cell_angle_alpha 90.000000
_cell_angle_beta 90.000000
_cell_angle_gamma 90.000000
_cell_volume 3357.952443
_symmetry_space_group_name_H-M "P B A M"
_symmetry_group_IT_number 55
_symmetry_cell_setting 'orthorhombic'
loop_
_space_group_symop_operation_xyz
x,y,z
-x,-y,z
1/2+x,1/2-y,-z
1/2-x,1/2+y,-z
-x,-y,-z
x,y,-z
1/2-x,1/2+y,z
1/2+x,1/2-y,z
loop_
_atom_site_type_symbol
_atom_site_label
_atom_site_fract_x
_atom_site_fract_y
_atom_site_fract_z
Si Si1 0.487491 0.795803 0.168875
Si Si2 0.244057 0.615478 0.165888
Si Si3 0.637745 0.760450 0.169671
Si Si4 0.757539 0.169406 0.331713
Si Si5 0.299359 0.981756 0.668142
Si Si6 0.654073 0.265438 0.166980
Si Si7 0.561816 0.054110 0.168356
O O1 0.560501 0.770442 0.236147
O O2 0.428539 0.736366 0.197119
O O3 0.461774 0.870411 0.234624
O O4 0.501599 0.808814 0.000000
O O5 0.180163 0.667832 0.198737
O O6 0.242103 0.548762 0.270740
O O7 0.316163 0.656566 0.198873
O O8 0.240932 0.589219 0.000000
O O9 0.672610 0.694982 0.252764
O O10 0.637008 0.741328 0.000000
O O11 0.762415 0.189318 0.500000
O O12 0.749561 0.085898 0.306810
O O13 0.689990 0.207044 0.266505
O O14 0.315093 0.993866 0.500000
O O15 0.372187 0.974793 0.747891
O O16 0.670439 0.244723 0.000000
O O17 0.500000 0.000000 0.192165
O O18 0.582506 0.061170 0.000000
#
# Coordination Sequence:
#
# PCOD8224917 Si02
#       7
#     8   8   8   8   8   8   8
#     4   9  16  29  51  76 100 125 158 203 250 295
#     4   9  18  31  49  72  98 127 166 206 244 295
#     4   9  18  33  53  76  99 126 163 205 249 297
#     4  10  20  33  48  70  99 131 169 206 241 291
#     4  11  22  33  47  70 101 135 168 203 244 290
#     4   9  17  32  53  74  95 126 166 207 249 295
#     4  10  19  31  50  74 102 134 163 194 243 303
#
# _framework density 16.676829000000001
#
# number of rings (size 3 to 8) (size 9 to 14) (size 15 to 20)
#    0.000    2.429    1.429    2.571    0.000    6.571 
#    0.000    1.429    0.000    0.857    0.000    6.000 
#    0.000    0.000    0.000    0.000    0.000    0.000 
#
# Total GULP energy -694381.897230 kJ/mol
# GULP energy per Si atom -12399.676736 kJ/mol
# Density = 1.663887 g / cm^3
# Si number density = 16.676829 Si / 1000 Ang^3
#
#
#
# Elastic Constant Matrix: (Units=GPa)
#
#
# Indices 1 2 3 4 5 6 
#
# 1 94.8516 56.3943 37.4721 0.0000 0.0000 0.0000
# 2 56.3943 101.2205 56.5125 0.0000 0.0000 0.0000
# 3 37.4721 56.5125 72.6991 0.0000 0.0000 0.0000
# 4 0.0000 0.0000 0.0000 23.5765 0.0000 0.0000
# 5 0.0000 0.0000 0.0000 0.0000 12.5771 0.0000
# 6 0.0000 0.0000 0.0000 0.0000 0.0000 22.5368
#
#
#
# Elastic Compliance Matrix: (Units=1/GPa)
#
#
# Indices 1 2 3 4 5 6 
#
# 1 0.015984 -0.007607 -0.002326 0.000000 0.000000 0.000000
# 2 -0.007607 0.021075 -0.012462 0.000000 0.000000 0.000000
# 3 -0.002326 -0.012462 0.024641 0.000000 0.000000 0.000000
# 4 0.000000 0.000000 0.000000 0.042415 0.000000 0.000000
# 5 0.000000 0.000000 0.000000 0.000000 0.079509 0.000000
# 6 0.000000 0.000000 0.000000 0.000000 0.000000 0.044372
#
#
# Mechanical properties :
#
#
# Convention : Reuss Voigt Hill
#
# Bulk Modulus (GPa) = 59.13046 63.28100 61.20573
# Shear Modulus (GPa) = 17.95827 19.63093 18.79460
#
# Velocity S-wave (km/s) = 3.28508 3.43467 3.36071
# Velocity P-wave (km/s) = 7.06560 7.33192 7.19999
#
# Compressibility (1/GPa) = 0.01691176
#
# Stress axis : x y z
#
# Youngs Moduli (GPa) = 62.56100 47.44905 40.58260
#
# Poissons Ratio (x) = 0.36095 0.09438
# Poissons Ratio (y) = 0.47591 0.50573
# Poissons Ratio (z) = 0.14549 0.59130
#
# Static dielectric constant tensor:
#      x y z
#    x 3.224840 0.000000 0.000000 
#    y 0.000000 3.103350 0.000000 
#    z 0.000000 0.000000 3.029940 
# 
# 
# High freq. dielectric constant tensor:
#      x y z
#    x 1.638930 0.000000 0.000000 
#    y 0.000000 1.632580 0.000000 
#    z 0.000000 0.000000 1.628600 
# 
# From -- ./inp_files/7796.got.cif
#   From: 2010.03.12/outbox.cif.g09.slc.cpg/sg55_4_cif.got.tgz:7796.got - 2010.04.16 15:19:21.
