data_PCOD8224252
_publ_section_title
;
Structure prediction by ZEFSAII (Michael W. Deem and Ramdas Pophale) SiO2 
 PCOD8224252
Probable space group: P B A M
;
_chemical_formula_sum "Si O2"
_cell_formula_units_Z 52
_cell_length_a 14.120987
_cell_length_b 20.665964
_cell_length_c 9.379200
_cell_angle_alpha 90.000000
_cell_angle_beta 90.000000
_cell_angle_gamma 90.000000
_cell_volume 2737.073869
_symmetry_space_group_name_H-M "P B A M"
_symmetry_group_IT_number 55
_symmetry_cell_setting 'orthorhombic'
loop_
_space_group_symop_operation_xyz
x,y,z
-x,-y,z
1/2+x,1/2-y,-z
1/2-x,1/2+y,-z
-x,-y,-z
x,y,-z
1/2-x,1/2+y,z
1/2+x,1/2-y,z
loop_
_atom_site_type_symbol
_atom_site_label
_atom_site_fract_x
_atom_site_fract_y
_atom_site_fract_z
Si Si1 0.000000 0.000000 0.748352
Si Si2 0.841726 0.431304 0.669028
Si Si3 0.132809 0.109139 0.658371
Si Si4 0.158201 0.440574 0.833450
Si Si5 0.984692 0.347364 0.835494
Si Si6 0.857843 0.101320 0.841201
Si Si7 0.991949 0.800935 0.168232
O O1 0.925821 0.038750 0.845901
O O2 0.058100 0.050258 0.651923
O O3 0.856695 0.437434 0.500000
O O4 0.733535 0.417342 0.711729
O O5 0.875244 0.497163 0.744974
O O6 0.904243 0.373268 0.730969
O O7 0.142363 0.137935 0.500000
O O8 0.100627 0.167182 0.761162
O O9 0.257802 0.414943 0.765884
O O10 0.082151 0.384742 0.810759
O O11 0.167705 0.460146 0.000000
O O12 0.002748 0.273597 0.790681
O O13 0.951455 0.352817 0.000000
O O14 0.913834 0.162167 0.771530
O O15 0.830179 0.121713 0.000000
O O16 0.982453 0.812413 0.000000
#
# Coordination Sequence:
#
# PCOD8224252 Si02
#       7
#     4   8   8   8   8   8   8
#     4  10  16  32  54  78 111 148 175 226 275 334
#     4  11  23  38  56  83 113 146 187 231 277 330
#     4  10  21  35  55  83 114 145 183 227 279 332
#     4  10  20  36  57  82 109 142 184 234 282 328
#     4  10  22  39  58  80 111 150 191 230 274 327
#     4   9  17  30  53  83 111 138 178 229 278 330
#     4   9  20  37  57  84 113 146 185 224 274 334
#
# _framework density 18.998391000000002
#
# number of rings (size 3 to 8) (size 9 to 14) (size 15 to 20)
#    0.000    2.154    1.538    1.385    0.000    6.154 
#    0.000    3.077    0.000    0.000    0.000    0.000 
#    0.000    0.000    0.000    0.000    0.000    0.000 
#
# Total GULP energy -644728.283945 kJ/mol
# GULP energy per Si atom -12398.620845 kJ/mol
# Density = 1.895515 g / cm^3
# Si number density = 18.998391 Si / 1000 Ang^3
#
#
#
# Elastic Constant Matrix: (Units=GPa)
#
#
# Indices 1 2 3 4 5 6 
#
# 1 104.9229 54.0721 35.8304 0.0000 0.0000 0.0000
# 2 54.0721 148.8164 48.7869 0.0000 0.0000 0.0000
# 3 35.8304 48.7869 66.0991 0.0000 0.0000 0.0000
# 4 0.0000 0.0000 0.0000 16.0026 0.0000 0.0000
# 5 0.0000 0.0000 0.0000 0.0000 25.7648 0.0000
# 6 0.0000 0.0000 0.0000 0.0000 0.0000 24.2809
#
#
#
# Elastic Compliance Matrix: (Units=1/GPa)
#
#
# Indices 1 2 3 4 5 6 
#
# 1 0.012701 -0.003110 -0.004589 0.000000 0.000000 0.000000
# 2 -0.003110 0.009626 -0.005419 0.000000 0.000000 0.000000
# 3 -0.004589 -0.005419 0.021616 0.000000 0.000000 0.000000
# 4 0.000000 0.000000 0.000000 0.062490 0.000000 0.000000
# 5 0.000000 0.000000 0.000000 0.000000 0.038813 0.000000
# 6 0.000000 0.000000 0.000000 0.000000 0.000000 0.041185
#
#
# Mechanical properties :
#
#
# Convention : Reuss Voigt Hill
#
# Bulk Modulus (GPa) = 56.47673 66.35748 61.41710
# Shear Modulus (GPa) = 22.87599 25.28625 24.08112
#
# Velocity S-wave (km/s) = 3.47378 3.65220 3.56411
# Velocity P-wave (km/s) = 6.77357 7.26557 7.02388
#
# Compressibility (1/GPa) = 0.01770641
#
# Stress axis : x y z
#
# Youngs Moduli (GPa) = 78.73475 103.88103 46.26175
#
# Poissons Ratio (x) = 0.32311 0.21230
# Poissons Ratio (y) = 0.24490 0.25070
# Poissons Ratio (z) = 0.36132 0.56294
#
# Static dielectric constant tensor:
#      x y z
#    x 3.606360 0.000000 0.000000 
#    y 0.000000 3.446080 0.000000 
#    z 0.000000 0.000000 3.226250 
# 
# 
# High freq. dielectric constant tensor:
#      x y z
#    x 1.747290 0.000000 0.000000 
#    y 0.000000 1.736710 0.000000 
#    z 0.000000 0.000000 1.716350 
# 
# From -- ./inp_files/5930.got.cif
#   From: 2010.03.12/outbox.cif.g09.slc.cpg/sg55_3_cif.got.tgz:5930.got - 2010.04.16 15:19:21.
