data_PCOD8224303
_publ_section_title
;
Structure prediction by ZEFSAII (Michael W. Deem and Ramdas Pophale) SiO2 
 PCOD8224303
Probable space group: P B A M
;
_chemical_formula_sum "Si O2"
_cell_formula_units_Z 64
_cell_length_a 23.067698
_cell_length_b 18.488879
_cell_length_c 9.244716
_cell_angle_alpha 90.000000
_cell_angle_beta 90.000000
_cell_angle_gamma 90.000000
_cell_volume 3942.833259
_symmetry_space_group_name_H-M "P B A M"
_symmetry_group_IT_number 55
_symmetry_cell_setting 'orthorhombic'
loop_
_space_group_symop_operation_xyz
x,y,z
-x,-y,z
1/2+x,1/2-y,-z
1/2-x,1/2+y,-z
-x,-y,-z
x,y,-z
1/2-x,1/2+y,z
1/2+x,1/2-y,z
loop_
_atom_site_type_symbol
_atom_site_label
_atom_site_fract_x
_atom_site_fract_y
_atom_site_fract_z
Si Si1 0.547275 0.154199 0.169963
Si Si2 0.457668 0.067771 0.663370
Si Si3 0.428422 0.702923 0.335212
Si Si4 0.520451 0.579485 0.331446
Si Si5 0.378064 0.461058 0.834387
Si Si6 0.839703 0.912076 0.333524
Si Si7 0.756882 0.995000 0.164154
Si Si8 0.128469 0.477857 0.831202
O O1 0.487610 0.133227 0.250151
O O2 0.567708 0.231754 0.224219
O O3 0.597974 0.097510 0.209442
O O4 0.535067 0.156488 0.000000
O O5 0.443824 0.092900 0.500000
O O6 0.500000 0.000000 0.664777
O O7 0.398596 0.044856 0.743142
O O8 0.438208 0.729803 0.500000
O O9 0.475044 0.641964 0.293302
O O10 0.363534 0.669600 0.319279
O O11 0.500000 0.500000 0.279454
O O12 0.534667 0.578903 0.500000
O O13 0.580409 0.597266 0.244305
O O14 0.386566 0.537192 0.749105
O O15 0.308238 0.443769 0.823365
O O16 0.397496 0.469171 0.000000
O O17 0.837175 0.936071 0.500000
O O18 0.776080 0.924942 0.260923
O O19 0.695877 0.028324 0.215044
O O20 0.751640 0.967054 0.000000
O O21 0.120234 0.494663 0.000000
#
# Coordination Sequence:
#
# PCOD8224303 Si02
#       8
#     8   8   8   8   8   8   8   8
#     4  10  20  32  49  72  98 129 162 196 243 298
#     4   9  17  30  49  73  98 121 152 195 239 284
#     4  10  20  32  47  67  98 132 160 199 246 293
#     4  10  17  29  46  65  90 125 161 194 240 286
#     4   9  17  27  42  67  95 120 151 197 236 269
#     4   9  16  29  46  66  93 125 159 196 240 284
#     4   8  16  29  46  70  95 118 149 194 239 276
#     4   9  17  32  52  73  98 127 160 200 245 290
#
# _framework density 16.231981999999999
#
# number of rings (size 3 to 8) (size 9 to 14) (size 15 to 20)
#    0.750    2.000    1.250    1.125    0.000    4.250 
#    0.000    0.000    0.000    1.500    0.000    8.750 
#    0.000    0.000    0.000    0.000    0.000    0.000 
#
# Total GULP energy -792866.437578 kJ/mol
# GULP energy per Si atom -12388.538087 kJ/mol
# Density = 1.619504 g / cm^3
# Si number density = 16.231982 Si / 1000 Ang^3
#
#
#
# Elastic Constant Matrix: (Units=GPa)
#
#
# Indices 1 2 3 4 5 6 
#
# 1 106.1648 38.9303 49.1926 0.0000 0.0000 0.0000
# 2 38.9303 65.1030 41.7042 0.0000 0.0000 0.0000
# 3 49.1926 41.7042 88.3929 0.0000 0.0000 0.0000
# 4 0.0000 0.0000 0.0000 25.6351 0.0000 0.0000
# 5 0.0000 0.0000 0.0000 0.0000 24.8279 0.0000
# 6 0.0000 0.0000 0.0000 0.0000 0.0000 16.5417
#
#
#
# Elastic Compliance Matrix: (Units=1/GPa)
#
#
# Indices 1 2 3 4 5 6 
#
# 1 0.013634 -0.004718 -0.005361 0.000000 0.000000 0.000000
# 2 -0.004718 0.023646 -0.008531 0.000000 0.000000 0.000000
# 3 -0.005361 -0.008531 0.018322 0.000000 0.000000 0.000000
# 4 0.000000 0.000000 0.000000 0.039009 0.000000 0.000000
# 5 0.000000 0.000000 0.000000 0.000000 0.040277 0.000000
# 6 0.000000 0.000000 0.000000 0.000000 0.000000 0.060453
#
#
# Mechanical properties :
#
#
# Convention : Reuss Voigt Hill
#
# Bulk Modulus (GPa) = 54.40354 57.70165 56.05259
# Shear Modulus (GPa) = 20.94775 22.05650 21.50213
#
# Velocity S-wave (km/s) = 3.59628 3.69023 3.64356
# Velocity P-wave (km/s) = 7.12975 7.33365 7.23242
#
# Compressibility (1/GPa) = 0.01838116
#
# Stress axis : x y z
#
# Youngs Moduli (GPa) = 73.34745 42.28989 54.58020
#
# Poissons Ratio (x) = 0.19953 0.29263
# Poissons Ratio (y) = 0.34607 0.46560
# Poissons Ratio (z) = 0.39324 0.36076
#
# Static dielectric constant tensor:
#      x y z
#    x 3.127840 0.000000 0.000000 
#    y 0.000000 2.701440 0.000000 
#    z 0.000000 0.000000 3.141650 
# 
# 
# High freq. dielectric constant tensor:
#      x y z
#    x 1.618810 0.000000 0.000000 
#    y 0.000000 1.576760 0.000000 
#    z 0.000000 0.000000 1.636360 
# 
# From -- ./inp_files/10297.got.cif
#   From: 2010.03.12/outbox.cif.g09.slc.cpg/sg55_6_cif.got.tgz:10297.got - 2010.04.16 15:19:21.
