data_PCOD8224171
_publ_section_title
;
Structure prediction by ZEFSAII (Michael W. Deem and Ramdas Pophale) SiO2 
 PCOD8224171
Probable space group: P C C A
;
_chemical_formula_sum "Si O2"
_cell_formula_units_Z 48
_cell_length_a 9.687446
_cell_length_b 14.431214
_cell_length_c 14.932992
_cell_angle_alpha 90.000000
_cell_angle_beta 90.000000
_cell_angle_gamma 90.000000
_cell_volume 2087.656269
_symmetry_space_group_name_H-M "P C C A"
_symmetry_group_IT_number 54
_symmetry_cell_setting 'orthorhombic'
loop_
_space_group_symop_operation_xyz
x,y,z
1/2-x,-y,z
1/2+x,-y,1/2-z
-x,y,1/2-z
-x,-y,-z
1/2+x,y,-z
1/2-x,y,1/2+z
x,-y,1/2+z
loop_
_atom_site_type_symbol
_atom_site_label
_atom_site_fract_x
_atom_site_fract_y
_atom_site_fract_z
Si Si1 0.911228 0.511513 0.162792
Si Si2 0.129919 0.066104 0.486907
Si Si3 0.221187 0.205080 0.644214
Si Si4 0.962639 0.292685 0.596193
Si Si5 0.299995 0.193797 0.836543
Si Si6 0.988457 0.680415 0.898540
O O1 0.750000 0.500000 0.186950
O O2 0.912546 0.602515 0.101924
O O3 0.000000 0.531668 0.250000
O O4 0.990904 0.430109 0.108996
O O5 0.178103 0.126242 0.572931
O O6 0.106912 0.124959 0.396389
O O7 0.250000 0.000000 0.458119
O O8 0.000000 0.000000 0.500000
O O9 0.266171 0.155560 0.737272
O O10 0.334294 0.281297 0.616016
O O11 0.085126 0.266532 0.664861
O O12 0.837861 0.220718 0.609543
O O13 0.028072 0.281552 0.497121
O O14 0.401015 0.282204 0.825696
#
# Coordination Sequence:
#
# PCOD8224171 Si02
#       6
#     8   8   8   8   8   8
#     4  12  27  44  68 110 151 196 257 309 359 432
#     4  12  26  48  78 107 149 186 238 312 374 447
#     4  12  26  46  78 108 145 197 242 302 373 446
#     4  12  24  46  72 104 150 197 250 302 364 437
#     4  12  24  48  74 108 145 193 246 300 372 449
#     4  12  24  46  72 104 150 199 249 303 364 439
#
# _framework density 22.992290000000001
#
# number of rings (size 3 to 8) (size 9 to 14) (size 15 to 20)
#    0.000    0.000    5.000    5.500    2.333    0.667 
#    0.000    1.667    0.000    0.000    0.000    0.000 
#    0.000    0.000    0.000    0.000    0.000    0.000 
#
# Total GULP energy -594901.691099 kJ/mol
# GULP energy per Si atom -12393.785231 kJ/mol
# Density = 2.293996 g / cm^3
# Si number density = 22.992290 Si / 1000 Ang^3
#
#
#
# Elastic Constant Matrix: (Units=GPa)
#
#
# Indices 1 2 3 4 5 6 
#
# 1 144.0705 34.9005 23.9044 0.0000 0.0000 0.0000
# 2 34.9005 92.7159 38.6575 0.0000 0.0000 0.0000
# 3 23.9044 38.6575 120.5596 0.0000 0.0000 0.0000
# 4 0.0000 0.0000 0.0000 19.5192 0.0000 0.0000
# 5 0.0000 0.0000 0.0000 0.0000 33.9733 0.0000
# 6 0.0000 0.0000 0.0000 0.0000 0.0000 52.5462
#
#
#
# Elastic Compliance Matrix: (Units=1/GPa)
#
#
# Indices 1 2 3 4 5 6 
#
# 1 0.007687 -0.002606 -0.000688 0.000000 0.000000 0.000000
# 2 -0.002606 0.013334 -0.003759 0.000000 0.000000 0.000000
# 3 -0.000688 -0.003759 0.009636 0.000000 0.000000 0.000000
# 4 0.000000 0.000000 0.000000 0.051232 0.000000 0.000000
# 5 0.000000 0.000000 0.000000 0.000000 0.029435 0.000000
# 6 0.000000 0.000000 0.000000 0.000000 0.000000 0.019031
#
#
# Mechanical properties :
#
#
# Convention : Reuss Voigt Hill
#
# Bulk Modulus (GPa) = 60.42317 61.36343 60.89330
# Shear Modulus (GPa) = 33.33823 38.53331 35.93577
#
# Velocity S-wave (km/s) = 3.81198 4.09825 3.95770
# Velocity P-wave (km/s) = 6.76105 7.01005 6.88667
#
# Compressibility (1/GPa) = 0.01654994
#
# Stress axis : x y z
#
# Youngs Moduli (GPa) = 130.09552 74.99650 103.77345
#
# Poissons Ratio (x) = 0.19547 0.07143
# Poissons Ratio (y) = 0.33909 0.39006
# Poissons Ratio (z) = 0.08955 0.28189
#
# Static dielectric constant tensor:
#      x y z
#    x 4.265550 0.000000 0.000000 
#    y 0.000000 4.291090 0.000000 
#    z 0.000000 0.000000 4.098400 
# 
# 
# High freq. dielectric constant tensor:
#      x y z
#    x 1.928470 0.000000 0.000000 
#    y 0.000000 1.907250 0.000000 
#    z 0.000000 0.000000 1.911530 
# 
# From -- ./inp_files/11738.got.cif
#   From: 2010.03.12/outbox.cif.g09.slc.cpg/sg54_6_cif.got.tgz:11738.got - 2010.04.16 15:00:50.
