data_PCOD8224480
_publ_section_title
;
Structure prediction by ZEFSAII (Michael W. Deem and Ramdas Pophale) SiO2 
 PCOD8224480
Probable space group: P B A M
;
_chemical_formula_sum "Si O2"
_cell_formula_units_Z 56
_cell_length_a 23.305013
_cell_length_b 13.389783
_cell_length_c 10.145342
_cell_angle_alpha 90.000000
_cell_angle_beta 90.000000
_cell_angle_gamma 90.000000
_cell_volume 3165.844504
_symmetry_space_group_name_H-M "P B A M"
_symmetry_group_IT_number 55
_symmetry_cell_setting 'orthorhombic'
loop_
_space_group_symop_operation_xyz
x,y,z
-x,-y,z
1/2+x,1/2-y,-z
1/2-x,1/2+y,-z
-x,-y,-z
x,y,-z
1/2-x,1/2+y,z
1/2+x,1/2-y,z
loop_
_atom_site_type_symbol
_atom_site_label
_atom_site_fract_x
_atom_site_fract_y
_atom_site_fract_z
Si Si1 0.362482 0.207878 0.853263
Si Si2 0.546332 0.726580 0.656435
Si Si3 0.701322 0.265935 0.349360
Si Si4 0.744371 0.913549 0.853345
Si Si5 0.787287 0.113632 0.241072
Si Si6 0.101834 0.975481 0.349185
Si Si7 0.922328 0.809331 0.346312
O O1 0.411841 0.202812 0.741956
O O2 0.322954 0.110395 0.829957
O O3 0.321469 0.305373 0.845291
O O4 0.389876 0.206974 0.000000
O O5 0.557593 0.745839 0.500000
O O6 0.560233 0.612809 0.699721
O O7 0.480554 0.745355 0.703005
O O8 0.708125 0.303169 0.500000
O O9 0.718485 0.356638 0.255247
O O10 0.739266 0.167733 0.329527
O O11 0.634049 0.241692 0.319684
O O12 0.754381 0.032461 0.847747
O O13 0.762084 0.876440 0.000000
O O14 0.832000 0.055181 0.332487
O O15 0.089777 0.993317 0.500000
O O16 0.086954 0.081015 0.278194
O O17 0.932524 0.825932 0.500000
#
# Coordination Sequence:
#
# PCOD8224480 Si02
#       7
#     8   8   8   8   8   8   8
#     4   9  19  33  49  71  98 127 163 207 250 291
#     4   9  17  29  48  70  95 129 167 200 242 298
#     4  10  20  32  50  78 105 132 167 209 255 300
#     4  10  20  34  52  72 100 137 169 204 252 306
#     4  10  18  30  50  72 101 132 165 201 249 300
#     4   9  15  25  44  70  96 126 161 197 241 292
#     4   9  16  28  46  70 101 130 159 202 249 293
#
# _framework density 17.688803
#
# number of rings (size 3 to 8) (size 9 to 14) (size 15 to 20)
#    0.000    2.571    1.429    1.286    0.000    6.286 
#    0.000    0.714    0.000    2.571    0.000    5.000 
#    0.000    0.000    0.000    0.000    0.000    0.000 
#
# Total GULP energy -693826.481954 kJ/mol
# GULP energy per Si atom -12389.758606 kJ/mol
# Density = 1.764854 g / cm^3
# Si number density = 17.688803 Si / 1000 Ang^3
#
#
#
# Elastic Constant Matrix: (Units=GPa)
#
#
# Indices 1 2 3 4 5 6 
#
# 1 128.3721 23.4405 44.9836 0.0000 0.0000 0.0000
# 2 23.4405 34.4760 10.4982 0.0000 0.0000 0.0000
# 3 44.9836 10.4982 72.5219 0.0000 0.0000 0.0000
# 4 0.0000 0.0000 0.0000 17.2685 0.0000 0.0000
# 5 0.0000 0.0000 0.0000 0.0000 16.3154 0.0000
# 6 0.0000 0.0000 0.0000 0.0000 0.0000 23.7758
#
#
#
# Elastic Compliance Matrix: (Units=1/GPa)
#
#
# Indices 1 2 3 4 5 6 
#
# 1 0.010896 -0.005597 -0.005949 0.000000 0.000000 0.000000
# 2 -0.005597 0.033218 -0.001337 0.000000 0.000000 0.000000
# 3 -0.005949 -0.001337 0.017672 0.000000 0.000000 0.000000
# 4 0.000000 0.000000 0.000000 0.057909 0.000000 0.000000
# 5 0.000000 0.000000 0.000000 0.000000 0.061292 0.000000
# 6 0.000000 0.000000 0.000000 0.000000 0.000000 0.042060
#
#
# Mechanical properties :
#
#
# Convention : Reuss Voigt Hill
#
# Bulk Modulus (GPa) = 27.76095 43.69051 35.72573
# Shear Modulus (GPa) = 19.17035 21.90178 20.53606
#
# Velocity S-wave (km/s) = 3.29562 3.52258 3.41099
# Velocity P-wave (km/s) = 5.49633 6.42635 5.97945
#
# Compressibility (1/GPa) = 0.03602182
#
# Stress axis : x y z
#
# Youngs Moduli (GPa) = 91.77399 30.10387 56.58617
#
# Poissons Ratio (x) = 0.16850 0.33660
# Poissons Ratio (y) = 0.51367 0.07565
# Poissons Ratio (z) = 0.54592 0.04024
#
# Static dielectric constant tensor:
#      x y z
#    x 3.500940 0.000000 0.000000 
#    y 0.000000 3.203660 0.000000 
#    z 0.000000 0.000000 3.081960 
# 
# 
# High freq. dielectric constant tensor:
#      x y z
#    x 1.687590 0.000000 0.000000 
#    y 0.000000 1.654600 0.000000 
#    z 0.000000 0.000000 1.660750 
# 
# From -- ./inp_files/15708.got.cif
#   From: 2010.03.12/outbox.cif.g09.slc.cpg/sg55_8_cif.got.tgz:15708.got - 2010.04.16 15:19:21.
