data_PCOD8224927
_publ_section_title
;
Structure prediction by ZEFSAII (Michael W. Deem and Ramdas Pophale) SiO2 
 PCOD8224927
Probable space group: P B A M
;
_chemical_formula_sum "Si O2"
_cell_formula_units_Z 48
_cell_length_a 16.879276
_cell_length_b 19.500488
_cell_length_c 7.904587
_cell_angle_alpha 90.000000
_cell_angle_beta 90.000000
_cell_angle_gamma 90.000000
_cell_volume 2601.827371
_symmetry_space_group_name_H-M "P B A M"
_symmetry_group_IT_number 55
_symmetry_cell_setting 'orthorhombic'
loop_
_space_group_symop_operation_xyz
x,y,z
-x,-y,z
1/2+x,1/2-y,-z
1/2-x,1/2+y,-z
-x,-y,-z
x,y,-z
1/2-x,1/2+y,z
1/2+x,1/2-y,z
loop_
_atom_site_type_symbol
_atom_site_label
_atom_site_fract_x
_atom_site_fract_y
_atom_site_fract_z
Si Si1 0.586677 0.030084 0.314529
Si Si2 0.861828 0.394048 0.811628
Si Si3 0.626091 0.482340 0.500000
Si Si4 0.966596 0.815793 0.189093
Si Si5 0.685894 0.402576 0.194192
Si Si6 0.017486 0.332363 0.306882
Si Si7 0.028704 0.890870 0.500000
O O1 0.626758 0.034969 0.500000
O O2 0.575148 0.106660 0.237034
O O3 0.500000 0.000000 0.335164
O O4 0.637675 0.977632 0.202084
O O5 0.772432 0.369870 0.770253
O O6 0.925115 0.355899 0.693611
O O7 0.886024 0.373218 0.000000
O O8 0.672990 0.464233 0.327644
O O9 0.608811 0.563912 0.500000
O O10 0.544861 0.441263 0.500000
O O11 0.965985 0.733713 0.193866
O O12 0.027311 0.844719 0.329836
O O13 0.878030 0.842815 0.226064
O O14 0.993708 0.838671 0.000000
O O15 0.680885 0.430465 0.000000
O O16 0.038957 0.315287 0.500000
#
# Coordination Sequence:
#
# PCOD8224927 Si02
#       7
#     8   8   4   8   8   8   4
#     4   8  16  29  46  71  99 128 166 213 254 299
#     4  10  19  31  50  76 104 135 175 216 263 317
#     4   9  18  32  57  73 102 135 164 217 260 294
#     4  10  19  34  55  77 106 139 174 217 260 306
#     4   9  20  34  52  80 105 134 177 216 259 317
#     4  10  19  32  51  76 105 136 177 218 258 314
#     4   9  18  34  51  81 100 127 178 211 250 309
#
# _framework density 18.448571999999999
#
# number of rings (size 3 to 8) (size 9 to 14) (size 15 to 20)
#    0.000    2.667    0.833    2.000    2.333    4.333 
#    0.000    3.333    3.667    0.000    0.000    0.000 
#    0.000    0.000    0.000    0.000    0.000    0.000 
#
# Total GULP energy -594788.784818 kJ/mol
# GULP energy per Si atom -12391.433017 kJ/mol
# Density = 1.840658 g / cm^3
# Si number density = 18.448572 Si / 1000 Ang^3
#
#
#
# Elastic Constant Matrix: (Units=GPa)
#
#
# Indices 1 2 3 4 5 6 
#
# 1 57.3600 29.1572 25.1793 0.0000 0.0000 0.0000
# 2 29.1572 97.7461 31.6625 0.0000 0.0000 0.0000
# 3 25.1793 31.6625 89.1367 0.0000 0.0000 0.0000
# 4 0.0000 0.0000 0.0000 22.5155 0.0000 0.0000
# 5 0.0000 0.0000 0.0000 0.0000 22.3929 0.0000
# 6 0.0000 0.0000 0.0000 0.0000 0.0000 17.6088
#
#
#
# Elastic Compliance Matrix: (Units=1/GPa)
#
#
# Indices 1 2 3 4 5 6 
#
# 1 0.021966 -0.005133 -0.004382 0.000000 0.000000 0.000000
# 2 -0.005133 0.012760 -0.003083 0.000000 0.000000 0.000000
# 3 -0.004382 -0.003083 0.013551 0.000000 0.000000 0.000000
# 4 0.000000 0.000000 0.000000 0.044414 0.000000 0.000000
# 5 0.000000 0.000000 0.000000 0.000000 0.044657 0.000000
# 6 0.000000 0.000000 0.000000 0.000000 0.000000 0.056790
#
#
# Mechanical properties :
#
#
# Convention : Reuss Voigt Hill
#
# Bulk Modulus (GPa) = 43.32140 46.24897 44.78518
# Shear Modulus (GPa) = 22.02369 23.05303 22.53836
#
# Velocity S-wave (km/s) = 3.45887 3.53878 3.49905
# Velocity P-wave (km/s) = 6.28371 6.46690 6.37596
#
# Compressibility (1/GPa) = 0.02308328
#
# Stress axis : x y z
#
# Youngs Moduli (GPa) = 45.52398 78.36799 73.79285
#
# Poissons Ratio (x) = 0.40227 0.32334
# Poissons Ratio (y) = 0.23368 0.22748
# Poissons Ratio (z) = 0.19947 0.24158
#
# Static dielectric constant tensor:
#      x y z
#    x 3.179970 0.000000 0.000000 
#    y 0.000000 3.487130 0.000000 
#    z 0.000000 0.000000 3.492530 
# 
# 
# High freq. dielectric constant tensor:
#      x y z
#    x 1.682440 0.000000 0.000000 
#    y 0.000000 1.697050 0.000000 
#    z 0.000000 0.000000 1.726030 
# 
# From -- ./inp_files/5713.got.cif
#   From: 2010.03.12/outbox.cif.g09.slc.cpg/sg55_3_cif.got.tgz:5713.got - 2010.04.16 15:19:21.
