data_PCOD8224429
_publ_section_title
;
Structure prediction by ZEFSAII (Michael W. Deem and Ramdas Pophale) SiO2 
 PCOD8224429
Probable space group: P B A M
;
_chemical_formula_sum "Si O2"
_cell_formula_units_Z 52
_cell_length_a 15.721111
_cell_length_b 24.266868
_cell_length_c 8.070071
_cell_angle_alpha 90.000000
_cell_angle_beta 90.000000
_cell_angle_gamma 90.000000
_cell_volume 3078.749239
_symmetry_space_group_name_H-M "P B A M"
_symmetry_group_IT_number 55
_symmetry_cell_setting 'orthorhombic'
loop_
_space_group_symop_operation_xyz
x,y,z
-x,-y,z
1/2+x,1/2-y,-z
1/2-x,1/2+y,-z
-x,-y,-z
x,y,-z
1/2-x,1/2+y,z
1/2+x,1/2-y,z
loop_
_atom_site_type_symbol
_atom_site_label
_atom_site_fract_x
_atom_site_fract_y
_atom_site_fract_z
Si Si1 0.833568 0.658491 0.813570
Si Si2 0.609954 0.051368 0.692788
Si Si3 0.735111 0.299925 0.500000
Si Si4 0.151057 0.790066 0.820611
Si Si5 0.410912 0.787252 0.500000
Si Si6 0.084927 0.570744 0.693076
Si Si7 0.698118 0.835089 0.820789
Si Si8 0.911711 0.231577 0.500000
O O1 0.828567 0.591931 0.797428
O O2 0.742923 0.685424 0.778770
O O3 0.897351 0.678776 0.669597
O O4 0.864197 0.674775 0.000000
O O5 0.626102 0.061643 0.500000
O O6 0.513485 0.066470 0.740121
O O7 0.629466 0.987828 0.736868
O O8 0.648482 0.266054 0.500000
O O9 0.735100 0.337340 0.332659
O O10 0.820932 0.263439 0.500000
O O11 0.152977 0.724058 0.825793
O O12 0.087730 0.805928 0.668231
O O13 0.118742 0.812485 0.000000
O O14 0.509765 0.772606 0.500000
O O15 0.096628 0.584651 0.500000
O O16 0.126496 0.618512 0.801068
O O17 0.743876 0.844483 0.000000
#
# Coordination Sequence:
#
# PCOD8224429 Si02
#       8
#     8   8   4   8   4   8   8   4
#     4  11  21  33  51  72 101 137 174 212 253 298
#     4   9  19  31  47  68 100 137 173 210 245 296
#     4  10  20  36  47  69 105 128 165 212 250 302
#     4   9  19  34  48  71  99 128 168 212 252 298
#     4  12  22  34  53  74 102 138 169 212 259 308
#     4   9  18  32  46  69 100 136 175 209 245 296
#     4  10  18  29  49  66  89 130 165 201 247 287
#     4  10  20  32  52  69  96 136 164 201 257 303
#
# _framework density 16.889976000000001
#
# number of rings (size 3 to 8) (size 9 to 14) (size 15 to 20)
#    0.000    2.154    4.615    0.923    4.308    1.846 
#    0.000    1.538    0.000    0.000    0.000    0.000 
#    0.000    2.462    0.000    4.769    0.000    0.154 
#
# Total GULP energy -644196.759101 kJ/mol
# GULP energy per Si atom -12388.399213 kJ/mol
# Density = 1.685153 g / cm^3
# Si number density = 16.889976 Si / 1000 Ang^3
#
#
#
# Elastic Constant Matrix: (Units=GPa)
#
#
# Indices 1 2 3 4 5 6 
#
# 1 27.1346 28.4112 14.8915 0.0000 0.0000 0.0000
# 2 28.4112 72.9561 22.5364 0.0000 0.0000 0.0000
# 3 14.8915 22.5364 132.5994 0.0000 0.0000 0.0000
# 4 0.0000 0.0000 0.0000 -0.1786 0.0000 0.0000
# 5 0.0000 0.0000 0.0000 0.0000 13.3792 0.0000
# 6 0.0000 0.0000 0.0000 0.0000 0.0000 17.3486
#
#
#
# Elastic Compliance Matrix: (Units=1/GPa)
#
#
# Indices 1 2 3 4 5 6 
#
# 1 0.063400 -0.023737 -0.003086 0.000000 0.000000 0.000000
# 2 -0.023737 0.023353 -0.001303 0.000000 0.000000 0.000000
# 3 -0.003086 -0.001303 0.008110 0.000000 0.000000 0.000000
# 4 0.000000 0.000000 0.000000 -5.599751 0.000000 0.000000
# 5 0.000000 0.000000 0.000000 0.000000 0.074743 0.000000
# 6 0.000000 0.000000 0.000000 0.000000 0.000000 0.057642
#
#
# Mechanical properties :
#
#
# Convention : Reuss Voigt Hill
#
# Bulk Modulus (GPa) = 25.89917 40.48536 33.19226
# Shear Modulus (GPa) = -0.94279 17.23325 8.14523
#
# Velocity S-wave (km/s) = -0.74794 3.19772 2.19841
# Velocity P-wave (km/s) = 3.82380 6.13644 5.11260
#
# Compressibility (1/GPa) = 0.03861127
#
# Stress axis : x y z
#
# Youngs Moduli (GPa) = 15.77284 42.82070 123.31091
#
# Poissons Ratio (x) = 1.01642 0.38052
# Poissons Ratio (y) = 0.37439 0.16072
# Poissons Ratio (z) = 0.04867 0.05581
#
# Static dielectric constant tensor:
#      x y z
#    x 2.715390 0.000000 0.000000 
#    y 0.000000 3.141360 0.000000 
#    z 0.000000 0.000000 4.208800 
# 
# 
# High freq. dielectric constant tensor:
#      x y z
#    x 1.592250 0.000000 0.000000 
#    y 0.000000 1.629340 0.000000 
#    z 0.000000 0.000000 1.683330 
# 
# From -- ./inp_files/5959.got.cif
#   From: 2010.03.12/outbox.cif.g09.slc.cpg/sg55_3_cif.got.tgz:5959.got - 2010.04.16 15:19:21.
