data_PCOD8224242
_publ_section_title
;
Structure prediction by ZEFSAII (Michael W. Deem and Ramdas Pophale) SiO2 
 PCOD8224242
Probable space group: P B A M
;
_chemical_formula_sum "Si O2"
_cell_formula_units_Z 40
_cell_length_a 19.812469
_cell_length_b 8.446291
_cell_length_c 13.341273
_cell_angle_alpha 90.000000
_cell_angle_beta 90.000000
_cell_angle_gamma 90.000000
_cell_volume 2232.553687
_symmetry_space_group_name_H-M "P B A M"
_symmetry_group_IT_number 55
_symmetry_cell_setting 'orthorhombic'
loop_
_space_group_symop_operation_xyz
x,y,z
-x,-y,z
1/2+x,1/2-y,-z
1/2-x,1/2+y,-z
-x,-y,-z
x,y,-z
1/2-x,1/2+y,z
1/2+x,1/2-y,z
loop_
_atom_site_type_symbol
_atom_site_label
_atom_site_fract_x
_atom_site_fract_y
_atom_site_fract_z
Si Si1 0.275950 0.940647 0.678627
Si Si2 0.149631 0.084167 0.000000
Si Si3 0.845460 0.858402 0.390568
Si Si4 0.079570 0.005409 0.794772
Si Si5 0.722406 0.741478 0.000000
Si Si6 0.323882 0.228965 0.208165
O O1 0.218284 0.023797 0.612897
O O2 0.326098 0.074135 0.722607
O O3 0.320670 0.823188 0.612401
O O4 0.239903 0.842028 0.766921
O O5 0.104428 0.080478 0.100271
O O6 0.196059 0.241023 0.000000
O O7 0.204005 0.943271 0.000000
O O8 0.880109 0.883610 0.500000
O O9 0.896879 0.888773 0.299511
O O10 0.106734 0.826547 0.780473
O O11 0.000000 0.000000 0.796260
O O12 0.687993 0.826965 0.094898
#
# Coordination Sequence:
#
# PCOD8224242 Si02
#       6
#     8   4   8   8   4   8
#     4   9  17  31  49  75 101 123 159 210 267 304
#     4  10  19  32  54  78 103 130 160 206 256 298
#     4  10  19  32  53  76 100 129 163 211 259 301
#     4  10  21  35  50  71 103 142 176 200 235 297
#     4  10  16  26  48  78  98 120 158 202 252 296
#     4   9  17  29  49  74 102 130 160 206 253 298
#
# _framework density 17.916702999999998
#
# number of rings (size 3 to 8) (size 9 to 14) (size 15 to 20)
#    0.000    2.400    0.000    5.700    0.000    0.400 
#    0.000    2.000    0.000    1.200    0.000    9.800 
#    0.000    0.000    0.000    0.000    0.000    0.000 
#
# Total GULP energy -495853.809759 kJ/mol
# GULP energy per Si atom -12396.345244 kJ/mol
# Density = 1.787592 g / cm^3
# Si number density = 17.916703 Si / 1000 Ang^3
#
#
#
# Elastic Constant Matrix: (Units=GPa)
#
#
# Indices 1 2 3 4 5 6 
#
# 1 115.1619 39.7191 50.5558 0.0000 0.0000 0.0000
# 2 39.7191 80.0376 38.6430 0.0000 0.0000 0.0000
# 3 50.5558 38.6430 148.1862 0.0000 0.0000 0.0000
# 4 0.0000 0.0000 0.0000 14.8266 0.0000 0.0000
# 5 0.0000 0.0000 0.0000 0.0000 12.4120 0.0000
# 6 0.0000 0.0000 0.0000 0.0000 0.0000 19.5524
#
#
#
# Elastic Compliance Matrix: (Units=1/GPa)
#
#
# Indices 1 2 3 4 5 6 
#
# 1 0.011383 -0.004318 -0.002758 0.000000 0.000000 0.000000
# 2 -0.004318 0.015931 -0.002681 0.000000 0.000000 0.000000
# 3 -0.002758 -0.002681 0.008388 0.000000 0.000000 0.000000
# 4 0.000000 0.000000 0.000000 0.067446 0.000000 0.000000
# 5 0.000000 0.000000 0.000000 0.000000 0.080567 0.000000
# 6 0.000000 0.000000 0.000000 0.000000 0.000000 0.051145
#
#
# Mechanical properties :
#
#
# Convention : Reuss Voigt Hill
#
# Bulk Modulus (GPa) = 61.76823 66.80238 64.28530
# Shear Modulus (GPa) = 19.24771 23.65603 21.45187
#
# Velocity S-wave (km/s) = 3.28119 3.63758 3.46397
# Velocity P-wave (km/s) = 6.99321 7.41678 7.20811
#
# Compressibility (1/GPa) = 0.01618955
#
# Stress axis : x y z
#
# Youngs Moduli (GPa) = 87.84931 62.76915 119.21329
#
# Poissons Ratio (x) = 0.27101 0.32874
# Poissons Ratio (y) = 0.37929 0.31967
# Poissons Ratio (z) = 0.24225 0.16832
#
# Static dielectric constant tensor:
#      x y z
#    x 2.945210 0.000000 0.000000 
#    y 0.000000 3.365900 0.000000 
#    z 0.000000 0.000000 3.454700 
# 
# 
# High freq. dielectric constant tensor:
#      x y z
#    x 1.649280 0.000000 0.000000 
#    y 0.000000 1.689330 0.000000 
#    z 0.000000 0.000000 1.709320 
# 
# From -- ./inp_files/12072.got.cif
#   From: 2010.03.12/outbox.cif.g09.slc.cpg/sg55_7_cif.got.tgz:12072.got - 2010.04.16 15:19:21.
