data_PCOD8224540
_publ_section_title
;
Structure prediction by ZEFSAII (Michael W. Deem and Ramdas Pophale) SiO2 
 PCOD8224540
Probable space group: P B A M
;
_chemical_formula_sum "Si O2"
_cell_formula_units_Z 64
_cell_length_a 33.240491
_cell_length_b 11.751272
_cell_length_c 9.320790
_cell_angle_alpha 90.000000
_cell_angle_beta 90.000000
_cell_angle_gamma 90.000000
_cell_volume 3640.868825
_symmetry_space_group_name_H-M "P B A M"
_symmetry_group_IT_number 55
_symmetry_cell_setting 'orthorhombic'
loop_
_space_group_symop_operation_xyz
x,y,z
-x,-y,z
1/2+x,1/2-y,-z
1/2-x,1/2+y,-z
-x,-y,-z
x,y,-z
1/2-x,1/2+y,z
1/2+x,1/2-y,z
loop_
_atom_site_type_symbol
_atom_site_label
_atom_site_fract_x
_atom_site_fract_y
_atom_site_fract_z
Si Si1 0.872720 0.813774 0.669982
Si Si2 0.817569 0.647463 0.833670
Si Si3 0.332611 0.452028 0.665450
Si Si4 0.448272 0.612987 0.834719
Si Si5 0.772248 0.187009 0.833290
Si Si6 0.668856 0.886397 0.834600
Si Si7 0.460957 0.352747 0.164945
Si Si8 0.892843 0.251103 0.333259
O O1 0.875964 0.801707 0.500000
O O2 0.851287 0.703923 0.735311
O O3 0.847461 0.924717 0.716293
O O4 0.917425 0.820760 0.733569
O O5 0.774185 0.696479 0.787447
O O6 0.817487 0.513609 0.802232
O O7 0.826882 0.673486 0.000000
O O8 0.320514 0.451770 0.500000
O O9 0.292970 0.418759 0.753176
O O10 0.368214 0.363719 0.697221
O O11 0.491825 0.669978 0.811471
O O12 0.450130 0.481168 0.789704
O O13 0.434847 0.624658 0.000000
O O14 0.793775 0.305272 0.791993
O O15 0.775681 0.158245 0.000000
O O16 0.629937 0.856954 0.739495
O O17 0.657020 0.868266 0.000000
O O18 0.436687 0.264182 0.263274
O O19 0.449035 0.332491 0.000000
O O20 0.898044 0.277762 0.500000
#
# Coordination Sequence:
#
# PCOD8224540 Si02
#       8
#     8   8   8   8   8   8   8   8
#     4  11  22  35  51  76 110 145 176 212 261 317
#     4  10  22  37  55  77 102 136 178 223 268 313
#     4   9  19  33  48  73 107 138 170 208 255 311
#     4   9  18  32  51  77 110 142 175 213 258 313
#     4   9  19  34  56  79  99 129 172 222 264 306
#     4   9  19  36  53  75 104 134 174 220 263 310
#     4   9  17  30  51  80 109 139 173 213 260 310
#     4  10  18  31  52  77 106 139 173 210 256 310
#
# _framework density 17.578220999999999
#
# number of rings (size 3 to 8) (size 9 to 14) (size 15 to 20)
#    0.000    2.500    1.250    1.500    1.750    3.000 
#    0.000    1.250    0.000    0.750    0.000    5.250 
#    0.000    0.000    0.000    0.000    0.000    0.000 
#
# Total GULP energy -793767.534136 kJ/mol
# GULP energy per Si atom -12402.617721 kJ/mol
# Density = 1.753821 g / cm^3
# Si number density = 17.578221 Si / 1000 Ang^3
#
#
#
# Elastic Constant Matrix: (Units=GPa)
#
#
# Indices 1 2 3 4 5 6 
#
# 1 118.1529 43.8371 60.9322 0.0000 0.0000 0.0000
# 2 43.8371 72.6275 38.5431 0.0000 0.0000 0.0000
# 3 60.9322 38.5431 77.5556 0.0000 0.0000 0.0000
# 4 0.0000 0.0000 0.0000 24.9432 0.0000 0.0000
# 5 0.0000 0.0000 0.0000 0.0000 20.2805 0.0000
# 6 0.0000 0.0000 0.0000 0.0000 0.0000 25.7553
#
#
#
# Elastic Compliance Matrix: (Units=1/GPa)
#
#
# Indices 1 2 3 4 5 6 
#
# 1 0.014960 -0.003792 -0.009869 0.000000 0.000000 0.000000
# 2 -0.003792 0.019663 -0.006792 0.000000 0.000000 0.000000
# 3 -0.009869 -0.006792 0.024023 0.000000 0.000000 0.000000
# 4 0.000000 0.000000 0.000000 0.040091 0.000000 0.000000
# 5 0.000000 0.000000 0.000000 0.000000 0.049308 0.000000
# 6 0.000000 0.000000 0.000000 0.000000 0.000000 0.038827
#
#
# Mechanical properties :
#
#
# Convention : Reuss Voigt Hill
#
# Bulk Modulus (GPa) = 56.37357 61.66231 59.01794
# Shear Modulus (GPa) = 21.39570 22.53072 21.96321
#
# Velocity S-wave (km/s) = 3.49258 3.58402 3.53860
# Velocity P-wave (km/s) = 6.95729 7.23063 7.09528
#
# Compressibility (1/GPa) = 0.01773881
#
# Stress axis : x y z
#
# Youngs Moduli (GPa) = 66.84469 50.85815 41.62672
#
# Poissons Ratio (x) = 0.19287 0.41080
# Poissons Ratio (y) = 0.25350 0.28274
# Poissons Ratio (z) = 0.65968 0.34544
#
# Static dielectric constant tensor:
#      x y z
#    x 3.246470 0.000000 0.000000 
#    y 0.000000 3.050220 0.000000 
#    z 0.000000 0.000000 3.204430 
# 
# 
# High freq. dielectric constant tensor:
#      x y z
#    x 1.679440 0.000000 0.000000 
#    y 0.000000 1.655020 0.000000 
#    z 0.000000 0.000000 1.679030 
# 
# From -- ./inp_files/4669.got.cif
#   From: 2010.03.12/outbox.cif.g09.slc.cpg/sg55_3_cif.got.tgz:4669.got - 2010.04.16 15:19:21.
