data_PCOD8224892
_publ_section_title
;
Structure prediction by ZEFSAII (Michael W. Deem and Ramdas Pophale) SiO2 
 PCOD8224892
Probable space group: P B A M
;
_chemical_formula_sum "Si O2"
_cell_formula_units_Z 64
_cell_length_a 18.833109
_cell_length_b 23.118435
_cell_length_c 9.060053
_cell_angle_alpha 90.000000
_cell_angle_beta 90.000000
_cell_angle_gamma 90.000000
_cell_volume 3944.674653
_symmetry_space_group_name_H-M "P B A M"
_symmetry_group_IT_number 55
_symmetry_cell_setting 'orthorhombic'
loop_
_space_group_symop_operation_xyz
x,y,z
-x,-y,z
1/2+x,1/2-y,-z
1/2-x,1/2+y,-z
-x,-y,-z
x,y,-z
1/2-x,1/2+y,z
1/2+x,1/2-y,z
loop_
_atom_site_type_symbol
_atom_site_label
_atom_site_fract_x
_atom_site_fract_y
_atom_site_fract_z
Si Si1 0.002714 0.248190 0.828897
Si Si2 0.230177 0.158723 0.672509
Si Si3 0.631671 0.775819 0.669188
Si Si4 0.776017 0.168496 0.671314
Si Si5 0.868665 0.058850 0.672605
Si Si6 0.651701 0.439410 0.827087
Si Si7 0.338887 0.767228 0.826929
Si Si8 0.999920 0.116303 0.172600
O O1 0.941462 0.286712 0.754948
O O2 0.001483 0.182191 0.770281
O O3 0.078124 0.277866 0.794573
O O4 0.986682 0.247238 0.000000
O O5 0.211432 0.155298 0.500000
O O6 0.313855 0.171503 0.696523
O O7 0.213064 0.098609 0.751741
O O8 0.183876 0.209338 0.743754
O O9 0.610869 0.769867 0.500000
O O10 0.666915 0.715996 0.725238
O O11 0.757797 0.179004 0.500000
O O12 0.806936 0.105461 0.701781
O O13 0.704110 0.177383 0.765552
O O14 0.878124 0.046133 0.500000
O O15 0.943276 0.080498 0.734753
O O16 0.843657 0.002341 0.757129
O O17 0.575900 0.411265 0.793736
O O18 0.667026 0.443510 0.000000
O O19 0.324597 0.758432 0.000000
O O20 0.980995 0.111621 0.000000
#
# Coordination Sequence:
#
# PCOD8224892 Si02
#       8
#     8   8   8   8   8   8   8   8
#     4  10  19  31  48  73 101 130 163 199 243 291
#     4  10  20  34  50  71  98 128 164 206 248 289
#     4   9  18  32  49  71  97 126 162 202 244 292
#     4   9  19  34  48  69  98 128 164 206 245 288
#     4  11  22  35  50  71  99 132 173 210 245 289
#     4  11  22  36  51  70  98 133 173 208 244 290
#     4  10  19  32  50  73  99 128 164 203 246 295
#     4  10  20  34  47  67 101 136 170 206 239 282
#
# _framework density 16.224405000000001
#
# number of rings (size 3 to 8) (size 9 to 14) (size 15 to 20)
#    0.000    2.000    2.500    2.625    0.000    7.000 
#    0.000    0.000    0.000    0.000    0.000    0.875 
#    0.000    7.000    0.000    0.000    0.000    0.000 
#
# Total GULP energy -793712.835059 kJ/mol
# GULP energy per Si atom -12401.763048 kJ/mol
# Density = 1.618748 g / cm^3
# Si number density = 16.224405 Si / 1000 Ang^3
#
#
#
# Elastic Constant Matrix: (Units=GPa)
#
#
# Indices 1 2 3 4 5 6 
#
# 1 103.9334 46.4949 55.9566 0.0000 0.0000 0.0000
# 2 46.4949 68.7223 42.0865 0.0000 0.0000 0.0000
# 3 55.9566 42.0865 80.3931 0.0000 0.0000 0.0000
# 4 0.0000 0.0000 0.0000 28.2147 0.0000 0.0000
# 5 0.0000 0.0000 0.0000 0.0000 26.5919 0.0000
# 6 0.0000 0.0000 0.0000 0.0000 0.0000 21.4477
#
#
#
# Elastic Compliance Matrix: (Units=1/GPa)
#
#
# Indices 1 2 3 4 5 6 
#
# 1 0.017051 -0.006282 -0.008579 0.000000 0.000000 0.000000
# 2 -0.006282 0.023732 -0.008052 0.000000 0.000000 0.000000
# 3 -0.008579 -0.008052 0.022626 0.000000 0.000000 0.000000
# 4 0.000000 0.000000 0.000000 0.035443 0.000000 0.000000
# 5 0.000000 0.000000 0.000000 0.000000 0.037605 0.000000
# 6 0.000000 0.000000 0.000000 0.000000 0.000000 0.046625
#
#
# Mechanical properties :
#
#
# Convention : Reuss Voigt Hill
#
# Bulk Modulus (GPa) = 56.87349 60.23611 58.55480
# Shear Modulus (GPa) = 21.29757 22.48490 21.89124
#
# Velocity S-wave (km/s) = 3.62703 3.72677 3.67724
# Velocity P-wave (km/s) = 7.25747 7.46497 7.36195
#
# Compressibility (1/GPa) = 0.01758289
#
# Stress axis : x y z
#
# Youngs Moduli (GPa) = 58.64829 42.13663 44.19767
#
# Poissons Ratio (x) = 0.26469 0.37919
# Poissons Ratio (y) = 0.36841 0.35587
# Poissons Ratio (z) = 0.50317 0.33927
#
# Static dielectric constant tensor:
#      x y z
#    x 3.095890 0.000000 0.000000 
#    y 0.000000 2.999920 0.000000 
#    z 0.000000 0.000000 3.142930 
# 
# 
# High freq. dielectric constant tensor:
#      x y z
#    x 1.617980 0.000000 0.000000 
#    y 0.000000 1.598660 0.000000 
#    z 0.000000 0.000000 1.635400 
# 
# From -- ./inp_files/7966.got.cif
#   From: 2010.03.12/outbox.cif.g09.slc.cpg/sg55_4_cif.got.tgz:7966.got - 2010.04.16 15:19:21.
