data_PCOD8224937
_publ_section_title
;
Structure prediction by ZEFSAII (Michael W. Deem and Ramdas Pophale) SiO2 
 PCOD8224937
Probable space group: P B A M
;
_chemical_formula_sum "Si O2"
_cell_formula_units_Z 48
_cell_length_a 14.797322
_cell_length_b 20.176521
_cell_length_c 9.203595
_cell_angle_alpha 90.000000
_cell_angle_beta 90.000000
_cell_angle_gamma 90.000000
_cell_volume 2747.811316
_symmetry_space_group_name_H-M "P B A M"
_symmetry_group_IT_number 55
_symmetry_cell_setting 'orthorhombic'
loop_
_space_group_symop_operation_xyz
x,y,z
-x,-y,z
1/2+x,1/2-y,-z
1/2-x,1/2+y,-z
-x,-y,-z
x,y,-z
1/2-x,1/2+y,z
1/2+x,1/2-y,z
loop_
_atom_site_type_symbol
_atom_site_label
_atom_site_fract_x
_atom_site_fract_y
_atom_site_fract_z
Si Si1 0.937075 0.059041 0.333912
Si Si2 0.911486 0.461111 0.172191
Si Si3 0.311546 0.652495 0.168101
Si Si4 0.508343 0.689204 0.170009
Si Si5 0.884513 0.313349 0.830378
Si Si6 0.234460 0.023516 0.666604
O O1 0.964687 0.073961 0.500000
O O2 0.950279 0.124315 0.240861
O O3 0.832359 0.038751 0.320959
O O4 0.000000 0.000000 0.272575
O O5 0.918238 0.384939 0.227009
O O6 0.825460 0.495234 0.247543
O O7 0.000000 0.500000 0.223491
O O8 0.897502 0.465217 0.000000
O O9 0.400892 0.695671 0.200204
O O10 0.222164 0.695570 0.205926
O O11 0.315369 0.587057 0.265401
O O12 0.307301 0.629846 0.000000
O O13 0.557519 0.753679 0.240242
O O14 0.528646 0.683749 0.000000
O O15 0.902957 0.311015 0.000000
O O16 0.257856 0.039609 0.500000
#
# Coordination Sequence:
#
# PCOD8224937 Si02
#       6
#     8   8   8   8   8   8
#     4  10  20  34  50  72 104 136 165 206 259 303
#     4   9  18  35  57  79 103 133 168 208 253 301
#     4   9  17  31  51  71  97 132 168 205 250 301
#     4  10  19  31  51  75  98 131 171 211 251 299
#     4   8  16  32  49  72 103 129 161 204 251 297
#     4  10  19  32  52  74  99 133 169 207 252 299
#
# _framework density 17.468447999999999
#
# number of rings (size 3 to 8) (size 9 to 14) (size 15 to 20)
#    0.000    2.667    1.667    1.500    0.000    2.000 
#    3.000    3.333    0.000    0.000    0.000    0.000 
#    0.000    0.000    0.000    0.000    0.000    0.000 
#
# Total GULP energy -595078.380297 kJ/mol
# GULP energy per Si atom -12397.466256 kJ/mol
# Density = 1.742869 g / cm^3
# Si number density = 17.468448 Si / 1000 Ang^3
#
#
#
# Elastic Constant Matrix: (Units=GPa)
#
#
# Indices 1 2 3 4 5 6 
#
# 1 139.6066 78.6121 39.6092 0.0000 0.0000 0.0000
# 2 78.6121 107.1222 30.0257 0.0000 0.0000 0.0000
# 3 39.6092 30.0257 44.5248 0.0000 0.0000 0.0000
# 4 0.0000 0.0000 0.0000 8.3866 0.0000 0.0000
# 5 0.0000 0.0000 0.0000 0.0000 21.7967 0.0000
# 6 0.0000 0.0000 0.0000 0.0000 0.0000 34.1231
#
#
#
# Elastic Compliance Matrix: (Units=1/GPa)
#
#
# Indices 1 2 3 4 5 6 
#
# 1 0.013631 -0.008144 -0.006634 0.000000 0.000000 0.000000
# 2 -0.008144 0.016376 -0.003799 0.000000 0.000000 0.000000
# 3 -0.006634 -0.003799 0.030923 0.000000 0.000000 0.000000
# 4 0.000000 0.000000 0.000000 0.119238 0.000000 0.000000
# 5 0.000000 0.000000 0.000000 0.000000 0.045878 0.000000
# 6 0.000000 0.000000 0.000000 0.000000 0.000000 0.029306
#
#
# Mechanical properties :
#
#
# Convention : Reuss Voigt Hill
#
# Bulk Modulus (GPa) = 42.05823 65.30529 53.68176
# Shear Modulus (GPa) = 16.64272 22.39504 19.51888
#
# Velocity S-wave (km/s) = 3.08998 3.58443 3.34635
# Velocity P-wave (km/s) = 6.07121 7.38896 6.76226
#
# Compressibility (1/GPa) = 0.02377656
#
# Stress axis : x y z
#
# Youngs Moduli (GPa) = 73.36294 61.06459 32.33821
#
# Poissons Ratio (x) = 0.49728 0.21454
# Poissons Ratio (y) = 0.59743 0.12285
# Poissons Ratio (z) = 0.48671 0.23198
#
# Static dielectric constant tensor:
#      x y z
#    x 3.500160 0.000000 0.000000 
#    y 0.000000 3.229770 0.000000 
#    z 0.000000 0.000000 3.074610 
# 
# 
# High freq. dielectric constant tensor:
#      x y z
#    x 1.686900 0.000000 0.000000 
#    y 0.000000 1.655430 0.000000 
#    z 0.000000 0.000000 1.655680 
# 
# From -- ./inp_files/5796.got.cif
#   From: 2010.03.12/outbox.cif.g09.slc.cpg/sg55_3_cif.got.tgz:5796.got - 2010.04.16 15:19:21.
