data_PCOD8224092
_publ_section_title
;
Structure prediction by ZEFSAII (Michael W. Deem and Ramdas Pophale) SiO2 
 PCOD8224092
Probable space group: P C C A
;
_chemical_formula_sum "Si O2"
_cell_formula_units_Z 40
_cell_length_a 16.798081
_cell_length_b 7.740499
_cell_length_c 13.398906
_cell_angle_alpha 90.000000
_cell_angle_beta 90.000000
_cell_angle_gamma 90.000000
_cell_volume 1742.199843
_symmetry_space_group_name_H-M "P C C A"
_symmetry_group_IT_number 54
_symmetry_cell_setting 'orthorhombic'
loop_
_space_group_symop_operation_xyz
x,y,z
1/2-x,-y,z
1/2+x,-y,1/2-z
-x,y,1/2-z
-x,-y,-z
1/2+x,y,-z
1/2-x,y,1/2+z
x,-y,1/2+z
loop_
_atom_site_type_symbol
_atom_site_label
_atom_site_fract_x
_atom_site_fract_y
_atom_site_fract_z
Si Si1 0.750000 0.000000 0.817303
Si Si2 0.874445 0.064338 0.477656
Si Si3 0.000000 0.443550 0.750000
Si Si4 0.276604 0.224333 0.361051
Si Si5 0.125978 0.570870 0.877244
Si Si6 0.022712 0.724645 0.036564
O O1 0.786661 0.155351 0.751204
O O2 0.678878 0.087669 0.879186
O O3 0.811811 0.073775 0.569180
O O4 0.938925 0.217666 0.488183
O O5 0.915747 0.880403 0.474009
O O6 0.924441 0.566827 0.726262
O O7 0.985558 0.323277 0.847025
O O8 0.324622 0.396668 0.382237
O O9 0.183208 0.263272 0.381543
O O10 0.061983 0.571280 0.969074
#
# Coordination Sequence:
#
# PCOD8224092 Si02
#       6
#     4   8   4   8   8   8
#     4  12  24  42  72 102 142 190 236 284 360 426
#     4  11  25  46  71 101 142 186 236 305 347 421
#     4  12  24  44  74 106 142 188 238 296 346 436
#     4  11  25  46  67 106 142 185 241 288 353 433
#     4  11  25  44  72 101 146 184 235 297 352 422
#     4  11  25  47  71 105 140 187 239 297 358 420
#
# _framework density 22.959478000000001
#
# number of rings (size 3 to 8) (size 9 to 14) (size 15 to 20)
#    0.000    0.800    2.000    4.800    2.800    0.000 
#    0.000    4.000    0.000    0.000    0.000    0.000 
#    0.000    0.000    0.000    0.000    0.000    0.000 
#
# Total GULP energy -495884.059122 kJ/mol
# GULP energy per Si atom -12397.101478 kJ/mol
# Density = 2.290722 g / cm^3
# Si number density = 22.959478 Si / 1000 Ang^3
#
#
#
# Elastic Constant Matrix: (Units=GPa)
#
#
# Indices 1 2 3 4 5 6 
#
# 1 174.6541 65.5258 97.6959 0.0000 0.0000 0.0000
# 2 65.5258 87.1585 60.3821 0.0000 0.0000 0.0000
# 3 97.6959 60.3821 183.9197 0.0000 0.0000 0.0000
# 4 0.0000 0.0000 0.0000 33.8855 0.0000 0.0000
# 5 0.0000 0.0000 0.0000 0.0000 42.7708 0.0000
# 6 0.0000 0.0000 0.0000 0.0000 0.0000 44.0432
#
#
#
# Elastic Compliance Matrix: (Units=1/GPa)
#
#
# Indices 1 2 3 4 5 6 
#
# 1 0.009421 -0.004681 -0.003468 0.000000 0.000000 0.000000
# 2 -0.004681 0.017176 -0.003153 0.000000 0.000000 0.000000
# 3 -0.003468 -0.003153 0.008314 0.000000 0.000000 0.000000
# 4 0.000000 0.000000 0.000000 0.029511 0.000000 0.000000
# 5 0.000000 0.000000 0.000000 0.000000 0.023380 0.000000
# 6 0.000000 0.000000 0.000000 0.000000 0.000000 0.022705
#
#
# Mechanical properties :
#
#
# Convention : Reuss Voigt Hill
#
# Bulk Modulus (GPa) = 81.23742 99.21555 90.22648
# Shear Modulus (GPa) = 36.43922 38.94847 37.69385
#
# Velocity S-wave (km/s) = 3.98818 4.12321 4.05625
# Velocity P-wave (km/s) = 7.52776 8.12249 7.83078
#
# Compressibility (1/GPa) = 0.01230960
#
# Stress axis : x y z
#
# Youngs Moduli (GPa) = 106.14061 58.21923 120.27343
#
# Poissons Ratio (x) = 0.27250 0.41710
# Poissons Ratio (y) = 0.49680 0.37921
# Poissons Ratio (z) = 0.36809 0.18356
#
# Static dielectric constant tensor:
#      x y z
#    x 4.788130 0.000000 0.000000 
#    y 0.000000 4.175630 0.000000 
#    z 0.000000 0.000000 4.062530 
# 
# 
# High freq. dielectric constant tensor:
#      x y z
#    x 1.939670 0.000000 0.000000 
#    y 0.000000 1.917420 0.000000 
#    z 0.000000 0.000000 1.897430 
# 
# From -- ./inp_files/8776.got.cif
#   From: 2010.03.12/outbox.cif.g09.slc.cpg/sg54_5_cif.got.tgz:8776.got - 2010.04.16 15:00:50.
