data_PCOD8224066
_publ_section_title
;
Structure prediction by ZEFSAII (Michael W. Deem and Ramdas Pophale) SiO2 
 PCOD8224066
Probable space group: P C C A
;
_chemical_formula_sum "Si O2"
_cell_formula_units_Z 36
_cell_length_a 11.663652
_cell_length_b 6.907436
_cell_length_c 19.922777
_cell_angle_alpha 90.000000
_cell_angle_beta 90.000000
_cell_angle_gamma 90.000000
_cell_volume 1605.097052
_symmetry_space_group_name_H-M "P C C A"
_symmetry_group_IT_number 54
_symmetry_cell_setting 'orthorhombic'
loop_
_space_group_symop_operation_xyz
x,y,z
1/2-x,-y,z
1/2+x,-y,1/2-z
-x,y,1/2-z
-x,-y,-z
1/2+x,y,-z
1/2-x,y,1/2+z
x,-y,1/2+z
loop_
_atom_site_type_symbol
_atom_site_label
_atom_site_fract_x
_atom_site_fract_y
_atom_site_fract_z
Si Si1 0.250000 0.500000 0.187579
Si Si2 0.652871 0.123377 0.282102
Si Si3 0.361480 0.634133 0.944549
Si Si4 0.056949 0.655246 0.589991
Si Si5 0.437304 0.966227 0.855794
O O1 0.192853 0.659105 0.236037
O O2 0.346874 0.609233 0.144648
O O3 0.626577 0.999226 0.215041
O O4 0.551324 0.150918 0.335217
O O5 0.750000 0.000000 0.320542
O O6 0.250000 0.500000 0.933594
O O7 0.474955 0.527135 0.919597
O O8 0.355375 0.836060 0.903167
O O9 0.374329 0.698323 0.021635
O O10 0.974211 0.833710 0.609746
#
# Coordination Sequence:
#
# PCOD8224066 Si02
#       5
#     4   8   8   8   8
#     4  12  22  46  70  96 138 188 230 296 352 428
#     4  11  25  43  68  96 135 184 234 285 359 423
#     4  11  25  43  68 105 138 181 235 285 354 422
#     4  11  24  45  71  98 139 183 232 289 353 417
#     4  11  25  44  65 103 136 179 235 291 348 420
#
# _framework density 22.428550000000001
#
# number of rings (size 3 to 8) (size 9 to 14) (size 15 to 20)
#    0.000    0.889    5.556    0.667    4.667    0.000 
#    0.000    0.000    0.000    0.000    0.000    0.000 
#    0.000    0.000    0.000    0.000    0.000    0.000 
#
# Total GULP energy -446232.733986 kJ/mol
# GULP energy per Si atom -12395.353722 kJ/mol
# Density = 2.237750 g / cm^3
# Si number density = 22.428550 Si / 1000 Ang^3
#
#
#
# Elastic Constant Matrix: (Units=GPa)
#
#
# Indices 1 2 3 4 5 6 
#
# 1 86.4040 19.1563 18.6130 0.0000 0.0000 0.0000
# 2 19.1563 109.6901 28.4133 0.0000 0.0000 0.0000
# 3 18.6130 28.4133 80.2499 0.0000 0.0000 0.0000
# 4 0.0000 0.0000 0.0000 36.2205 0.0000 0.0000
# 5 0.0000 0.0000 0.0000 0.0000 -3.4347 0.0000
# 6 0.0000 0.0000 0.0000 0.0000 0.0000 54.3485
#
#
#
# Elastic Compliance Matrix: (Units=1/GPa)
#
#
# Indices 1 2 3 4 5 6 
#
# 1 0.012422 -0.001567 -0.002326 0.000000 0.000000 0.000000
# 2 -0.001567 0.010235 -0.003260 0.000000 0.000000 0.000000
# 3 -0.002326 -0.003260 0.014155 0.000000 0.000000 0.000000
# 4 0.000000 0.000000 0.000000 0.027609 0.000000 0.000000
# 5 0.000000 0.000000 0.000000 0.000000 -0.291146 0.000000
# 6 0.000000 0.000000 0.000000 0.000000 0.000000 0.018400
#
#
# Mechanical properties :
#
#
# Convention : Reuss Voigt Hill
#
# Bulk Modulus (GPa) = 44.43498 45.41213 44.92355
# Shear Modulus (GPa) = -26.80713 31.43762 2.31525
#
# Velocity S-wave (km/s) = -3.46095 3.74796 1.01711
# Velocity P-wave (km/s) = 1.97076 6.24668 4.63168
#
# Compressibility (1/GPa) = 0.02250479
#
# Stress axis : x y z
#
# Youngs Moduli (GPa) = 80.50196 97.70637 70.64630
#
# Poissons Ratio (x) = 0.15308 0.16435
# Poissons Ratio (y) = 0.12613 0.23033
# Poissons Ratio (z) = 0.18728 0.31856
#
# Static dielectric constant tensor:
#      x y z
#    x 4.327050 0.000000 0.000000 
#    y 0.000000 4.099080 0.000000 
#    z 0.000000 0.000000 3.876090 
# 
# 
# High freq. dielectric constant tensor:
#      x y z
#    x 1.902390 0.000000 0.000000 
#    y 0.000000 1.886400 0.000000 
#    z 0.000000 0.000000 1.871900 
# 
# From -- ./inp_files/23842.got.cif
#   From: 2010.03.12/outbox.cif.g09.slc.cpg/sg54_12_cif.got.tgz:23842.got - 2010.04.16 15:00:50.
