data_PCOD8224301
_publ_section_title
;
Structure prediction by ZEFSAII (Michael W. Deem and Ramdas Pophale) SiO2 
 PCOD8224301
Probable space group: P B A M
;
_chemical_formula_sum "Si O2"
_cell_formula_units_Z 48
_cell_length_a 21.334545
_cell_length_b 8.964253
_cell_length_c 13.223744
_cell_angle_alpha 90.000000
_cell_angle_beta 90.000000
_cell_angle_gamma 90.000000
_cell_volume 2529.018018
_symmetry_space_group_name_H-M "P B A M"
_symmetry_group_IT_number 55
_symmetry_cell_setting 'orthorhombic'
loop_
_space_group_symop_operation_xyz
x,y,z
-x,-y,z
1/2+x,1/2-y,-z
1/2-x,1/2+y,-z
-x,-y,-z
x,y,-z
1/2-x,1/2+y,z
1/2+x,1/2-y,z
loop_
_atom_site_type_symbol
_atom_site_label
_atom_site_fract_x
_atom_site_fract_y
_atom_site_fract_z
Si Si1 0.334952 0.152630 0.710790
Si Si2 0.257629 0.406050 0.231935
Si Si3 0.441314 0.815376 0.182316
Si Si4 0.074158 0.645005 0.884463
Si Si5 0.571558 0.042860 0.610458
Si Si6 0.177448 0.162166 0.117105
O O1 0.296778 0.304521 0.686950
O O2 0.362818 0.183433 0.823210
O O3 0.289263 0.010136 0.706010
O O4 0.390054 0.110882 0.632572
O O5 0.218271 0.298250 0.159369
O O6 0.305174 0.505881 0.167599
O O7 0.514485 0.771731 0.168397
O O8 0.420003 0.837372 0.299724
O O9 0.396543 0.689236 0.136382
O O10 0.433345 0.967014 0.119218
O O11 0.081633 0.698336 0.000000
O O12 0.591695 0.107025 0.500000
O O13 0.500000 0.000000 0.608463
O O14 0.191752 0.148677 0.000000
#
# Coordination Sequence:
#
# PCOD8224301 Si02
#       6
#     8   8   8   8   8   8
#     4  10  20  37  53  79 110 143 185 226 273 318
#     4  10  22  34  52  73 114 151 185 220 265 320
#     4  10  17  31  50  79 107 135 176 225 276 317
#     4  10  17  28  50  76 106 140 178 220 268 320
#     4  10  18  34  62  88 103 129 183 238 281 323
#     4  11  20  33  52  79 112 151 189 222 263 324
#
# _framework density 18.979697000000002
#
# number of rings (size 3 to 8) (size 9 to 14) (size 15 to 20)
#    0.000    1.833    6.667    2.500    0.000    3.333 
#    0.000    1.667    0.000    3.000    0.000    2.333 
#    0.000    0.000    0.000    0.000    0.000    0.000 
#
# Total GULP energy -594876.941309 kJ/mol
# GULP energy per Si atom -12393.269611 kJ/mol
# Density = 1.893650 g / cm^3
# Si number density = 18.979697 Si / 1000 Ang^3
#
#
#
# Elastic Constant Matrix: (Units=GPa)
#
#
# Indices 1 2 3 4 5 6 
#
# 1 102.9767 42.8669 14.9932 0.0000 0.0000 0.0000
# 2 42.8669 83.0419 12.7884 0.0000 0.0000 0.0000
# 3 14.9932 12.7884 85.8764 0.0000 0.0000 0.0000
# 4 0.0000 0.0000 0.0000 9.7007 0.0000 0.0000
# 5 0.0000 0.0000 0.0000 0.0000 -5.6133 0.0000
# 6 0.0000 0.0000 0.0000 0.0000 0.0000 23.5917
#
#
#
# Elastic Compliance Matrix: (Units=1/GPa)
#
#
# Indices 1 2 3 4 5 6 
#
# 1 0.012499 -0.006259 -0.001250 0.000000 0.000000 0.000000
# 2 -0.006259 0.015460 -0.001209 0.000000 0.000000 0.000000
# 3 -0.001250 -0.001209 0.012043 0.000000 0.000000 0.000000
# 4 0.000000 0.000000 0.000000 0.103085 0.000000 0.000000
# 5 0.000000 0.000000 0.000000 0.000000 -0.178149 0.000000
# 6 0.000000 0.000000 0.000000 0.000000 0.000000 0.042388
#
#
# Mechanical properties :
#
#
# Convention : Reuss Voigt Hill
#
# Bulk Modulus (GPa) = 44.31916 45.91021 45.11469
# Shear Modulus (GPa) = 154.87790 18.95225 86.91508
#
# Velocity S-wave (km/s) = 9.04318 3.16342 6.77445
# Velocity P-wave (km/s) = 11.50827 6.13063 9.22022
#
# Compressibility (1/GPa) = 0.02256360
#
# Stress axis : x y z
#
# Youngs Moduli (GPa) = 80.00915 64.68514 83.03595
#
# Poissons Ratio (x) = 0.40489 0.10380
# Poissons Ratio (y) = 0.50081 0.10042
# Poissons Ratio (z) = 0.10001 0.07823
#
# Static dielectric constant tensor:
#      x y z
#    x 3.861750 0.000000 0.000000 
#    y 0.000000 3.212340 0.000000 
#    z 0.000000 0.000000 3.672350 
# 
# 
# High freq. dielectric constant tensor:
#      x y z
#    x 1.760830 0.000000 0.000000 
#    y 0.000000 1.697520 0.000000 
#    z 0.000000 0.000000 1.711510 
# 
# From -- ./inp_files/19867.got.cif
#   From: 2010.03.12/outbox.cif.g09.slc.cpg/sg55_10_cif.got.tgz:19867.got - 2010.04.16 15:19:21.
