data_PCOD8224809
_publ_section_title
;
Structure prediction by ZEFSAII (Michael W. Deem and Ramdas Pophale) SiO2 
 PCOD8224809
Probable space group: P B A M
;
_chemical_formula_sum "Si O2"
_cell_formula_units_Z 48
_cell_length_a 4.988403
_cell_length_b 17.909807
_cell_length_c 29.904821
_cell_angle_alpha 90.000000
_cell_angle_beta 90.000000
_cell_angle_gamma 90.000000
_cell_volume 2671.736630
_symmetry_space_group_name_H-M "P B A M"
_symmetry_group_IT_number 55
_symmetry_cell_setting 'orthorhombic'
loop_
_space_group_symop_operation_xyz
x,y,z
-x,-y,z
1/2+x,1/2-y,-z
1/2-x,1/2+y,-z
-x,-y,-z
x,y,-z
1/2-x,1/2+y,z
1/2+x,1/2-y,z
loop_
_atom_site_type_symbol
_atom_site_label
_atom_site_fract_x
_atom_site_fract_y
_atom_site_fract_z
Si Si1 0.023022 0.914496 0.767056
Si Si2 0.591123 0.202426 0.000000
Si Si3 0.555908 0.699721 0.500000
Si Si4 0.082754 0.201167 0.592204
Si Si5 0.483156 0.301021 0.311594
Si Si6 0.523021 0.914501 0.825637
Si Si7 0.516386 0.801097 0.095669
O O1 0.960508 0.864014 0.724595
O O2 0.816344 0.896568 0.806804
O O3 0.316345 0.896565 0.785889
O O4 0.000000 0.000000 0.751339
O O5 0.520318 0.159984 0.046455
O O6 0.405494 0.277320 0.000000
O O7 0.862203 0.726825 0.500000
O O8 0.489946 0.654541 0.453518
O O9 0.393471 0.224676 0.591193
O O10 0.019388 0.159974 0.639271
O O11 0.186762 0.267991 0.305891
O O12 0.460496 0.864075 0.868117
O O13 0.500000 0.000000 0.841349
O O14 0.312509 0.732106 0.101343
#
# Coordination Sequence:
#
# PCOD8224809 Si02
#       7
#     8   4   4   8   8   8   8
#     4  10  21  35  48  64  92 126 152 181 228 276
#     4   8  16  30  47  70  97 120 144 180 222 264
#     4   8  12  20  34  52  79 110 135 164 214 268
#     4   8  14  23  36  57  83 109 137 175 219 258
#     4  10  19  30  46  68  91 114 149 193 225 257
#     4  10  21  35  49  68  94 121 152 189 225 264
#     4  10  19  32  52  74  95 121 153 185 221 266
#
# _framework density 17.965841000000001
#
# number of rings (size 3 to 8) (size 9 to 14) (size 15 to 20)
#    0.000    2.667    0.000    2.000    0.000    4.000 
#    0.000    0.417    0.000    0.000    0.000   11.083 
#    0.000    0.000    0.000   44.833    0.000    1.667 
#
# Total GULP energy -594726.706386 kJ/mol
# GULP energy per Si atom -12390.139716 kJ/mol
# Density = 1.792495 g / cm^3
# Si number density = 17.965841 Si / 1000 Ang^3
#
#
#
# Elastic Constant Matrix: (Units=GPa)
#
#
# Indices 1 2 3 4 5 6 
#
# 1 68.2811 6.8957 -0.2759 0.0000 0.0000 0.0000
# 2 6.8957 42.6415 59.5499 0.0000 0.0000 0.0000
# 3 -0.2759 59.5499 150.5728 0.0000 0.0000 0.0000
# 4 0.0000 0.0000 0.0000 -0.5117 0.0000 0.0000
# 5 0.0000 0.0000 0.0000 0.0000 15.5337 0.0000
# 6 0.0000 0.0000 0.0000 0.0000 0.0000 14.1185
#
#
#
# Elastic Compliance Matrix: (Units=1/GPa)
#
#
# Indices 1 2 3 4 5 6 
#
# 1 0.015218 -0.005584 0.002236 0.000000 0.000000 0.000000
# 2 -0.005584 0.054432 -0.021537 0.000000 0.000000 0.000000
# 3 0.002236 -0.021537 0.015163 0.000000 0.000000 0.000000
# 4 0.000000 0.000000 0.000000 -1.954294 0.000000 0.000000
# 5 0.000000 0.000000 0.000000 0.000000 0.064376 0.000000
# 6 0.000000 0.000000 0.000000 0.000000 0.000000 0.070829
#
#
# Mechanical properties :
#
#
# Convention : Reuss Voigt Hill
#
# Bulk Modulus (GPa) = 28.53631 43.75941 36.14786
# Shear Modulus (GPa) = -2.98896 18.84981 7.93043
#
# Velocity S-wave (km/s) = -1.29124 3.24265 2.10327
# Velocity P-wave (km/s) = 3.70068 6.19916 5.10513
#
# Compressibility (1/GPa) = 0.03504308
#
# Stress axis : x y z
#
# Youngs Moduli (GPa) = 65.71031 18.37155 65.94898
#
# Poissons Ratio (x) = 0.10259 -0.14748
# Poissons Ratio (y) = 0.36693 1.42037
# Poissons Ratio (z) = -0.14695 0.39568
#
# Static dielectric constant tensor:
#      x y z
#    x 3.505640 0.000000 0.000000 
#    y 0.000000 2.682590 0.000000 
#    z 0.000000 0.000000 3.787290 
# 
# 
# High freq. dielectric constant tensor:
#      x y z
#    x 1.723040 0.000000 0.000000 
#    y 0.000000 1.609900 0.000000 
#    z 0.000000 0.000000 1.723630 
# 
# From -- ./inp_files/23839.got.cif
#   From: 2010.03.12/outbox.cif.g09.slc.cpg/sg55_12_cif.got.tgz:23839.got - 2010.04.16 15:19:21.
