data_PCOD8224745
_publ_section_title
;
Structure prediction by ZEFSAII (Michael W. Deem and Ramdas Pophale) SiO2 
 PCOD8224745
Probable space group: P B A M
;
_chemical_formula_sum "Si O2"
_cell_formula_units_Z 64
_cell_length_a 19.606724
_cell_length_b 20.778340
_cell_length_c 8.828510
_cell_angle_alpha 90.000000
_cell_angle_beta 90.000000
_cell_angle_gamma 90.000000
_cell_volume 3596.692399
_symmetry_space_group_name_H-M "P B A M"
_symmetry_group_IT_number 55
_symmetry_cell_setting 'orthorhombic'
loop_
_space_group_symop_operation_xyz
x,y,z
-x,-y,z
1/2+x,1/2-y,-z
1/2-x,1/2+y,-z
-x,-y,-z
x,y,-z
1/2-x,1/2+y,z
1/2+x,1/2-y,z
loop_
_atom_site_type_symbol
_atom_site_label
_atom_site_fract_x
_atom_site_fract_y
_atom_site_fract_z
Si Si1 0.928620 0.239939 0.674421
Si Si2 0.292371 0.076873 0.678646
Si Si3 0.425949 0.125031 0.177465
Si Si4 0.206392 0.433503 0.321083
Si Si5 0.434338 0.880810 0.325478
Si Si6 0.211291 0.191502 0.822503
Si Si7 0.578669 0.270118 0.328516
Si Si8 0.286129 0.311801 0.324001
O O1 0.930037 0.264910 0.500000
O O2 0.915843 0.300292 0.782320
O O3 0.867831 0.189169 0.701021
O O4 0.001476 0.206812 0.711560
O O5 0.290332 0.088135 0.500000
O O6 0.369424 0.084281 0.735131
O O7 0.241136 0.125994 0.756184
O O8 0.268622 0.004645 0.724471
O O9 0.500017 0.099581 0.227533
O O10 0.416224 0.115508 0.000000
O O11 0.203183 0.426174 0.500000
O O12 0.129902 0.420410 0.259876
O O13 0.258760 0.379600 0.257449
O O14 0.450150 0.897015 0.500000
O O15 0.416488 0.806083 0.305276
O O16 0.131291 0.194644 0.782204
O O17 0.250987 0.252729 0.759338
O O18 0.221161 0.189894 0.000000
O O19 0.597900 0.288986 0.500000
O O20 0.267407 0.304171 0.500000
#
# Coordination Sequence:
#
# PCOD8224745 Si02
#       8
#     8   8   8   8   8   8   8   8
#     4   9  18  32  56  82 106 137 174 216 269 318
#     4  11  22  37  55  75 104 144 184 225 268 314
#     4  11  21  32  48  75 111 145 180 218 259 317
#     4   9  19  35  57  81 103 136 184 228 268 316
#     4   9  17  33  54  77 105 140 181 219 261 317
#     4  12  23  34  52  81 109 141 179 219 267 320
#     4   9  17  32  54  80 107 137 174 217 263 316
#     4  10  18  35  60  83 105 134 174 224 271 318
#
# _framework density 17.794128000000001
#
# number of rings (size 3 to 8) (size 9 to 14) (size 15 to 20)
#    0.000    2.000    2.500    3.375    0.000    2.500 
#    0.000    5.000    0.000    0.750    0.000    5.250 
#    0.000    0.000    0.000    0.000    0.000    0.000 
#
# Total GULP energy -793543.178209 kJ/mol
# GULP energy per Si atom -12399.112160 kJ/mol
# Density = 1.775363 g / cm^3
# Si number density = 17.794128 Si / 1000 Ang^3
#
#
#
# Elastic Constant Matrix: (Units=GPa)
#
#
# Indices 1 2 3 4 5 6 
#
# 1 127.5766 68.8588 40.9574 0.0000 0.0000 0.0000
# 2 68.8588 108.7786 41.3473 0.0000 0.0000 0.0000
# 3 40.9574 41.3473 76.6626 0.0000 0.0000 0.0000
# 4 0.0000 0.0000 0.0000 2.9984 0.0000 0.0000
# 5 0.0000 0.0000 0.0000 0.0000 10.5734 0.0000
# 6 0.0000 0.0000 0.0000 0.0000 0.0000 23.9105
#
#
#
# Elastic Compliance Matrix: (Units=1/GPa)
#
#
# Indices 1 2 3 4 5 6 
#
# 1 0.012438 -0.006726 -0.003017 0.000000 0.000000 0.000000
# 2 -0.006726 0.015201 -0.004605 0.000000 0.000000 0.000000
# 3 -0.003017 -0.004605 0.017140 0.000000 0.000000 0.000000
# 4 0.000000 0.000000 0.000000 0.333511 0.000000 0.000000
# 5 0.000000 0.000000 0.000000 0.000000 0.094577 0.000000
# 6 0.000000 0.000000 0.000000 0.000000 0.000000 0.041823
#
#
# Mechanical properties :
#
#
# Convention : Reuss Voigt Hill
#
# Bulk Modulus (GPa) = 62.18276 68.37164 65.27720
# Shear Modulus (GPa) = 9.11168 18.28675 13.69921
#
# Velocity S-wave (km/s) = 2.26533 3.20923 2.77767
# Velocity P-wave (km/s) = 6.47023 7.22768 6.85942
#
# Compressibility (1/GPa) = 0.01608163
#
# Stress axis : x y z
#
# Youngs Moduli (GPa) = 80.40168 65.78364 58.34396
#
# Poissons Ratio (x) = 0.44249 0.17602
# Poissons Ratio (y) = 0.54082 0.26868
# Poissons Ratio (z) = 0.24257 0.30294
#
# Static dielectric constant tensor:
#      x y z
#    x 3.591640 0.000000 0.000000 
#    y 0.000000 3.222490 0.000000 
#    z 0.000000 0.000000 3.134910 
# 
# 
# High freq. dielectric constant tensor:
#      x y z
#    x 1.698130 0.000000 0.000000 
#    y 0.000000 1.661080 0.000000 
#    z 0.000000 0.000000 1.672580 
# 
# From -- ./inp_files/7990.got.cif
#   From: 2010.03.12/outbox.cif.g09.slc.cpg/sg55_4_cif.got.tgz:7990.got - 2010.04.16 15:19:21.
