data_PCOD8224811
_publ_section_title
;
Structure prediction by ZEFSAII (Michael W. Deem and Ramdas Pophale) SiO2 
 PCOD8224811
Probable space group: P B A M
;
_chemical_formula_sum "Si O2"
_cell_formula_units_Z 56
_cell_length_a 35.634730
_cell_length_b 5.183609
_cell_length_c 14.163682
_cell_angle_alpha 90.000000
_cell_angle_beta 90.000000
_cell_angle_gamma 90.000000
_cell_volume 2616.265867
_symmetry_space_group_name_H-M "P B A M"
_symmetry_group_IT_number 55
_symmetry_cell_setting 'orthorhombic'
loop_
_space_group_symop_operation_xyz
x,y,z
-x,-y,z
1/2+x,1/2-y,-z
1/2-x,1/2+y,-z
-x,-y,-z
x,y,-z
1/2-x,1/2+y,z
1/2+x,1/2-y,z
loop_
_atom_site_type_symbol
_atom_site_label
_atom_site_fract_x
_atom_site_fract_y
_atom_site_fract_z
Si Si1 0.107723 0.245004 0.609734
Si Si2 0.094848 0.325819 0.103103
Si Si3 0.016587 0.250232 0.837919
Si Si4 0.269708 0.238299 0.389655
Si Si5 0.359332 0.326579 0.106003
Si Si6 0.518147 0.250255 0.374106
Si Si7 0.851128 0.257444 0.687207
O O1 0.120470 0.262771 0.500000
O O2 0.062955 0.249608 0.615461
O O3 0.124931 0.482686 0.669688
O O4 0.123229 0.983230 0.656683
O O5 0.061532 0.257240 0.173622
O O6 0.106574 0.623511 0.112604
O O7 0.128555 0.123794 0.117449
O O8 0.077362 0.280656 0.000000
O O9 0.001732 0.248441 0.731642
O O10 0.000000 0.500000 0.891788
O O11 0.000000 0.000000 0.891396
O O12 0.261227 0.239028 0.500000
O O13 0.250261 0.489235 0.342985
O O14 0.314025 0.234952 0.374987
O O15 0.336603 0.263560 0.202443
O O16 0.339987 0.291464 0.000000
O O17 0.500000 0.500000 0.424725
O O18 0.500000 0.000000 0.424328
#
# Coordination Sequence:
#
# PCOD8224811 Si02
#       7
#     8   8   8   8   8   8   8
#     4  12  25  39  60  90 120 155 203 254 302 353
#     4  10  20  34  51  75 107 140 182 240 302 352
#     4  10  19  30  46  68  96 133 181 233 288 353
#     4  10  21  38  61  90 125 161 193 229 285 357
#     4  10  21  37  59  84 111 148 192 238 286 341
#     4  10  21  36  53  74 107 153 198 242 295 353
#     4  12  23  40  65  91 124 158 197 248 297 347
#
# _framework density 21.404551999999999
#
# number of rings (size 3 to 8) (size 9 to 14) (size 15 to 20)
#    0.000    1.429    0.000    6.429    0.000    4.571 
#    0.000    0.000    0.000    0.857    0.000    0.000 
#    0.000    0.000    0.000    0.000    0.000    0.000 
#
# Total GULP energy -693731.064857 kJ/mol
# GULP energy per Si atom -12388.054730 kJ/mol
# Density = 2.135583 g / cm^3
# Si number density = 21.404552 Si / 1000 Ang^3
#
#
#
# Elastic Constant Matrix: (Units=GPa)
#
#
# Indices 1 2 3 4 5 6 
#
# 1 96.5294 50.9471 -10.6351 0.0000 0.0000 0.0000
# 2 50.9471 181.8730 12.2081 0.0000 0.0000 0.0000
# 3 -10.6351 12.2081 82.9234 0.0000 0.0000 0.0000
# 4 0.0000 0.0000 0.0000 16.7166 0.0000 0.0000
# 5 0.0000 0.0000 0.0000 0.0000 18.3804 0.0000
# 6 0.0000 0.0000 0.0000 0.0000 0.0000 26.9358
#
#
#
# Elastic Compliance Matrix: (Units=1/GPa)
#
#
# Indices 1 2 3 4 5 6 
#
# 1 0.012523 -0.003652 0.002144 0.000000 0.000000 0.000000
# 2 -0.003652 0.006618 -0.001443 0.000000 0.000000 0.000000
# 3 0.002144 -0.001443 0.012547 0.000000 0.000000 0.000000
# 4 0.000000 0.000000 0.000000 0.059821 0.000000 0.000000
# 5 0.000000 0.000000 0.000000 0.000000 0.054406 0.000000
# 6 0.000000 0.000000 0.000000 0.000000 0.000000 0.037125
#
#
# Mechanical properties :
#
#
# Convention : Reuss Voigt Hill
#
# Bulk Modulus (GPa) = 38.78034 51.81843 45.29938
# Shear Modulus (GPa) = 25.31167 32.99360 29.15263
#
# Velocity S-wave (km/s) = 3.44253 3.93036 3.69451
# Velocity P-wave (km/s) = 5.82739 6.69766 6.27762
#
# Compressibility (1/GPa) = 0.02578626
#
# Stress axis : x y z
#
# Youngs Moduli (GPa) = 79.85189 151.09889 79.70246
#
# Poissons Ratio (x) = 0.55181 -0.17086
# Poissons Ratio (y) = 0.29162 0.11499
# Poissons Ratio (z) = -0.17118 0.21799
#
# Static dielectric constant tensor:
#      x y z
#    x 3.279060 0.000000 0.000000 
#    y 0.000000 4.712520 0.000000 
#    z 0.000000 0.000000 4.186550 
# 
# 
# High freq. dielectric constant tensor:
#      x y z
#    x 1.789280 0.000000 0.000000 
#    y 0.000000 1.870600 0.000000 
#    z 0.000000 0.000000 1.848790 
# 
# From -- ./inp_files/20143.got.cif
#   From: 2010.03.12/outbox.cif.g09.slc.cpg/sg55_11_cif.got.tgz:20143.got - 2010.04.16 15:19:21.
