data_PCOD8224071
_publ_section_title
;
Structure prediction by ZEFSAII (Michael W. Deem and Ramdas Pophale) SiO2 
 PCOD8224071
Probable space group: P C C A
;
_chemical_formula_sum "Si O2"
_cell_formula_units_Z 32
_cell_length_a 13.067456
_cell_length_b 8.154421
_cell_length_c 13.411686
_cell_angle_alpha 90.000000
_cell_angle_beta 90.000000
_cell_angle_gamma 90.000000
_cell_volume 1429.116236
_symmetry_space_group_name_H-M "P C C A"
_symmetry_group_IT_number 54
_symmetry_cell_setting 'orthorhombic'
loop_
_space_group_symop_operation_xyz
x,y,z
1/2-x,-y,z
1/2+x,-y,1/2-z
-x,y,1/2-z
-x,-y,-z
1/2+x,y,-z
1/2-x,y,1/2+z
x,-y,1/2+z
loop_
_atom_site_type_symbol
_atom_site_label
_atom_site_fract_x
_atom_site_fract_y
_atom_site_fract_z
Si Si1 0.378738 0.272927 0.978314
Si Si2 0.437685 0.190999 0.655499
Si Si3 0.902483 0.432589 0.808863
Si Si4 0.750000 0.500000 0.162206
Si Si5 0.750000 0.000000 0.934037
O O1 0.485052 0.199042 0.938457
O O2 0.335198 0.408818 0.903194
O O3 0.400448 0.353378 0.083931
O O4 0.292512 0.136547 0.991217
O O5 0.500000 0.119028 0.750000
O O6 0.396014 0.370965 0.680503
O O7 0.342569 0.070777 0.633209
O O8 0.808919 0.375946 0.737580
O O9 0.000000 0.369850 0.750000
#
# Coordination Sequence:
#
# PCOD8224071 Si02
#       5
#     8   8   8   4   4
#     4  12  26  44  72 104 145 185 242 293 359 430
#     4  11  24  49  71 106 145 185 243 298 353 434
#     4  11  24  45  75 106 134 181 241 301 358 408
#     4  12  22  44  74 104 138 186 232 300 352 424
#     4  12  28  44  68 102 150 198 232 286 368 432
#
# _framework density 22.391461
#
# number of rings (size 3 to 8) (size 9 to 14) (size 15 to 20)
#    0.000    0.500    5.000    5.250    3.500    2.000 
#    0.000    0.000    0.000    0.000    0.000    0.000 
#    0.000    0.000    0.000    0.000    0.000    0.000 
#
# Total GULP energy -396776.790116 kJ/mol
# GULP energy per Si atom -12399.274691 kJ/mol
# Density = 2.234050 g / cm^3
# Si number density = 22.391461 Si / 1000 Ang^3
#
#
#
# Elastic Constant Matrix: (Units=GPa)
#
#
# Indices 1 2 3 4 5 6 
#
# 1 167.1624 44.1614 92.6491 0.0000 0.0000 0.0000
# 2 44.1614 50.5078 40.1126 0.0000 0.0000 0.0000
# 3 92.6491 40.1126 194.9441 0.0000 0.0000 0.0000
# 4 0.0000 0.0000 0.0000 13.4136 0.0000 0.0000
# 5 0.0000 0.0000 0.0000 0.0000 46.4652 0.0000
# 6 0.0000 0.0000 0.0000 0.0000 0.0000 46.6704
#
#
#
# Elastic Compliance Matrix: (Units=1/GPa)
#
#
# Indices 1 2 3 4 5 6 
#
# 1 0.009240 -0.005488 -0.003262 0.000000 0.000000 0.000000
# 2 -0.005488 0.026926 -0.002932 0.000000 0.000000 0.000000
# 3 -0.003262 -0.002932 0.007283 0.000000 0.000000 0.000000
# 4 0.000000 0.000000 0.000000 0.074551 0.000000 0.000000
# 5 0.000000 0.000000 0.000000 0.000000 0.021522 0.000000
# 6 0.000000 0.000000 0.000000 0.000000 0.000000 0.021427
#
#
# Mechanical properties :
#
#
# Convention : Reuss Voigt Hill
#
# Bulk Modulus (GPa) = 49.78942 85.16228 67.47585
# Shear Modulus (GPa) = 26.17674 37.02259 31.59966
#
# Velocity S-wave (km/s) = 3.42285 4.07064 3.76072
# Velocity P-wave (km/s) = 6.15673 7.75948 7.00410
#
# Compressibility (1/GPa) = 0.02008459
#
# Stress axis : x y z
#
# Youngs Moduli (GPa) = 108.22299 37.13849 137.29904
#
# Poissons Ratio (x) = 0.20383 0.44789
# Poissons Ratio (y) = 0.59397 0.40257
# Poissons Ratio (z) = 0.35304 0.10889
#
# Static dielectric constant tensor:
#      x y z
#    x 4.362540 0.000000 0.000000 
#    y 0.000000 4.017380 0.000000 
#    z 0.000000 0.000000 4.256300 
# 
# 
# High freq. dielectric constant tensor:
#      x y z
#    x 1.910530 0.000000 0.000000 
#    y 0.000000 1.853230 0.000000 
#    z 0.000000 0.000000 1.902900 
# 
# From -- ./inp_files/8111.got.cif
#   From: 2010.03.12/outbox.cif.g09.slc.cpg/sg54_5_cif.got.tgz:8111.got - 2010.04.16 15:00:50.
