data_PCOD8224599
_publ_section_title
;
Structure prediction by ZEFSAII (Michael W. Deem and Ramdas Pophale) SiO2 
 PCOD8224599
Probable space group: P B A M
;
_chemical_formula_sum "Si O2"
_cell_formula_units_Z 56
_cell_length_a 17.433439
_cell_length_b 18.645022
_cell_length_c 8.849959
_cell_angle_alpha 90.000000
_cell_angle_beta 90.000000
_cell_angle_gamma 90.000000
_cell_volume 2876.651328
_symmetry_space_group_name_H-M "P B A M"
_symmetry_group_IT_number 55
_symmetry_cell_setting 'orthorhombic'
loop_
_space_group_symop_operation_xyz
x,y,z
-x,-y,z
1/2+x,1/2-y,-z
1/2-x,1/2+y,-z
-x,-y,-z
x,y,-z
1/2-x,1/2+y,z
1/2+x,1/2-y,z
loop_
_atom_site_type_symbol
_atom_site_label
_atom_site_fract_x
_atom_site_fract_y
_atom_site_fract_z
Si Si1 0.911051 0.193221 0.821783
Si Si2 0.646716 0.834959 0.322031
Si Si3 0.084262 0.192329 0.820937
Si Si4 0.006430 0.415870 0.329156
Si Si5 0.208934 0.922363 0.178047
Si Si6 0.143434 0.342020 0.822117
Si Si7 0.710981 0.416158 0.179432
O O1 0.862423 0.255229 0.742032
O O2 0.870443 0.117630 0.782773
O O3 0.997574 0.189163 0.756352
O O4 0.909857 0.208449 0.000000
O O5 0.658631 0.831672 0.500000
O O6 0.572617 0.880731 0.275434
O O7 0.719271 0.872888 0.249182
O O8 0.127936 0.262506 0.755410
O O9 0.131447 0.122067 0.771542
O O10 0.078830 0.197586 0.000000
O O11 0.026643 0.392003 0.500000
O O12 0.072143 0.392193 0.215578
O O13 0.000000 0.500000 0.316473
O O14 0.279658 0.876861 0.248672
O O15 0.208069 0.002917 0.245157
O O16 0.220289 0.928338 0.000000
O O17 0.153041 0.336615 0.000000
O O18 0.720476 0.415036 0.000000
#
# Coordination Sequence:
#
# PCOD8224599 Si02
#       7
#     8   8   8   8   8   8   8
#     4  10  19  36  59  81 108 145 183 227 276 323
#     4  11  22  36  54  80 110 143 186 227 271 333
#     4   9  18  32  55  82 108 141 182 224 269 321
#     4  10  21  35  51  74 106 140 173 217 269 320
#     4   9  19  33  55  84 112 141 181 229 275 325
#     4  10  18  32  51  77 106 136 178 220 263 321
#     4  10  20  36  56  81 112 146 181 226 277 325
#
# _framework density 19.467078000000001
#
# number of rings (size 3 to 8) (size 9 to 14) (size 15 to 20)
#    0.000    2.143    1.429    2.143    0.000    3.714 
#    0.000    7.143    0.000    0.000    0.000    2.000 
#    0.000    0.000    0.000    0.000    0.000    0.000 
#
# Total GULP energy -694388.600551 kJ/mol
# GULP energy per Si atom -12399.796438 kJ/mol
# Density = 1.942277 g / cm^3
# Si number density = 19.467078 Si / 1000 Ang^3
#
#
#
# Elastic Constant Matrix: (Units=GPa)
#
#
# Indices 1 2 3 4 5 6 
#
# 1 140.5171 93.9108 19.1294 0.0000 0.0000 0.0000
# 2 93.9108 153.5650 19.6843 0.0000 0.0000 0.0000
# 3 19.1294 19.6843 19.0547 0.0000 0.0000 0.0000
# 4 0.0000 0.0000 0.0000 22.3820 0.0000 0.0000
# 5 0.0000 0.0000 0.0000 0.0000 8.8841 0.0000
# 6 0.0000 0.0000 0.0000 0.0000 0.0000 28.5899
#
#
#
# Elastic Compliance Matrix: (Units=1/GPa)
#
#
# Indices 1 2 3 4 5 6 
#
# 1 0.012493 -0.006953 -0.005359 0.000000 0.000000 0.000000
# 2 -0.006953 0.011375 -0.004771 0.000000 0.000000 0.000000
# 3 -0.005359 -0.004771 0.062790 0.000000 0.000000 0.000000
# 4 0.000000 0.000000 0.000000 0.044679 0.000000 0.000000
# 5 0.000000 0.000000 0.000000 0.000000 0.112561 0.000000
# 6 0.000000 0.000000 0.000000 0.000000 0.000000 0.034977
#
#
# Mechanical properties :
#
#
# Convention : Reuss Voigt Hill
#
# Bulk Modulus (GPa) = 19.05073 64.28730 41.66901
# Shear Modulus (GPa) = 15.12682 23.99868 19.56275
#
# Velocity S-wave (km/s) = 2.79058 3.51491 3.17348
# Velocity P-wave (km/s) = 4.49338 7.04046 5.90587
#
# Compressibility (1/GPa) = 0.05249143
#
# Stress axis : x y z
#
# Youngs Moduli (GPa) = 80.04486 87.90840 15.92618
#
# Poissons Ratio (x) = 0.61122 0.08535
# Poissons Ratio (y) = 0.55655 0.07599
# Poissons Ratio (z) = 0.42898 0.41942
#
# Static dielectric constant tensor:
#      x y z
#    x 3.739800 0.000000 0.000000 
#    y 0.000000 3.810610 0.000000 
#    z 0.000000 0.000000 3.181030 
# 
# 
# High freq. dielectric constant tensor:
#      x y z
#    x 1.769750 0.000000 0.000000 
#    y 0.000000 1.770690 0.000000 
#    z 0.000000 0.000000 1.714270 
# 
# From -- ./inp_files/6069.got.cif
#   From: 2010.03.12/outbox.cif.g09.slc.cpg/sg55_4_cif.got.tgz:6069.got - 2010.04.16 15:19:21.
