data_PCOD8224079
_publ_section_title
;
Structure prediction by ZEFSAII (Michael W. Deem and Ramdas Pophale) SiO2 
 PCOD8224079
Probable space group: P C C A
;
_chemical_formula_sum "Si O2"
_cell_formula_units_Z 40
_cell_length_a 13.625530
_cell_length_b 6.509975
_cell_length_c 20.902705
_cell_angle_alpha 90.000000
_cell_angle_beta 90.000000
_cell_angle_gamma 90.000000
_cell_volume 1854.108805
_symmetry_space_group_name_H-M "P C C A"
_symmetry_group_IT_number 54
_symmetry_cell_setting 'orthorhombic'
loop_
_space_group_symop_operation_xyz
x,y,z
1/2-x,-y,z
1/2+x,-y,1/2-z
-x,y,1/2-z
-x,-y,-z
1/2+x,y,-z
1/2-x,y,1/2+z
x,-y,1/2+z
loop_
_atom_site_type_symbol
_atom_site_label
_atom_site_fract_x
_atom_site_fract_y
_atom_site_fract_z
Si Si1 0.436177 0.685992 0.472730
Si Si2 0.250000 0.500000 0.898852
Si Si3 0.593114 0.283547 0.171687
Si Si4 0.362123 0.018896 0.719539
Si Si5 0.000000 0.622155 0.750000
Si Si6 0.454544 0.041826 0.089037
O O1 0.500000 0.500000 0.500000
O O2 0.335573 0.604205 0.441269
O O3 0.405219 0.850061 0.527611
O O4 0.505929 0.811108 0.423622
O O5 0.296333 0.668286 0.850910
O O6 0.583758 0.137140 0.232928
O O7 0.533204 0.490044 0.188705
O O8 0.546615 0.179247 0.109681
O O9 0.375448 0.955904 0.645888
O O10 0.250000 0.000000 0.737826
O O11 0.405600 0.244688 0.730075
#
# Coordination Sequence:
#
# PCOD8224079 Si02
#       6
#     8   4   8   8   4   8
#     4  11  26  47  72 101 138 195 236 296 355 415
#     4  12  26  44  76 106 138 190 252 294 350 448
#     4  12  24  45  71 106 139 186 236 295 361 426
#     4  12  26  42  72 107 139 187 232 292 368 428
#     4  12  22  46  70 102 150 184 224 298 366 422
#     4  11  24  48  68  98 150 184 232 295 355 420
#
# _framework density 21.573708
#
# number of rings (size 3 to 8) (size 9 to 14) (size 15 to 20)
#    0.000    0.400    6.000    2.400    2.800    1.600 
#    0.000    0.000    0.000    0.000    0.000    0.000 
#    0.000    0.000    0.000    0.000    0.000    0.000 
#
# Total GULP energy -495985.923123 kJ/mol
# GULP energy per Si atom -12399.648078 kJ/mol
# Density = 2.152460 g / cm^3
# Si number density = 21.573708 Si / 1000 Ang^3
#
#
#
# Elastic Constant Matrix: (Units=GPa)
#
#
# Indices 1 2 3 4 5 6 
#
# 1 112.7630 55.6891 32.9544 0.0000 0.0000 0.0000
# 2 55.6891 133.9322 50.2302 0.0000 0.0000 0.0000
# 3 32.9544 50.2302 110.1667 0.0000 0.0000 0.0000
# 4 0.0000 0.0000 0.0000 41.9577 0.0000 0.0000
# 5 0.0000 0.0000 0.0000 0.0000 45.3012 0.0000
# 6 0.0000 0.0000 0.0000 0.0000 0.0000 36.5882
#
#
#
# Elastic Compliance Matrix: (Units=1/GPa)
#
#
# Indices 1 2 3 4 5 6 
#
# 1 0.011362 -0.004161 -0.001501 0.000000 0.000000 0.000000
# 2 -0.004161 0.010531 -0.003557 0.000000 0.000000 0.000000
# 3 -0.001501 -0.003557 0.011148 0.000000 0.000000 0.000000
# 4 0.000000 0.000000 0.000000 0.023834 0.000000 0.000000
# 5 0.000000 0.000000 0.000000 0.000000 0.022074 0.000000
# 6 0.000000 0.000000 0.000000 0.000000 0.000000 0.027331
#
#
# Mechanical properties :
#
#
# Convention : Reuss Voigt Hill
#
# Bulk Modulus (GPa) = 68.48420 70.51215 69.49818
# Shear Modulus (GPa) = 38.58450 39.30195 38.94323
#
# Velocity S-wave (km/s) = 4.23365 4.27283 4.25328
# Velocity P-wave (km/s) = 7.46402 7.55632 7.51031
#
# Compressibility (1/GPa) = 0.01460191
#
# Stress axis : x y z
#
# Youngs Moduli (GPa) = 88.01261 94.96139 89.70276
#
# Poissons Ratio (x) = 0.39516 0.13468
# Poissons Ratio (y) = 0.36624 0.31904
# Poissons Ratio (z) = 0.13215 0.33774
#
# Static dielectric constant tensor:
#      x y z
#    x 4.101420 0.000000 0.000000 
#    y 0.000000 4.183280 0.000000 
#    z 0.000000 0.000000 4.022060 
# 
# 
# High freq. dielectric constant tensor:
#      x y z
#    x 1.837610 0.000000 0.000000 
#    y 0.000000 1.860460 0.000000 
#    z 0.000000 0.000000 1.863250 
# 
# From -- ./inp_files/24341.got.cif
#   From: 2010.03.12/outbox.cif.g09.slc.cpg/sg54_13_cif.got.tgz:24341.got - 2010.04.16 15:00:50.
