data_PCOD8224611
_publ_section_title
;
Structure prediction by ZEFSAII (Michael W. Deem and Ramdas Pophale) SiO2 
 PCOD8224611
Probable space group: P B A M
;
_chemical_formula_sum "Si O2"
_cell_formula_units_Z 56
_cell_length_a 10.243708
_cell_length_b 21.349711
_cell_length_c 14.076235
_cell_angle_alpha 90.000000
_cell_angle_beta 90.000000
_cell_angle_gamma 90.000000
_cell_volume 3078.475485
_symmetry_space_group_name_H-M "P B A M"
_symmetry_group_IT_number 55
_symmetry_cell_setting 'orthorhombic'
loop_
_space_group_symop_operation_xyz
x,y,z
-x,-y,z
1/2+x,1/2-y,-z
1/2-x,1/2+y,-z
-x,-y,-z
x,y,-z
1/2-x,1/2+y,z
1/2+x,1/2-y,z
loop_
_atom_site_type_symbol
_atom_site_label
_atom_site_fract_x
_atom_site_fract_y
_atom_site_fract_z
Si Si1 0.018061 0.312208 0.110805
Si Si2 0.833107 0.960962 0.110986
Si Si3 0.583789 0.590254 0.196004
Si Si4 0.383748 0.451250 0.396042
Si Si5 0.365043 0.035219 0.602408
Si Si6 0.571482 0.933168 0.799949
Si Si7 0.193870 0.785520 0.889874
O O1 0.024400 0.377305 0.168954
O O2 0.895015 0.271575 0.148606
O O3 0.152295 0.273662 0.129508
O O4 0.004471 0.328533 0.000000
O O5 0.690122 0.932728 0.125513
O O6 0.935696 0.912988 0.158220
O O7 0.840790 0.028162 0.161687
O O8 0.864199 0.968064 0.000000
O O9 0.589303 0.596888 0.310619
O O10 0.655686 0.650337 0.158431
O O11 0.500000 0.500000 0.394570
O O12 0.379964 0.417501 0.500000
O O13 0.247448 0.485324 0.376166
O O14 0.336848 0.069540 0.500000
O O15 0.374825 0.081404 0.693094
O O16 0.500000 0.000000 0.592447
O O17 0.500000 0.000000 0.803120
O O18 0.163194 0.793418 0.000000
#
# Coordination Sequence:
#
# PCOD8224611 Si02
#       7
#     8   8   8   8   8   8   8
#     4  10  23  39  56  79 107 147 192 227 274 330
#     4  11  21  31  49  82 115 144 177 224 280 332
#     4  11  19  34  53  80 110 147 181 225 275 330
#     4  10  18  32  53  80 113 144 181 225 274 330
#     4   9  18  32  51  78 110 140 173 218 278 337
#     4  11  21  34  56  83 113 143 183 235 289 330
#     4  10  22  39  57  75 105 149 192 229 265 331
#
# _framework density 18.190823000000002
#
# number of rings (size 3 to 8) (size 9 to 14) (size 15 to 20)
#    0.000    1.714    2.857    3.000    4.000    2.286 
#    0.000    0.000    0.000    0.857    0.000    0.000 
#    0.000    0.000    0.000    0.000    0.000    0.000 
#
# Total GULP energy -694128.502500 kJ/mol
# GULP energy per Si atom -12395.151830 kJ/mol
# Density = 1.814942 g / cm^3
# Si number density = 18.190823 Si / 1000 Ang^3
#
#
#
# Elastic Constant Matrix: (Units=GPa)
#
#
# Indices 1 2 3 4 5 6 
#
# 1 107.2057 25.7364 33.1457 0.0000 0.0000 0.0000
# 2 25.7364 47.6555 20.9559 0.0000 0.0000 0.0000
# 3 33.1457 20.9559 105.0901 0.0000 0.0000 0.0000
# 4 0.0000 0.0000 0.0000 9.0307 0.0000 0.0000
# 5 0.0000 0.0000 0.0000 0.0000 21.8330 0.0000
# 6 0.0000 0.0000 0.0000 0.0000 0.0000 18.4752
#
#
#
# Elastic Compliance Matrix: (Units=1/GPa)
#
#
# Indices 1 2 3 4 5 6 
#
# 1 0.011320 -0.004980 -0.002577 0.000000 0.000000 0.000000
# 2 -0.004980 0.025192 -0.003453 0.000000 0.000000 0.000000
# 3 -0.002577 -0.003453 0.011017 0.000000 0.000000 0.000000
# 4 0.000000 0.000000 0.000000 0.110734 0.000000 0.000000
# 5 0.000000 0.000000 0.000000 0.000000 0.045802 0.000000
# 6 0.000000 0.000000 0.000000 0.000000 0.000000 0.054127
#
#
# Mechanical properties :
#
#
# Convention : Reuss Voigt Hill
#
# Bulk Modulus (GPa) = 39.20238 46.62524 42.91381
# Shear Modulus (GPa) = 17.31811 21.87532 19.59672
#
# Velocity S-wave (km/s) = 3.08884 3.47154 3.28576
# Velocity P-wave (km/s) = 5.85821 6.46186 6.16742
#
# Compressibility (1/GPa) = 0.02550866
#
# Stress axis : x y z
#
# Youngs Moduli (GPa) = 88.33696 39.69550 90.76839
#
# Poissons Ratio (x) = 0.19769 0.23394
# Poissons Ratio (y) = 0.43993 0.31340
# Poissons Ratio (z) = 0.22768 0.13706
#
# Static dielectric constant tensor:
#      x y z
#    x 3.678340 0.000000 0.000000 
#    y 0.000000 2.967840 0.000000 
#    z 0.000000 0.000000 3.907770 
# 
# 
# High freq. dielectric constant tensor:
#      x y z
#    x 1.729590 0.000000 0.000000 
#    y 0.000000 1.649230 0.000000 
#    z 0.000000 0.000000 1.712250 
# 
# From -- ./inp_files/17672.got.cif
#   From: 2010.03.12/outbox.cif.g09.slc.cpg/sg55_9_cif.got.tgz:17672.got - 2010.04.16 15:19:21.
