data_PCOD8224546
_publ_section_title
;
Structure prediction by ZEFSAII (Michael W. Deem and Ramdas Pophale) SiO2 
 PCOD8224546
Probable space group: P B A M
;
_chemical_formula_sum "Si O2"
_cell_formula_units_Z 48
_cell_length_a 29.288378
_cell_length_b 10.348777
_cell_length_c 8.712667
_cell_angle_alpha 90.000000
_cell_angle_beta 90.000000
_cell_angle_gamma 90.000000
_cell_volume 2640.799719
_symmetry_space_group_name_H-M "P B A M"
_symmetry_group_IT_number 55
_symmetry_cell_setting 'orthorhombic'
loop_
_space_group_symop_operation_xyz
x,y,z
-x,-y,z
1/2+x,1/2-y,-z
1/2-x,1/2+y,-z
-x,-y,-z
x,y,-z
1/2-x,1/2+y,z
1/2+x,1/2-y,z
loop_
_atom_site_type_symbol
_atom_site_label
_atom_site_fract_x
_atom_site_fract_y
_atom_site_fract_z
Si Si1 0.024767 0.370363 0.181891
Si Si2 0.286024 0.782759 0.319903
Si Si3 0.783482 0.006419 0.682296
Si Si4 0.121059 0.990139 0.179585
Si Si5 0.027384 0.879337 0.181062
Si Si6 0.611306 0.236893 0.320028
O O1 0.074233 0.366232 0.262425
O O2 0.000000 0.500000 0.235211
O O3 0.993454 0.253502 0.245152
O O4 0.031819 0.365872 0.000000
O O5 0.277435 0.780187 0.500000
O O6 0.274333 0.639195 0.254024
O O7 0.253409 0.893122 0.247120
O O8 0.338358 0.818651 0.281635
O O9 0.781541 0.004624 0.500000
O O10 0.833646 0.053396 0.731513
O O11 0.081088 0.888545 0.221878
O O12 0.103200 0.130561 0.229371
O O13 0.131611 0.992263 0.000000
O O14 0.020608 0.882454 0.000000
O O15 0.000000 0.000000 0.254528
O O16 0.606608 0.264581 0.500000
#
# Coordination Sequence:
#
# PCOD8224546 Si02
#       6
#     8   8   8   8   8   8
#     4  10  20  35  53  73 100 137 172 204 252 310
#     4   8  16  31  52  71  94 128 163 197 244 299
#     4   9  17  33  52  72  97 130 166 202 246 299
#     4  10  18  31  53  76  99 129 167 209 250 293
#     4   9  16  30  52  73  96 130 167 200 244 301
#     4  10  19  33  53  76 102 134 171 208 250 300
#
# _framework density 18.176313
#
# number of rings (size 3 to 8) (size 9 to 14) (size 15 to 20)
#    0.000    2.667    1.667    2.000    0.000    0.333 
#    3.000    6.667    0.000    0.000    0.000    0.000 
#    0.000    0.000    0.000    0.000    0.000    0.000 
#
# Total GULP energy -595033.827643 kJ/mol
# GULP energy per Si atom -12396.538076 kJ/mol
# Density = 1.813494 g / cm^3
# Si number density = 18.176313 Si / 1000 Ang^3
#
#
#
# Elastic Constant Matrix: (Units=GPa)
#
#
# Indices 1 2 3 4 5 6 
#
# 1 146.8918 92.7415 18.6501 0.0000 0.0000 0.0000
# 2 92.7415 128.0398 12.8129 0.0000 0.0000 0.0000
# 3 18.6501 12.8129 14.5679 0.0000 0.0000 0.0000
# 4 0.0000 0.0000 0.0000 14.3063 0.0000 0.0000
# 5 0.0000 0.0000 0.0000 0.0000 29.2106 0.0000
# 6 0.0000 0.0000 0.0000 0.0000 0.0000 36.0527
#
#
#
# Elastic Compliance Matrix: (Units=1/GPa)
#
#
# Indices 1 2 3 4 5 6 
#
# 1 0.013678 -0.008942 -0.009646 0.000000 0.000000 0.000000
# 2 -0.008942 0.014410 -0.001226 0.000000 0.000000 0.000000
# 3 -0.009646 -0.001226 0.082071 0.000000 0.000000 0.000000
# 4 0.000000 0.000000 0.000000 0.069899 0.000000 0.000000
# 5 0.000000 0.000000 0.000000 0.000000 0.034234 0.000000
# 6 0.000000 0.000000 0.000000 0.000000 0.000000 0.027737
#
#
# Mechanical properties :
#
#
# Convention : Reuss Voigt Hill
#
# Bulk Modulus (GPa) = 14.17821 59.76759 36.97290
# Shear Modulus (GPa) = 16.38442 26.93358 21.65900
#
# Velocity S-wave (km/s) = 3.00562 3.85359 3.45571
# Velocity P-wave (km/s) = 4.45671 7.26317 6.02561
#
# Compressibility (1/GPa) = 0.07053076
#
# Stress axis : x y z
#
# Youngs Moduli (GPa) = 73.10982 69.39822 12.18454
#
# Poissons Ratio (x) = 0.62056 0.11753
# Poissons Ratio (y) = 0.65375 0.01494
# Poissons Ratio (z) = 0.70523 0.08508
#
# Static dielectric constant tensor:
#      x y z
#    x 3.528540 0.000000 0.000000 
#    y 0.000000 3.543540 0.000000 
#    z 0.000000 0.000000 3.010950 
# 
# 
# High freq. dielectric constant tensor:
#      x y z
#    x 1.715400 0.000000 0.000000 
#    y 0.000000 1.689670 0.000000 
#    z 0.000000 0.000000 1.672620 
# 
# From -- ./inp_files/4180.got.cif
#   From: 2010.03.12/outbox.cif.g09.slc.cpg/sg55_3_cif.got.tgz:4180.got - 2010.04.16 15:19:21.
