data_PCOD8224047
_publ_section_title
;
Structure prediction by ZEFSAII (Michael W. Deem and Ramdas Pophale) SiO2 
 PCOD8224047
Probable space group: P C C A
;
_chemical_formula_sum "Si O2"
_cell_formula_units_Z 32
_cell_length_a 17.035512
_cell_length_b 8.655268
_cell_length_c 9.350757
_cell_angle_alpha 90.000000
_cell_angle_beta 90.000000
_cell_angle_gamma 90.000000
_cell_volume 1378.740337
_symmetry_space_group_name_H-M "P C C A"
_symmetry_group_IT_number 54
_symmetry_cell_setting 'orthorhombic'
loop_
_space_group_symop_operation_xyz
x,y,z
1/2-x,-y,z
1/2+x,-y,1/2-z
-x,y,1/2-z
-x,-y,-z
1/2+x,y,-z
1/2-x,y,1/2+z
x,-y,1/2+z
loop_
_atom_site_type_symbol
_atom_site_label
_atom_site_fract_x
_atom_site_fract_y
_atom_site_fract_z
Si Si1 0.175321 0.104267 0.687936
Si Si2 0.919645 0.963337 0.580251
Si Si3 0.919603 0.625325 0.683622
Si Si4 0.330360 0.445231 0.092016
O O1 0.149219 0.041796 0.534683
O O2 0.189814 0.286051 0.673573
O O3 0.250000 0.000000 0.736389
O O4 0.105567 0.093305 0.805717
O O5 0.925904 0.809211 0.674890
O O6 0.000000 0.000000 0.500000
O O7 0.851508 0.574685 0.791303
O O8 0.000000 0.555695 0.750000
O O9 0.099727 0.435488 0.475959
O O10 0.250000 0.500000 0.015744
#
# Coordination Sequence:
#
# PCOD8224047 Si02
#       4
#     8   8   8   8
#     4  11  24  42  67  97 129 171 218 269 327 391
#     4  11  24  43  68  97 132 172 220 272 328 395
#     4  11  24  43  67  96 134 175 218 272 331 395
#     4  11  25  42  65  98 133 172 218 269 328 393
#
# _framework density 23.209592000000001
#
# number of rings (size 3 to 8) (size 9 to 14) (size 15 to 20)
#    0.000    1.000    0.000    6.000    0.000   14.000 
#    0.000    0.000    0.000    0.000    0.000    0.000 
#    0.000    0.000    0.000    0.000    0.000    0.000 
#
# Total GULP energy -396758.492703 kJ/mol
# GULP energy per Si atom -12398.702897 kJ/mol
# Density = 2.315677 g / cm^3
# Si number density = 23.209592 Si / 1000 Ang^3
#
#
#
# Elastic Constant Matrix: (Units=GPa)
#
#
# Indices 1 2 3 4 5 6 
#
# 1 134.5968 67.1536 56.9578 0.0000 0.0000 0.0000
# 2 67.1536 117.0206 57.8133 0.0000 0.0000 0.0000
# 3 56.9578 57.8133 111.5674 0.0000 0.0000 0.0000
# 4 0.0000 0.0000 0.0000 37.2390 0.0000 0.0000
# 5 0.0000 0.0000 0.0000 0.0000 53.3957 0.0000
# 6 0.0000 0.0000 0.0000 0.0000 0.0000 30.1635
#
#
#
# Elastic Compliance Matrix: (Units=1/GPa)
#
#
# Indices 1 2 3 4 5 6 
#
# 1 0.011205 -0.004844 -0.003210 0.000000 0.000000 0.000000
# 2 -0.004844 0.013580 -0.004564 0.000000 0.000000 0.000000
# 3 -0.003210 -0.004564 0.012967 0.000000 0.000000 0.000000
# 4 0.000000 0.000000 0.000000 0.026854 0.000000 0.000000
# 5 0.000000 0.000000 0.000000 0.000000 0.018728 0.000000
# 6 0.000000 0.000000 0.000000 0.000000 0.000000 0.033153
#
#
# Mechanical properties :
#
#
# Convention : Reuss Voigt Hill
#
# Bulk Modulus (GPa) = 79.90125 80.78158 80.34142
# Shear Modulus (GPa) = 34.27118 36.24367 35.25742
#
# Velocity S-wave (km/s) = 3.84682 3.95597 3.90178
# Velocity P-wave (km/s) = 7.36420 7.46640 7.41547
#
# Compressibility (1/GPa) = 0.01251545
#
# Stress axis : x y z
#
# Youngs Moduli (GPa) = 89.24672 73.63655 77.11787
#
# Poissons Ratio (x) = 0.35670 0.24756
# Poissons Ratio (y) = 0.43232 0.35198
# Poissons Ratio (z) = 0.28650 0.33609
#
# Static dielectric constant tensor:
#      x y z
#    x 4.308340 0.000000 0.000000 
#    y 0.000000 4.109140 0.000000 
#    z 0.000000 0.000000 4.187330 
# 
# 
# High freq. dielectric constant tensor:
#      x y z
#    x 1.925230 0.000000 0.000000 
#    y 0.000000 1.908510 0.000000 
#    z 0.000000 0.000000 1.931050 
# 
# From -- ./inp_files/7948.got.cif
#   From: 2010.03.12/outbox.cif.g09.slc.cpg/sg54_4_cif.got.tgz:7948.got - 2010.04.16 15:00:50.
