data_PCOD8224227
_publ_section_title
;
Structure prediction by ZEFSAII (Michael W. Deem and Ramdas Pophale) SiO2 
 PCOD8224227
Probable space group: P B A M
;
_chemical_formula_sum "Si O2"
_cell_formula_units_Z 52
_cell_length_a 15.109594
_cell_length_b 5.245585
_cell_length_c 30.982422
_cell_angle_alpha 90.000000
_cell_angle_beta 90.000000
_cell_angle_gamma 90.000000
_cell_volume 2455.625240
_symmetry_space_group_name_H-M "P B A M"
_symmetry_group_IT_number 55
_symmetry_cell_setting 'orthorhombic'
loop_
_space_group_symop_operation_xyz
x,y,z
-x,-y,z
1/2+x,1/2-y,-z
1/2-x,1/2+y,-z
-x,-y,-z
x,y,-z
1/2-x,1/2+y,z
1/2+x,1/2-y,z
loop_
_atom_site_type_symbol
_atom_site_label
_atom_site_fract_x
_atom_site_fract_y
_atom_site_fract_z
Si Si1 0.897196 0.498579 0.134817
Si Si2 0.305951 0.057947 0.952055
Si Si3 0.846696 0.956224 0.720483
Si Si4 0.393861 0.501678 0.183086
Si Si5 0.805818 0.407860 0.500000
Si Si6 0.806226 0.517569 0.409522
Si Si7 0.352587 0.044295 0.683888
O O1 0.880340 0.484294 0.083780
O O2 0.858176 0.252431 0.159457
O O3 0.000000 0.500000 0.142566
O O4 0.859290 0.760285 0.154625
O O5 0.268010 0.341370 0.946007
O O6 0.348348 0.032333 0.000000
O O7 0.842933 0.980538 0.771766
O O8 0.749875 0.938034 0.698845
O O9 0.899267 0.198179 0.700747
O O10 0.898380 0.698416 0.706819
O O11 0.500000 0.500000 0.189633
O O12 0.775923 0.112289 0.500000
O O13 0.858694 0.467064 0.455093
O O14 0.727436 0.308541 0.407978
O O15 0.866651 0.473871 0.367631
#
# Coordination Sequence:
#
# PCOD8224227 Si02
#       7
#     8   8   8   8   4   8   8
#     4  10  21  39  58  79 104 138 176 208 250 299
#     4  10  21  39  59  84 115 139 165 207 259 301
#     4  10  18  30  43  64  88 121 157 186 237 281
#     4  10  21  37  53  70 100 132 165 211 246 279
#     4   8  16  20  34  52  74 114 152 174 214 292
#     4  10  14  25  36  54  83 117 147 181 232 275
#     4  10  17  28  43  63  93 120 146 199 234 283
#
# _framework density 21.175868000000001
#
# number of rings (size 3 to 8) (size 9 to 14) (size 15 to 20)
#    0.000    2.154    3.077    1.846    0.000    0.308 
#   16.615    0.000    0.000    5.538    0.000    0.000 
#    0.000    0.000    0.000    7.615    0.000    0.000 
#
# Total GULP energy -644234.729760 kJ/mol
# GULP energy per Si atom -12389.129418 kJ/mol
# Density = 2.112767 g / cm^3
# Si number density = 21.175868 Si / 1000 Ang^3
#
#
#
# Elastic Constant Matrix: (Units=GPa)
#
#
# Indices 1 2 3 4 5 6 
#
# 1 3.8054 -4.8918 -2.6116 0.0000 0.0000 0.0000
# 2 -4.8918 168.5114 35.9612 0.0000 0.0000 0.0000
# 3 -2.6116 35.9612 175.6890 0.0000 0.0000 0.0000
# 4 0.0000 0.0000 0.0000 39.5091 0.0000 0.0000
# 5 0.0000 0.0000 0.0000 0.0000 0.9602 0.0000
# 6 0.0000 0.0000 0.0000 0.0000 0.0000 1.7300
#
#
#
# Elastic Compliance Matrix: (Units=1/GPa)
#
#
# Indices 1 2 3 4 5 6 
#
# 1 0.274067 0.007410 0.002557 0.000000 0.000000 0.000000
# 2 0.007410 0.006406 -0.001201 0.000000 0.000000 0.000000
# 3 0.002557 -0.001201 0.005976 0.000000 0.000000 0.000000
# 4 0.000000 0.000000 0.000000 0.025311 0.000000 0.000000
# 5 0.000000 0.000000 0.000000 0.000000 1.041497 0.000000
# 6 0.000000 0.000000 0.000000 0.000000 0.000000 0.578045
#
#
# Mechanical properties :
#
#
# Convention : Reuss Voigt Hill
#
# Bulk Modulus (GPa) = 3.28968 44.99126 24.14047
# Shear Modulus (GPa) = 2.48127 29.74304 16.11216
#
# Velocity S-wave (km/s) = 1.08365 3.75183 2.76139
# Velocity P-wave (km/s) = 1.76709 6.32937 4.64669
#
# Compressibility (1/GPa) = 0.30398121
#
# Stress axis : x y z
#
# Youngs Moduli (GPa) = 3.64874 156.11004 167.34387
#
# Poissons Ratio (x) = -1.15682 -0.42792
# Poissons Ratio (y) = -0.02704 0.20098
# Poissons Ratio (z) = -0.00933 0.18749
#
# Static dielectric constant tensor:
#      x y z
#    x 2.906720 0.000000 0.000000 
#    y 0.000000 5.546910 0.000000 
#    z 0.000000 0.000000 4.256900 
# 
# 
# High freq. dielectric constant tensor:
#      x y z
#    x 1.736870 0.000000 0.000000 
#    y 0.000000 1.870510 0.000000 
#    z 0.000000 0.000000 1.855980 
# 
# From -- ./inp_files/24003.got.cif
#   From: 2010.03.12/outbox.cif.g09.slc.cpg/sg55_13_cif.got.tgz:24003.got - 2010.04.16 15:19:21.
