data_PCOD8224264
_publ_section_title
;
Structure prediction by ZEFSAII (Michael W. Deem and Ramdas Pophale) SiO2 
 PCOD8224264
Probable space group: P B A M
;
_chemical_formula_sum "Si O2"
_cell_formula_units_Z 64
_cell_length_a 19.041468
_cell_length_b 20.869459
_cell_length_c 9.149702
_cell_angle_alpha 90.000000
_cell_angle_beta 90.000000
_cell_angle_gamma 90.000000
_cell_volume 3635.955571
_symmetry_space_group_name_H-M "P B A M"
_symmetry_group_IT_number 55
_symmetry_cell_setting 'orthorhombic'
loop_
_space_group_symop_operation_xyz
x,y,z
-x,-y,z
1/2+x,1/2-y,-z
1/2-x,1/2+y,-z
-x,-y,-z
x,y,-z
1/2-x,1/2+y,z
1/2+x,1/2-y,z
loop_
_atom_site_type_symbol
_atom_site_label
_atom_site_fract_x
_atom_site_fract_y
_atom_site_fract_z
Si Si1 0.544961 0.438752 0.328426
Si Si2 0.955867 0.561118 0.170366
Si Si3 0.193010 0.311784 0.832262
Si Si4 0.542647 0.312948 0.833848
Si Si5 0.290243 0.676362 0.161188
Si Si6 0.294005 0.554934 0.670276
Si Si7 0.549858 0.187644 0.326697
Si Si8 0.792115 0.549046 0.835435
O O1 0.500000 0.500000 0.281008
O O2 0.539331 0.424708 0.500000
O O3 0.514132 0.377300 0.243764
O O4 0.625209 0.452548 0.281653
O O5 0.983821 0.622428 0.261603
O O6 0.874386 0.547027 0.202990
O O7 0.000000 0.500000 0.223005
O O8 0.968129 0.575771 0.000000
O O9 0.240863 0.247950 0.804743
O O10 0.131718 0.313174 0.713307
O O11 0.236588 0.377797 0.815816
O O12 0.161995 0.308865 0.000000
O O13 0.626519 0.313928 0.827055
O O14 0.514248 0.250486 0.746946
O O15 0.514913 0.310955 0.000000
O O16 0.262622 0.622281 0.270957
O O17 0.268049 0.653412 0.000000
O O18 0.284732 0.556560 0.500000
O O19 0.250496 0.495324 0.727401
O O20 0.539156 0.190475 0.500000
O O21 0.779203 0.524748 0.000000
#
# Coordination Sequence:
#
# PCOD8224264 Si02
#       8
#     8   8   8   8   8   8   8   8
#     4   9  18  32  48  67  93 123 155 192 233 274
#     4   9  18  33  51  69  91 121 156 191 226 267
#     4   8  15  28  45  65  88 116 152 191 228 266
#     4   9  16  27  44  66  91 118 153 193 228 268
#     4   8  14  26  44  64  86 113 148 191 229 260
#     4  10  19  29  44  68  95 122 151 184 225 274
#     4  10  17  25  42  68  95 120 148 186 231 273
#     4   9  17  30  48  69  93 120 149 185 228 270
#
# _framework density 17.601974999999999
#
# number of rings (size 3 to 8) (size 9 to 14) (size 15 to 20)
#    0.000    3.000    0.000    3.375    0.000    6.000 
#    0.000    0.000    0.000    1.500    0.000    5.250 
#    0.000    0.000    0.000    0.000    0.000    0.000 
#
# Total GULP energy -793134.656079 kJ/mol
# GULP energy per Si atom -12392.729001 kJ/mol
# Density = 1.756191 g / cm^3
# Si number density = 17.601975 Si / 1000 Ang^3
#
#
#
# Elastic Constant Matrix: (Units=GPa)
#
#
# Indices 1 2 3 4 5 6 
#
# 1 25.6406 40.7594 24.3179 0.0000 0.0000 0.0000
# 2 40.7594 193.0044 80.4995 0.0000 0.0000 0.0000
# 3 24.3179 80.4995 97.3460 0.0000 0.0000 0.0000
# 4 0.0000 0.0000 0.0000 32.3771 0.0000 0.0000
# 5 0.0000 0.0000 0.0000 0.0000 14.2685 0.0000
# 6 0.0000 0.0000 0.0000 0.0000 0.0000 24.0336
#
#
#
# Elastic Compliance Matrix: (Units=1/GPa)
#
#
# Indices 1 2 3 4 5 6 
#
# 1 0.061754 -0.010086 -0.007086 0.000000 0.000000 0.000000
# 2 -0.010086 0.009556 -0.005383 0.000000 0.000000 0.000000
# 3 -0.007086 -0.005383 0.016494 0.000000 0.000000 0.000000
# 4 0.000000 0.000000 0.000000 0.030886 0.000000 0.000000
# 5 0.000000 0.000000 0.000000 0.000000 0.070084 0.000000
# 6 0.000000 0.000000 0.000000 0.000000 0.000000 0.041608
#
#
# Mechanical properties :
#
#
# Convention : Reuss Voigt Hill
#
# Bulk Modulus (GPa) = 23.42222 67.46052 45.44137
# Shear Modulus (GPa) = 17.25771 25.49681 21.37726
#
# Velocity S-wave (km/s) = 3.13460 3.81007 3.48872
# Velocity P-wave (km/s) = 5.14163 7.60028 6.48848
#
# Compressibility (1/GPa) = 0.04269450
#
# Stress axis : x y z
#
# Youngs Moduli (GPa) = 16.19320 104.64190 60.62693
#
# Poissons Ratio (x) = 1.05541 0.42962
# Poissons Ratio (y) = 0.16332 0.32636
# Poissons Ratio (z) = 0.11475 0.56329
#
# Static dielectric constant tensor:
#      x y z
#    x 2.694280 0.000000 0.000000 
#    y 0.000000 3.788360 0.000000 
#    z 0.000000 0.000000 3.224500 
# 
# 
# High freq. dielectric constant tensor:
#      x y z
#    x 1.604880 0.000000 0.000000 
#    y 0.000000 1.708700 0.000000 
#    z 0.000000 0.000000 1.680570 
# 
# From -- ./inp_files/9131.got.cif
#   From: 2010.03.12/outbox.cif.g09.slc.cpg/sg55_5_cif.got.tgz:9131.got - 2010.04.16 15:19:21.
