data_PCOD8224256
_publ_section_title
;
Structure prediction by ZEFSAII (Michael W. Deem and Ramdas Pophale) SiO2 
 PCOD8224256
Probable space group: P B A M
;
_chemical_formula_sum "Si O2"
_cell_formula_units_Z 52
_cell_length_a 16.835518
_cell_length_b 10.504294
_cell_length_c 16.120542
_cell_angle_alpha 90.000000
_cell_angle_beta 90.000000
_cell_angle_gamma 90.000000
_cell_volume 2850.840969
_symmetry_space_group_name_H-M "P B A M"
_symmetry_group_IT_number 55
_symmetry_cell_setting 'orthorhombic'
loop_
_space_group_symop_operation_xyz
x,y,z
-x,-y,z
1/2+x,1/2-y,-z
1/2-x,1/2+y,-z
-x,-y,-z
x,y,-z
1/2-x,1/2+y,z
1/2+x,1/2-y,z
loop_
_atom_site_type_symbol
_atom_site_label
_atom_site_fract_x
_atom_site_fract_y
_atom_site_fract_z
Si Si1 0.814729 0.562115 0.219870
Si Si2 0.875040 0.847414 0.593057
Si Si3 0.415924 0.066773 0.907062
Si Si4 0.000000 0.000000 0.701155
Si Si5 0.570404 0.750483 0.760975
Si Si6 0.241834 0.686902 0.278541
Si Si7 0.946415 0.605929 0.653250
O O1 0.856711 0.537894 0.132122
O O2 0.749873 0.449365 0.232265
O O3 0.780196 0.704178 0.220017
O O4 0.873514 0.541232 0.298191
O O5 0.862164 0.899378 0.500000
O O6 0.930851 0.943495 0.643192
O O7 0.789120 0.826906 0.635146
O O8 0.917769 0.709995 0.587343
O O9 0.414300 0.198304 0.854247
O O10 0.500000 0.000000 0.908314
O O11 0.387964 0.100991 0.000000
O O12 0.042173 0.896284 0.760275
O O13 0.650604 0.770000 0.706389
O O14 0.499037 0.831760 0.724835
O O15 0.000000 0.500000 0.606354
#
# Coordination Sequence:
#
# PCOD8224256 Si02
#       7
#     8   8   8   4   8   8   8
#     4  10  18  34  53  82 108 146 187 228 266 345
#     4  10  22  36  52  80 111 143 185 237 283 328
#     4  10  18  32  58  85 106 135 180 237 276 313
#     4  10  21  36  61  78 112 154 190 228 287 342
#     4  10  18  35  57  85 105 148 192 223 272 352
#     4  10  20  33  56  76 112 149 186 224 280 336
#     4  10  16  33  58  75 102 137 189 231 265 325
#
# _framework density 18.240231000000001
#
# number of rings (size 3 to 8) (size 9 to 14) (size 15 to 20)
#    0.000    2.000    4.615    1.154    0.000    0.308 
#    0.000   13.462    0.000    0.000    0.000    0.000 
#    0.000    0.000    0.000    0.000    0.000    0.000 
#
# Total GULP energy -644428.328695 kJ/mol
# GULP energy per Si atom -12392.852475 kJ/mol
# Density = 1.819872 g / cm^3
# Si number density = 18.240231 Si / 1000 Ang^3
#
#
#
# Elastic Constant Matrix: (Units=GPa)
#
#
# Indices 1 2 3 4 5 6 
#
# 1 76.4562 43.1784 32.3083 0.0000 0.0000 0.0000
# 2 43.1784 114.4474 42.4890 0.0000 0.0000 0.0000
# 3 32.3083 42.4890 101.5821 0.0000 0.0000 0.0000
# 4 0.0000 0.0000 0.0000 18.9547 0.0000 0.0000
# 5 0.0000 0.0000 0.0000 0.0000 15.9547 0.0000
# 6 0.0000 0.0000 0.0000 0.0000 0.0000 37.4940
#
#
#
# Elastic Compliance Matrix: (Units=1/GPa)
#
#
# Indices 1 2 3 4 5 6 
#
# 1 0.017520 -0.005376 -0.003324 0.000000 0.000000 0.000000
# 2 -0.005376 0.011994 -0.003307 0.000000 0.000000 0.000000
# 3 -0.003324 -0.003307 0.012284 0.000000 0.000000 0.000000
# 4 0.000000 0.000000 0.000000 0.052757 0.000000 0.000000
# 5 0.000000 0.000000 0.000000 0.000000 0.062677 0.000000
# 6 0.000000 0.000000 0.000000 0.000000 0.000000 0.026671
#
#
# Mechanical properties :
#
#
# Convention : Reuss Voigt Hill
#
# Bulk Modulus (GPa) = 56.22632 58.71523 57.47077
# Shear Modulus (GPa) = 23.38146 26.11467 24.74806
#
# Velocity S-wave (km/s) = 3.58419 3.78790 3.68745
# Velocity P-wave (km/s) = 6.92972 7.16873 7.05024
#
# Compressibility (1/GPa) = 0.01778527
#
# Stress axis : x y z
#
# Youngs Moduli (GPa) = 57.07788 83.37848 81.40379
#
# Poissons Ratio (x) = 0.44824 0.27055
# Poissons Ratio (y) = 0.30685 0.26918
# Poissons Ratio (z) = 0.18970 0.27571
#
# Static dielectric constant tensor:
#      x y z
#    x 3.533340 0.000000 0.000000 
#    y 0.000000 3.653710 0.000000 
#    z 0.000000 0.000000 3.101590 
# 
# 
# High freq. dielectric constant tensor:
#      x y z
#    x 1.715620 0.000000 0.000000 
#    y 0.000000 1.719090 0.000000 
#    z 0.000000 0.000000 1.663930 
# 
# From -- ./inp_files/19444.got.cif
#   From: 2010.03.12/outbox.cif.g09.slc.cpg/sg55_10_cif.got.tgz:19444.got - 2010.04.16 15:19:21.
