data_PCOD8224061
_publ_section_title
;
Structure prediction by ZEFSAII (Michael W. Deem and Ramdas Pophale) SiO2 
 PCOD8224061
Probable space group: P C C A
;
_chemical_formula_sum "Si O2"
_cell_formula_units_Z 44
_cell_length_a 16.150215
_cell_length_b 8.265504
_cell_length_c 14.693736
_cell_angle_alpha 90.000000
_cell_angle_beta 90.000000
_cell_angle_gamma 90.000000
_cell_volume 1961.461921
_symmetry_space_group_name_H-M "P C C A"
_symmetry_group_IT_number 54
_symmetry_cell_setting 'orthorhombic'
loop_
_space_group_symop_operation_xyz
x,y,z
1/2-x,-y,z
1/2+x,-y,1/2-z
-x,y,1/2-z
-x,-y,-z
1/2+x,y,-z
1/2-x,y,1/2+z
x,-y,1/2+z
loop_
_atom_site_type_symbol
_atom_site_label
_atom_site_fract_x
_atom_site_fract_y
_atom_site_fract_z
Si Si1 0.351563 0.843511 0.161355
Si Si2 0.000000 0.345145 0.250000
Si Si3 0.295821 0.660691 0.985653
Si Si4 0.969530 0.423919 0.591864
Si Si5 0.270611 0.313885 0.292501
Si Si6 0.422788 0.176790 0.193945
O O1 0.435933 0.756963 0.190092
O O2 0.284490 0.814406 0.238494
O O3 0.369954 0.033335 0.148086
O O4 0.310969 0.783042 0.067294
O O5 0.954303 0.454348 0.175482
O O6 0.250000 0.500000 0.024946
O O7 0.380014 0.640109 0.930546
O O8 0.244476 0.725386 0.898090
O O9 0.000000 0.500000 0.500000
O O10 0.039791 0.291333 0.615745
O O11 0.250000 0.500000 0.267180
O O12 0.366170 0.280717 0.263226
O O13 0.500000 0.102721 0.250000
#
# Coordination Sequence:
#
# PCOD8224061 Si02
#       6
#     8   4   8   8   8   8
#     4  12  26  44  73 109 149 188 238 308 377 437
#     4  12  22  44  72 108 140 194 244 298 364 438
#     4  11  24  44  74 107 141 194 250 301 361 443
#     4  12  24  43  73 105 143 195 252 299 351 441
#     4  11  24  49  76 101 142 192 247 299 361 443
#     4  12  25  48  72 104 151 187 234 305 372 432
#
# _framework density 22.432247
#
# number of rings (size 3 to 8) (size 9 to 14) (size 15 to 20)
#    0.000    0.364    5.455    4.364    2.545    0.727 
#    3.273    1.818    0.000    0.000    0.000    0.000 
#    0.000    0.000    0.000    0.000    0.000    0.000 
#
# Total GULP energy -545325.283751 kJ/mol
# GULP energy per Si atom -12393.756449 kJ/mol
# Density = 2.238119 g / cm^3
# Si number density = 22.432247 Si / 1000 Ang^3
#
#
#
# Elastic Constant Matrix: (Units=GPa)
#
#
# Indices 1 2 3 4 5 6 
#
# 1 86.7876 41.4605 29.7388 0.0000 0.0000 0.0000
# 2 41.4605 133.0194 65.0043 0.0000 0.0000 0.0000
# 3 29.7388 65.0043 159.6008 0.0000 0.0000 0.0000
# 4 0.0000 0.0000 0.0000 -27.7514 0.0000 0.0000
# 5 0.0000 0.0000 0.0000 0.0000 38.9826 0.0000
# 6 0.0000 0.0000 0.0000 0.0000 0.0000 39.2145
#
#
#
# Elastic Compliance Matrix: (Units=1/GPa)
#
#
# Indices 1 2 3 4 5 6 
#
# 1 0.013668 -0.003765 -0.001013 0.000000 0.000000 0.000000
# 2 -0.003765 0.010423 -0.003544 0.000000 0.000000 0.000000
# 3 -0.001013 -0.003544 0.007898 0.000000 0.000000 0.000000
# 4 0.000000 0.000000 0.000000 -0.036034 0.000000 0.000000
# 5 0.000000 0.000000 0.000000 0.000000 0.025652 0.000000
# 6 0.000000 0.000000 0.000000 0.000000 0.000000 0.025501
#
#
# Mechanical properties :
#
#
# Convention : Reuss Voigt Hill
#
# Bulk Modulus (GPa) = 65.16829 72.42391 68.79610
# Shear Modulus (GPa) = 72.60368 26.30275 49.45321
#
# Velocity S-wave (km/s) = 5.69526 3.42795 4.70037
# Velocity P-wave (km/s) = 8.50660 6.92990 7.75841
#
# Compressibility (1/GPa) = 0.01534489
#
# Stress axis : x y z
#
# Youngs Moduli (GPa) = 73.16217 95.94236 126.61816
#
# Poissons Ratio (x) = 0.36122 0.12831
# Poissons Ratio (y) = 0.27546 0.44869
# Poissons Ratio (z) = 0.07414 0.33999
#
# Static dielectric constant tensor:
#      x y z
#    x 4.288830 0.000000 0.000000 
#    y 0.000000 3.897660 0.000000 
#    z 0.000000 0.000000 4.412870 
# 
# 
# High freq. dielectric constant tensor:
#      x y z
#    x 1.905810 0.000000 0.000000 
#    y 0.000000 1.865860 0.000000 
#    z 0.000000 0.000000 1.899090 
# 
# From -- ./inp_files/13997.got.cif
#   From: 2010.03.12/outbox.cif.g09.slc.cpg/sg54_7_cif.got.tgz:13997.got - 2010.04.16 15:00:50.
