data_PCOD8224560
_publ_section_title
;
Structure prediction by ZEFSAII (Michael W. Deem and Ramdas Pophale) SiO2 
 PCOD8224560
Probable space group: P B A M
;
_chemical_formula_sum "Si O2"
_cell_formula_units_Z 64
_cell_length_a 24.307708
_cell_length_b 14.723459
_cell_length_c 9.629780
_cell_angle_alpha 90.000000
_cell_angle_beta 90.000000
_cell_angle_gamma 90.000000
_cell_volume 3446.436074
_symmetry_space_group_name_H-M "P B A M"
_symmetry_group_IT_number 55
_symmetry_cell_setting 'orthorhombic'
loop_
_space_group_symop_operation_xyz
x,y,z
-x,-y,z
1/2+x,1/2-y,-z
1/2-x,1/2+y,-z
-x,-y,-z
x,y,-z
1/2-x,1/2+y,z
1/2+x,1/2-y,z
loop_
_atom_site_type_symbol
_atom_site_label
_atom_site_fract_x
_atom_site_fract_y
_atom_site_fract_z
Si Si1 0.876443 0.442133 0.658909
Si Si2 0.663515 0.500110 0.333612
Si Si3 0.765592 0.167153 0.662097
Si Si4 0.856829 0.643393 0.656644
Si Si5 0.556713 0.452431 0.160652
Si Si6 0.760657 0.369368 0.335272
Si Si7 0.025339 0.597364 0.161479
Si Si8 0.063932 0.256938 0.159028
O O1 0.883709 0.410306 0.500000
O O2 0.889111 0.549043 0.674766
O O3 0.814835 0.423337 0.711883
O O4 0.918964 0.386830 0.752831
O O5 0.655338 0.497367 0.500000
O O6 0.688061 0.597490 0.282562
O O7 0.605472 0.488192 0.257884
O O8 0.705735 0.421110 0.282779
O O9 0.775663 0.177580 0.500000
O O10 0.706356 0.123893 0.694495
O O11 0.766475 0.267975 0.729410
O O12 0.861485 0.680651 0.500000
O O13 0.881548 0.721028 0.753987
O O14 0.500000 0.500000 0.205016
O O15 0.546663 0.346010 0.184845
O O16 0.571339 0.473248 0.000000
O O17 0.756701 0.365589 0.500000
O O18 0.000000 0.500000 0.198947
O O19 0.985135 0.677880 0.208879
O O20 0.040033 0.603944 0.000000
O O21 0.078423 0.277132 0.000000
#
# Coordination Sequence:
#
# PCOD8224560 Si02
#       8
#     8   8   8   8   8   8   8   8
#     4  10  19  31  50  77 109 140 170 212 262 311
#     4  10  19  35  59  84 108 138 179 221 260 311
#     4   9  17  30  52  80 110 143 173 209 261 315
#     4  10  18  31  53  81 109 138 176 217 261 311
#     4  10  23  42  59  76 104 141 179 222 270 313
#     4   9  17  31  51  79 113 142 170 210 263 313
#     4  10  20  34  51  73 103 139 175 211 259 314
#     4  10  21  37  56  76 102 141 183 220 264 318
#
# _framework density 18.569908999999999
#
# number of rings (size 3 to 8) (size 9 to 14) (size 15 to 20)
#    0.000    2.250    2.500    0.750    0.000    3.500 
#    0.000    1.250    0.000    1.500    0.000    0.000 
#    0.000    0.000    0.000    0.000    0.000    0.000 
#
# Total GULP energy -793450.681958 kJ/mol
# GULP energy per Si atom -12397.666906 kJ/mol
# Density = 1.852764 g / cm^3
# Si number density = 18.569909 Si / 1000 Ang^3
#
#
#
# Elastic Constant Matrix: (Units=GPa)
#
#
# Indices 1 2 3 4 5 6 
#
# 1 133.4814 62.0767 56.6838 0.0000 0.0000 0.0000
# 2 62.0767 121.1859 34.4816 0.0000 0.0000 0.0000
# 3 56.6838 34.4816 50.2405 0.0000 0.0000 0.0000
# 4 0.0000 0.0000 0.0000 17.9420 0.0000 0.0000
# 5 0.0000 0.0000 0.0000 0.0000 6.7880 0.0000
# 6 0.0000 0.0000 0.0000 0.0000 0.0000 33.2296
#
#
#
# Elastic Compliance Matrix: (Units=1/GPa)
#
#
# Indices 1 2 3 4 5 6 
#
# 1 0.015620 -0.003712 -0.015076 0.000000 0.000000 0.000000
# 2 -0.003712 0.011136 -0.003456 0.000000 0.000000 0.000000
# 3 -0.015076 -0.003456 0.039285 0.000000 0.000000 0.000000
# 4 0.000000 0.000000 0.000000 0.055735 0.000000 0.000000
# 5 0.000000 0.000000 0.000000 0.000000 0.147320 0.000000
# 6 0.000000 0.000000 0.000000 0.000000 0.000000 0.030094
#
#
# Mechanical properties :
#
#
# Convention : Reuss Voigt Hill
#
# Bulk Modulus (GPa) = 46.39190 67.93247 57.16219
# Shear Modulus (GPa) = 14.25069 21.70296 17.97683
#
# Velocity S-wave (km/s) = 2.77322 3.42236 3.11475
# Velocity P-wave (km/s) = 5.94061 7.23036 6.61699
#
# Compressibility (1/GPa) = 0.02155549
#
# Stress axis : x y z
#
# Youngs Moduli (GPa) = 64.02145 89.79686 25.45497
#
# Poissons Ratio (x) = 0.33329 0.38375
# Poissons Ratio (y) = 0.23762 0.08796
# Poissons Ratio (z) = 0.96516 0.31030
#
# Static dielectric constant tensor:
#      x y z
#    x 3.375330 0.000000 0.000000 
#    y 0.000000 3.676710 0.000000 
#    z 0.000000 0.000000 3.083830 
# 
# 
# High freq. dielectric constant tensor:
#      x y z
#    x 1.721760 0.000000 0.000000 
#    y 0.000000 1.729030 0.000000 
#    z 0.000000 0.000000 1.683070 
# 
# From -- ./inp_files/6675.got.cif
#   From: 2010.03.12/outbox.cif.g09.slc.cpg/sg55_4_cif.got.tgz:6675.got - 2010.04.16 15:19:21.
