data_PCOD8224872
_publ_section_title
;
Structure prediction by ZEFSAII (Michael W. Deem and Ramdas Pophale) SiO2 
 PCOD8224872
Probable space group: P B A M
;
_chemical_formula_sum "Si O2"
_cell_formula_units_Z 56
_cell_length_a 13.677291
_cell_length_b 29.502787
_cell_length_c 8.881867
_cell_angle_alpha 90.000000
_cell_angle_beta 90.000000
_cell_angle_gamma 90.000000
_cell_volume 3583.995012
_symmetry_space_group_name_H-M "P B A M"
_symmetry_group_IT_number 55
_symmetry_cell_setting 'orthorhombic'
loop_
_space_group_symop_operation_xyz
x,y,z
-x,-y,z
1/2+x,1/2-y,-z
1/2-x,1/2+y,-z
-x,-y,-z
x,y,-z
1/2-x,1/2+y,z
1/2+x,1/2-y,z
loop_
_atom_site_type_symbol
_atom_site_label
_atom_site_fract_x
_atom_site_fract_y
_atom_site_fract_z
Si Si1 0.895207 0.231666 0.323306
Si Si2 0.105239 0.402503 0.820012
Si Si3 0.723020 0.820269 0.322888
Si Si4 0.615791 0.000587 0.164418
Si Si5 0.103192 0.227406 0.825106
Si Si6 0.222794 0.316222 0.175579
Si Si7 0.615329 0.902552 0.180209
O O1 0.913465 0.227838 0.500000
O O2 0.852507 0.280651 0.277101
O O3 0.819560 0.192972 0.271922
O O4 0.994656 0.223478 0.236333
O O5 0.142451 0.451525 0.753163
O O6 0.177826 0.363334 0.764140
O O7 0.995086 0.391393 0.765388
O O8 0.104195 0.405409 0.000000
O O9 0.730641 0.825649 0.500000
O O10 0.829856 0.809111 0.259364
O O11 0.688994 0.867075 0.251371
O O12 0.500000 0.000000 0.144754
O O13 0.646632 0.952951 0.242567
O O14 0.665536 0.001180 0.000000
O O15 0.141861 0.277914 0.794281
O O16 0.103843 0.215364 0.000000
O O17 0.250718 0.318372 0.000000
O O18 0.622245 0.900888 0.000000
#
# Coordination Sequence:
#
# PCOD8224872 Si02
#       7
#     8   8   8   8   8   8   8
#     4  10  20  32  44  60  86 116 143 174 213 255
#     4   8  13  23  41  65  90 114 142 177 214 250
#     4  10  20  31  43  62  89 119 146 172 210 257
#     4   7  11  20  37  62  88 112 139 174 214 251
#     4  10  19  31  47  65  85 110 144 183 214 245
#     4   9  17  28  44  65  86 111 144 177 208 247
#     4   9  15  25  43  65  88 115 148 181 210 245
#
# _framework density 15.625022
#
# number of rings (size 3 to 8) (size 9 to 14) (size 15 to 20)
#    0.000    3.000    0.000    3.857    0.000    3.429 
#    0.000    0.714    0.000    4.714    0.000    1.000 
#    0.000    8.000    0.000    0.000    0.000    0.000 
#
# Total GULP energy -693959.662766 kJ/mol
# GULP energy per Si atom -12392.136835 kJ/mol
# Density = 1.558946 g / cm^3
# Si number density = 15.625022 Si / 1000 Ang^3
#
#
#
# Elastic Constant Matrix: (Units=GPa)
#
#
# Indices 1 2 3 4 5 6 
#
# 1 79.2931 51.5003 21.3537 0.0000 0.0000 0.0000
# 2 51.5003 135.9325 28.0946 0.0000 0.0000 0.0000
# 3 21.3537 28.0946 32.9510 0.0000 0.0000 0.0000
# 4 0.0000 0.0000 0.0000 10.2094 0.0000 0.0000
# 5 0.0000 0.0000 0.0000 0.0000 16.4397 0.0000
# 6 0.0000 0.0000 0.0000 0.0000 0.0000 24.6207
#
#
#
# Elastic Compliance Matrix: (Units=1/GPa)
#
#
# Indices 1 2 3 4 5 6 
#
# 1 0.018000 -0.005352 -0.007102 0.000000 0.000000 0.000000
# 2 -0.005352 0.010521 -0.005503 0.000000 0.000000 0.000000
# 3 -0.007102 -0.005503 0.039642 0.000000 0.000000 0.000000
# 4 0.000000 0.000000 0.000000 0.097949 0.000000 0.000000
# 5 0.000000 0.000000 0.000000 0.000000 0.060828 0.000000
# 6 0.000000 0.000000 0.000000 0.000000 0.000000 0.040616
#
#
# Mechanical properties :
#
#
# Convention : Reuss Voigt Hill
#
# Bulk Modulus (GPa) = 31.00670 50.00819 40.50744
# Shear Modulus (GPa) = 15.91246 20.06917 17.99081
#
# Velocity S-wave (km/s) = 3.19469 3.58778 3.39693
# Velocity P-wave (km/s) = 5.78752 7.01695 6.43168
#
# Compressibility (1/GPa) = 0.03225109
#
# Stress axis : x y z
#
# Youngs Moduli (GPa) = 55.55594 95.04359 25.22587
#
# Poissons Ratio (x) = 0.50865 0.17915
# Poissons Ratio (y) = 0.29732 0.13881
# Poissons Ratio (z) = 0.39454 0.52299
#
# Static dielectric constant tensor:
#      x y z
#    x 2.766480 0.000000 0.000000 
#    y 0.000000 3.350860 0.000000 
#    z 0.000000 0.000000 2.763880 
# 
# 
# High freq. dielectric constant tensor:
#      x y z
#    x 1.570930 0.000000 0.000000 
#    y 0.000000 1.604170 0.000000 
#    z 0.000000 0.000000 1.578600 
# 
# From -- ./inp_files/6864.got.cif
#   From: 2010.03.12/outbox.cif.g09.slc.cpg/sg55_4_cif.got.tgz:6864.got - 2010.04.16 15:19:21.
