data_PCOD8224886
_publ_section_title
;
Structure prediction by ZEFSAII (Michael W. Deem and Ramdas Pophale) SiO2 
 PCOD8224886
Probable space group: P B A M
;
_chemical_formula_sum "Si O2"
_cell_formula_units_Z 64
_cell_length_a 30.188037
_cell_length_b 14.363551
_cell_length_c 8.820168
_cell_angle_alpha 90.000000
_cell_angle_beta 90.000000
_cell_angle_gamma 90.000000
_cell_volume 3824.490194
_symmetry_space_group_name_H-M "P B A M"
_symmetry_group_IT_number 55
_symmetry_cell_setting 'orthorhombic'
loop_
_space_group_symop_operation_xyz
x,y,z
-x,-y,z
1/2+x,1/2-y,-z
1/2-x,1/2+y,-z
-x,-y,-z
x,y,-z
1/2-x,1/2+y,z
1/2+x,1/2-y,z
loop_
_atom_site_type_symbol
_atom_site_label
_atom_site_fract_x
_atom_site_fract_y
_atom_site_fract_z
Si Si1 0.550941 0.606423 0.179520
Si Si2 0.825594 0.970348 0.330824
Si Si3 0.276557 0.031048 0.329580
Si Si4 0.952430 0.896133 0.179073
Si Si5 0.635336 0.667175 0.323049
Si Si6 0.865220 0.801184 0.823026
Si Si7 0.202003 0.327613 0.321559
Si Si8 0.714038 0.776364 0.177875
O O1 0.557114 0.500368 0.240496
O O2 0.501265 0.639149 0.226190
O O3 0.585052 0.676499 0.261925
O O4 0.558161 0.612811 0.000000
O O5 0.839232 0.936152 0.500000
O O6 0.774545 0.996271 0.326930
O O7 0.835106 0.891408 0.207762
O O8 0.851495 0.062188 0.283840
O O9 0.291182 0.059799 0.500000
O O10 0.287048 0.114309 0.215819
O O11 0.300670 0.936257 0.276108
O O12 0.915049 0.823584 0.237206
O O13 0.949581 0.903852 0.000000
O O14 0.637781 0.690323 0.500000
O O15 0.667761 0.736286 0.236371
O O16 0.844709 0.714449 0.733325
O O17 0.864375 0.777943 0.000000
O O18 0.207415 0.314756 0.500000
O O19 0.243594 0.273933 0.249967
O O20 0.717379 0.762196 0.000000
#
# Coordination Sequence:
#
# PCOD8224886 Si02
#       8
#     8   8   8   8   8   8   8   8
#     4   9  16  31  50  71 100 136 172 207 250 301
#     4  10  19  31  48  69  99 138 171 204 247 293
#     4  10  21  38  54  68  97 137 172 207 249 295
#     4   8  16  29  48  72 103 136 167 207 254 298
#     4  11  21  34  50  73 103 137 173 209 251 302
#     4  11  20  31  49  76 102 134 173 209 247 295
#     4  11  22  37  53  72 101 137 170 206 253 301
#     4  12  24  35  52  76 100 131 171 213 251 296
#
# _framework density 16.734255999999998
#
# number of rings (size 3 to 8) (size 9 to 14) (size 15 to 20)
#    0.000    1.750    3.750    3.000    0.000    1.500 
#    0.000    2.500    0.000    0.000    0.000    0.875 
#    0.000    7.000    0.000    0.000    0.000    0.000 
#
# Total GULP energy -793468.236978 kJ/mol
# GULP energy per Si atom -12397.941203 kJ/mol
# Density = 1.669617 g / cm^3
# Si number density = 16.734256 Si / 1000 Ang^3
#
#
#
# Elastic Constant Matrix: (Units=GPa)
#
#
# Indices 1 2 3 4 5 6 
#
# 1 106.7680 37.9402 32.0982 0.0000 0.0000 0.0000
# 2 37.9402 60.7537 36.9271 0.0000 0.0000 0.0000
# 3 32.0982 36.9271 74.5451 0.0000 0.0000 0.0000
# 4 0.0000 0.0000 0.0000 16.1993 0.0000 0.0000
# 5 0.0000 0.0000 0.0000 0.0000 18.3325 0.0000
# 6 0.0000 0.0000 0.0000 0.0000 0.0000 26.1887
#
#
#
# Elastic Compliance Matrix: (Units=1/GPa)
#
#
# Indices 1 2 3 4 5 6 
#
# 1 0.012269 -0.006368 -0.002128 0.000000 0.000000 0.000000
# 2 -0.006368 0.026856 -0.010562 0.000000 0.000000 0.000000
# 3 -0.002128 -0.010562 0.019563 0.000000 0.000000 0.000000
# 4 0.000000 0.000000 0.000000 0.061731 0.000000 0.000000
# 5 0.000000 0.000000 0.000000 0.000000 0.054548 0.000000
# 6 0.000000 0.000000 0.000000 0.000000 0.000000 0.038184
#
#
# Mechanical properties :
#
#
# Convention : Reuss Voigt Hill
#
# Bulk Modulus (GPa) = 48.60978 50.66642 49.63810
# Shear Modulus (GPa) = 19.37046 21.15087 20.26067
#
# Velocity S-wave (km/s) = 3.40595 3.55903 3.48333
# Velocity P-wave (km/s) = 6.67671 6.87254 6.77533
#
# Compressibility (1/GPa) = 0.02057199
#
# Stress axis : x y z
#
# Youngs Moduli (GPa) = 81.50698 37.23504 51.11696
#
# Poissons Ratio (x) = 0.23712 0.10879
# Poissons Ratio (y) = 0.51906 0.53988
# Poissons Ratio (z) = 0.17346 0.39326
#
# Static dielectric constant tensor:
#      x y z
#    x 3.392590 0.000000 0.000000 
#    y 0.000000 3.034430 0.000000 
#    z 0.000000 0.000000 3.089880 
# 
# 
# High freq. dielectric constant tensor:
#      x y z
#    x 1.641680 0.000000 0.000000 
#    y 0.000000 1.616720 0.000000 
#    z 0.000000 0.000000 1.641840 
# 
# From -- ./inp_files/10909.got.cif
#   From: 2010.03.12/outbox.cif.g09.slc.cpg/sg55_6_cif.got.tgz:10909.got - 2010.04.16 15:19:21.
