data_PCOD8224577
_publ_section_title
;
Structure prediction by ZEFSAII (Michael W. Deem and Ramdas Pophale) SiO2 
 PCOD8224577
Probable space group: P B A M
;
_chemical_formula_sum "Si O2"
_cell_formula_units_Z 64
_cell_length_a 12.480632
_cell_length_b 28.644581
_cell_length_c 9.368860
_cell_angle_alpha 90.000000
_cell_angle_beta 90.000000
_cell_angle_gamma 90.000000
_cell_volume 3349.390631
_symmetry_space_group_name_H-M "P B A M"
_symmetry_group_IT_number 55
_symmetry_cell_setting 'orthorhombic'
loop_
_space_group_symop_operation_xyz
x,y,z
-x,-y,z
1/2+x,1/2-y,-z
1/2-x,1/2+y,-z
-x,-y,-z
x,y,-z
1/2-x,1/2+y,z
1/2+x,1/2-y,z
loop_
_atom_site_type_symbol
_atom_site_label
_atom_site_fract_x
_atom_site_fract_y
_atom_site_fract_z
Si Si1 0.649097 0.377647 0.832094
Si Si2 0.446581 0.797254 0.668136
Si Si3 0.386557 0.518082 0.830668
Si Si4 0.246282 0.931134 0.835375
Si Si5 0.505668 0.307250 0.663516
Si Si6 0.489071 0.949416 0.165040
Si Si7 0.890480 0.360741 0.831578
Si Si8 0.223397 0.841718 0.664085
O O1 0.640874 0.430511 0.770864
O O2 0.558927 0.346636 0.759603
O O3 0.765221 0.356047 0.796427
O O4 0.627498 0.377414 0.000000
O O5 0.463817 0.804663 0.500000
O O6 0.449002 0.742905 0.709082
O O7 0.544564 0.821114 0.749877
O O8 0.331860 0.817073 0.720690
O O9 0.500000 0.500000 0.770881
O O10 0.297237 0.480937 0.779423
O O11 0.388071 0.520830 0.000000
O O12 0.372236 0.928813 0.810443
O O13 0.194988 0.888737 0.748887
O O14 0.214346 0.924313 0.000000
O O15 0.534720 0.318289 0.500000
O O16 0.377015 0.307104 0.685729
O O17 0.571898 0.911551 0.226864
O O18 0.500000 0.000000 0.241749
O O19 0.517268 0.956626 0.000000
O O20 0.914171 0.356093 0.000000
O O21 0.238788 0.855543 0.500000
#
# Coordination Sequence:
#
# PCOD8224577 Si02
#       8
#     8   8   8   8   8   8   8   8
#     4  10  21  37  57  86 120 149 182 232 282 325
#     4  10  22  39  60  81 106 145 188 233 283 336
#     4   9  17  30  51  80 113 148 188 226 267 324
#     4  10  18  31  55  82 108 147 188 222 270 335
#     4  10  23  40  60  82 107 146 192 232 279 341
#     4   9  16  28  49  78 109 142 180 220 265 321
#     4  10  20  35  55  83 116 144 179 229 279 329
#     4  10  21  38  57  82 112 140 182 239 285 325
#
# _framework density 19.107952999999998
#
# number of rings (size 3 to 8) (size 9 to 14) (size 15 to 20)
#    0.000    2.250    1.250    1.500    1.750    5.500 
#    0.000    0.625    0.000    5.250    0.000    0.000 
#    0.000    0.000    0.000    0.000    0.000    0.000 
#
# Total GULP energy -793581.982405 kJ/mol
# GULP energy per Si atom -12399.718475 kJ/mol
# Density = 1.906446 g / cm^3
# Si number density = 19.107953 Si / 1000 Ang^3
#
#
#
# Elastic Constant Matrix: (Units=GPa)
#
#
# Indices 1 2 3 4 5 6 
#
# 1 85.2499 55.8149 35.6039 0.0000 0.0000 0.0000
# 2 55.8149 133.2197 38.6139 0.0000 0.0000 0.0000
# 3 35.6039 38.6139 35.0742 0.0000 0.0000 0.0000
# 4 0.0000 0.0000 0.0000 7.4012 0.0000 0.0000
# 5 0.0000 0.0000 0.0000 0.0000 24.4536 0.0000
# 6 0.0000 0.0000 0.0000 0.0000 0.0000 33.1994
#
#
#
# Elastic Compliance Matrix: (Units=1/GPa)
#
#
# Indices 1 2 3 4 5 6 
#
# 1 0.021709 -0.003977 -0.017658 0.000000 0.000000 0.000000
# 2 -0.003977 0.011753 -0.008902 0.000000 0.000000 0.000000
# 3 -0.017658 -0.008902 0.056236 0.000000 0.000000 0.000000
# 4 0.000000 0.000000 0.000000 0.135114 0.000000 0.000000
# 5 0.000000 0.000000 0.000000 0.000000 0.040894 0.000000
# 6 0.000000 0.000000 0.000000 0.000000 0.000000 0.030121
#
#
# Mechanical properties :
#
#
# Convention : Reuss Voigt Hill
#
# Bulk Modulus (GPa) = 34.93633 57.06770 46.00201
# Shear Modulus (GPa) = 13.64471 21.24490 17.44480
#
# Velocity S-wave (km/s) = 2.67514 3.33804 3.02480
# Velocity P-wave (km/s) = 5.27875 6.69234 6.02713
#
# Compressibility (1/GPa) = 0.02862350
#
# Stress axis : x y z
#
# Youngs Moduli (GPa) = 46.06395 85.08547 17.78214
#
# Poissons Ratio (x) = 0.33839 0.31400
# Poissons Ratio (y) = 0.18320 0.15829
# Poissons Ratio (z) = 0.81341 0.75742
#
# Static dielectric constant tensor:
#      x y z
#    x 3.570820 0.000000 0.000000 
#    y 0.000000 3.631590 0.000000 
#    z 0.000000 0.000000 3.127210 
# 
# 
# High freq. dielectric constant tensor:
#      x y z
#    x 1.755640 0.000000 0.000000 
#    y 0.000000 1.753620 0.000000 
#    z 0.000000 0.000000 1.699700 
# 
# From -- ./inp_files/4495.got.cif
#   From: 2010.03.12/outbox.cif.g09.slc.cpg/sg55_3_cif.got.tgz:4495.got - 2010.04.16 15:19:21.
