data_PCOD8224574
_publ_section_title
;
Structure prediction by ZEFSAII (Michael W. Deem and Ramdas Pophale) SiO2 
 PCOD8224574
Probable space group: P B A M
;
_chemical_formula_sum "Si O2"
_cell_formula_units_Z 64
_cell_length_a 19.396580
_cell_length_b 19.934727
_cell_length_c 9.089027
_cell_angle_alpha 90.000000
_cell_angle_beta 90.000000
_cell_angle_gamma 90.000000
_cell_volume 3514.413415
_symmetry_space_group_name_H-M "P B A M"
_symmetry_group_IT_number 55
_symmetry_cell_setting 'orthorhombic'
loop_
_space_group_symop_operation_xyz
x,y,z
-x,-y,z
1/2+x,1/2-y,-z
1/2-x,1/2+y,-z
-x,-y,-z
x,y,-z
1/2-x,1/2+y,z
1/2+x,1/2-y,z
loop_
_atom_site_type_symbol
_atom_site_label
_atom_site_fract_x
_atom_site_fract_y
_atom_site_fract_z
Si Si1 0.682883 0.598264 0.826723
Si Si2 0.971773 0.068931 0.826460
Si Si3 0.225870 0.152121 0.171503
Si Si4 0.905594 0.680481 0.327202
Si Si5 0.433401 0.956799 0.826683
Si Si6 0.749932 0.214838 0.671808
Si Si7 0.712393 0.986804 0.174055
Si Si8 0.069791 0.185023 0.171585
O O1 0.607728 0.572672 0.783849
O O2 0.692967 0.668338 0.745352
O O3 0.737864 0.544855 0.764332
O O4 0.691425 0.609709 0.000000
O O5 0.013589 0.132891 0.765329
O O6 0.983653 0.067589 0.000000
O O7 0.000000 0.000000 0.756141
O O8 0.260557 0.212007 0.260746
O O9 0.260684 0.084412 0.234610
O O10 0.144061 0.151186 0.200255
O O11 0.242184 0.162135 0.000000
O O12 0.919790 0.678839 0.500000
O O13 0.937595 0.614141 0.255204
O O14 0.824740 0.684303 0.289525
O O15 0.941687 0.746077 0.259573
O O16 0.500000 0.000000 0.782350
O O17 0.365839 0.998398 0.775457
O O18 0.430843 0.942320 0.000000
O O19 0.762831 0.219411 0.500000
O O20 0.718907 0.985581 0.000000
O O21 0.059459 0.201304 0.000000
#
# Coordination Sequence:
#
# PCOD8224574 Si02
#       8
#     8   8   8   8   8   8   8   8
#     4  10  18  31  55  79 103 137 171 209 256 308
#     4   9  17  30  51  82 111 133 167 215 261 305
#     4   9  17  31  53  77 102 134 170 212 257 305
#     4  10  20  35  55  75 101 139 179 215 254 307
#     4  10  20  35  55  78 104 133 169 219 269 312
#     4  10  20  34  51  74 103 135 174 216 252 297
#     4   9  17  31  53  80 103 128 169 213 257 307
#     4   9  17  31  53  79 106 137 173 213 257 305
#
# _framework density 18.210720999999999
#
# number of rings (size 3 to 8) (size 9 to 14) (size 15 to 20)
#    0.000    2.500    1.250    1.500    0.000    4.250 
#    2.250    1.875    0.000    3.000    0.000    0.000 
#    0.000    0.000    0.000    0.000    0.000    0.000 
#
# Total GULP energy -793674.401626 kJ/mol
# GULP energy per Si atom -12401.162525 kJ/mol
# Density = 1.816927 g / cm^3
# Si number density = 18.210721 Si / 1000 Ang^3
#
#
#
# Elastic Constant Matrix: (Units=GPa)
#
#
# Indices 1 2 3 4 5 6 
#
# 1 102.5326 78.0233 35.9924 0.0000 0.0000 0.0000
# 2 78.0233 167.2623 49.7051 0.0000 0.0000 0.0000
# 3 35.9924 49.7051 45.3845 0.0000 0.0000 0.0000
# 4 0.0000 0.0000 0.0000 0.7923 0.0000 0.0000
# 5 0.0000 0.0000 0.0000 0.0000 13.3186 0.0000
# 6 0.0000 0.0000 0.0000 0.0000 0.0000 34.9173
#
#
#
# Elastic Compliance Matrix: (Units=1/GPa)
#
#
# Indices 1 2 3 4 5 6 
#
# 1 0.016453 -0.005630 -0.006883 0.000000 0.000000 0.000000
# 2 -0.005630 0.010789 -0.007352 0.000000 0.000000 0.000000
# 3 -0.006883 -0.007352 0.035544 0.000000 0.000000 0.000000
# 4 0.000000 0.000000 0.000000 1.262121 0.000000 0.000000
# 5 0.000000 0.000000 0.000000 0.000000 0.075083 0.000000
# 6 0.000000 0.000000 0.000000 0.000000 0.000000 0.028639
#
#
# Mechanical properties :
#
#
# Convention : Reuss Voigt Hill
#
# Bulk Modulus (GPa) = 43.36854 71.40233 57.38544
# Shear Modulus (GPa) = 3.38743 19.90288 11.64516
#
# Velocity S-wave (km/s) = 1.36535 3.30952 2.53151
# Velocity P-wave (km/s) = 5.13343 7.34153 6.33443
#
# Compressibility (1/GPa) = 0.02305819
#
# Stress axis : x y z
#
# Youngs Moduli (GPa) = 60.77974 92.68296 28.13390
#
# Poissons Ratio (x) = 0.52176 0.19363
# Poissons Ratio (y) = 0.34216 0.20684
# Poissons Ratio (z) = 0.41832 0.68142
#
# Static dielectric constant tensor:
#      x y z
#    x 3.327050 0.000000 0.000000 
#    y 0.000000 3.496610 0.000000 
#    z 0.000000 0.000000 3.013900 
# 
# 
# High freq. dielectric constant tensor:
#      x y z
#    x 1.697050 0.000000 0.000000 
#    y 0.000000 1.719610 0.000000 
#    z 0.000000 0.000000 1.672370 
# 
# From -- ./inp_files/9037.got.cif
#   From: 2010.03.12/outbox.cif.g09.slc.cpg/sg55_5_cif.got.tgz:9037.got - 2010.04.16 15:19:21.
