data_PCOD8224421
_publ_section_title
;
Structure prediction by ZEFSAII (Michael W. Deem and Ramdas Pophale) SiO2 
 PCOD8224421
Probable space group: P B A M
;
_chemical_formula_sum "Si O2"
_cell_formula_units_Z 40
_cell_length_a 21.004845
_cell_length_b 12.420594
_cell_length_c 9.068955
_cell_angle_alpha 90.000000
_cell_angle_beta 90.000000
_cell_angle_gamma 90.000000
_cell_volume 2366.023719
_symmetry_space_group_name_H-M "P B A M"
_symmetry_group_IT_number 55
_symmetry_cell_setting 'orthorhombic'
loop_
_space_group_symop_operation_xyz
x,y,z
-x,-y,z
1/2+x,1/2-y,-z
1/2-x,1/2+y,-z
-x,-y,-z
x,y,-z
1/2-x,1/2+y,z
1/2+x,1/2-y,z
loop_
_atom_site_type_symbol
_atom_site_label
_atom_site_fract_x
_atom_site_fract_y
_atom_site_fract_z
Si Si1 0.673701 0.658990 0.668429
Si Si2 0.428067 0.515784 0.329034
Si Si3 0.665336 0.333446 0.827462
Si Si4 0.705404 0.893248 0.670924
Si Si5 0.700804 0.098027 0.829294
O O1 0.696878 0.642186 0.500000
O O2 0.608145 0.596980 0.699259
O O3 0.663305 0.786356 0.699119
O O4 0.726835 0.613147 0.776540
O O5 0.500000 0.500000 0.275116
O O6 0.425140 0.549489 0.500000
O O7 0.398452 0.611942 0.233159
O O8 0.725110 0.382381 0.742209
O O9 0.660084 0.205357 0.796933
O O10 0.673947 0.356963 0.000000
O O11 0.715620 0.916567 0.500000
O O12 0.670075 0.996046 0.743883
O O13 0.702110 0.069649 0.000000
#
# Coordination Sequence:
#
# PCOD8224421 Si02
#       5
#     8   8   8   8   8
#     4   9  18  31  47  70  98 128 161 198 244 293
#     4  10  20  34  52  73  99 131 167 205 244 291
#     4  10  20  32  47  71 100 129 164 201 244 294
#     4  10  18  29  48  72  99 128 159 198 246 297
#     4  10  19  30  47  72 101 128 157 201 249 293
#
# _framework density 16.906002000000001
#
# number of rings (size 3 to 8) (size 9 to 14) (size 15 to 20)
#    0.000    2.200    2.000    1.800    0.000    3.600 
#    0.000    0.000    0.000    1.200    0.000    8.400 
#    0.000    0.000    0.000    0.000    0.000    0.000 
#
# Total GULP energy -495978.707272 kJ/mol
# GULP energy per Si atom -12399.467682 kJ/mol
# Density = 1.686752 g / cm^3
# Si number density = 16.906002 Si / 1000 Ang^3
#
#
#
# Elastic Constant Matrix: (Units=GPa)
#
#
# Indices 1 2 3 4 5 6 
#
# 1 80.9300 50.2304 34.1168 0.0000 0.0000 0.0000
# 2 50.2304 149.6930 67.6540 0.0000 0.0000 0.0000
# 3 34.1168 67.6540 94.7063 0.0000 0.0000 0.0000
# 4 0.0000 0.0000 0.0000 31.7800 0.0000 0.0000
# 5 0.0000 0.0000 0.0000 0.0000 11.1519 0.0000
# 6 0.0000 0.0000 0.0000 0.0000 0.0000 21.0884
#
#
#
# Elastic Compliance Matrix: (Units=1/GPa)
#
#
# Indices 1 2 3 4 5 6 
#
# 1 0.016118 -0.004112 -0.002869 0.000000 0.000000 0.000000
# 2 -0.004112 0.010914 -0.006316 0.000000 0.000000 0.000000
# 3 -0.002869 -0.006316 0.016104 0.000000 0.000000 0.000000
# 4 0.000000 0.000000 0.000000 0.031466 0.000000 0.000000
# 5 0.000000 0.000000 0.000000 0.000000 0.089671 0.000000
# 6 0.000000 0.000000 0.000000 0.000000 0.000000 0.047419
#
#
# Mechanical properties :
#
#
# Convention : Reuss Voigt Hill
#
# Bulk Modulus (GPa) = 60.44617 69.92574 65.18596
# Shear Modulus (GPa) = 20.50861 24.35926 22.43394
#
# Velocity S-wave (km/s) = 3.48673 3.79999 3.64673
# Velocity P-wave (km/s) = 7.21399 7.79131 7.50820
#
# Compressibility (1/GPa) = 0.01654365
#
# Stress axis : x y z
#
# Youngs Moduli (GPa) = 62.04300 91.62207 62.09630
#
# Poissons Ratio (x) = 0.37673 0.17815
# Poissons Ratio (y) = 0.25511 0.39217
# Poissons Ratio (z) = 0.17800 0.57864
#
# Static dielectric constant tensor:
#      x y z
#    x 2.752100 0.000000 0.000000 
#    y 0.000000 3.611640 0.000000 
#    z 0.000000 0.000000 3.262380 
# 
# 
# High freq. dielectric constant tensor:
#      x y z
#    x 1.594510 0.000000 0.000000 
#    y 0.000000 1.672900 0.000000 
#    z 0.000000 0.000000 1.663290 
# 
# From -- ./inp_files/3837.got.cif
#   From: 2010.03.12/outbox.cif.g09.slc.cpg/sg55_2_cif.got.tgz:3837.got - 2010.04.16 15:19:21.
