data_PCOD8224709
_publ_section_title
;
Structure prediction by ZEFSAII (Michael W. Deem and Ramdas Pophale) SiO2 
 PCOD8224709
Probable space group: P B A M
;
_chemical_formula_sum "Si O2"
_cell_formula_units_Z 48
_cell_length_a 16.815527
_cell_length_b 19.150050
_cell_length_c 7.623132
_cell_angle_alpha 90.000000
_cell_angle_beta 90.000000
_cell_angle_gamma 90.000000
_cell_volume 2454.787114
_symmetry_space_group_name_H-M "P B A M"
_symmetry_group_IT_number 55
_symmetry_cell_setting 'orthorhombic'
loop_
_space_group_symop_operation_xyz
x,y,z
-x,-y,z
1/2+x,1/2-y,-z
1/2-x,1/2+y,-z
-x,-y,-z
x,y,-z
1/2-x,1/2+y,z
1/2+x,1/2-y,z
loop_
_atom_site_type_symbol
_atom_site_label
_atom_site_fract_x
_atom_site_fract_y
_atom_site_fract_z
Si Si1 0.110461 0.054903 0.500000
Si Si2 0.845420 0.178791 0.788455
Si Si3 0.693916 0.097773 0.803122
Si Si4 0.624433 0.833544 0.800954
Si Si5 0.020217 0.422320 0.789533
Si Si6 0.057734 0.896353 0.500000
Si Si7 0.259778 0.051010 0.694336
O O1 0.165212 0.066566 0.674117
O O2 0.038163 0.109301 0.500000
O O3 0.082019 0.976054 0.500000
O O4 0.759842 0.149448 0.719804
O O5 0.852619 0.258582 0.721404
O O6 0.912709 0.137870 0.681169
O O7 0.856129 0.168623 0.000000
O O8 0.606549 0.101319 0.713116
O O9 0.726055 0.018723 0.804518
O O10 0.682535 0.123247 0.000000
O O11 0.546555 0.869251 0.713213
O O12 0.700205 0.883778 0.789403
O O13 0.602099 0.819868 0.000000
O O14 0.000000 0.500000 0.720932
O O15 0.020716 0.423377 0.000000
O O16 0.297511 0.040364 0.500000
#
# Coordination Sequence:
#
# PCOD8224709 Si02
#       7
#     4   8   8   8   8   4   8
#     4   9  22  37  60  84 107 151 199 239 305 336
#     4  10  22  38  61  86 113 157 200 236 301 360
#     4  10  18  34  57  82 109 149 195 237 289 355
#     4  10  20  36  56  83 116 152 191 241 294 351
#     4   9  16  29  53  79 109 145 184 233 288 342
#     4  11  20  43  64  77 119 154 188 259 291 335
#     4  10  19  34  55  81 113 145 190 234 286 350
#
# _framework density 19.553629999999998
#
# number of rings (size 3 to 8) (size 9 to 14) (size 15 to 20)
#    0.500    1.667    3.333    0.500    1.167    0.000 
#    3.000    5.000    0.000    0.000    0.000    0.000 
#    0.000    0.000    0.000    0.000    0.000    0.000 
#
# Total GULP energy -594695.230672 kJ/mol
# GULP energy per Si atom -12389.483972 kJ/mol
# Density = 1.950912 g / cm^3
# Si number density = 19.553630 Si / 1000 Ang^3
#
#
#
# Elastic Constant Matrix: (Units=GPa)
#
#
# Indices 1 2 3 4 5 6 
#
# 1 193.8754 89.1978 14.0597 0.0000 0.0000 0.0000
# 2 89.1978 145.3278 11.5655 0.0000 0.0000 0.0000
# 3 14.0597 11.5655 36.7239 0.0000 0.0000 0.0000
# 4 0.0000 0.0000 0.0000 5.9562 0.0000 0.0000
# 5 0.0000 0.0000 0.0000 0.0000 16.5319 0.0000
# 6 0.0000 0.0000 0.0000 0.0000 0.0000 33.5356
#
#
#
# Elastic Compliance Matrix: (Units=1/GPa)
#
#
# Indices 1 2 3 4 5 6 
#
# 1 0.007258 -0.004343 -0.001411 0.000000 0.000000 0.000000
# 2 -0.004343 0.009656 -0.001378 0.000000 0.000000 0.000000
# 3 -0.001411 -0.001378 0.028205 0.000000 0.000000 0.000000
# 4 0.000000 0.000000 0.000000 0.167893 0.000000 0.000000
# 5 0.000000 0.000000 0.000000 0.000000 0.060489 0.000000
# 6 0.000000 0.000000 0.000000 0.000000 0.000000 0.029819
#
#
# Mechanical properties :
#
#
# Convention : Reuss Voigt Hill
#
# Bulk Modulus (GPa) = 32.41022 67.28589 49.84806
# Shear Modulus (GPa) = 15.25001 28.61168 21.93085
#
# Velocity S-wave (km/s) = 2.79571 3.82938 3.35262
# Velocity P-wave (km/s) = 5.19926 7.35105 6.36672
#
# Compressibility (1/GPa) = 0.03085446
#
# Stress axis : x y z
#
# Youngs Moduli (GPa) = 137.77512 103.56224 35.45519
#
# Poissons Ratio (x) = 0.44973 0.05003
# Poissons Ratio (y) = 0.59830 0.04887
# Poissons Ratio (z) = 0.19442 0.14276
#
# Static dielectric constant tensor:
#      x y z
#    x 3.932960 0.000000 0.000000 
#    y 0.000000 3.567710 0.000000 
#    z 0.000000 0.000000 3.239660 
# 
# 
# High freq. dielectric constant tensor:
#      x y z
#    x 1.765540 0.000000 0.000000 
#    y 0.000000 1.751880 0.000000 
#    z 0.000000 0.000000 1.737920 
# 
# From -- ./inp_files/5726.got.cif
#   From: 2010.03.12/outbox.cif.g09.slc.cpg/sg55_3_cif.got.tgz:5726.got - 2010.04.16 15:19:21.
