data_PCOD8224889
_publ_section_title
;
Structure prediction by ZEFSAII (Michael W. Deem and Ramdas Pophale) SiO2 
 PCOD8224889
Probable space group: P B A M
;
_chemical_formula_sum "Si O2"
_cell_formula_units_Z 64
_cell_length_a 17.894498
_cell_length_b 21.977003
_cell_length_c 8.848737
_cell_angle_alpha 90.000000
_cell_angle_beta 90.000000
_cell_angle_gamma 90.000000
_cell_volume 3479.920114
_symmetry_space_group_name_H-M "P B A M"
_symmetry_group_IT_number 55
_symmetry_cell_setting 'orthorhombic'
loop_
_space_group_symop_operation_xyz
x,y,z
-x,-y,z
1/2+x,1/2-y,-z
1/2-x,1/2+y,-z
-x,-y,-z
x,y,-z
1/2-x,1/2+y,z
1/2+x,1/2-y,z
loop_
_atom_site_type_symbol
_atom_site_label
_atom_site_fract_x
_atom_site_fract_y
_atom_site_fract_z
Si Si1 0.079956 0.775620 0.679991
Si Si2 0.581181 0.978549 0.174587
Si Si3 0.720334 0.388559 0.319576
Si Si4 0.478033 0.432404 0.161506
Si Si5 0.271307 0.978699 0.677563
Si Si6 0.131739 0.655176 0.174822
Si Si7 0.936285 0.842787 0.327999
Si Si8 0.825037 0.120197 0.827387
O O1 0.083080 0.781702 0.500000
O O2 0.089940 0.706944 0.731597
O O3 0.146591 0.817804 0.746667
O O4 0.996086 0.794211 0.741186
O O5 0.642947 0.012820 0.273515
O O6 0.585001 0.906205 0.199141
O O7 0.500000 0.000000 0.229945
O O8 0.595221 0.995507 0.000000
O O9 0.727108 0.383094 0.500000
O O10 0.724403 0.460415 0.273266
O O11 0.785628 0.351639 0.240047
O O12 0.645866 0.353800 0.256252
O O13 0.500000 0.500000 0.144050
O O14 0.521408 0.406497 0.305591
O O15 0.390000 0.429376 0.187148
O O16 0.497459 0.398860 0.000000
O O17 0.267168 0.970108 0.500000
O O18 0.243840 0.915003 0.749963
O O19 0.136592 0.673767 0.000000
O O20 0.923176 0.826665 0.500000
O O21 0.803703 0.136208 0.000000
#
# Coordination Sequence:
#
# PCOD8224889 Si02
#       8
#     8   8   8   8   8   8   8   8
#     4  10  20  35  53  73 102 139 176 213 257 307
#     4   9  19  37  59  80 103 133 170 217 271 322
#     4   9  18  33  52  75 103 134 170 212 259 311
#     4   9  17  27  41  65  97 131 164 200 243 287
#     4  10  19  31  51  79 108 137 170 213 264 314
#     4  10  20  35  56  79 101 131 172 213 260 315
#     4   9  18  31  48  70  96 130 170 209 248 296
#     4  10  19  31  48  71 102 138 173 207 245 296
#
# _framework density 18.391227000000001
#
# number of rings (size 3 to 8) (size 9 to 14) (size 15 to 20)
#    0.000    2.500    0.000    2.250    0.000    3.000 
#    0.000    1.250    0.000    3.000    0.000    0.000 
#    0.000    0.000    0.000    0.000    0.000    0.000 
#
# Total GULP energy -792852.540053 kJ/mol
# GULP energy per Si atom -12388.320938 kJ/mol
# Density = 1.834937 g / cm^3
# Si number density = 18.391227 Si / 1000 Ang^3
#
#
#
# Elastic Constant Matrix: (Units=GPa)
#
#
# Indices 1 2 3 4 5 6 
#
# 1 116.5204 55.4621 33.1130 0.0000 0.0000 0.0000
# 2 55.4621 78.8235 29.7941 0.0000 0.0000 0.0000
# 3 33.1130 29.7941 53.6625 0.0000 0.0000 0.0000
# 4 0.0000 0.0000 0.0000 31.8462 0.0000 0.0000
# 5 0.0000 0.0000 0.0000 0.0000 27.5167 0.0000
# 6 0.0000 0.0000 0.0000 0.0000 0.0000 22.1572
#
#
#
# Elastic Compliance Matrix: (Units=1/GPa)
#
#
# Indices 1 2 3 4 5 6 
#
# 1 0.013511 -0.008043 -0.003871 0.000000 0.000000 0.000000
# 2 -0.008043 0.020844 -0.006610 0.000000 0.000000 0.000000
# 3 -0.003871 -0.006610 0.024694 0.000000 0.000000 0.000000
# 4 0.000000 0.000000 0.000000 0.031401 0.000000 0.000000
# 5 0.000000 0.000000 0.000000 0.000000 0.036342 0.000000
# 6 0.000000 0.000000 0.000000 0.000000 0.000000 0.045132
#
#
# Mechanical properties :
#
#
# Convention : Reuss Voigt Hill
#
# Bulk Modulus (GPa) = 45.45441 53.97165 49.71303
# Shear Modulus (GPa) = 23.11545 25.01319 24.06432
#
# Velocity S-wave (km/s) = 3.54909 3.69190 3.62120
# Velocity P-wave (km/s) = 6.44699 6.89809 6.67635
#
# Compressibility (1/GPa) = 0.02200006
#
# Stress axis : x y z
#
# Youngs Moduli (GPa) = 74.01480 47.97440 40.49618
#
# Poissons Ratio (x) = 0.38587 0.15677
# Poissons Ratio (y) = 0.59532 0.26768
# Poissons Ratio (z) = 0.28653 0.31711
#
# Static dielectric constant tensor:
#      x y z
#    x 3.442750 0.000000 0.000000 
#    y 0.000000 3.207610 0.000000 
#    z 0.000000 0.000000 3.756260 
# 
# 
# High freq. dielectric constant tensor:
#      x y z
#    x 1.709000 0.000000 0.000000 
#    y 0.000000 1.695540 0.000000 
#    z 0.000000 0.000000 1.715220 
# 
# From -- ./inp_files/8214.got.cif
#   From: 2010.03.12/outbox.cif.g09.slc.cpg/sg55_5_cif.got.tgz:8214.got - 2010.04.16 15:19:21.
