data_PCOD8224863
_publ_section_title
;
Structure prediction by ZEFSAII (Michael W. Deem and Ramdas Pophale) SiO2 
 PCOD8224863
Probable space group: P B A M
;
_chemical_formula_sum "Si O2"
_cell_formula_units_Z 64
_cell_length_a 19.954515
_cell_length_b 14.280076
_cell_length_c 14.335566
_cell_angle_alpha 90.000000
_cell_angle_beta 90.000000
_cell_angle_gamma 90.000000
_cell_volume 4084.948070
_symmetry_space_group_name_H-M "P B A M"
_symmetry_group_IT_number 55
_symmetry_cell_setting 'orthorhombic'
loop_
_space_group_symop_operation_xyz
x,y,z
-x,-y,z
1/2+x,1/2-y,-z
1/2-x,1/2+y,-z
-x,-y,-z
x,y,-z
1/2-x,1/2+y,z
1/2+x,1/2-y,z
loop_
_atom_site_type_symbol
_atom_site_label
_atom_site_fract_x
_atom_site_fract_y
_atom_site_fract_z
Si Si1 0.638829 0.489514 0.205207
Si Si2 0.896134 0.033377 0.601333
Si Si3 0.723444 0.974572 0.892145
Si Si4 0.934310 0.795319 0.206143
Si Si5 0.832104 0.669958 0.891491
Si Si6 0.981445 0.845996 0.398245
Si Si7 0.430334 0.348092 0.889266
Si Si8 0.195996 0.730072 0.110431
O O1 0.654012 0.522909 0.311722
O O2 0.707262 0.505899 0.152419
O O3 0.615271 0.383021 0.197154
O O4 0.579903 0.551165 0.158883
O O5 0.858954 0.037699 0.500000
O O6 0.942950 0.943263 0.604908
O O7 0.940319 0.127557 0.614507
O O8 0.696100 0.876703 0.850383
O O9 0.670271 0.057806 0.876581
O O10 0.739884 0.960930 0.000000
O O11 0.893851 0.705172 0.170750
O O12 0.956722 0.779538 0.314006
O O13 0.998928 0.806140 0.141211
O O14 0.762871 0.716568 0.855832
O O15 0.844471 0.695203 0.000000
O O16 0.970278 0.797118 0.500000
O O17 0.370608 0.280844 0.852190
O O18 0.429213 0.360261 0.000000
O O19 0.193285 0.730411 0.000000
#
# Coordination Sequence:
#
# PCOD8224863 Si02
#       8
#     8   8   8   8   8   8   8   8
#     4  11  18  27  46  71  96 121 150 188 239 280
#     4   8  14  25  40  62  93 123 148 175 224 288
#     4  10  19  32  49  66  88 127 169 189 211 274
#     4  11  20  29  45  72  96 120 151 198 240 271
#     4  10  19  31  46  66  93 124 159 190 221 272
#     4   8  14  26  42  61  91 124 149 179 223 283
#     4  11  21  30  42  68 101 124 148 189 238 275
#     4   9  18  33  47  61  90 131 160 183 221 275
#
# _framework density 15.667274000000001
#
# number of rings (size 3 to 8) (size 9 to 14) (size 15 to 20)
#    0.000    2.250    3.750    1.875    0.000    2.000 
#    0.000    0.625    0.000    3.750    0.000    1.750 
#    0.000    1.000    0.000    0.000    0.000    0.000 
#
# Total GULP energy -793229.693020 kJ/mol
# GULP energy per Si atom -12394.213953 kJ/mol
# Density = 1.563161 g / cm^3
# Si number density = 15.667274 Si / 1000 Ang^3
#
#
#
# Elastic Constant Matrix: (Units=GPa)
#
#
# Indices 1 2 3 4 5 6 
#
# 1 32.0436 2.2417 11.8198 0.0000 0.0000 0.0000
# 2 2.2417 51.9130 17.2648 0.0000 0.0000 0.0000
# 3 11.8198 17.2648 73.1205 0.0000 0.0000 0.0000
# 4 0.0000 0.0000 0.0000 12.1511 0.0000 0.0000
# 5 0.0000 0.0000 0.0000 0.0000 12.0264 0.0000
# 6 0.0000 0.0000 0.0000 0.0000 0.0000 20.0395
#
#
#
# Elastic Compliance Matrix: (Units=1/GPa)
#
#
# Indices 1 2 3 4 5 6 
#
# 1 0.033193 0.000381 -0.005456 0.000000 0.000000 0.000000
# 2 0.000381 0.020909 -0.004998 0.000000 0.000000 0.000000
# 3 -0.005456 -0.004998 0.015738 0.000000 0.000000 0.000000
# 4 0.000000 0.000000 0.000000 0.082297 0.000000 0.000000
# 5 0.000000 0.000000 0.000000 0.000000 0.083150 0.000000
# 6 0.000000 0.000000 0.000000 0.000000 0.000000 0.049902
#
#
# Mechanical properties :
#
#
# Convention : Reuss Voigt Hill
#
# Bulk Modulus (GPa) = 20.12308 24.41440 22.26874
# Shear Modulus (GPa) = 15.53277 17.22679 16.37978
#
# Velocity S-wave (km/s) = 3.15209 3.31953 3.23689
# Velocity P-wave (km/s) = 5.11072 5.50538 5.31172
#
# Compressibility (1/GPa) = 0.04969418
#
# Stress axis : x y z
#
# Youngs Moduli (GPa) = 30.12665 47.82657 63.53987
#
# Poissons Ratio (x) = -0.01822 0.34665
# Poissons Ratio (y) = -0.01148 0.31760
# Poissons Ratio (z) = 0.16436 0.23906
#
# Static dielectric constant tensor:
#      x y z
#    x 2.821400 0.000000 0.000000 
#    y 0.000000 2.938400 0.000000 
#    z 0.000000 0.000000 3.201530 
# 
# 
# High freq. dielectric constant tensor:
#      x y z
#    x 1.579330 0.000000 0.000000 
#    y 0.000000 1.578100 0.000000 
#    z 0.000000 0.000000 1.592290 
# 
# From -- ./inp_files/19558.got.cif
#   From: 2010.03.12/outbox.cif.g09.slc.cpg/sg55_10_cif.got.tgz:19558.got - 2010.04.16 15:19:21.
