data_PCOD8224090
_publ_section_title
;
Structure prediction by ZEFSAII (Michael W. Deem and Ramdas Pophale) SiO2 
 PCOD8224090
Probable space group: P C C A
;
_chemical_formula_sum "Si O2"
_cell_formula_units_Z 40
_cell_length_a 9.236588
_cell_length_b 22.049399
_cell_length_c 8.866915
_cell_angle_alpha 90.000000
_cell_angle_beta 90.000000
_cell_angle_gamma 90.000000
_cell_volume 1805.846675
_symmetry_space_group_name_H-M "P C C A"
_symmetry_group_IT_number 54
_symmetry_cell_setting 'orthorhombic'
loop_
_space_group_symop_operation_xyz
x,y,z
1/2-x,-y,z
1/2+x,-y,1/2-z
-x,y,1/2-z
-x,-y,-z
1/2+x,y,-z
1/2-x,y,1/2+z
x,-y,1/2+z
loop_
_atom_site_type_symbol
_atom_site_label
_atom_site_fract_x
_atom_site_fract_y
_atom_site_fract_z
Si Si1 0.134153 0.669680 0.858234
Si Si2 0.603852 0.535505 0.112402
Si Si3 0.639366 0.124633 0.357002
Si Si4 0.143105 0.946529 0.838009
Si Si5 0.358098 0.739832 0.657864
O O1 0.158190 0.602870 0.932832
O O2 0.265015 0.693077 0.756106
O O3 0.000000 0.670619 0.750000
O O4 0.104344 0.713344 0.996041
O O5 0.750000 0.500000 0.151950
O O6 0.500000 0.544708 0.250000
O O7 0.500000 0.500000 0.000000
O O8 0.500000 0.120303 0.250000
O O9 0.599542 0.094601 0.518203
O O10 0.775516 0.091855 0.286647
O O11 0.702783 0.193041 0.375109
O O12 0.000000 0.971823 0.750000
O O13 0.250000 0.000000 0.893469
O O14 0.500000 0.751181 0.750000
#
# Coordination Sequence:
#
# PCOD8224090 Si02
#       5
#     8   8   8   8   8
#     4  11  26  43  68 101 133 182 229 284 355 417
#     4  11  27  44  70 101 139 184 235 294 358 431
#     4  11  25  45  69 102 136 183 232 286 351 415
#     4  12  26  45  71 101 141 184 232 288 349 417
#     4  11  25  44  71  99 140 180 230 291 348 421
#
# _framework density 22.150275000000001
#
# number of rings (size 3 to 8) (size 9 to 14) (size 15 to 20)
#    0.000    0.800    0.000    5.400   11.200    8.800 
#    0.000    1.000    0.000    0.000    0.000    0.000 
#    0.000    0.000    0.000    0.000    0.000    0.000 
#
# Total GULP energy -495775.242946 kJ/mol
# GULP energy per Si atom -12394.381074 kJ/mol
# Density = 2.209986 g / cm^3
# Si number density = 22.150275 Si / 1000 Ang^3
#
#
#
# Elastic Constant Matrix: (Units=GPa)
#
#
# Indices 1 2 3 4 5 6 
#
# 1 95.7786 44.2604 15.4925 0.0000 0.0000 0.0000
# 2 44.2604 160.3685 41.5718 0.0000 0.0000 0.0000
# 3 15.4925 41.5718 110.4669 0.0000 0.0000 0.0000
# 4 0.0000 0.0000 0.0000 36.4776 0.0000 0.0000
# 5 0.0000 0.0000 0.0000 0.0000 42.5010 0.0000
# 6 0.0000 0.0000 0.0000 0.0000 0.0000 35.7835
#
#
#
# Elastic Compliance Matrix: (Units=1/GPa)
#
#
# Indices 1 2 3 4 5 6 
#
# 1 0.011990 -0.003184 -0.000483 0.000000 0.000000 0.000000
# 2 -0.003184 0.007755 -0.002472 0.000000 0.000000 0.000000
# 3 -0.000483 -0.002472 0.010051 0.000000 0.000000 0.000000
# 4 0.000000 0.000000 0.000000 0.027414 0.000000 0.000000
# 5 0.000000 0.000000 0.000000 0.000000 0.023529 0.000000
# 6 0.000000 0.000000 0.000000 0.000000 0.000000 0.027946
#
#
# Mechanical properties :
#
#
# Convention : Reuss Voigt Hill
#
# Bulk Modulus (GPa) = 57.08588 63.25149 60.16869
# Shear Modulus (GPa) = 39.43144 40.63838 40.03491
#
# Velocity S-wave (km/s) = 4.22379 4.28795 4.25599
# Velocity P-wave (km/s) = 7.04381 7.28924 7.16757
#
# Compressibility (1/GPa) = 0.01751747
#
# Stress axis : x y z
#
# Youngs Moduli (GPa) = 83.40111 128.94631 99.49712
#
# Poissons Ratio (x) = 0.41055 0.04810
# Poissons Ratio (y) = 0.26554 0.24595
# Poissons Ratio (z) = 0.04031 0.31875
#
# Static dielectric constant tensor:
#      x y z
#    x 4.039920 0.000000 0.000000 
#    y 0.000000 7.206230 0.000000 
#    z 0.000000 0.000000 4.164160 
# 
# 
# High freq. dielectric constant tensor:
#      x y z
#    x 1.878370 0.000000 0.000000 
#    y 0.000000 1.896070 0.000000 
#    z 0.000000 0.000000 1.883450 
# 
# From -- ./inp_files/2520.got.cif
#   From: 2010.03.12/outbox.cif.g09.slc.cpg/sg54_2_cif.got.tgz:2520.got - 2010.04.16 15:00:50.
