data_PCOD8224105
_publ_section_title
;
Structure prediction by ZEFSAII (Michael W. Deem and Ramdas Pophale) SiO2 
 PCOD8224105
Probable space group: P C C A
;
_chemical_formula_sum "Si O2"
_cell_formula_units_Z 32
_cell_length_a 15.378378
_cell_length_b 7.308990
_cell_length_c 11.754543
_cell_angle_alpha 90.000000
_cell_angle_beta 90.000000
_cell_angle_gamma 90.000000
_cell_volume 1321.215465
_symmetry_space_group_name_H-M "P C C A"
_symmetry_group_IT_number 54
_symmetry_cell_setting 'orthorhombic'
loop_
_space_group_symop_operation_xyz
x,y,z
1/2-x,-y,z
1/2+x,-y,1/2-z
-x,y,1/2-z
-x,-y,-z
1/2+x,y,-z
1/2-x,y,1/2+z
x,-y,1/2+z
loop_
_atom_site_type_symbol
_atom_site_label
_atom_site_fract_x
_atom_site_fract_y
_atom_site_fract_z
Si Si1 0.347237 0.196435 0.015676
Si Si2 0.155209 0.784802 0.554379
Si Si3 0.985221 0.337376 0.627763
Si Si4 0.914984 0.724066 0.712182
O O1 0.361182 0.163408 0.880482
O O2 0.251412 0.284647 0.021796
O O3 0.420590 0.333332 0.065091
O O4 0.348642 0.002204 0.079138
O O5 0.086601 0.752782 0.453311
O O6 0.138344 0.680563 0.673309
O O7 0.952647 0.541592 0.652061
O O8 0.000000 0.236459 0.750000
O O9 0.000000 0.841518 0.750000
#
# Coordination Sequence:
#
# PCOD8224105 Si02
#       4
#     8   8   8   8
#     4  11  26  46  74 106 147 186 247 307 365 424
#     4  11  27  46  73 112 141 192 248 299 370 434
#     4  11  26  46  70 104 148 188 237 297 363 433
#     4  11  25  47  70 102 146 189 245 295 357 440
#
# _framework density 24.220120999999999
#
# number of rings (size 3 to 8) (size 9 to 14) (size 15 to 20)
#    0.000    1.000    2.500    1.500   10.500    3.000 
#    4.500    0.000    0.000    0.000    0.000    0.000 
#    0.000    0.000    0.000    0.000    0.000    0.000 
#
# Total GULP energy -396454.864048 kJ/mol
# GULP energy per Si atom -12389.214502 kJ/mol
# Density = 2.416500 g / cm^3
# Si number density = 24.220121 Si / 1000 Ang^3
#
#
#
# Elastic Constant Matrix: (Units=GPa)
#
#
# Indices 1 2 3 4 5 6 
#
# 1 224.6948 16.7787 94.9903 0.0000 0.0000 0.0000
# 2 16.7787 60.2309 19.5256 0.0000 0.0000 0.0000
# 3 94.9903 19.5256 192.8107 0.0000 0.0000 0.0000
# 4 0.0000 0.0000 0.0000 30.2473 0.0000 0.0000
# 5 0.0000 0.0000 0.0000 0.0000 40.6116 0.0000
# 6 0.0000 0.0000 0.0000 0.0000 0.0000 1.1095
#
#
#
# Elastic Compliance Matrix: (Units=1/GPa)
#
#
# Indices 1 2 3 4 5 6 
#
# 1 0.005649 -0.000694 -0.002713 0.000000 0.000000 0.000000
# 2 -0.000694 0.017252 -0.001405 0.000000 0.000000 0.000000
# 3 -0.002713 -0.001405 0.006665 0.000000 0.000000 0.000000
# 4 0.000000 0.000000 0.000000 0.033061 0.000000 0.000000
# 5 0.000000 0.000000 0.000000 0.000000 0.024624 0.000000
# 6 0.000000 0.000000 0.000000 0.000000 0.000000 0.901287
#
#
# Mechanical properties :
#
#
# Convention : Reuss Voigt Hill
#
# Bulk Modulus (GPa) = 50.14579 82.25840 66.20209
# Shear Modulus (GPa) = 4.97607 37.48979 21.23293
#
# Velocity S-wave (km/s) = 1.43491 3.93858 2.96406
# Velocity P-wave (km/s) = 4.84711 7.39728 6.25357
#
# Compressibility (1/GPa) = 0.01994185
#
# Stress axis : x y z
#
# Youngs Moduli (GPa) = 177.01701 57.96547 150.03258
#
# Poissons Ratio (x) = 0.04024 0.40701
# Poissons Ratio (y) = 0.12290 0.21080
# Poissons Ratio (z) = 0.48022 0.08144
#
# Static dielectric constant tensor:
#      x y z
#    x 4.737910 0.000000 0.000000 
#    y 0.000000 3.985410 0.000000 
#    z 0.000000 0.000000 4.982620 
# 
# 
# High freq. dielectric constant tensor:
#      x y z
#    x 1.972930 0.000000 0.000000 
#    y 0.000000 1.937740 0.000000 
#    z 0.000000 0.000000 1.985350 
# 
# From -- ./inp_files/7927.got.cif
#   From: 2010.03.12/outbox.cif.g09.slc.cpg/sg54_4_cif.got.tgz:7927.got - 2010.04.16 15:00:50.
