data_PCOD8224022
_publ_section_title
;
Structure prediction by ZEFSAII (Michael W. Deem and Ramdas Pophale) SiO2 
 PCOD8224022
Probable space group: P C C A
;
_chemical_formula_sum "Si O2"
_cell_formula_units_Z 32
_cell_length_a 12.573531
_cell_length_b 7.337296
_cell_length_c 16.743075
_cell_angle_alpha 90.000000
_cell_angle_beta 90.000000
_cell_angle_gamma 90.000000
_cell_volume 1544.644418
_symmetry_space_group_name_H-M "P C C A"
_symmetry_group_IT_number 54
_symmetry_cell_setting 'orthorhombic'
loop_
_space_group_symop_operation_xyz
x,y,z
1/2-x,-y,z
1/2+x,-y,1/2-z
-x,y,1/2-z
-x,-y,-z
1/2+x,y,-z
1/2-x,y,1/2+z
x,-y,1/2+z
loop_
_atom_site_type_symbol
_atom_site_label
_atom_site_fract_x
_atom_site_fract_y
_atom_site_fract_z
Si Si1 0.250000 0.000000 0.709721
Si Si2 0.679210 0.660244 0.692179
Si Si3 0.636533 0.900638 0.552419
Si Si4 0.444188 0.139022 0.614049
Si Si5 0.000000 0.422445 0.250000
O O1 0.246095 0.183198 0.762373
O O2 0.360513 0.008717 0.660706
O O3 0.750000 0.500000 0.657216
O O4 0.623117 0.739500 0.614960
O O5 0.598302 0.560295 0.750985
O O6 0.618159 0.804327 0.466534
O O7 0.750000 0.000000 0.554141
O O8 0.548507 0.042207 0.581253
O O9 0.485038 0.302123 0.670136
#
# Coordination Sequence:
#
# PCOD8224022 Si02
#       5
#     4   8   8   8   4
#     4  12  22  46  70 102 138 192 228 288 344 412
#     4  12  24  42  69  98 142 177 227 289 338 413
#     4  11  23  45  68 101 140 189 228 283 355 415
#     4  11  24  43  74  99 141 183 236 285 345 422
#     4  12  24  44  66 110 132 180 242 290 344 408
#
# _framework density 20.716742
#
# number of rings (size 3 to 8) (size 9 to 14) (size 15 to 20)
#    0.000    0.500    5.000    4.500    0.000    1.000 
#    4.500    0.000    0.000    0.000    0.000    0.000 
#    0.000    0.000    0.000    0.000    0.000    0.000 
#
# Total GULP energy -396527.562705 kJ/mol
# GULP energy per Si atom -12391.486335 kJ/mol
# Density = 2.066959 g / cm^3
# Si number density = 20.716742 Si / 1000 Ang^3
#
#
#
# Elastic Constant Matrix: (Units=GPa)
#
#
# Indices 1 2 3 4 5 6 
#
# 1 94.4951 22.1782 27.0344 0.0000 0.0000 0.0000
# 2 22.1782 95.9895 50.6725 0.0000 0.0000 0.0000
# 3 27.0344 50.6725 144.9375 0.0000 0.0000 0.0000
# 4 0.0000 0.0000 0.0000 12.5961 0.0000 0.0000
# 5 0.0000 0.0000 0.0000 0.0000 28.9006 0.0000
# 6 0.0000 0.0000 0.0000 0.0000 0.0000 37.1400
#
#
#
# Elastic Compliance Matrix: (Units=1/GPa)
#
#
# Indices 1 2 3 4 5 6 
#
# 1 0.011444 -0.001861 -0.001484 0.000000 0.000000 0.000000
# 2 -0.001861 0.013078 -0.004225 0.000000 0.000000 0.000000
# 3 -0.001484 -0.004225 0.008654 0.000000 0.000000 0.000000
# 4 0.000000 0.000000 0.000000 0.079389 0.000000 0.000000
# 5 0.000000 0.000000 0.000000 0.000000 0.034601 0.000000
# 6 0.000000 0.000000 0.000000 0.000000 0.000000 0.026925
#
#
# Mechanical properties :
#
#
# Convention : Reuss Voigt Hill
#
# Bulk Modulus (GPa) = 55.44579 59.46581 57.45580
# Shear Modulus (GPa) = 25.60906 31.42981 28.51944
#
# Velocity S-wave (km/s) = 3.51971 3.89925 3.71433
# Velocity P-wave (km/s) = 6.58329 7.00277 6.79626
#
# Compressibility (1/GPa) = 0.01803563
#
# Stress axis : x y z
#
# Youngs Moduli (GPa) = 87.38331 76.46298 115.55928
#
# Poissons Ratio (x) = 0.14227 0.17150
# Poissons Ratio (y) = 0.16259 0.48827
# Poissons Ratio (z) = 0.12968 0.32308
#
# Static dielectric constant tensor:
#      x y z
#    x 3.563460 0.000000 0.000000 
#    y 0.000000 3.659530 0.000000 
#    z 0.000000 0.000000 4.074900 
# 
# 
# High freq. dielectric constant tensor:
#      x y z
#    x 1.834290 0.000000 0.000000 
#    y 0.000000 1.800850 0.000000 
#    z 0.000000 0.000000 1.821460 
# 
# From -- ./inp_files/12274.got.cif
#   From: 2010.03.12/outbox.cif.g09.slc.cpg/sg54_7_cif.got.tgz:12274.got - 2010.04.16 15:00:50.
