data_PCOD8224596
_publ_section_title
;
Structure prediction by ZEFSAII (Michael W. Deem and Ramdas Pophale) SiO2 
 PCOD8224596
Probable space group: P B A M
;
_chemical_formula_sum "Si O2"
_cell_formula_units_Z 64
_cell_length_a 8.712391
_cell_length_b 20.122772
_cell_length_c 19.050729
_cell_angle_alpha 90.000000
_cell_angle_beta 90.000000
_cell_angle_gamma 90.000000
_cell_volume 3339.925375
_symmetry_space_group_name_H-M "P B A M"
_symmetry_group_IT_number 55
_symmetry_cell_setting 'orthorhombic'
loop_
_space_group_symop_operation_xyz
x,y,z
-x,-y,z
1/2+x,1/2-y,-z
1/2-x,1/2+y,-z
-x,-y,-z
x,y,-z
1/2-x,1/2+y,z
1/2+x,1/2-y,z
loop_
_atom_site_type_symbol
_atom_site_label
_atom_site_fract_x
_atom_site_fract_y
_atom_site_fract_z
Si Si1 0.122011 0.804445 0.422853
Si Si2 0.887843 0.941081 0.082396
Si Si3 0.022269 0.828242 0.831944
Si Si4 0.430386 0.569782 0.577725
Si Si5 0.092721 0.566936 0.175385
Si Si6 0.116795 0.314088 0.814400
Si Si7 0.806042 0.869150 0.713357
Si Si8 0.877117 0.733058 0.666783
O O1 0.109362 0.771033 0.500000
O O2 0.297226 0.804769 0.397511
O O3 0.071906 0.880137 0.426182
O O4 0.030581 0.764366 0.363985
O O5 0.719882 0.948170 0.116717
O O6 0.967860 0.871561 0.101926
O O7 0.861850 0.944511 0.000000
O O8 0.000000 0.000000 0.108580
O O9 0.204706 0.822045 0.832120
O O10 0.946055 0.756031 0.842761
O O11 0.962492 0.865282 0.760748
O O12 0.500000 0.500000 0.599003
O O13 0.349494 0.567812 0.500000
O O14 0.317738 0.591819 0.639690
O O15 0.172512 0.593425 0.245831
O O16 0.000000 0.500000 0.192138
O O17 0.975956 0.625010 0.150035
O O18 0.089703 0.317473 0.730204
O O19 0.765964 0.792394 0.696232
#
# Coordination Sequence:
#
# PCOD8224596 Si02
#       8
#     8   8   8   8   8   8   8   8
#     4  10  19  30  47  71  99 135 182 228 275 334
#     4  10  22  42  64  87 117 149 181 220 271 328
#     4  10  20  36  60  85 113 148 185 227 274 327
#     4   9  18  31  47  69  98 135 178 224 276 330
#     4  11  23  37  58  87 115 146 186 229 274 329
#     4  11  20  36  57  84 117 147 186 231 277 326
#     4   9  19  34  52  77 106 141 183 230 277 327
#     4  10  18  32  51  73 103 140 176 227 285 323
#
# _framework density 19.162105
#
# number of rings (size 3 to 8) (size 9 to 14) (size 15 to 20)
#    0.000    2.000    0.000    6.375    0.000    4.750 
#    0.000    3.125    0.000    0.375    0.000    0.000 
#    0.000    0.000    0.000    0.000    0.000    0.000 
#
# Total GULP energy -793243.749761 kJ/mol
# GULP energy per Si atom -12394.433590 kJ/mol
# Density = 1.911849 g / cm^3
# Si number density = 19.162105 Si / 1000 Ang^3
#
#
#
# Elastic Constant Matrix: (Units=GPa)
#
#
# Indices 1 2 3 4 5 6 
#
# 1 117.4824 60.0996 35.3278 0.0000 0.0000 0.0000
# 2 60.0996 92.8643 34.3450 0.0000 0.0000 0.0000
# 3 35.3278 34.3450 74.5453 0.0000 0.0000 0.0000
# 4 0.0000 0.0000 0.0000 17.2135 0.0000 0.0000
# 5 0.0000 0.0000 0.0000 0.0000 21.9552 0.0000
# 6 0.0000 0.0000 0.0000 0.0000 0.0000 33.4193
#
#
#
# Elastic Compliance Matrix: (Units=1/GPa)
#
#
# Indices 1 2 3 4 5 6 
#
# 1 0.013190 -0.007503 -0.002794 0.000000 0.000000 0.000000
# 2 -0.007503 0.017248 -0.004391 0.000000 0.000000 0.000000
# 3 -0.002794 -0.004391 0.016762 0.000000 0.000000 0.000000
# 4 0.000000 0.000000 0.000000 0.058094 0.000000 0.000000
# 5 0.000000 0.000000 0.000000 0.000000 0.045547 0.000000
# 6 0.000000 0.000000 0.000000 0.000000 0.000000 0.029923
#
#
# Mechanical properties :
#
#
# Convention : Reuss Voigt Hill
#
# Bulk Modulus (GPa) = 56.10394 60.49298 58.29846
# Shear Modulus (GPa) = 23.13932 24.85890 23.99911
#
# Velocity S-wave (km/s) = 3.47876 3.60571 3.54280
# Velocity P-wave (km/s) = 6.74373 6.99803 6.87205
#
# Compressibility (1/GPa) = 0.01782406
#
# Stress axis : x y z
#
# Youngs Moduli (GPa) = 75.81218 57.97703 59.65928
#
# Poissons Ratio (x) = 0.43501 0.16670
# Poissons Ratio (y) = 0.56883 0.26196
# Poissons Ratio (z) = 0.21183 0.25457
#
# Static dielectric constant tensor:
#      x y z
#    x 3.444730 0.000000 0.000000 
#    y 0.000000 3.604820 0.000000 
#    z 0.000000 0.000000 3.501610 
# 
# 
# High freq. dielectric constant tensor:
#      x y z
#    x 1.739510 0.000000 0.000000 
#    y 0.000000 1.744790 0.000000 
#    z 0.000000 0.000000 1.739070 
# 
# From -- ./inp_files/22721.got.cif
#   From: 2010.03.12/outbox.cif.g09.slc.cpg/sg55_12_cif.got.tgz:22721.got - 2010.04.16 15:19:21.
