data_PCOD8224362
_publ_section_title
;
Structure prediction by ZEFSAII (Michael W. Deem and Ramdas Pophale) SiO2 
 PCOD8224362
Probable space group: P B A M
;
_chemical_formula_sum "Si O2"
_cell_formula_units_Z 64
_cell_length_a 26.705362
_cell_length_b 18.443978
_cell_length_c 8.802332
_cell_angle_alpha 90.000000
_cell_angle_beta 90.000000
_cell_angle_gamma 90.000000
_cell_volume 4335.615995
_symmetry_space_group_name_H-M "P B A M"
_symmetry_group_IT_number 55
_symmetry_cell_setting 'orthorhombic'
loop_
_space_group_symop_operation_xyz
x,y,z
-x,-y,z
1/2+x,1/2-y,-z
1/2-x,1/2+y,-z
-x,-y,-z
x,y,-z
1/2-x,1/2+y,z
1/2+x,1/2-y,z
loop_
_atom_site_type_symbol
_atom_site_label
_atom_site_fract_x
_atom_site_fract_y
_atom_site_fract_z
Si Si1 0.554671 0.081200 0.680822
Si Si2 0.747441 0.078331 0.321101
Si Si3 0.791183 0.794418 0.322351
Si Si4 0.747732 0.922573 0.179578
Si Si5 0.852509 0.341843 0.176163
Si Si6 0.148944 0.337457 0.676542
Si Si7 0.295214 0.294937 0.824424
Si Si8 0.556103 0.917999 0.320561
O O1 0.553878 0.083901 0.500000
O O2 0.596830 0.135233 0.751318
O O3 0.499442 0.103989 0.739694
O O4 0.568115 0.999734 0.734508
O O5 0.748089 0.063616 0.500000
O O6 0.696266 0.116272 0.262761
O O7 0.793625 0.131986 0.276980
O O8 0.753828 0.004541 0.230799
O O9 0.776199 0.790278 0.500000
O O10 0.792625 0.877208 0.263047
O O11 0.842838 0.749039 0.295483
O O12 0.750854 0.756103 0.216748
O O13 0.694064 0.890954 0.235184
O O14 0.754430 0.915834 0.000000
O O15 0.843761 0.255743 0.207126
O O16 0.903455 0.362303 0.258647
O O17 0.859383 0.357608 0.000000
O O18 0.145536 0.354614 0.500000
O O19 0.292101 0.317517 0.000000
O O20 0.557706 0.914095 0.500000
#
# Coordination Sequence:
#
# PCOD8224362 Si02
#       8
#     8   8   8   8   8   8   8   8
#     4   8  14  25  38  57  81 104 132 166 203 238
#     4  10  18  27  42  63  81 102 134 170 198 231
#     4   9  16  26  40  58  77 102 136 172 200 228
#     4  10  19  29  40  56  80 110 135 162 202 245
#     4   9  18  29  40  55  79 109 138 164 196 234
#     4   8  14  24  39  57  79 104 131 164 201 233
#     4   9  17  29  41  55  79 109 133 160 200 243
#     4   9  16  25  41  59  77 104 137 170 200 230
#
# _framework density 14.761455
#
# number of rings (size 3 to 8) (size 9 to 14) (size 15 to 20)
#    0.000    3.000    0.000    4.500    0.000    4.000 
#    0.000    1.250    0.000    5.250    0.000    0.000 
#    0.000    1.000    0.000   11.500    0.000    2.875 
#
# Total GULP energy -792911.656981 kJ/mol
# GULP energy per Si atom -12389.244640 kJ/mol
# Density = 1.472786 g / cm^3
# Si number density = 14.761455 Si / 1000 Ang^3
#
#
#
# Elastic Constant Matrix: (Units=GPa)
#
#
# Indices 1 2 3 4 5 6 
#
# 1 84.7347 55.2010 26.3088 0.0000 0.0000 0.0000
# 2 55.2010 97.0569 21.2120 0.0000 0.0000 0.0000
# 3 26.3088 21.2120 30.6976 0.0000 0.0000 0.0000
# 4 0.0000 0.0000 0.0000 22.2657 0.0000 0.0000
# 5 0.0000 0.0000 0.0000 0.0000 11.8404 0.0000
# 6 0.0000 0.0000 0.0000 0.0000 0.0000 25.3031
#
#
#
# Elastic Compliance Matrix: (Units=1/GPa)
#
#
# Indices 1 2 3 4 5 6 
#
# 1 0.021952 -0.009863 -0.011998 0.000000 0.000000 0.000000
# 2 -0.009863 0.016567 -0.002995 0.000000 0.000000 0.000000
# 3 -0.011998 -0.002995 0.044928 0.000000 0.000000 0.000000
# 4 0.000000 0.000000 0.000000 0.044912 0.000000 0.000000
# 5 0.000000 0.000000 0.000000 0.000000 0.084457 0.000000
# 6 0.000000 0.000000 0.000000 0.000000 0.000000 0.039521
#
#
# Mechanical properties :
#
#
# Convention : Reuss Voigt Hill
#
# Bulk Modulus (GPa) = 29.64280 46.43697 38.03989
# Shear Modulus (GPa) = 15.95935 19.19966 17.57951
#
# Velocity S-wave (km/s) = 3.29165 3.61038 3.45469
# Velocity P-wave (km/s) = 5.87975 6.99331 6.46057
#
# Compressibility (1/GPa) = 0.03373500
#
# Stress axis : x y z
#
# Youngs Moduli (GPa) = 45.55350 60.35947 22.25760
#
# Poissons Ratio (x) = 0.59533 0.26706
# Poissons Ratio (y) = 0.44930 0.06666
# Poissons Ratio (z) = 0.54657 0.18078
#
# Static dielectric constant tensor:
#      x y z
#    x 2.980900 0.000000 0.000000 
#    y 0.000000 3.058340 0.000000 
#    z 0.000000 0.000000 2.721850 
# 
# 
# High freq. dielectric constant tensor:
#      x y z
#    x 1.529960 0.000000 0.000000 
#    y 0.000000 1.558440 0.000000 
#    z 0.000000 0.000000 1.556500 
# 
# From -- ./inp_files/8234.got.cif
#   From: 2010.03.12/outbox.cif.g09.slc.cpg/sg55_5_cif.got.tgz:8234.got - 2010.04.16 15:19:21.
