data_PCOD8224012
_publ_section_title
;
Structure prediction by ZEFSAII (Michael W. Deem and Ramdas Pophale) SiO2 
 PCOD8224012
Probable space group: P C C A
;
_chemical_formula_sum "Si O2"
_cell_formula_units_Z 24
_cell_length_a 8.469033
_cell_length_b 4.827203
_cell_length_c 26.348365
_cell_angle_alpha 90.000000
_cell_angle_beta 90.000000
_cell_angle_gamma 90.000000
_cell_volume 1077.167047
_symmetry_space_group_name_H-M "P C C A"
_symmetry_group_IT_number 54
_symmetry_cell_setting 'orthorhombic'
loop_
_space_group_symop_operation_xyz
x,y,z
1/2-x,-y,z
1/2+x,-y,1/2-z
-x,y,1/2-z
-x,-y,-z
1/2+x,y,-z
1/2-x,y,1/2+z
x,-y,1/2+z
loop_
_atom_site_type_symbol
_atom_site_label
_atom_site_fract_x
_atom_site_fract_y
_atom_site_fract_z
Si Si1 0.644562 0.267030 0.715142
Si Si2 0.921695 0.576659 0.605008
Si Si3 0.932492 0.069578 0.945103
O O1 0.750000 0.500000 0.744276
O O2 0.500000 0.168598 0.750000
O O3 0.578096 0.434531 0.666060
O O4 0.750000 0.000000 0.700508
O O5 0.750000 0.500000 0.582792
O O6 0.046267 0.382941 0.575045
O O7 0.966325 0.891464 0.594089
O O8 0.750000 0.000000 0.943346
O O9 0.000000 0.000000 0.000000
#
# Coordination Sequence:
#
# PCOD8224012 Si02
#       3
#     8   8   8
#     4  11  24  43  67  97 132 175 218 270 331 392
#     4  11  23  43  65  92 130 171 215 268 326 388
#     4  12  25  42  65  95 128 170 217 270 327 390
#
# _framework density 22.280666
#
# number of rings (size 3 to 8) (size 9 to 14) (size 15 to 20)
#    0.000    0.667    0.000   10.000    0.000    4.000 
#    0.000    0.000    0.000    0.000    0.000    0.000 
#    0.000    0.000    0.000    0.000    0.000    0.000 
#
# Total GULP energy -297574.957102 kJ/mol
# GULP energy per Si atom -12398.956546 kJ/mol
# Density = 2.222995 g / cm^3
# Si number density = 22.280666 Si / 1000 Ang^3
#
#
#
# Elastic Constant Matrix: (Units=GPa)
#
#
# Indices 1 2 3 4 5 6 
#
# 1 131.6781 21.4509 51.7240 0.0000 0.0000 0.0000
# 2 21.4509 96.1450 28.8324 0.0000 0.0000 0.0000
# 3 51.7240 28.8324 99.5373 0.0000 0.0000 0.0000
# 4 0.0000 0.0000 0.0000 31.0147 0.0000 0.0000
# 5 0.0000 0.0000 0.0000 0.0000 32.5995 0.0000
# 6 0.0000 0.0000 0.0000 0.0000 0.0000 50.5195
#
#
#
# Elastic Compliance Matrix: (Units=1/GPa)
#
#
# Indices 1 2 3 4 5 6 
#
# 1 0.009586 -0.000706 -0.004777 0.000000 0.000000 0.000000
# 2 -0.000706 0.011442 -0.002947 0.000000 0.000000 0.000000
# 3 -0.004777 -0.002947 0.013382 0.000000 0.000000 0.000000
# 4 0.000000 0.000000 0.000000 0.032243 0.000000 0.000000
# 5 0.000000 0.000000 0.000000 0.000000 0.030675 0.000000
# 6 0.000000 0.000000 0.000000 0.000000 0.000000 0.019794
#
#
# Mechanical properties :
#
#
# Convention : Reuss Voigt Hill
#
# Bulk Modulus (GPa) = 56.98036 59.04167 58.01101
# Shear Modulus (GPa) = 35.75689 37.85028 36.80358
#
# Velocity S-wave (km/s) = 4.01039 4.12612 4.06866
# Velocity P-wave (km/s) = 6.86103 7.01829 6.94010
#
# Compressibility (1/GPa) = 0.01754991
#
# Stress axis : x y z
#
# Youngs Moduli (GPa) = 104.32352 87.39409 74.72530
#
# Poissons Ratio (x) = 0.06172 0.35693
# Poissons Ratio (y) = 0.07368 0.22025
# Poissons Ratio (z) = 0.49830 0.25759
#
# Static dielectric constant tensor:
#      x y z
#    x 4.073900 0.000000 0.000000 
#    y 0.000000 4.119760 0.000000 
#    z 0.000000 0.000000 3.765750 
# 
# 
# High freq. dielectric constant tensor:
#      x y z
#    x 1.885660 0.000000 0.000000 
#    y 0.000000 1.895390 0.000000 
#    z 0.000000 0.000000 1.867760 
# 
# From -- ./inp_files/23068.got.cif
#   From: 2010.03.12/outbox.cif.g09.slc.cpg/sg54_12_cif.got.tgz:23068.got - 2010.04.16 15:00:50.
