data_PCOD8224589
_publ_section_title
;
Structure prediction by ZEFSAII (Michael W. Deem and Ramdas Pophale) SiO2 
 PCOD8224589
Probable space group: P B A M
;
_chemical_formula_sum "Si O2"
_cell_formula_units_Z 56
_cell_length_a 22.395119
_cell_length_b 13.324933
_cell_length_c 10.305577
_cell_angle_alpha 90.000000
_cell_angle_beta 90.000000
_cell_angle_gamma 90.000000
_cell_volume 3075.322892
_symmetry_space_group_name_H-M "P B A M"
_symmetry_group_IT_number 55
_symmetry_cell_setting 'orthorhombic'
loop_
_space_group_symop_operation_xyz
x,y,z
-x,-y,z
1/2+x,1/2-y,-z
1/2-x,1/2+y,-z
-x,-y,-z
x,y,-z
1/2-x,1/2+y,z
1/2+x,1/2-y,z
loop_
_atom_site_type_symbol
_atom_site_label
_atom_site_fract_x
_atom_site_fract_y
_atom_site_fract_z
Si Si1 0.857009 0.885103 0.856931
Si Si2 0.433781 0.719580 0.651771
Si Si3 0.346379 0.888214 0.350052
Si Si4 0.926938 0.220497 0.350463
Si Si5 0.746270 0.248723 0.774390
Si Si6 0.660723 0.892460 0.650268
Si Si7 0.650154 0.612001 0.856869
O O1 0.905147 0.865614 0.743255
O O2 0.803176 0.804956 0.859911
O O3 0.831099 0.996648 0.833475
O O4 0.887388 0.878213 0.000000
O O5 0.420376 0.694774 0.500000
O O6 0.404482 0.825342 0.694872
O O7 0.503487 0.725717 0.679844
O O8 0.352489 0.908825 0.500000
O O9 0.286071 0.826308 0.325299
O O10 0.345354 0.997964 0.281010
O O11 0.914741 0.188288 0.500000
O O12 0.899572 0.330059 0.321940
O O13 0.896645 0.140439 0.255248
O O14 0.781535 0.334540 0.699468
O O15 0.791110 0.181471 0.858410
O O16 0.671738 0.907575 0.500000
O O17 0.620643 0.624644 0.000000
#
# Coordination Sequence:
#
# PCOD8224589 Si02
#       7
#     8   8   8   8   8   8   8
#     4  10  21  35  52  75 101 131 166 203 246 295
#     4   9  19  35  53  74 100 130 166 207 249 293
#     4   9  17  29  48  75 104 133 165 203 247 292
#     4   9  19  35  53  74 100 130 166 207 249 293
#     4  10  18  32  50  72 101 134 165 202 243 294
#     4   9  17  29  48  75 104 133 165 203 247 292
#     4  10  21  35  52  75 101 131 166 203 246 295
#
# _framework density 18.20947
#
# number of rings (size 3 to 8) (size 9 to 14) (size 15 to 20)
#    0.000    2.571    0.000    1.714    0.000    3.429 
#    0.000    5.714    0.000    7.714    0.000    8.000 
#    0.000    0.000    0.000    0.000    0.000    0.000 
#
# Total GULP energy -694045.240438 kJ/mol
# GULP energy per Si atom -12393.665008 kJ/mol
# Density = 1.816802 g / cm^3
# Si number density = 18.209470 Si / 1000 Ang^3
#
#
#
# Elastic Constant Matrix: (Units=GPa)
#
#
# Indices 1 2 3 4 5 6 
#
# 1 110.3354 44.3443 46.3796 0.0000 0.0000 0.0000
# 2 44.3443 122.3203 44.6389 0.0000 0.0000 0.0000
# 3 46.3796 44.6389 70.7736 0.0000 0.0000 0.0000
# 4 0.0000 0.0000 0.0000 21.8844 0.0000 0.0000
# 5 0.0000 0.0000 0.0000 0.0000 19.9139 0.0000
# 6 0.0000 0.0000 0.0000 0.0000 0.0000 14.3301
#
#
#
# Elastic Compliance Matrix: (Units=1/GPa)
#
#
# Indices 1 2 3 4 5 6 
#
# 1 0.012899 -0.002067 -0.007149 0.000000 0.000000 0.000000
# 2 -0.002067 0.010951 -0.005552 0.000000 0.000000 0.000000
# 3 -0.007149 -0.005552 0.022317 0.000000 0.000000 0.000000
# 4 0.000000 0.000000 0.000000 0.045695 0.000000 0.000000
# 5 0.000000 0.000000 0.000000 0.000000 0.050216 0.000000
# 6 0.000000 0.000000 0.000000 0.000000 0.000000 0.069783
#
#
# Mechanical properties :
#
#
# Convention : Reuss Voigt Hill
#
# Bulk Modulus (GPa) = 60.13567 63.79501 61.96534
# Shear Modulus (GPa) = 20.24765 22.43009 21.33887
#
# Velocity S-wave (km/s) = 3.33818 3.51348 3.42695
# Velocity P-wave (km/s) = 6.92488 7.18119 7.05420
#
# Compressibility (1/GPa) = 0.01662907
#
# Stress axis : x y z
#
# Youngs Moduli (GPa) = 77.52306 91.31626 44.80943
#
# Poissons Ratio (x) = 0.18878 0.32036
# Poissons Ratio (y) = 0.16026 0.24880
# Poissons Ratio (z) = 0.55424 0.50702
#
# Static dielectric constant tensor:
#      x y z
#    x 3.264980 0.000000 0.000000 
#    y 0.000000 3.690920 0.000000 
#    z 0.000000 0.000000 3.258680 
# 
# 
# High freq. dielectric constant tensor:
#      x y z
#    x 1.696370 0.000000 0.000000 
#    y 0.000000 1.716640 0.000000 
#    z 0.000000 0.000000 1.693360 
# 
# From -- ./inp_files/6205.got.cif
#   From: 2010.03.12/outbox.cif.g09.slc.cpg/sg55_4_cif.got.tgz:6205.got - 2010.04.16 15:19:21.
