data_PCOD8224116
_publ_section_title
;
Structure prediction by ZEFSAII (Michael W. Deem and Ramdas Pophale) SiO2 
 PCOD8224116
Probable space group: P C C A
;
_chemical_formula_sum "Si O2"
_cell_formula_units_Z 32
_cell_length_a 7.848609
_cell_length_b 4.951191
_cell_length_c 34.229695
_cell_angle_alpha 90.000000
_cell_angle_beta 90.000000
_cell_angle_gamma 90.000000
_cell_volume 1330.164655
_symmetry_space_group_name_H-M "P C C A"
_symmetry_group_IT_number 54
_symmetry_cell_setting 'orthorhombic'
loop_
_space_group_symop_operation_xyz
x,y,z
1/2-x,-y,z
1/2+x,-y,1/2-z
-x,y,1/2-z
-x,-y,-z
1/2+x,y,-z
1/2-x,y,1/2+z
x,-y,1/2+z
loop_
_atom_site_type_symbol
_atom_site_label
_atom_site_fract_x
_atom_site_fract_y
_atom_site_fract_z
Si Si1 0.250000 0.000000 0.475583
Si Si2 0.436903 0.881683 0.207351
Si Si3 0.750000 0.500000 0.469857
Si Si4 0.062649 0.615937 0.335097
Si Si5 0.565794 0.638664 0.576025
O O1 0.202316 0.249596 0.502921
O O2 0.411476 0.078360 0.447599
O O3 0.500000 0.796237 0.250000
O O4 0.434247 0.612507 0.180914
O O5 0.250000 0.000000 0.208756
O O6 0.559525 0.111126 0.189899
O O7 0.582692 0.544895 0.443090
O O8 0.250000 0.500000 0.331497
O O9 0.014079 0.693859 0.379370
O O10 0.750000 0.500000 0.572949
#
# Coordination Sequence:
#
# PCOD8224116 Si02
#       5
#     4   8   4   8   8
#     4  12  26  48  70 106 140 192 242 304 364 424
#     4  12  26  46  75 107 144 185 235 287 354 429
#     4  12  28  44  74 102 144 186 248 302 360 430
#     4  11  26  46  72 104 146 187 236 294 355 425
#     4  11  28  46  73 104 145 189 243 297 364 425
#
# _framework density 24.057172000000001
#
# number of rings (size 3 to 8) (size 9 to 14) (size 15 to 20)
#    0.000    0.500    1.250    5.250   14.000    0.000 
#    0.000    0.000    0.000    0.000    0.000    0.000 
#    0.000    0.000    0.000    0.000    0.000    0.000 
#
# Total GULP energy -396848.369900 kJ/mol
# GULP energy per Si atom -12401.511559 kJ/mol
# Density = 2.400242 g / cm^3
# Si number density = 24.057172 Si / 1000 Ang^3
#
#
#
# Elastic Constant Matrix: (Units=GPa)
#
#
# Indices 1 2 3 4 5 6 
#
# 1 104.2233 18.6370 59.3250 0.0000 0.0000 0.0000
# 2 18.6370 119.9059 53.8427 0.0000 0.0000 0.0000
# 3 59.3250 53.8427 173.4235 0.0000 0.0000 0.0000
# 4 0.0000 0.0000 0.0000 6.2557 0.0000 0.0000
# 5 0.0000 0.0000 0.0000 0.0000 29.0015 0.0000
# 6 0.0000 0.0000 0.0000 0.0000 0.0000 -1.9169
#
#
#
# Elastic Compliance Matrix: (Units=1/GPa)
#
#
# Indices 1 2 3 4 5 6 
#
# 1 0.011915 -0.000025 -0.004068 0.000000 0.000000 0.000000
# 2 -0.000025 0.009691 -0.003000 0.000000 0.000000 0.000000
# 3 -0.004068 -0.003000 0.008089 0.000000 0.000000 0.000000
# 4 0.000000 0.000000 0.000000 0.159854 0.000000 0.000000
# 5 0.000000 0.000000 0.000000 0.000000 0.034481 0.000000
# 6 0.000000 0.000000 0.000000 0.000000 0.000000 -0.521664
#
#
# Mechanical properties :
#
#
# Convention : Reuss Voigt Hill
#
# Bulk Modulus (GPa) = 64.48133 73.46246 68.97189
# Shear Modulus (GPa) = -17.96765 24.38459 3.20847
#
# Velocity S-wave (km/s) = -2.73586 3.18718 1.15611
# Velocity P-wave (km/s) = 4.10873 6.64432 5.52398
#
# Compressibility (1/GPa) = 0.01550836
#
# Stress axis : x y z
#
# Youngs Moduli (GPa) = 83.92889 103.18888 123.62061
#
# Poissons Ratio (x) = 0.00260 0.50289
# Poissons Ratio (y) = 0.00212 0.37088
# Poissons Ratio (z) = 0.34142 0.30958
#
# Static dielectric constant tensor:
#      x y z
#    x 4.205210 0.000000 0.000000 
#    y 0.000000 4.861940 0.000000 
#    z 0.000000 0.000000 4.804150 
# 
# 
# High freq. dielectric constant tensor:
#      x y z
#    x 1.955620 0.000000 0.000000 
#    y 0.000000 1.956410 0.000000 
#    z 0.000000 0.000000 1.971700 
# 
# From -- ./inp_files/27425.got.cif
#   From: 2010.03.12/outbox.cif.g09.slc.cpg/sg54_14_cif.got.tgz:27425.got - 2010.04.16 15:00:50.
