data_PCOD8224103
_publ_section_title
;
Structure prediction by ZEFSAII (Michael W. Deem and Ramdas Pophale) SiO2 
 PCOD8224103
Probable space group: P C C A
;
_chemical_formula_sum "Si O2"
_cell_formula_units_Z 56
_cell_length_a 13.679374
_cell_length_b 14.526650
_cell_length_c 12.130001
_cell_angle_alpha 90.000000
_cell_angle_beta 90.000000
_cell_angle_gamma 90.000000
_cell_volume 2410.418951
_symmetry_space_group_name_H-M "P C C A"
_symmetry_group_IT_number 54
_symmetry_cell_setting 'orthorhombic'
loop_
_space_group_symop_operation_xyz
x,y,z
1/2-x,-y,z
1/2+x,-y,1/2-z
-x,y,1/2-z
-x,-y,-z
1/2+x,y,-z
1/2-x,y,1/2+z
x,-y,1/2+z
loop_
_atom_site_type_symbol
_atom_site_label
_atom_site_fract_x
_atom_site_fract_y
_atom_site_fract_z
Si Si1 0.486919 0.275804 0.616915
Si Si2 0.116304 0.953852 0.761738
Si Si3 0.375802 0.407256 0.022810
Si Si4 0.062988 0.905797 0.979945
Si Si5 0.301821 0.131909 0.184747
Si Si6 0.893231 0.689749 0.249941
Si Si7 0.650892 0.388624 0.013234
O O1 0.500000 0.268635 0.750000
O O2 0.565062 0.344243 0.562000
O O3 0.491501 0.176515 0.557312
O O4 0.381640 0.316617 0.582188
O O5 0.141970 0.920089 0.883408
O O6 0.186010 0.896743 0.675591
O O7 0.000000 0.936979 0.750000
O O8 0.142730 0.060690 0.763676
O O9 0.390617 0.383222 0.150828
O O10 0.402538 0.514373 0.009560
O O11 0.265349 0.392706 0.989031
O O12 0.136098 0.873848 0.073901
O O13 0.000000 0.000000 0.000000
O O14 0.309471 0.233394 0.235164
O O15 0.000000 0.738221 0.250000
O O16 0.881062 0.638934 0.135130
#
# Coordination Sequence:
#
# PCOD8224103 Si02
#       7
#     8   8   8   8   8   8   8
#     4  12  28  49  77 113 150 196 252 318 378 458
#     4  11  25  46  74 107 150 196 253 313 376 448
#     4  11  27  48  73 115 146 198 255 311 385 456
#     4  12  26  50  74 105 155 200 253 311 384 453
#     4  11  26  46  75 109 147 201 254 314 378 458
#     4  12  25  47  80 106 147 200 258 306 385 468
#     4  11  28  47  77 107 153 202 242 322 387 452
#
# _framework density 23.232475000000001
#
# number of rings (size 3 to 8) (size 9 to 14) (size 15 to 20)
#    0.000    0.571    4.286    1.286    8.000    4.571 
#    0.000    0.000    0.000    0.000    0.000    0.000 
#    0.000    0.000    0.000    0.000    0.000    0.000 
#
# Total GULP energy -693903.136389 kJ/mol
# GULP energy per Si atom -12391.127436 kJ/mol
# Density = 2.317960 g / cm^3
# Si number density = 23.232475 Si / 1000 Ang^3
#
#
#
# Elastic Constant Matrix: (Units=GPa)
#
#
# Indices 1 2 3 4 5 6 
#
# 1 95.6003 28.6846 30.4638 0.0000 0.0000 0.0000
# 2 28.6846 166.3064 68.2517 0.0000 0.0000 0.0000
# 3 30.4638 68.2517 121.6103 0.0000 0.0000 0.0000
# 4 0.0000 0.0000 0.0000 34.4724 0.0000 0.0000
# 5 0.0000 0.0000 0.0000 0.0000 29.0200 0.0000
# 6 0.0000 0.0000 0.0000 0.0000 0.0000 3.6167
#
#
#
# Elastic Compliance Matrix: (Units=1/GPa)
#
#
# Indices 1 2 3 4 5 6 
#
# 1 0.011505 -0.001041 -0.002297 0.000000 0.000000 0.000000
# 2 -0.001041 0.007907 -0.004177 0.000000 0.000000 0.000000
# 3 -0.002297 -0.004177 0.011143 0.000000 0.000000 0.000000
# 4 0.000000 0.000000 0.000000 0.029009 0.000000 0.000000
# 5 0.000000 0.000000 0.000000 0.000000 0.034459 0.000000
# 6 0.000000 0.000000 0.000000 0.000000 0.000000 0.276493
#
#
# Mechanical properties :
#
#
# Convention : Reuss Voigt Hill
#
# Bulk Modulus (GPa) = 64.42075 70.92414 67.67245
# Shear Modulus (GPa) = 12.79688 30.49628 21.64658
#
# Velocity S-wave (km/s) = 2.34950 3.62699 3.05575
# Velocity P-wave (km/s) = 5.92867 6.93789 6.45304
#
# Compressibility (1/GPa) = 0.01552295
#
# Stress axis : x y z
#
# Youngs Moduli (GPa) = 86.92002 126.47496 89.74590
#
# Poissons Ratio (x) = 0.13172 0.20619
# Poissons Ratio (y) = 0.09053 0.37483
# Poissons Ratio (z) = 0.19970 0.52824
#
# Static dielectric constant tensor:
#      x y z
#    x 4.097460 0.000000 0.000000 
#    y 0.000000 5.418990 0.000000 
#    z 0.000000 0.000000 4.646200 
# 
# 
# High freq. dielectric constant tensor:
#      x y z
#    x 1.931490 0.000000 0.000000 
#    y 0.000000 1.933390 0.000000 
#    z 0.000000 0.000000 1.925960 
# 
# From -- ./inp_files/8460.got.cif
#   From: 2010.03.12/outbox.cif.g09.slc.cpg/sg54_5_cif.got.tgz:8460.got - 2010.04.16 15:00:50.
