data_PCOD8224314
_publ_section_title
;
Structure prediction by ZEFSAII (Michael W. Deem and Ramdas Pophale) SiO2 
 PCOD8224314
Probable space group: P B A M
;
_chemical_formula_sum "Si O2"
_cell_formula_units_Z 60
_cell_length_a 8.516504
_cell_length_b 25.032980
_cell_length_c 15.546123
_cell_angle_alpha 90.000000
_cell_angle_beta 90.000000
_cell_angle_gamma 90.000000
_cell_volume 3314.331974
_symmetry_space_group_name_H-M "P B A M"
_symmetry_group_IT_number 55
_symmetry_cell_setting 'orthorhombic'
loop_
_space_group_symop_operation_xyz
x,y,z
-x,-y,z
1/2+x,1/2-y,-z
1/2-x,1/2+y,-z
-x,-y,-z
x,y,-z
1/2-x,1/2+y,z
1/2+x,1/2-y,z
loop_
_atom_site_type_symbol
_atom_site_label
_atom_site_fract_x
_atom_site_fract_y
_atom_site_fract_z
Si Si1 0.801814 0.684802 0.242677
Si Si2 0.754429 0.520051 0.095764
Si Si3 0.009832 0.766261 0.329444
Si Si4 0.884686 0.132060 0.096847
Si Si5 0.721804 0.822216 0.403323
Si Si6 0.000000 0.500000 0.770884
Si Si7 0.080544 0.609572 0.264102
Si Si8 0.278535 0.601910 0.901195
O O1 0.911859 0.738307 0.249662
O O2 0.645182 0.693291 0.298930
O O3 0.734329 0.670138 0.148974
O O4 0.908437 0.635710 0.275720
O O5 0.633366 0.568197 0.108652
O O6 0.680089 0.461212 0.110446
O O7 0.884688 0.532255 0.166502
O O8 0.828212 0.523056 0.000000
O O9 0.893986 0.798154 0.390974
O O10 0.085992 0.720948 0.388390
O O11 0.069145 0.138579 0.120074
O O12 0.851451 0.149844 0.000000
O O13 0.707090 0.844616 0.500000
O O14 0.702789 0.869138 0.334047
O O15 0.924601 0.453566 0.713288
O O16 0.143863 0.619424 0.166486
O O17 0.222555 0.612452 0.000000
#
# Coordination Sequence:
#
# PCOD8224314 Si02
#       8
#     8   8   8   8   8   4   8   8
#     4  10  19  35  52  76 101 134 171 215 261 308
#     4   9  16  26  44  70 103 139 177 221 256 292
#     4   9  20  35  57  77 101 125 164 219 267 313
#     4  10  18  29  47  72 103 140 178 217 260 306
#     4  10  19  35  57  83 103 128 163 213 267 315
#     4  10  17  30  45  76 108 140 178 206 252 308
#     4  10  20  32  52  77 109 140 173 209 256 313
#     4   9  18  30  47  73 107 140 177 217 254 295
#
# _framework density 18.103196000000001
#
# number of rings (size 3 to 8) (size 9 to 14) (size 15 to 20)
#    0.000    2.400    1.333    1.800    0.000    2.667 
#    0.000    1.667    0.000    4.800    0.000    0.933 
#    0.000    0.000    0.000    0.000    0.000    0.000 
#
# Total GULP energy -743315.595260 kJ/mol
# GULP energy per Si atom -12388.593254 kJ/mol
# Density = 1.806199 g / cm^3
# Si number density = 18.103196 Si / 1000 Ang^3
#
#
#
# Elastic Constant Matrix: (Units=GPa)
#
#
# Indices 1 2 3 4 5 6 
#
# 1 93.3228 31.0451 39.3301 0.0000 0.0000 0.0000
# 2 31.0451 62.4046 44.7103 0.0000 0.0000 0.0000
# 3 39.3301 44.7103 97.8672 0.0000 0.0000 0.0000
# 4 0.0000 0.0000 0.0000 53.4136 0.0000 0.0000
# 5 0.0000 0.0000 0.0000 0.0000 18.0230 0.0000
# 6 0.0000 0.0000 0.0000 0.0000 0.0000 25.9159
#
#
#
# Elastic Compliance Matrix: (Units=1/GPa)
#
#
# Indices 1 2 3 4 5 6 
#
# 1 0.013616 -0.004242 -0.003534 0.000000 0.000000 0.000000
# 2 -0.004242 0.025143 -0.009782 0.000000 0.000000 0.000000
# 3 -0.003534 -0.009782 0.016107 0.000000 0.000000 0.000000
# 4 0.000000 0.000000 0.000000 0.018722 0.000000 0.000000
# 5 0.000000 0.000000 0.000000 0.000000 0.055485 0.000000
# 6 0.000000 0.000000 0.000000 0.000000 0.000000 0.038586
#
#
# Mechanical properties :
#
#
# Convention : Reuss Voigt Hill
#
# Bulk Modulus (GPa) = 50.63122 53.75172 52.19147
# Shear Modulus (GPa) = 23.88262 28.70445 26.29353
#
# Velocity S-wave (km/s) = 3.63609 3.98628 3.81520
# Velocity P-wave (km/s) = 6.75700 7.13747 6.94984
#
# Compressibility (1/GPa) = 0.01975066
#
# Stress axis : x y z
#
# Youngs Moduli (GPa) = 73.44334 39.77270 62.08494
#
# Poissons Ratio (x) = 0.16870 0.21941
# Poissons Ratio (y) = 0.31152 0.60730
# Poissons Ratio (z) = 0.25955 0.38905
#
# Static dielectric constant tensor:
#      x y z
#    x 3.539190 0.000000 0.000000 
#    y 0.000000 3.261150 0.000000 
#    z 0.000000 0.000000 3.135900 
# 
# 
# High freq. dielectric constant tensor:
#      x y z
#    x 1.710450 0.000000 0.000000 
#    y 0.000000 1.685290 0.000000 
#    z 0.000000 0.000000 1.670840 
# 
# From -- ./inp_files/17884.got.cif
#   From: 2010.03.12/outbox.cif.g09.slc.cpg/sg55_9_cif.got.tgz:17884.got - 2010.04.16 15:19:21.
