data_PCOD8224251
_publ_section_title
;
Structure prediction by ZEFSAII (Michael W. Deem and Ramdas Pophale) SiO2 
 PCOD8224251
Probable space group: P B A M
;
_chemical_formula_sum "Si O2"
_cell_formula_units_Z 48
_cell_length_a 18.858766
_cell_length_b 7.464927
_cell_length_c 16.552132
_cell_angle_alpha 90.000000
_cell_angle_beta 90.000000
_cell_angle_gamma 90.000000
_cell_volume 2330.197747
_symmetry_space_group_name_H-M "P B A M"
_symmetry_group_IT_number 55
_symmetry_cell_setting 'orthorhombic'
loop_
_space_group_symop_operation_xyz
x,y,z
-x,-y,z
1/2+x,1/2-y,-z
1/2-x,1/2+y,-z
-x,-y,-z
x,y,-z
1/2-x,1/2+y,z
1/2+x,1/2-y,z
loop_
_atom_site_type_symbol
_atom_site_label
_atom_site_fract_x
_atom_site_fract_y
_atom_site_fract_z
Si Si1 0.418261 0.015891 0.162314
Si Si2 0.354158 0.106487 0.325896
Si Si3 0.680033 0.695718 0.907546
Si Si4 0.801065 0.004365 0.500000
Si Si5 0.674985 0.317408 0.162638
Si Si6 0.304438 0.511535 0.325589
Si Si7 0.147780 0.593610 0.500000
O O1 0.379185 0.834772 0.134576
O O2 0.500000 0.000000 0.140064
O O3 0.409193 0.046308 0.258004
O O4 0.387135 0.180783 0.111597
O O5 0.337382 0.315786 0.315105
O O6 0.280763 0.996350 0.315803
O O7 0.391556 0.063418 0.413730
O O8 0.744518 0.750904 0.849295
O O9 0.659179 0.490767 0.891547
O O10 0.703509 0.720417 0.000000
O O11 0.824341 0.908659 0.584566
O O12 0.716728 0.031140 0.500000
O O13 0.829034 0.202512 0.500000
O O14 0.662775 0.360383 0.257368
#
# Coordination Sequence:
#
# PCOD8224251 Si02
#       7
#     8   8   8   4   8   8   4
#     4  12  27  44  64  96 135 171 209 265 327 384
#     4  10  17  33  54  87 126 165 213 259 314 373
#     4  12  25  44  71 100 125 161 213 266 319 385
#     4   8  16  24  46  89 128 152 197 269 317 349
#     4  12  22  41  71  99 128 167 215 263 313 383
#     4  10  16  31  58  91 124 163 212 263 313 365
#     4   8  16  26  49  79 121 165 203 259 307 363
#
# _framework density 20.59911
#
# number of rings (size 3 to 8) (size 9 to 14) (size 15 to 20)
#    0.000    1.333    5.000    1.500    0.000    3.000 
#    0.000    1.250    0.000    0.000    0.000    3.500 
#    0.000    0.000    0.000    0.000    0.000    0.000 
#
# Total GULP energy -594952.860997 kJ/mol
# GULP energy per Si atom -12394.851271 kJ/mol
# Density = 2.055223 g / cm^3
# Si number density = 20.599110 Si / 1000 Ang^3
#
#
#
# Elastic Constant Matrix: (Units=GPa)
#
#
# Indices 1 2 3 4 5 6 
#
# 1 80.7561 30.5233 10.3421 0.0000 0.0000 0.0000
# 2 30.5233 88.0639 25.8376 0.0000 0.0000 0.0000
# 3 10.3421 25.8376 121.3583 0.0000 0.0000 0.0000
# 4 0.0000 0.0000 0.0000 19.4667 0.0000 0.0000
# 5 0.0000 0.0000 0.0000 0.0000 9.2418 0.0000
# 6 0.0000 0.0000 0.0000 0.0000 0.0000 20.7153
#
#
#
# Elastic Compliance Matrix: (Units=1/GPa)
#
#
# Indices 1 2 3 4 5 6 
#
# 1 0.014253 -0.004889 -0.000174 0.000000 0.000000 0.000000
# 2 -0.004889 0.013789 -0.002519 0.000000 0.000000 0.000000
# 3 -0.000174 -0.002519 0.008791 0.000000 0.000000 0.000000
# 4 0.000000 0.000000 0.000000 0.051370 0.000000 0.000000
# 5 0.000000 0.000000 0.000000 0.000000 0.108205 0.000000
# 6 0.000000 0.000000 0.000000 0.000000 0.000000 0.048274
#
#
# Mechanical properties :
#
#
# Convention : Reuss Voigt Hill
#
# Bulk Modulus (GPa) = 46.14801 47.06490 46.60645
# Shear Modulus (GPa) = 18.72179 24.78310 21.75244
#
# Velocity S-wave (km/s) = 3.01801 3.47236 3.25312
# Velocity P-wave (km/s) = 5.88184 6.24292 6.06507
#
# Compressibility (1/GPa) = 0.02166941
#
# Stress axis : x y z
#
# Youngs Moduli (GPa) = 70.15968 72.52097 113.75022
#
# Poissons Ratio (x) = 0.35457 0.01976
# Poissons Ratio (y) = 0.34303 0.28655
# Poissons Ratio (z) = 0.01219 0.18269
#
# Static dielectric constant tensor:
#      x y z
#    x 3.015650 0.000000 0.000000 
#    y 0.000000 3.845930 0.000000 
#    z 0.000000 0.000000 4.249240 
# 
# 
# High freq. dielectric constant tensor:
#      x y z
#    x 1.725470 0.000000 0.000000 
#    y 0.000000 1.818540 0.000000 
#    z 0.000000 0.000000 1.833400 
# 
# From -- ./inp_files/21525.got.cif
#   From: 2010.03.12/outbox.cif.g09.slc.cpg/sg55_11_cif.got.tgz:21525.got - 2010.04.16 15:19:21.
