data_PCOD8224894
_publ_section_title
;
Structure prediction by ZEFSAII (Michael W. Deem and Ramdas Pophale) SiO2 
 PCOD8224894
Probable space group: P B A M
;
_chemical_formula_sum "Si O2"
_cell_formula_units_Z 64
_cell_length_a 23.440941
_cell_length_b 14.841378
_cell_length_c 9.182176
_cell_angle_alpha 90.000000
_cell_angle_beta 90.000000
_cell_angle_gamma 90.000000
_cell_volume 3194.441072
_symmetry_space_group_name_H-M "P B A M"
_symmetry_group_IT_number 55
_symmetry_cell_setting 'orthorhombic'
loop_
_space_group_symop_operation_xyz
x,y,z
-x,-y,z
1/2+x,1/2-y,-z
1/2-x,1/2+y,-z
-x,-y,-z
x,y,-z
1/2-x,1/2+y,z
1/2+x,1/2-y,z
loop_
_atom_site_type_symbol
_atom_site_label
_atom_site_fract_x
_atom_site_fract_y
_atom_site_fract_z
Si Si1 0.332020 0.857153 0.830196
Si Si2 0.468830 0.622843 0.335584
Si Si3 0.600863 0.648873 0.335662
Si Si4 0.184461 0.552719 0.828082
Si Si5 0.289336 0.666665 0.827209
Si Si6 0.082190 0.672030 0.167702
Si Si7 0.955377 0.699796 0.833431
Si Si8 0.118694 0.018852 0.171505
O O1 0.302893 0.766755 0.760997
O O2 0.400548 0.862595 0.805302
O O3 0.307414 0.951068 0.763192
O O4 0.318497 0.854718 0.000000
O O5 0.445850 0.610648 0.500000
O O6 0.536317 0.614535 0.332209
O O7 0.448633 0.718545 0.276332
O O8 0.443217 0.545496 0.233001
O O9 0.624204 0.655371 0.500000
O O10 0.605524 0.745926 0.262713
O O11 0.637824 0.575813 0.244955
O O12 0.230342 0.624518 0.764637
O O13 0.120461 0.585821 0.790814
O O14 0.193745 0.546702 0.000000
O O15 0.338555 0.597711 0.780425
O O16 0.287263 0.674752 0.000000
O O17 0.015458 0.648496 0.197524
O O18 0.091220 0.699433 0.000000
O O19 0.954626 0.736389 0.000000
O O20 0.116346 0.004187 0.000000
#
# Coordination Sequence:
#
# PCOD8224894 Si02
#       8
#     8   8   8   8   8   8   8   8
#     4   9  16  29  49  73 105 139 168 211 266 313
#     4  10  19  31  48  73 106 141 177 214 259 317
#     4  10  21  34  49  73 107 145 176 209 264 322
#     4   9  18  31  50  79 108 135 173 219 267 314
#     4   9  18  31  48  75 108 138 170 215 268 316
#     4   9  18  32  51  78 106 135 176 222 263 314
#     4   9  16  29  50  75 106 138 171 215 270 315
#     4  11  20  31  50  76 103 137 180 222 264 309
#
# _framework density 20.034803
#
# number of rings (size 3 to 8) (size 9 to 14) (size 15 to 20)
#    0.000    2.500    1.250    1.500    0.000    4.500 
#    0.000    6.250    0.000    2.250    0.000    3.500 
#    0.000    0.000    0.000    0.000    0.000    0.000 
#
# Total GULP energy -793081.799449 kJ/mol
# GULP energy per Si atom -12391.903116 kJ/mol
# Density = 1.998920 g / cm^3
# Si number density = 20.034803 Si / 1000 Ang^3
#
#
#
# Elastic Constant Matrix: (Units=GPa)
#
#
# Indices 1 2 3 4 5 6 
#
# 1 69.4285 69.8289 16.2645 0.0000 0.0000 0.0000
# 2 69.8289 152.6171 27.7065 0.0000 0.0000 0.0000
# 3 16.2645 27.7065 56.9738 0.0000 0.0000 0.0000
# 4 0.0000 0.0000 0.0000 9.7398 0.0000 0.0000
# 5 0.0000 0.0000 0.0000 0.0000 7.3094 0.0000
# 6 0.0000 0.0000 0.0000 0.0000 0.0000 23.6712
#
#
#
# Elastic Compliance Matrix: (Units=1/GPa)
#
#
# Indices 1 2 3 4 5 6 
#
# 1 0.026859 -0.011953 -0.001855 0.000000 0.000000 0.000000
# 2 -0.011953 0.012506 -0.002669 0.000000 0.000000 0.000000
# 3 -0.001855 -0.002669 0.019380 0.000000 0.000000 0.000000
# 4 0.000000 0.000000 0.000000 0.102672 0.000000 0.000000
# 5 0.000000 0.000000 0.000000 0.000000 0.136811 0.000000
# 6 0.000000 0.000000 0.000000 0.000000 0.000000 0.042245
#
#
# Mechanical properties :
#
#
# Convention : Reuss Voigt Hill
#
# Bulk Modulus (GPa) = 38.77380 56.29104 47.53242
# Shear Modulus (GPa) = 13.08820 19.15870 16.12345
#
# Velocity S-wave (km/s) = 2.55869 3.09572 2.83993
# Velocity P-wave (km/s) = 5.30325 6.39809 5.87622
#
# Compressibility (1/GPa) = 0.02579061
#
# Stress axis : x y z
#
# Youngs Moduli (GPa) = 37.23106 79.96322 51.60049
#
# Poissons Ratio (x) = 0.95576 0.09572
# Poissons Ratio (y) = 0.44500 0.13775
# Poissons Ratio (z) = 0.06907 0.21346
#
# Static dielectric constant tensor:
#      x y z
#    x 3.692030 0.000000 0.000000 
#    y 0.000000 3.843250 0.000000 
#    z 0.000000 0.000000 3.338020 
# 
# 
# High freq. dielectric constant tensor:
#      x y z
#    x 1.773390 0.000000 0.000000 
#    y 0.000000 1.785950 0.000000 
#    z 0.000000 0.000000 1.731940 
# 
# From -- ./inp_files/9678.got.cif
#   From: 2010.03.12/outbox.cif.g09.slc.cpg/sg55_5_cif.got.tgz:9678.got - 2010.04.16 15:19:21.
