data_PCOD8224053
_publ_section_title
;
Structure prediction by ZEFSAII (Michael W. Deem and Ramdas Pophale) SiO2 
 PCOD8224053
Probable space group: P C C A
;
_chemical_formula_sum "Si O2"
_cell_formula_units_Z 64
_cell_length_a 25.478844
_cell_length_b 13.759627
_cell_length_c 8.695453
_cell_angle_alpha 90.000000
_cell_angle_beta 90.000000
_cell_angle_gamma 90.000000
_cell_volume 3048.446607
_symmetry_space_group_name_H-M "P C C A"
_symmetry_group_IT_number 54
_symmetry_cell_setting 'orthorhombic'
loop_
_space_group_symop_operation_xyz
x,y,z
1/2-x,-y,z
1/2+x,-y,1/2-z
-x,y,1/2-z
-x,-y,-z
1/2+x,y,-z
1/2-x,y,1/2+z
x,-y,1/2+z
loop_
_atom_site_type_symbol
_atom_site_label
_atom_site_fract_x
_atom_site_fract_y
_atom_site_fract_z
Si Si1 0.648170 0.085497 0.625155
Si Si2 0.407741 0.411521 0.082365
Si Si3 0.103739 0.618468 0.440368
Si Si4 0.812423 0.724520 0.461675
Si Si5 0.797391 0.070478 0.440551
Si Si6 0.500713 0.701383 0.433556
Si Si7 0.026078 0.911145 0.912146
Si Si8 0.709778 0.728496 0.604845
O O1 0.669265 0.171108 0.519659
O O2 0.666398 0.101896 0.798880
O O3 0.586688 0.072947 0.613599
O O4 0.668965 0.982858 0.568629
O O5 0.410418 0.404421 0.265289
O O6 0.361096 0.346741 0.015711
O O7 0.395176 0.521632 0.040304
O O8 0.462907 0.379457 0.008336
O O9 0.059885 0.689215 0.508557
O O10 0.159610 0.671886 0.461215
O O11 0.764610 0.675691 0.559435
O O12 0.794622 0.739113 0.286444
O O13 0.778929 0.168062 0.524051
O O14 0.750000 0.000000 0.386058
O O15 0.500000 0.690485 0.250000
O O16 0.482830 0.807394 0.495462
O O17 0.000000 0.902447 0.750000
O O18 0.000000 0.000000 0.000000
#
# Coordination Sequence:
#
# PCOD8224053 Si02
#       8
#     8   8   8   8   8   8   8   8
#     4  12  24  42  66  94 135 178 222 281 328 396
#     4  11  24  47  69 100 132 173 227 275 345 397
#     4  11  26  43  72  99 132 175 220 282 336 407
#     4  11  24  45  67  98 135 174 220 275 335 394
#     4  12  25  40  66 100 134 175 226 270 333 398
#     4  11  24  43  69 100 135 175 227 277 338 393
#     4  11  26  44  64  98 134 183 225 275 336 400
#     4  11  26  43  67 100 133 174 222 273 332 400
#
# _framework density 20.994298000000001
#
# number of rings (size 3 to 8) (size 9 to 14) (size 15 to 20)
#    0.000    0.750    2.500    4.125    5.250    4.500 
#    0.000    2.500    0.000    0.000    0.000    0.000 
#    0.000    0.000    0.000    0.000    0.000    0.000 
#
# Total GULP energy -793763.883187 kJ/mol
# GULP energy per Si atom -12402.560675 kJ/mol
# Density = 2.094651 g / cm^3
# Si number density = 20.994298 Si / 1000 Ang^3
#
#
#
# Elastic Constant Matrix: (Units=GPa)
#
#
# Indices 1 2 3 4 5 6 
#
# 1 138.6140 15.1294 21.9433 0.0000 0.0000 0.0000
# 2 15.1294 71.8768 -2.6344 0.0000 0.0000 0.0000
# 3 21.9433 -2.6344 57.4204 0.0000 0.0000 0.0000
# 4 0.0000 0.0000 0.0000 50.2149 0.0000 0.0000
# 5 0.0000 0.0000 0.0000 0.0000 4.5176 0.0000
# 6 0.0000 0.0000 0.0000 0.0000 0.0000 40.4031
#
#
#
# Elastic Compliance Matrix: (Units=1/GPa)
#
#
# Indices 1 2 3 4 5 6 
#
# 1 0.007899 -0.001776 -0.003100 0.000000 0.000000 0.000000
# 2 -0.001776 0.014336 0.001337 0.000000 0.000000 0.000000
# 3 -0.003100 0.001337 0.018661 0.000000 0.000000 0.000000
# 4 0.000000 0.000000 0.000000 0.019914 0.000000 0.000000
# 5 0.000000 0.000000 0.000000 0.000000 0.221359 0.000000
# 6 0.000000 0.000000 0.000000 0.000000 0.000000 0.024751
#
#
# Mechanical properties :
#
#
# Convention : Reuss Voigt Hill
#
# Bulk Modulus (GPa) = 29.57160 37.42087 33.49623
# Shear Modulus (GPa) = 15.37179 34.59197 24.98188
#
# Velocity S-wave (km/s) = 2.70883 4.06357 3.45329
# Velocity P-wave (km/s) = 4.88874 6.31505 5.64711
#
# Compressibility (1/GPa) = 0.03381623
#
# Stress axis : x y z
#
# Youngs Moduli (GPa) = 126.59974 69.75659 53.58650
#
# Poissons Ratio (x) = 0.12391 0.16612
# Poissons Ratio (y) = 0.22488 -0.07162
# Poissons Ratio (z) = 0.39247 -0.09323
#
# Static dielectric constant tensor:
#      x y z
#    x 4.331640 0.000000 0.000000 
#    y 0.000000 3.723940 0.000000 
#    z 0.000000 0.000000 3.851590 
# 
# 
# High freq. dielectric constant tensor:
#      x y z
#    x 1.846560 0.000000 0.000000 
#    y 0.000000 1.825110 0.000000 
#    z 0.000000 0.000000 1.830190 
# 
# From -- ./inp_files/5308.got.cif
#   From: 2010.03.12/outbox.cif.g09.slc.cpg/sg54_3_cif.got.tgz:5308.got - 2010.04.16 15:00:50.
