data_PCOD8224320
_publ_section_title
;
Structure prediction by ZEFSAII (Michael W. Deem and Ramdas Pophale) SiO2 
 PCOD8224320
Probable space group: P B A M
;
_chemical_formula_sum "Si O2"
_cell_formula_units_Z 64
_cell_length_a 20.732759
_cell_length_b 19.202946
_cell_length_c 9.023702
_cell_angle_alpha 90.000000
_cell_angle_beta 90.000000
_cell_angle_gamma 90.000000
_cell_volume 3592.606942
_symmetry_space_group_name_H-M "P B A M"
_symmetry_group_IT_number 55
_symmetry_cell_setting 'orthorhombic'
loop_
_space_group_symop_operation_xyz
x,y,z
-x,-y,z
1/2+x,1/2-y,-z
1/2-x,1/2+y,-z
-x,-y,-z
x,y,-z
1/2-x,1/2+y,z
1/2+x,1/2-y,z
loop_
_atom_site_type_symbol
_atom_site_label
_atom_site_fract_x
_atom_site_fract_y
_atom_site_fract_z
Si Si1 0.110787 0.825552 0.325335
Si Si2 0.390753 0.183617 0.170398
Si Si3 0.935332 0.039459 0.175433
Si Si4 0.189050 0.453251 0.823563
Si Si5 0.259364 0.824257 0.673515
Si Si6 0.435156 0.035196 0.823611
Si Si7 0.240581 0.184846 0.829781
Si Si8 0.809600 0.960524 0.175453
O O1 0.100985 0.827114 0.500000
O O2 0.088083 0.750228 0.266378
O O3 0.067005 0.885092 0.251717
O O4 0.185184 0.838442 0.279602
O O5 0.429826 0.115755 0.228071
O O6 0.315522 0.165415 0.188834
O O7 0.407160 0.200383 0.000000
O O8 0.876509 0.991956 0.234798
O O9 0.931971 0.050823 0.000000
O O10 0.000000 0.000000 0.223643
O O11 0.192703 0.376224 0.756969
O O12 0.124861 0.490452 0.763267
O O13 0.250350 0.495175 0.759770
O O14 0.189391 0.448595 0.000000
O O15 0.269261 0.831664 0.500000
O O16 0.279903 0.747541 0.724079
O O17 0.500000 0.000000 0.759833
O O18 0.434301 0.033652 0.000000
O O19 0.197801 0.119573 0.775463
O O20 0.225929 0.204765 0.000000
O O21 0.806488 0.964613 0.000000
#
# Coordination Sequence:
#
# PCOD8224320 Si02
#       8
#     8   8   8   8   8   8   8   8
#     4  10  20  33  50  73 101 133 168 207 250 300
#     4   9  16  29  51  75  98 128 165 205 249 297
#     4  10  20  34  53  77 103 132 167 210 254 298
#     4  10  17  30  53  76  99 131 165 203 252 299
#     4  10  20  32  47  74 105 131 165 210 254 298
#     4   9  17  30  51  81 108 129 164 212 255 296
#     4   9  16  29  50  74  97 127 166 207 251 299
#     4   9  16  29  51  76  98 122 163 208 247 295
#
# _framework density 17.814361999999999
#
# number of rings (size 3 to 8) (size 9 to 14) (size 15 to 20)
#    0.000    2.500    2.500    0.750    0.000    1.250 
#    0.000    3.125    0.000    9.000    0.000    0.000 
#    0.000    0.000    0.000    0.000    0.000    0.000 
#
# Total GULP energy -793596.307123 kJ/mol
# GULP energy per Si atom -12399.942299 kJ/mol
# Density = 1.777382 g / cm^3
# Si number density = 17.814362 Si / 1000 Ang^3
#
#
#
# Elastic Constant Matrix: (Units=GPa)
#
#
# Indices 1 2 3 4 5 6 
#
# 1 110.2068 75.6404 26.2019 0.0000 0.0000 0.0000
# 2 75.6404 156.4472 37.4553 0.0000 0.0000 0.0000
# 3 26.2019 37.4553 37.6733 0.0000 0.0000 0.0000
# 4 0.0000 0.0000 0.0000 5.2108 0.0000 0.0000
# 5 0.0000 0.0000 0.0000 0.0000 11.5491 0.0000
# 6 0.0000 0.0000 0.0000 0.0000 0.0000 30.4879
#
#
#
# Elastic Compliance Matrix: (Units=1/GPa)
#
#
# Indices 1 2 3 4 5 6 
#
# 1 0.014015 -0.005830 -0.003951 0.000000 0.000000 0.000000
# 2 -0.005830 0.010814 -0.006697 0.000000 0.000000 0.000000
# 3 -0.003951 -0.006697 0.035950 0.000000 0.000000 0.000000
# 4 0.000000 0.000000 0.000000 0.191909 0.000000 0.000000
# 5 0.000000 0.000000 0.000000 0.000000 0.086587 0.000000
# 6 0.000000 0.000000 0.000000 0.000000 0.000000 0.032800
#
#
# Mechanical properties :
#
#
# Convention : Reuss Voigt Hill
#
# Bulk Modulus (GPa) = 35.94123 64.76918 50.35520
# Shear Modulus (GPa) = 12.06847 20.45154 16.26000
#
# Velocity S-wave (km/s) = 2.60562 3.39194 3.02445
# Velocity P-wave (km/s) = 5.41032 7.19563 6.36588
#
# Compressibility (1/GPa) = 0.02782320
#
# Stress axis : x y z
#
# Youngs Moduli (GPa) = 71.35410 92.47355 27.81666
#
# Poissons Ratio (x) = 0.53912 0.10990
# Poissons Ratio (y) = 0.41599 0.18628
# Poissons Ratio (z) = 0.28192 0.61925
#
# Static dielectric constant tensor:
#      x y z
#    x 3.247940 0.000000 0.000000 
#    y 0.000000 3.408200 0.000000 
#    z 0.000000 0.000000 2.931720 
# 
# 
# High freq. dielectric constant tensor:
#      x y z
#    x 1.663150 0.000000 0.000000 
#    y 0.000000 1.704840 0.000000 
#    z 0.000000 0.000000 1.657010 
# 
# From -- ./inp_files/8949.got.cif
#   From: 2010.03.12/outbox.cif.g09.slc.cpg/sg55_5_cif.got.tgz:8949.got - 2010.04.16 15:19:21.
