data_PCOD8224462
_publ_section_title
;
Structure prediction by ZEFSAII (Michael W. Deem and Ramdas Pophale) SiO2 
 PCOD8224462
Probable space group: P B A M
;
_chemical_formula_sum "Si O2"
_cell_formula_units_Z 64
_cell_length_a 15.210849
_cell_length_b 17.500357
_cell_length_c 13.606452
_cell_angle_alpha 90.000000
_cell_angle_beta 90.000000
_cell_angle_gamma 90.000000
_cell_volume 3621.973406
_symmetry_space_group_name_H-M "P B A M"
_symmetry_group_IT_number 55
_symmetry_cell_setting 'orthorhombic'
loop_
_space_group_symop_operation_xyz
x,y,z
-x,-y,z
1/2+x,1/2-y,-z
1/2-x,1/2+y,-z
-x,-y,-z
x,y,-z
1/2-x,1/2+y,z
1/2+x,1/2-y,z
loop_
_atom_site_type_symbol
_atom_site_label
_atom_site_fract_x
_atom_site_fract_y
_atom_site_fract_z
Si Si1 0.841168 0.179111 0.386132
Si Si2 0.919251 0.666526 0.797594
Si Si3 0.665194 0.361974 0.608543
Si Si4 0.019644 0.260486 0.391331
Si Si5 0.609471 0.841463 0.884210
Si Si6 0.897497 0.510549 0.108395
Si Si7 0.759445 0.764548 0.766108
Si Si8 0.590501 0.522502 0.611637
O O1 0.811280 0.174436 0.500000
O O2 0.760209 0.201854 0.317753
O O3 0.918119 0.241238 0.370948
O O4 0.867632 0.097257 0.340447
O O5 0.944977 0.675072 0.682956
O O6 0.878835 0.582070 0.818982
O O7 0.845056 0.731046 0.824040
O O8 0.008772 0.681030 0.858652
O O9 0.706032 0.341748 0.500000
O O10 0.571379 0.319662 0.618549
O O11 0.723924 0.340525 0.702004
O O12 0.657265 0.452646 0.615970
O O13 0.031099 0.295429 0.500000
O O14 0.635832 0.928239 0.850118
O O15 0.678487 0.781370 0.838332
O O16 0.619295 0.835321 0.000000
O O17 0.000000 0.500000 0.094472
O O18 0.856451 0.528067 0.000000
O O19 0.500000 0.500000 0.666852
O O20 0.566688 0.546402 0.500000
#
# Coordination Sequence:
#
# PCOD8224462 Si02
#       8
#     8   8   8   8   8   8   8   8
#     4  10  18  30  48  73 106 140 172 203 244 299
#     4  10  19  34  55  78 103 133 172 212 254 306
#     4   9  17  30  47  74 106 137 174 211 243 287
#     4   9  16  28  49  73 104 140 169 201 245 295
#     4  10  21  38  57  77 100 128 171 219 264 313
#     4   8  16  33  57  76  93 127 171 216 256 297
#     4  11  22  32  52  79 107 135 165 207 269 315
#     4   9  15  26  48  73  99 138 182 213 237 283
#
# _framework density 17.669926
#
# number of rings (size 3 to 8) (size 9 to 14) (size 15 to 20)
#    0.000    2.500    2.500    1.500    0.000    2.500 
#    0.000    0.000    0.000    4.875    0.000    0.000 
#    0.000    6.250    0.000    0.000    0.000    0.000 
#
# Total GULP energy -792938.495662 kJ/mol
# GULP energy per Si atom -12389.663995 kJ/mol
# Density = 1.762971 g / cm^3
# Si number density = 17.669926 Si / 1000 Ang^3
#
#
#
# Elastic Constant Matrix: (Units=GPa)
#
#
# Indices 1 2 3 4 5 6 
#
# 1 70.0472 30.8564 30.3717 0.0000 0.0000 0.0000
# 2 30.8564 95.7656 44.9758 0.0000 0.0000 0.0000
# 3 30.3717 44.9758 72.3280 0.0000 0.0000 0.0000
# 4 0.0000 0.0000 0.0000 14.4056 0.0000 0.0000
# 5 0.0000 0.0000 0.0000 0.0000 16.0836 0.0000
# 6 0.0000 0.0000 0.0000 0.0000 0.0000 20.7788
#
#
#
# Elastic Compliance Matrix: (Units=1/GPa)
#
#
# Indices 1 2 3 4 5 6 
#
# 1 0.018122 -0.003200 -0.005620 0.000000 0.000000 0.000000
# 2 -0.003200 0.015315 -0.008179 0.000000 0.000000 0.000000
# 3 -0.005620 -0.008179 0.021272 0.000000 0.000000 0.000000
# 4 0.000000 0.000000 0.000000 0.069417 0.000000 0.000000
# 5 0.000000 0.000000 0.000000 0.000000 0.062175 0.000000
# 6 0.000000 0.000000 0.000000 0.000000 0.000000 0.048126
#
#
# Mechanical properties :
#
#
# Convention : Reuss Voigt Hill
#
# Bulk Modulus (GPa) = 48.28491 50.06096 49.17294
# Shear Modulus (GPa) = 18.16004 19.04940 18.60472
#
# Velocity S-wave (km/s) = 3.20931 3.28696 3.24837
# Velocity P-wave (km/s) = 6.41235 6.54203 6.47752
#
# Compressibility (1/GPa) = 0.02071040
#
# Stress axis : x y z
#
# Youngs Moduli (GPa) = 55.18020 65.29727 47.00977
#
# Poissons Ratio (x) = 0.20893 0.26421
# Poissons Ratio (y) = 0.17656 0.38452
# Poissons Ratio (z) = 0.31013 0.53410
#
# Static dielectric constant tensor:
#      x y z
#    x 3.182640 0.000000 0.000000 
#    y 0.000000 3.403420 0.000000 
#    z 0.000000 0.000000 3.163130 
# 
# 
# High freq. dielectric constant tensor:
#      x y z
#    x 1.669180 0.000000 0.000000 
#    y 0.000000 1.677530 0.000000 
#    z 0.000000 0.000000 1.659350 
# 
# From -- ./inp_files/19125.got.cif
#   From: 2010.03.12/outbox.cif.g09.slc.cpg/sg55_10_cif.got.tgz:19125.got - 2010.04.16 15:19:21.
