data_PCOD8224223
_publ_section_title
;
Structure prediction by ZEFSAII (Michael W. Deem and Ramdas Pophale) SiO2 
 PCOD8224223
Probable space group: P B A M
;
_chemical_formula_sum "Si O2"
_cell_formula_units_Z 48
_cell_length_a 5.263389
_cell_length_b 26.195907
_cell_length_c 23.365968
_cell_angle_alpha 90.000000
_cell_angle_beta 90.000000
_cell_angle_gamma 90.000000
_cell_volume 3221.682114
_symmetry_space_group_name_H-M "P B A M"
_symmetry_group_IT_number 55
_symmetry_cell_setting 'orthorhombic'
loop_
_space_group_symop_operation_xyz
x,y,z
-x,-y,z
1/2+x,1/2-y,-z
1/2-x,1/2+y,-z
-x,-y,-z
x,y,-z
1/2-x,1/2+y,z
1/2+x,1/2-y,z
loop_
_atom_site_type_symbol
_atom_site_label
_atom_site_fract_x
_atom_site_fract_y
_atom_site_fract_z
Si Si1 0.983334 0.189277 0.114725
Si Si2 0.974524 0.216795 0.637766
Si Si3 0.471855 0.718241 0.235818
Si Si4 0.016665 0.697202 0.933120
Si Si5 0.998125 0.115753 0.431976
Si Si6 0.998421 0.442552 0.568061
O O1 0.985162 0.179092 0.183170
O O2 0.731252 0.164867 0.086228
O O3 0.984082 0.249913 0.101685
O O4 0.233075 0.165058 0.084785
O O5 0.701785 0.243077 0.628277
O O6 0.991249 0.192552 0.701831
O O7 0.003223 0.172598 0.591846
O O8 0.183049 0.737581 0.230304
O O9 0.011885 0.709323 0.000000
O O10 0.997756 0.119609 0.500000
O O11 0.748078 0.086603 0.409293
O O12 0.246238 0.085803 0.409613
O O13 0.000100 0.444050 0.500000
O O14 0.000000 0.500000 0.592663
#
# Coordination Sequence:
#
# PCOD8224223 Si02
#       6
#     8   8   8   8   8   8
#     4  10  14  22  31  41  58  82 109 146 191 234
#     4  10  21  31  43  58  79 110 145 174 199 233
#     4  10  16  27  37  47  62  90 130 164 190 221
#     4  10  16  20  29  45  62  78 103 146 206 244
#     4  10  19  31  46  65  87 107 130 165 207 247
#     4   9  17  30  49  69  86 103 124 154 202 260
#
# _framework density 14.899050000000001
#
# number of rings (size 3 to 8) (size 9 to 14) (size 15 to 20)
#    0.000    2.167    3.333    4.000    0.000    2.667 
#    0.000    0.000    0.000    0.000    0.000    0.000 
#    0.000    0.000    0.000    0.000    0.000    0.000 
#
# Total GULP energy -594805.375796 kJ/mol
# GULP energy per Si atom -12391.778662 kJ/mol
# Density = 1.486514 g / cm^3
# Si number density = 14.899050 Si / 1000 Ang^3
#
#
#
# Elastic Constant Matrix: (Units=GPa)
#
#
# Indices 1 2 3 4 5 6 
#
# 1 136.3660 20.9910 25.0290 0.0000 0.0000 0.0000
# 2 20.9910 42.5768 22.4207 0.0000 0.0000 0.0000
# 3 25.0290 22.4207 47.5679 0.0000 0.0000 0.0000
# 4 0.0000 0.0000 0.0000 0.2850 0.0000 0.0000
# 5 0.0000 0.0000 0.0000 0.0000 17.7008 0.0000
# 6 0.0000 0.0000 0.0000 0.0000 0.0000 15.4303
#
#
#
# Elastic Compliance Matrix: (Units=1/GPa)
#
#
# Indices 1 2 3 4 5 6 
#
# 1 0.008295 -0.002383 -0.003242 0.000000 0.000000 0.000000
# 2 -0.002383 0.031925 -0.013794 0.000000 0.000000 0.000000
# 3 -0.003242 -0.013794 0.029230 0.000000 0.000000 0.000000
# 4 0.000000 0.000000 0.000000 3.508740 0.000000 0.000000
# 5 0.000000 0.000000 0.000000 0.000000 0.056495 0.000000
# 6 0.000000 0.000000 0.000000 0.000000 0.000000 0.064808
#
#
# Mechanical properties :
#
#
# Convention : Reuss Voigt Hill
#
# Bulk Modulus (GPa) = 32.66495 40.37690 36.52093
# Shear Modulus (GPa) = 1.33385 17.22122 9.27754
#
# Velocity S-wave (km/s) = 0.94721 3.40348 2.49809
# Velocity P-wave (km/s) = 4.81332 6.52718 5.73464
#
# Compressibility (1/GPa) = 0.03061385
#
# Stress axis : x y z
#
# Youngs Moduli (GPa) = 120.55568 31.32294 34.21145
#
# Poissons Ratio (x) = 0.07463 0.11090
# Poissons Ratio (y) = 0.28722 0.47192
# Poissons Ratio (z) = 0.39079 0.43207
#
# Static dielectric constant tensor:
#      x y z
#    x 4.433960 0.000000 0.000000 
#    y 0.000000 2.286830 0.000000 
#    z 0.000000 0.000000 2.909430 
# 
# 
# High freq. dielectric constant tensor:
#      x y z
#    x 1.610930 0.000000 0.000000 
#    y 0.000000 1.480110 0.000000 
#    z 0.000000 0.000000 1.563730 
# 
# From -- ./inp_files/22331.got.cif
#   From: 2010.03.12/outbox.cif.g09.slc.cpg/sg55_12_cif.got.tgz:22331.got - 2010.04.16 15:19:21.
