data_PCOD8224415
_publ_section_title
;
Structure prediction by ZEFSAII (Michael W. Deem and Ramdas Pophale) SiO2 
 PCOD8224415
Probable space group: P B A M
;
_chemical_formula_sum "Si O2"
_cell_formula_units_Z 48
_cell_length_a 26.433299
_cell_length_b 9.963230
_cell_length_c 10.671706
_cell_angle_alpha 90.000000
_cell_angle_beta 90.000000
_cell_angle_gamma 90.000000
_cell_volume 2810.511565
_symmetry_space_group_name_H-M "P B A M"
_symmetry_group_IT_number 55
_symmetry_cell_setting 'orthorhombic'
loop_
_space_group_symop_operation_xyz
x,y,z
-x,-y,z
1/2+x,1/2-y,-z
1/2-x,1/2+y,-z
-x,-y,-z
x,y,-z
1/2-x,1/2+y,z
1/2+x,1/2-y,z
loop_
_atom_site_type_symbol
_atom_site_label
_atom_site_fract_x
_atom_site_fract_y
_atom_site_fract_z
Si Si1 0.801610 0.304234 0.136080
Si Si2 0.876746 0.240524 0.643632
Si Si3 0.741421 0.064359 0.773837
Si Si4 0.445026 0.022336 0.645366
Si Si5 0.658336 0.460254 0.644271
Si Si6 0.857351 0.667016 0.647897
O O1 0.837761 0.298721 0.255924
O O2 0.776581 0.450378 0.130827
O O3 0.757738 0.193601 0.147108
O O4 0.828864 0.282966 0.000000
O O5 0.856941 0.266009 0.500000
O O6 0.929013 0.321225 0.663782
O O7 0.883002 0.079963 0.665798
O O8 0.696620 0.104054 0.680086
O O9 0.788284 0.006722 0.696657
O O10 0.449610 0.986090 0.500000
O O11 0.500000 0.000000 0.709717
O O12 0.402995 0.922815 0.706443
O O13 0.667713 0.431682 0.500000
O O14 0.638586 0.319658 0.702939
O O15 0.863103 0.664588 0.500000
#
# Coordination Sequence:
#
# PCOD8224415 Si02
#       6
#     8   8   8   8   8   8
#     4  11  22  33  48  71 103 135 164 201 246 296
#     4   9  18  33  52  72  98 131 168 205 245 295
#     4  11  19  32  46  68 100 134 169 198 242 297
#     4   9  17  30  50  75 100 128 165 213 263 301
#     4   9  18  29  45  71 101 130 165 201 241 294
#     4  10  18  29  47  73 101 131 167 210 251 293
#
# _framework density 17.078741000000001
#
# number of rings (size 3 to 8) (size 9 to 14) (size 15 to 20)
#    0.000    2.167    3.333    1.000    0.000    1.333 
#    0.000    0.833    0.000    5.500    0.000    0.000 
#    0.000    3.000    0.000    0.000    0.000    0.000 
#
# Total GULP energy -594675.101209 kJ/mol
# GULP energy per Si atom -12389.064609 kJ/mol
# Density = 1.703987 g / cm^3
# Si number density = 17.078741 Si / 1000 Ang^3
#
#
#
# Elastic Constant Matrix: (Units=GPa)
#
#
# Indices 1 2 3 4 5 6 
#
# 1 88.7624 48.7158 16.6522 0.0000 0.0000 0.0000
# 2 48.7158 132.7191 19.8920 0.0000 0.0000 0.0000
# 3 16.6522 19.8920 44.8781 0.0000 0.0000 0.0000
# 4 0.0000 0.0000 0.0000 6.8489 0.0000 0.0000
# 5 0.0000 0.0000 0.0000 0.0000 4.7296 0.0000
# 6 0.0000 0.0000 0.0000 0.0000 0.0000 18.6340
#
#
#
# Elastic Compliance Matrix: (Units=1/GPa)
#
#
# Indices 1 2 3 4 5 6 
#
# 1 0.014536 -0.004849 -0.003244 0.000000 0.000000 0.000000
# 2 -0.004849 0.009689 -0.002495 0.000000 0.000000 0.000000
# 3 -0.003244 -0.002495 0.024592 0.000000 0.000000 0.000000
# 4 0.000000 0.000000 0.000000 0.146008 0.000000 0.000000
# 5 0.000000 0.000000 0.000000 0.000000 0.211432 0.000000
# 6 0.000000 0.000000 0.000000 0.000000 0.000000 0.053665
#
#
# Mechanical properties :
#
#
# Convention : Reuss Voigt Hill
#
# Bulk Modulus (GPa) = 36.17976 48.54218 42.36097
# Shear Modulus (GPa) = 10.19755 18.11582 14.15669
#
# Velocity S-wave (km/s) = 2.44619 3.26041 2.88220
# Velocity P-wave (km/s) = 5.40450 6.53131 5.99444
#
# Compressibility (1/GPa) = 0.02763976
#
# Stress axis : x y z
#
# Youngs Moduli (GPa) = 68.79397 103.21317 40.66310
#
# Poissons Ratio (x) = 0.50052 0.13192
# Poissons Ratio (y) = 0.33361 0.10146
# Poissons Ratio (z) = 0.22318 0.25753
#
# Static dielectric constant tensor:
#      x y z
#    x 3.128080 0.000000 0.000000 
#    y 0.000000 3.780620 0.000000 
#    z 0.000000 0.000000 2.864550 
# 
# 
# High freq. dielectric constant tensor:
#      x y z
#    x 1.624120 0.000000 0.000000 
#    y 0.000000 1.686130 0.000000 
#    z 0.000000 0.000000 1.621910 
# 
# From -- ./inp_files/12213.got.cif
#   From: 2010.03.12/outbox.cif.g09.slc.cpg/sg55_7_cif.got.tgz:12213.got - 2010.04.16 15:19:21.
