data_PCOD8224541
_publ_section_title
;
Structure prediction by ZEFSAII (Michael W. Deem and Ramdas Pophale) SiO2 
 PCOD8224541
Probable space group: P B A M
;
_chemical_formula_sum "Si O2"
_cell_formula_units_Z 64
_cell_length_a 20.420742
_cell_length_b 19.695498
_cell_length_c 8.602831
_cell_angle_alpha 90.000000
_cell_angle_beta 90.000000
_cell_angle_gamma 90.000000
_cell_volume 3460.030094
_symmetry_space_group_name_H-M "P B A M"
_symmetry_group_IT_number 55
_symmetry_cell_setting 'orthorhombic'
loop_
_space_group_symop_operation_xyz
x,y,z
-x,-y,z
1/2+x,1/2-y,-z
1/2-x,1/2+y,-z
-x,-y,-z
x,y,-z
1/2-x,1/2+y,z
1/2+x,1/2-y,z
loop_
_atom_site_type_symbol
_atom_site_label
_atom_site_fract_x
_atom_site_fract_y
_atom_site_fract_z
Si Si1 0.572860 0.304885 0.182462
Si Si2 0.304047 0.536659 0.321580
Si Si3 0.712528 0.321614 0.179239
Si Si4 0.017511 0.694362 0.680148
Si Si5 0.954679 0.563054 0.819174
Si Si6 0.837858 0.493010 0.321343
Si Si7 0.148895 0.655022 0.183998
Si Si8 0.065283 0.036027 0.819224
O O1 0.646809 0.285877 0.247060
O O2 0.521978 0.262102 0.281068
O O3 0.559136 0.383935 0.214425
O O4 0.565541 0.287923 0.000000
O O5 0.307056 0.561900 0.500000
O O6 0.295171 0.598365 0.203527
O O7 0.239561 0.489423 0.299183
O O8 0.372845 0.502133 0.272545
O O9 0.785611 0.303058 0.241851
O O10 0.709948 0.304990 0.000000
O O11 0.034299 0.692396 0.500000
O O12 0.085475 0.698586 0.774186
O O13 0.975472 0.628851 0.724424
O O14 0.879330 0.546141 0.780188
O O15 0.000000 0.500000 0.769035
O O16 0.962595 0.579582 0.000000
O O17 0.858895 0.500564 0.500000
O O18 0.855164 0.416837 0.269714
O O19 0.152209 0.641590 0.000000
O O20 0.075237 0.020416 0.000000
O O21 0.000000 0.000000 0.755724
#
# Coordination Sequence:
#
# PCOD8224541 Si02
#       8
#     8   8   8   8   8   8   8   8
#     4   9  18  35  56  78 105 135 172 218 262 312
#     4   9  17  28  47  78 109 136 166 206 259 313
#     4   8  16  31  53  76  99 130 171 217 257 299
#     4  12  24  35  51  76 108 143 176 214 265 319
#     4  11  22  35  53  76 102 139 184 223 261 305
#     4  10  19  31  49  75 107 138 172 215 262 309
#     4  10  18  31  52  78 103 133 175 218 258 304
#     4   9  18  34  58  84 107 135 176 220 262 309
#
# _framework density 18.496949000000001
#
# number of rings (size 3 to 8) (size 9 to 14) (size 15 to 20)
#    0.000    2.250    1.250    3.375    0.000    4.750 
#    0.000    0.000    2.750    0.000    0.000    0.000 
#    0.000    0.000    0.000    0.000    0.000    0.000 
#
# Total GULP energy -793045.750796 kJ/mol
# GULP energy per Si atom -12391.339856 kJ/mol
# Density = 1.845485 g / cm^3
# Si number density = 18.496949 Si / 1000 Ang^3
#
#
#
# Elastic Constant Matrix: (Units=GPa)
#
#
# Indices 1 2 3 4 5 6 
#
# 1 172.2640 39.3170 23.4425 0.0000 0.0000 0.0000
# 2 39.3170 41.1891 15.8466 0.0000 0.0000 0.0000
# 3 23.4425 15.8466 30.5526 0.0000 0.0000 0.0000
# 4 0.0000 0.0000 0.0000 18.5428 0.0000 0.0000
# 5 0.0000 0.0000 0.0000 0.0000 27.8475 0.0000
# 6 0.0000 0.0000 0.0000 0.0000 0.0000 25.3595
#
#
#
# Elastic Compliance Matrix: (Units=1/GPa)
#
#
# Indices 1 2 3 4 5 6 
#
# 1 0.007581 -0.006245 -0.002578 0.000000 0.000000 0.000000
# 2 -0.006245 0.035475 -0.013608 0.000000 0.000000 0.000000
# 3 -0.002578 -0.013608 0.041766 0.000000 0.000000 0.000000
# 4 0.000000 0.000000 0.000000 0.053929 0.000000 0.000000
# 5 0.000000 0.000000 0.000000 0.000000 0.035910 0.000000
# 6 0.000000 0.000000 0.000000 0.000000 0.000000 0.039433
#
#
# Mechanical properties :
#
#
# Convention : Reuss Voigt Hill
#
# Bulk Modulus (GPa) = 25.02453 44.57978 34.80215
# Shear Modulus (GPa) = 18.36373 25.37660 21.87016
#
# Velocity S-wave (km/s) = 3.15429 3.70798 3.44229
# Velocity P-wave (km/s) = 5.17923 6.51810 5.88685
#
# Compressibility (1/GPa) = 0.03996080
#
# Stress axis : x y z
#
# Youngs Moduli (GPa) = 131.90605 28.18916 23.94271
#
# Poissons Ratio (x) = 0.17604 0.06172
# Poissons Ratio (y) = 0.82373 0.32581
# Poissons Ratio (z) = 0.34004 0.38360
#
# Static dielectric constant tensor:
#      x y z
#    x 4.087450 0.000000 0.000000 
#    y 0.000000 2.929510 0.000000 
#    z 0.000000 0.000000 3.361390 
# 
# 
# High freq. dielectric constant tensor:
#      x y z
#    x 1.746570 0.000000 0.000000 
#    y 0.000000 1.657120 0.000000 
#    z 0.000000 0.000000 1.717350 
# 
# From -- ./inp_files/9175.got.cif
#   From: 2010.03.12/outbox.cif.g09.slc.cpg/sg55_5_cif.got.tgz:9175.got - 2010.04.16 15:19:21.
