data_PCOD8224217
_publ_section_title
;
Structure prediction by ZEFSAII (Michael W. Deem and Ramdas Pophale) SiO2 
 PCOD8224217
Probable space group: P C C A
;
_chemical_formula_sum "Si O2"
_cell_formula_units_Z 48
_cell_length_a 15.802863
_cell_length_b 9.399539
_cell_length_c 18.325002
_cell_angle_alpha 90.000000
_cell_angle_beta 90.000000
_cell_angle_gamma 90.000000
_cell_volume 2721.988963
_symmetry_space_group_name_H-M "P C C A"
_symmetry_group_IT_number 54
_symmetry_cell_setting 'orthorhombic'
loop_
_space_group_symop_operation_xyz
x,y,z
1/2-x,-y,z
1/2+x,-y,1/2-z
-x,y,1/2-z
-x,-y,-z
1/2+x,y,-z
1/2-x,y,1/2+z
x,-y,1/2+z
loop_
_atom_site_type_symbol
_atom_site_label
_atom_site_fract_x
_atom_site_fract_y
_atom_site_fract_z
Si Si1 0.422310 0.323709 0.700891
Si Si2 0.263766 0.154955 0.699464
Si Si3 0.102233 0.350088 0.528807
Si Si4 0.423463 0.669640 0.028194
Si Si5 0.168234 0.588669 0.181174
Si Si6 0.256974 0.839909 0.026338
O O1 0.500000 0.281903 0.750000
O O2 0.358573 0.196553 0.718715
O O3 0.440408 0.331599 0.614914
O O4 0.386229 0.476920 0.728418
O O5 0.199347 0.276834 0.730237
O O6 0.248180 0.155555 0.613185
O O7 0.250000 0.000000 0.734596
O O8 0.103431 0.512767 0.499505
O O9 0.111055 0.352320 0.615873
O O10 0.179838 0.257307 0.494821
O O11 0.011411 0.279953 0.508916
O O12 0.348345 0.775989 0.004643
O O13 0.250000 0.500000 0.149143
O O14 0.250000 0.000000 0.994274
#
# Coordination Sequence:
#
# PCOD8224217 Si02
#       6
#     8   8   8   8   8   8
#     4   9  16  27  43  61  83 107 137 175 208 239
#     4   8  14  26  44  62  78 102 139 173 202 241
#     4   9  15  26  44  63  85 106 134 173 208 245
#     4   9  17  27  43  65  84 110 142 172 208 247
#     4   8  14  26  45  63  80 106 137 170 205 245
#     4   9  16  26  42  64  86 109 137 170 207 248
#
# _framework density 17.634164999999999
#
# number of rings (size 3 to 8) (size 9 to 14) (size 15 to 20)
#    0.000    3.333    0.000    3.500    0.000    0.667 
#    0.000    0.833    0.000   22.000    0.000    0.000 
#    0.000    0.000    0.000    0.000    0.000    0.000 
#
# Total GULP energy -594632.156940 kJ/mol
# GULP energy per Si atom -12388.169936 kJ/mol
# Density = 1.759403 g / cm^3
# Si number density = 17.634165 Si / 1000 Ang^3
#
#
#
# Elastic Constant Matrix: (Units=GPa)
#
#
# Indices 1 2 3 4 5 6 
#
# 1 153.9136 79.7710 30.8879 0.0000 0.0000 0.0000
# 2 79.7710 139.3861 21.0815 0.0000 0.0000 0.0000
# 3 30.8879 21.0815 16.7691 0.0000 0.0000 0.0000
# 4 0.0000 0.0000 0.0000 8.1412 0.0000 0.0000
# 5 0.0000 0.0000 0.0000 0.0000 27.2459 0.0000
# 6 0.0000 0.0000 0.0000 0.0000 0.0000 23.9322
#
#
#
# Elastic Compliance Matrix: (Units=1/GPa)
#
#
# Indices 1 2 3 4 5 6 
#
# 1 0.012170 -0.004414 -0.016867 0.000000 0.000000 0.000000
# 2 -0.004414 0.010459 -0.005020 0.000000 0.000000 0.000000
# 3 -0.016867 -0.005020 0.097012 0.000000 0.000000 0.000000
# 4 0.000000 0.000000 0.000000 0.122833 0.000000 0.000000
# 5 0.000000 0.000000 0.000000 0.000000 0.036703 0.000000
# 6 0.000000 0.000000 0.000000 0.000000 0.000000 0.041785
#
#
# Mechanical properties :
#
#
# Convention : Reuss Voigt Hill
#
# Bulk Modulus (GPa) = 14.91633 63.72774 39.32204
# Shear Modulus (GPa) = 12.62917 23.75242 18.19080
#
# Velocity S-wave (km/s) = 2.67905 3.67407 3.21528
# Velocity P-wave (km/s) = 4.24816 7.36313 6.01093
#
# Compressibility (1/GPa) = 0.06704061
#
# Stress axis : x y z
#
# Youngs Moduli (GPa) = 82.17184 95.60755 10.30798
#
# Poissons Ratio (x) = 0.42198 0.17387
# Poissons Ratio (y) = 0.36268 0.05174
# Poissons Ratio (z) = 1.38601 0.47991
#
# Static dielectric constant tensor:
#      x y z
#    x 3.311170 0.000000 0.000000 
#    y 0.000000 3.707010 0.000000 
#    z 0.000000 0.000000 2.573590 
# 
# 
# High freq. dielectric constant tensor:
#      x y z
#    x 1.689790 0.000000 0.000000 
#    y 0.000000 1.689610 0.000000 
#    z 0.000000 0.000000 1.603520 
# 
# From -- ./inp_files/24394.got.cif
#   From: 2010.03.12/outbox.cif.g09.slc.cpg/sg54_13_cif.got.tgz:24394.got - 2010.04.16 15:00:50.
