data_PCOD8224189
_publ_section_title
;
Structure prediction by ZEFSAII (Michael W. Deem and Ramdas Pophale) SiO2 
 PCOD8224189
Probable space group: P C C A
;
_chemical_formula_sum "Si O2"
_cell_formula_units_Z 32
_cell_length_a 32.698815
_cell_length_b 4.736080
_cell_length_c 8.308321
_cell_angle_alpha 90.000000
_cell_angle_beta 90.000000
_cell_angle_gamma 90.000000
_cell_volume 1286.661516
_symmetry_space_group_name_H-M "P C C A"
_symmetry_group_IT_number 54
_symmetry_cell_setting 'orthorhombic'
loop_
_space_group_symop_operation_xyz
x,y,z
1/2-x,-y,z
1/2+x,-y,1/2-z
-x,y,1/2-z
-x,-y,-z
1/2+x,y,-z
1/2-x,y,1/2+z
x,-y,1/2+z
loop_
_atom_site_type_symbol
_atom_site_label
_atom_site_fract_x
_atom_site_fract_y
_atom_site_fract_z
Si Si1 0.327969 0.387492 0.178658
Si Si2 0.921936 0.387872 0.820906
Si Si3 0.296247 0.899772 0.997346
Si Si4 0.453728 0.899856 0.997700
O O1 0.374936 0.458342 0.216227
O O2 0.304018 0.675299 0.140207
O O3 0.324882 0.173139 0.027027
O O4 0.306481 0.240073 0.328571
O O5 0.945928 0.675536 0.859395
O O6 0.925159 0.173369 0.972390
O O7 0.943373 0.240597 0.670882
O O8 0.250000 0.000000 0.003252
O O9 0.500000 0.000000 0.000000
#
# Coordination Sequence:
#
# PCOD8224189 Si02
#       4
#     8   8   8   8
#     4  12  25  47  75 107 144 191 242 298 360 431
#     4  12  25  47  74 107 145 191 242 298 360 431
#     4  12  27  47  73 108 147 191 241 300 363 431
#     4  12  27  47  73 108 147 191 241 300 363 431
#
# _framework density 24.870566
#
# number of rings (size 3 to 8) (size 9 to 14) (size 15 to 20)
#    0.000    0.000    0.000   10.500    0.000    4.000 
#    0.000    1.250    0.000    0.000    0.000    0.000 
#    0.000    0.000    0.000    0.000    0.000    0.000 
#
# Total GULP energy -397070.068903 kJ/mol
# GULP energy per Si atom -12408.439653 kJ/mol
# Density = 2.481396 g / cm^3
# Si number density = 24.870566 Si / 1000 Ang^3
#
#
#
# Elastic Constant Matrix: (Units=GPa)
#
#
# Indices 1 2 3 4 5 6 
#
# 1 221.2786 96.7812 76.6619 0.0000 0.0000 0.0000
# 2 96.7812 140.2777 20.2877 0.0000 0.0000 0.0000
# 3 76.6619 20.2877 65.3307 0.0000 0.0000 0.0000
# 4 0.0000 0.0000 0.0000 56.2716 0.0000 0.0000
# 5 0.0000 0.0000 0.0000 0.0000 39.7863 0.0000
# 6 0.0000 0.0000 0.0000 0.0000 0.0000 51.4988
#
#
#
# Elastic Compliance Matrix: (Units=1/GPa)
#
#
# Indices 1 2 3 4 5 6 
#
# 1 0.010920 -0.005948 -0.010967 0.000000 0.000000 0.000000
# 2 -0.005948 0.010704 0.003656 0.000000 0.000000 0.000000
# 3 -0.010967 0.003656 0.027041 0.000000 0.000000 0.000000
# 4 0.000000 0.000000 0.000000 0.017771 0.000000 0.000000
# 5 0.000000 0.000000 0.000000 0.000000 0.025134 0.000000
# 6 0.000000 0.000000 0.000000 0.000000 0.000000 0.019418
#
#
# Mechanical properties :
#
#
# Convention : Reuss Voigt Hill
#
# Bulk Modulus (GPa) = 45.15505 90.48317 67.81911
# Shear Modulus (GPa) = 34.50912 45.05507 39.78210
#
# Velocity S-wave (km/s) = 3.72902 4.26089 4.00380
# Velocity P-wave (km/s) = 6.06104 7.78893 6.97867
#
# Compressibility (1/GPa) = 0.02214592
#
# Stress axis : x y z
#
# Youngs Moduli (GPa) = 91.57246 93.42555 36.98094
#
# Poissons Ratio (x) = 0.55570 0.40558
# Poissons Ratio (y) = 0.54468 -0.13519
# Poissons Ratio (z) = 1.00430 -0.34155
#
# Static dielectric constant tensor:
#      x y z
#    x 4.651030 0.000000 0.000000 
#    y 0.000000 5.202000 0.000000 
#    z 0.000000 0.000000 4.815620 
# 
# 
# High freq. dielectric constant tensor:
#      x y z
#    x 1.992550 0.000000 0.000000 
#    y 0.000000 2.020670 0.000000 
#    z 0.000000 0.000000 2.002410 
# 
# From -- ./inp_files/5659.got.cif
#   From: 2010.03.12/outbox.cif.g09.slc.cpg/sg54_3_cif.got.tgz:5659.got - 2010.04.16 15:00:50.
