data_PCOD8224533
_publ_section_title
;
Structure prediction by ZEFSAII (Michael W. Deem and Ramdas Pophale) SiO2 
 PCOD8224533
Probable space group: P B A M
;
_chemical_formula_sum "Si O2"
_cell_formula_units_Z 64
_cell_length_a 23.112966
_cell_length_b 19.088785
_cell_length_c 8.772752
_cell_angle_alpha 90.000000
_cell_angle_beta 90.000000
_cell_angle_gamma 90.000000
_cell_volume 3870.524485
_symmetry_space_group_name_H-M "P B A M"
_symmetry_group_IT_number 55
_symmetry_cell_setting 'orthorhombic'
loop_
_space_group_symop_operation_xyz
x,y,z
-x,-y,z
1/2+x,1/2-y,-z
1/2-x,1/2+y,-z
-x,-y,-z
x,y,-z
1/2-x,1/2+y,z
1/2+x,1/2-y,z
loop_
_atom_site_type_symbol
_atom_site_label
_atom_site_fract_x
_atom_site_fract_y
_atom_site_fract_z
Si Si1 0.238743 0.487631 0.823265
Si Si2 0.116759 0.486817 0.679562
Si Si3 0.328825 0.206383 0.821667
Si Si4 0.286859 0.630593 0.176939
Si Si5 0.151009 0.251095 0.678993
Si Si6 0.935508 0.378815 0.180744
Si Si7 0.756615 0.168460 0.821628
Si Si8 0.065043 0.348781 0.179746
O O1 0.182678 0.503726 0.723063
O O2 0.287271 0.547139 0.790233
O O3 0.267190 0.412804 0.781871
O O4 0.219615 0.490824 0.000000
O O5 0.109974 0.483856 0.500000
O O6 0.074049 0.545613 0.744811
O O7 0.100152 0.412538 0.748708
O O8 0.275490 0.158597 0.767461
O O9 0.388594 0.176896 0.751125
O O10 0.314324 0.287200 0.776119
O O11 0.336584 0.199608 0.000000
O O12 0.336520 0.670864 0.270701
O O13 0.296883 0.647767 0.000000
O O14 0.143229 0.254375 0.500000
O O15 0.202275 0.303036 0.728564
O O16 0.091665 0.276433 0.757404
O O17 0.998180 0.350849 0.229088
O O18 0.930611 0.388199 0.000000
O O19 0.742591 0.179527 0.000000
O O20 0.072672 0.352466 0.000000
#
# Coordination Sequence:
#
# PCOD8224533 Si02
#       8
#     8   8   8   8   8   8   8   8
#     4  10  18  31  52  73  97 131 165 194 232 290
#     4  12  23  32  45  69 102 133 162 204 245 282
#     4   8  14  28  48  71  93 118 156 200 240 277
#     4   9  17  31  51  70  94 126 160 196 235 287
#     4  11  21  32  47  70  98 125 157 203 250 288
#     4  10  20  35  52  68  92 131 172 206 238 287
#     4   9  17  30  51  73  95 125 158 194 239 294
#     4  11  22  35  51  67  90 131 176 206 237 286
#
# _framework density 16.535226999999999
#
# number of rings (size 3 to 8) (size 9 to 14) (size 15 to 20)
#    0.000    2.000    2.500    3.750    0.000    3.000 
#    0.000    0.000    0.000    0.000    0.000    0.875 
#    0.000    7.000    0.000    0.000    0.000    0.000 
#
# Total GULP energy -793428.642598 kJ/mol
# GULP energy per Si atom -12397.322541 kJ/mol
# Density = 1.649759 g / cm^3
# Si number density = 16.535227 Si / 1000 Ang^3
#
#
#
# Elastic Constant Matrix: (Units=GPa)
#
#
# Indices 1 2 3 4 5 6 
#
# 1 42.7423 13.7818 8.8813 0.0000 0.0000 0.0000
# 2 13.7818 83.1731 8.0476 0.0000 0.0000 0.0000
# 3 8.8813 8.0476 44.1088 0.0000 0.0000 0.0000
# 4 0.0000 0.0000 0.0000 9.0317 0.0000 0.0000
# 5 0.0000 0.0000 0.0000 0.0000 8.2996 0.0000
# 6 0.0000 0.0000 0.0000 0.0000 0.0000 24.2349
#
#
#
# Elastic Compliance Matrix: (Units=1/GPa)
#
#
# Indices 1 2 3 4 5 6 
#
# 1 0.025547 -0.003803 -0.004450 0.000000 0.000000 0.000000
# 2 -0.003803 0.012805 -0.001571 0.000000 0.000000 0.000000
# 3 -0.004450 -0.001571 0.023854 0.000000 0.000000 0.000000
# 4 0.000000 0.000000 0.000000 0.110721 0.000000 0.000000
# 5 0.000000 0.000000 0.000000 0.000000 0.120488 0.000000
# 6 0.000000 0.000000 0.000000 0.000000 0.000000 0.041263
#
#
# Mechanical properties :
#
#
# Convention : Reuss Voigt Hill
#
# Bulk Modulus (GPa) = 23.49666 25.71618 24.60642
# Shear Modulus (GPa) = 13.56814 17.60080 15.58447
#
# Velocity S-wave (km/s) = 2.86765 3.26612 3.07335
# Velocity P-wave (km/s) = 5.02050 5.45981 5.24476
#
# Compressibility (1/GPa) = 0.04255924
#
# Stress axis : x y z
#
# Youngs Moduli (GPa) = 39.14383 78.09340 41.92207
#
# Poissons Ratio (x) = 0.29695 0.18656
# Poissons Ratio (y) = 0.14885 0.06584
# Poissons Ratio (z) = 0.17419 0.12266
#
# Static dielectric constant tensor:
#      x y z
#    x 3.095430 0.000000 0.000000 
#    y 0.000000 3.415370 0.000000 
#    z 0.000000 0.000000 2.965070 
# 
# 
# High freq. dielectric constant tensor:
#      x y z
#    x 1.606260 0.000000 0.000000 
#    y 0.000000 1.637680 0.000000 
#    z 0.000000 0.000000 1.624770 
# 
# From -- ./inp_files/9135.got.cif
#   From: 2010.03.12/outbox.cif.g09.slc.cpg/sg55_5_cif.got.tgz:9135.got - 2010.04.16 15:19:21.
