data_PCOD8224778
_publ_section_title
;
Structure prediction by ZEFSAII (Michael W. Deem and Ramdas Pophale) SiO2 
 PCOD8224778
Probable space group: P B A M
;
_chemical_formula_sum "Si O2"
_cell_formula_units_Z 64
_cell_length_a 18.281138
_cell_length_b 25.982701
_cell_length_c 8.818807
_cell_angle_alpha 90.000000
_cell_angle_beta 90.000000
_cell_angle_gamma 90.000000
_cell_volume 4188.874615
_symmetry_space_group_name_H-M "P B A M"
_symmetry_group_IT_number 55
_symmetry_cell_setting 'orthorhombic'
loop_
_space_group_symop_operation_xyz
x,y,z
-x,-y,z
1/2+x,1/2-y,-z
1/2-x,1/2+y,-z
-x,-y,-z
x,y,-z
1/2-x,1/2+y,z
1/2+x,1/2-y,z
loop_
_atom_site_type_symbol
_atom_site_label
_atom_site_fract_x
_atom_site_fract_y
_atom_site_fract_z
Si Si1 0.715242 0.196719 0.167838
Si Si2 0.573482 0.750087 0.675910
Si Si3 0.578646 0.449589 0.322979
Si Si4 0.925348 0.056401 0.178963
Si Si5 0.081142 0.241084 0.821311
Si Si6 0.831812 0.849698 0.676151
Si Si7 0.800080 0.303329 0.830716
Si Si8 0.340176 0.354373 0.325737
O O1 0.632690 0.209894 0.221630
O O2 0.756363 0.250644 0.163054
O O3 0.755921 0.158437 0.283470
O O4 0.715665 0.171715 0.000000
O O5 0.556641 0.758177 0.500000
O O6 0.499802 0.754924 0.770465
O O7 0.626794 0.795634 0.732034
O O8 0.608943 0.694605 0.707497
O O9 0.568329 0.461238 0.500000
O O10 0.603250 0.501304 0.237444
O O11 0.501829 0.429100 0.257823
O O12 0.640490 0.407293 0.294019
O O13 0.865924 0.099101 0.220874
O O14 0.936743 0.054368 0.000000
O O15 0.107975 0.189417 0.740158
O O16 0.084130 0.230818 0.000000
O O17 0.822472 0.837330 0.500000
O O18 0.752571 0.845651 0.754635
O O19 0.821334 0.321532 0.000000
O O20 0.343641 0.371155 0.500000
#
# Coordination Sequence:
#
# PCOD8224778 Si02
#       8
#     8   8   8   8   8   8   8   8
#     4   8  16  29  42  59  82 109 141 175 210 249
#     4  10  19  29  43  63  87 115 147 179 211 253
#     4  10  20  33  46  61  85 113 143 180 216 251
#     4  11  21  31  45  63  84 111 144 181 216 252
#     4  10  19  29  43  63  88 116 145 178 214 253
#     4  10  19  30  45  63  84 113 146 178 214 255
#     4   9  17  29  44  61  84 112 141 176 214 252
#     4  10  19  30  44  61  83 113 145 177 214 253
#
# _framework density 15.278567000000001
#
# number of rings (size 3 to 8) (size 9 to 14) (size 15 to 20)
#    0.000    2.250    0.000    5.625    0.000   10.000 
#    0.000    0.000    0.000    0.000    0.000    0.000 
#    0.000    1.000    0.000   10.500    0.000    4.500 
#
# Total GULP energy -793586.401404 kJ/mol
# GULP energy per Si atom -12399.787522 kJ/mol
# Density = 1.524379 g / cm^3
# Si number density = 15.278567 Si / 1000 Ang^3
#
#
#
# Elastic Constant Matrix: (Units=GPa)
#
#
# Indices 1 2 3 4 5 6 
#
# 1 74.6784 34.3686 26.6368 0.0000 0.0000 0.0000
# 2 34.3686 56.0604 33.1092 0.0000 0.0000 0.0000
# 3 26.6368 33.1092 80.3955 0.0000 0.0000 0.0000
# 4 0.0000 0.0000 0.0000 21.0771 0.0000 0.0000
# 5 0.0000 0.0000 0.0000 0.0000 28.3678 0.0000
# 6 0.0000 0.0000 0.0000 0.0000 0.0000 22.9355
#
#
#
# Elastic Compliance Matrix: (Units=1/GPa)
#
#
# Indices 1 2 3 4 5 6 
#
# 1 0.018887 -0.010417 -0.001968 0.000000 0.000000 0.000000
# 2 -0.010417 0.029316 -0.008622 0.000000 0.000000 0.000000
# 3 -0.001968 -0.008622 0.016641 0.000000 0.000000 0.000000
# 4 0.000000 0.000000 0.000000 0.047445 0.000000 0.000000
# 5 0.000000 0.000000 0.000000 0.000000 0.035251 0.000000
# 6 0.000000 0.000000 0.000000 0.000000 0.000000 0.043600
#
#
# Mechanical properties :
#
#
# Convention : Reuss Voigt Hill
#
# Bulk Modulus (GPa) = 43.79934 44.37373 44.08653
# Shear Modulus (GPa) = 20.76729 22.27739 21.52234
#
# Velocity S-wave (km/s) = 3.69079 3.82263 3.75729
# Velocity P-wave (km/s) = 6.84777 6.97061 6.90947
#
# Compressibility (1/GPa) = 0.02283139
#
# Stress axis : x y z
#
# Youngs Moduli (GPa) = 52.94777 34.11102 60.09179
#
# Poissons Ratio (x) = 0.35532 0.11824
# Poissons Ratio (y) = 0.55153 0.51811
# Poissons Ratio (z) = 0.10418 0.29410
#
# Static dielectric constant tensor:
#      x y z
#    x 3.011160 0.000000 0.000000 
#    y 0.000000 2.707180 0.000000 
#    z 0.000000 0.000000 3.102040 
# 
# 
# High freq. dielectric constant tensor:
#      x y z
#    x 1.575030 0.000000 0.000000 
#    y 0.000000 1.548270 0.000000 
#    z 0.000000 0.000000 1.606230 
# 
# From -- ./inp_files/8246.got.cif
#   From: 2010.03.12/outbox.cif.g09.slc.cpg/sg55_5_cif.got.tgz:8246.got - 2010.04.16 15:19:21.
