data_PCOD8224878
_publ_section_title
;
Structure prediction by ZEFSAII (Michael W. Deem and Ramdas Pophale) SiO2 
 PCOD8224878
Probable space group: P B A M
;
_chemical_formula_sum "Si O2"
_cell_formula_units_Z 64
_cell_length_a 24.183426
_cell_length_b 14.729388
_cell_length_c 9.747617
_cell_angle_alpha 90.000000
_cell_angle_beta 90.000000
_cell_angle_gamma 90.000000
_cell_volume 3472.170040
_symmetry_space_group_name_H-M "P B A M"
_symmetry_group_IT_number 55
_symmetry_cell_setting 'orthorhombic'
loop_
_space_group_symop_operation_xyz
x,y,z
-x,-y,z
1/2+x,1/2-y,-z
1/2-x,1/2+y,-z
-x,-y,-z
x,y,-z
1/2-x,1/2+y,z
1/2+x,1/2-y,z
loop_
_atom_site_type_symbol
_atom_site_label
_atom_site_fract_x
_atom_site_fract_y
_atom_site_fract_z
Si Si1 0.300511 0.821033 0.347548
Si Si2 0.741448 0.361860 0.662604
Si Si3 0.580058 0.262913 0.350431
Si Si4 0.984918 0.259951 0.155782
Si Si5 0.130681 0.046707 0.659067
Si Si6 0.662995 0.991437 0.336240
Si Si7 0.558036 0.953622 0.842721
Si Si8 0.447251 0.438182 0.160316
O O1 0.276333 0.831877 0.500000
O O2 0.264868 0.740664 0.272941
O O3 0.363780 0.791912 0.349057
O O4 0.300754 0.921860 0.281861
O O5 0.732716 0.352251 0.500000
O O6 0.692223 0.428110 0.713101
O O7 0.801048 0.402375 0.701312
O O8 0.552101 0.254155 0.500000
O O9 0.539772 0.218742 0.240585
O O10 0.590679 0.367934 0.317728
O O11 0.943875 0.344659 0.175092
O O12 0.957012 0.166251 0.203713
O O13 0.004742 0.250719 0.000000
O O14 0.131576 0.015977 0.500000
O O15 0.106444 0.966663 0.752632
O O16 0.652157 0.998366 0.500000
O O17 0.605067 0.989915 0.258342
O O18 0.500000 0.000000 0.801362
O O19 0.572716 0.979048 0.000000
O O20 0.500000 0.500000 0.198977
O O21 0.433221 0.447657 0.000000
#
# Coordination Sequence:
#
# PCOD8224878 Si02
#       8
#     8   8   8   8   8   8   8   8
#     4   8  15  29  50  75 102 130 161 206 257 296
#     4   8  16  32  51  76 106 132 165 210 258 302
#     4   9  16  27  47  72  98 129 168 211 247 288
#     4  10  20  33  48  69 100 137 167 200 256 311
#     4   9  17  30  48  71 101 135 171 212 253 297
#     4  10  19  34  58  82 103 134 174 215 258 307
#     4  10  22  39  56  75 104 139 171 213 268 317
#     4  10  19  31  47  70 102 137 171 209 254 310
#
# _framework density 18.432276999999999
#
# number of rings (size 3 to 8) (size 9 to 14) (size 15 to 20)
#    0.000    2.750    1.250    2.250    0.000    1.500 
#    2.250    0.625    0.000    1.500    0.000    0.000 
#    0.000    0.000    0.000    0.000    0.000    0.000 
#
# Total GULP energy -793105.281557 kJ/mol
# GULP energy per Si atom -12392.270024 kJ/mol
# Density = 1.839032 g / cm^3
# Si number density = 18.432277 Si / 1000 Ang^3
#
#
#
# Elastic Constant Matrix: (Units=GPa)
#
#
# Indices 1 2 3 4 5 6 
#
# 1 83.6284 42.8659 34.9317 0.0000 0.0000 0.0000
# 2 42.8659 118.7840 25.8261 0.0000 0.0000 0.0000
# 3 34.9317 25.8261 44.7504 0.0000 0.0000 0.0000
# 4 0.0000 0.0000 0.0000 16.4232 0.0000 0.0000
# 5 0.0000 0.0000 0.0000 0.0000 9.6983 0.0000
# 6 0.0000 0.0000 0.0000 0.0000 0.0000 23.0569
#
#
#
# Elastic Compliance Matrix: (Units=1/GPa)
#
#
# Indices 1 2 3 4 5 6 
#
# 1 0.019456 -0.004253 -0.012733 0.000000 0.000000 0.000000
# 2 -0.004253 0.010556 -0.002772 0.000000 0.000000 0.000000
# 3 -0.012733 -0.002772 0.033885 0.000000 0.000000 0.000000
# 4 0.000000 0.000000 0.000000 0.060889 0.000000 0.000000
# 5 0.000000 0.000000 0.000000 0.000000 0.103111 0.000000
# 6 0.000000 0.000000 0.000000 0.000000 0.000000 0.043371
#
#
# Mechanical properties :
#
#
# Convention : Reuss Voigt Hill
#
# Bulk Modulus (GPa) = 41.01492 50.49004 45.75248
# Shear Modulus (GPa) = 15.67832 19.40497 17.54164
#
# Velocity S-wave (km/s) = 2.91965 3.24816 3.08828
# Velocity P-wave (km/s) = 5.80222 6.44353 6.13127
#
# Compressibility (1/GPa) = 0.02438137
#
# Stress axis : x y z
#
# Youngs Moduli (GPa) = 51.39788 94.73164 29.51135
#
# Poissons Ratio (x) = 0.40287 0.37576
# Poissons Ratio (y) = 0.21858 0.08182
# Poissons Ratio (z) = 0.65444 0.26263
#
# Static dielectric constant tensor:
#      x y z
#    x 3.100060 0.000000 0.000000 
#    y 0.000000 3.727310 0.000000 
#    z 0.000000 0.000000 3.119740 
# 
# 
# High freq. dielectric constant tensor:
#      x y z
#    x 1.692600 0.000000 0.000000 
#    y 0.000000 1.729710 0.000000 
#    z 0.000000 0.000000 1.679910 
# 
# From -- ./inp_files/9777.got.cif
#   From: 2010.03.12/outbox.cif.g09.slc.cpg/sg55_5_cif.got.tgz:9777.got - 2010.04.16 15:19:21.
