data_PCOD8224511
_publ_section_title
;
Structure prediction by ZEFSAII (Michael W. Deem and Ramdas Pophale) SiO2 
 PCOD8224511
Probable space group: P B A M
;
_chemical_formula_sum "Si O2"
_cell_formula_units_Z 40
_cell_length_a 27.156802
_cell_length_b 10.224786
_cell_length_c 7.721606
_cell_angle_alpha 90.000000
_cell_angle_beta 90.000000
_cell_angle_gamma 90.000000
_cell_volume 2144.077556
_symmetry_space_group_name_H-M "P B A M"
_symmetry_group_IT_number 55
_symmetry_cell_setting 'orthorhombic'
loop_
_space_group_symop_operation_xyz
x,y,z
-x,-y,z
1/2+x,1/2-y,-z
1/2-x,1/2+y,-z
-x,-y,-z
x,y,-z
1/2-x,1/2+y,z
1/2+x,1/2-y,z
loop_
_atom_site_type_symbol
_atom_site_label
_atom_site_fract_x
_atom_site_fract_y
_atom_site_fract_z
Si Si1 0.798249 0.206501 0.500000
Si Si2 0.206894 0.486317 0.500000
Si Si3 0.870644 0.220168 0.193901
Si Si4 0.033296 0.381668 0.294963
Si Si5 0.026131 0.868611 0.295462
Si Si6 0.134248 0.482155 0.805768
O O1 0.780134 0.358240 0.500000
O O2 0.829758 0.173394 0.329320
O O3 0.754580 0.103280 0.500000
O O4 0.176758 0.445670 0.670934
O O5 0.920188 0.136359 0.210493
O O6 0.884286 0.370808 0.233120
O O7 0.849254 0.202505 0.000000
O O8 0.038685 0.388434 0.500000
O O9 0.087640 0.387222 0.214157
O O10 0.000000 0.500000 0.224790
O O11 0.008185 0.248929 0.230184
O O12 0.033283 0.862493 0.500000
O O13 0.000000 0.000000 0.232861
O O14 0.155775 0.468342 0.000000
#
# Coordination Sequence:
#
# PCOD8224511 Si02
#       6
#     4   4   8   8   8   8
#     4  10  22  42  64  82 108 141 186 235 289 330
#     4  10  22  42  62  83 108 143 182 236 287 334
#     4  10  20  36  60  84 111 150 189 221 271 339
#     4  10  18  30  56  84 113 148 188 224 259 320
#     4  10  20  34  53  83 120 156 185 221 271 329
#     4  10  20  35  59  87 112 143 187 231 274 326
#
# _framework density 18.656040999999998
#
# number of rings (size 3 to 8) (size 9 to 14) (size 15 to 20)
#    0.000    2.000    4.000    0.000    0.000    2.400 
#    3.600    0.000    0.000    0.000    0.000    0.000 
#    0.000    0.000    0.000    0.000    0.000    0.000 
#
# Total GULP energy -496071.255801 kJ/mol
# GULP energy per Si atom -12401.781395 kJ/mol
# Density = 1.861358 g / cm^3
# Si number density = 18.656041 Si / 1000 Ang^3
#
#
#
# Elastic Constant Matrix: (Units=GPa)
#
#
# Indices 1 2 3 4 5 6 
#
# 1 144.0447 69.0913 67.2900 0.0000 0.0000 0.0000
# 2 69.0913 106.3375 41.2646 0.0000 0.0000 0.0000
# 3 67.2900 41.2646 110.5396 0.0000 0.0000 0.0000
# 4 0.0000 0.0000 0.0000 13.7144 0.0000 0.0000
# 5 0.0000 0.0000 0.0000 0.0000 6.1257 0.0000
# 6 0.0000 0.0000 0.0000 0.0000 0.0000 38.3819
#
#
#
# Elastic Compliance Matrix: (Units=1/GPa)
#
#
# Indices 1 2 3 4 5 6 
#
# 1 0.012222 -0.005910 -0.005234 0.000000 0.000000 0.000000
# 2 -0.005910 0.013855 -0.001574 0.000000 0.000000 0.000000
# 3 -0.005234 -0.001574 0.012820 0.000000 0.000000 0.000000
# 4 0.000000 0.000000 0.000000 0.072916 0.000000 0.000000
# 5 0.000000 0.000000 0.000000 0.000000 0.163248 0.000000
# 6 0.000000 0.000000 0.000000 0.000000 0.000000 0.026054
#
#
# Mechanical properties :
#
#
# Convention : Reuss Voigt Hill
#
# Bulk Modulus (GPa) = 74.29009 79.57927 76.93468
# Shear Modulus (GPa) = 15.10399 23.86278 19.48339
#
# Velocity S-wave (km/s) = 2.84844 3.58032 3.23514
# Velocity P-wave (km/s) = 7.12219 7.73565 7.43524
#
# Compressibility (1/GPa) = 0.01346074
#
# Stress axis : x y z
#
# Youngs Moduli (GPa) = 81.81944 72.17632 78.00142
#
# Poissons Ratio (x) = 0.42657 0.40824
# Poissons Ratio (y) = 0.48356 0.12280
# Poissons Ratio (z) = 0.42823 0.11363
#
# Static dielectric constant tensor:
#      x y z
#    x 3.191370 0.000000 0.000000 
#    y 0.000000 3.330350 0.000000 
#    z 0.000000 0.000000 3.490720 
# 
# 
# High freq. dielectric constant tensor:
#      x y z
#    x 1.710310 0.000000 0.000000 
#    y 0.000000 1.705130 0.000000 
#    z 0.000000 0.000000 1.734040 
# 
# From -- ./inp_files/9318.got.cif
#   From: 2010.03.12/outbox.cif.g09.slc.cpg/sg55_5_cif.got.tgz:9318.got - 2010.04.16 15:19:21.
