data_PCOD8224168
_publ_section_title
;
Structure prediction by ZEFSAII (Michael W. Deem and Ramdas Pophale) SiO2 
 PCOD8224168
Probable space group: P C C A
;
_chemical_formula_sum "Si O2"
_cell_formula_units_Z 32
_cell_length_a 21.457766
_cell_length_b 5.194167
_cell_length_c 10.464932
_cell_angle_alpha 90.000000
_cell_angle_beta 90.000000
_cell_angle_gamma 90.000000
_cell_volume 1166.371299
_symmetry_space_group_name_H-M "P C C A"
_symmetry_group_IT_number 54
_symmetry_cell_setting 'orthorhombic'
loop_
_space_group_symop_operation_xyz
x,y,z
1/2-x,-y,z
1/2+x,-y,1/2-z
-x,y,1/2-z
-x,-y,-z
1/2+x,y,-z
1/2-x,y,1/2+z
x,-y,1/2+z
loop_
_atom_site_type_symbol
_atom_site_label
_atom_site_fract_x
_atom_site_fract_y
_atom_site_fract_z
Si Si1 0.250000 0.000000 0.776192
Si Si2 0.250000 0.500000 0.442227
Si Si3 0.465526 0.158084 0.888256
Si Si4 0.381281 0.001040 0.194225
Si Si5 0.112154 0.501000 0.045190
O O1 0.307704 0.041895 0.682400
O O2 0.261803 0.748853 0.858247
O O3 0.313875 0.527455 0.521187
O O4 0.590047 0.230160 0.894748
O O5 0.401521 0.010657 0.844033
O O6 0.437753 0.438214 0.931510
O O7 0.500000 0.000000 0.000000
O O8 0.500000 0.827515 0.250000
O O9 0.404065 0.273657 0.144729
#
# Coordination Sequence:
#
# PCOD8224168 Si02
#       5
#     4   4   8   8   8
#     4  12  24  46  82 124 172 224 284 356 440 514
#     4  12  24  44  84 124 174 222 282 360 438 524
#     4  12  28  57  86 124 171 233 292 358 429 522
#     4  12  27  51  82 122 169 226 284 360 430 517
#     4  12  27  51  82 124 169 225 286 358 438 512
#
# _framework density 27.435518999999999
#
# number of rings (size 3 to 8) (size 9 to 14) (size 15 to 20)
#    0.000    0.000    5.000    4.500    0.000    1.000 
#    4.500    0.000    0.000    0.000    0.000    0.000 
#    0.000    0.000    0.000    0.000    0.000    0.000 
#
# Total GULP energy -396433.977393 kJ/mol
# GULP energy per Si atom -12388.561794 kJ/mol
# Density = 2.737307 g / cm^3
# Si number density = 27.435519 Si / 1000 Ang^3
#
#
#
# Elastic Constant Matrix: (Units=GPa)
#
#
# Indices 1 2 3 4 5 6 
#
# 1 139.2399 31.6607 67.8489 0.0000 0.0000 0.0000
# 2 31.6607 154.8857 60.7038 0.0000 0.0000 0.0000
# 3 67.8489 60.7038 153.2956 0.0000 0.0000 0.0000
# 4 0.0000 0.0000 0.0000 37.1120 0.0000 0.0000
# 5 0.0000 0.0000 0.0000 0.0000 67.1638 0.0000
# 6 0.0000 0.0000 0.0000 0.0000 0.0000 43.4554
#
#
#
# Elastic Compliance Matrix: (Units=1/GPa)
#
#
# Indices 1 2 3 4 5 6 
#
# 1 0.009171 -0.000336 -0.003926 0.000000 0.000000 0.000000
# 2 -0.000336 0.007655 -0.002883 0.000000 0.000000 0.000000
# 3 -0.003926 -0.002883 0.009403 0.000000 0.000000 0.000000
# 4 0.000000 0.000000 0.000000 0.026945 0.000000 0.000000
# 5 0.000000 0.000000 0.000000 0.000000 0.014889 0.000000
# 6 0.000000 0.000000 0.000000 0.000000 0.000000 0.023012
#
#
# Mechanical properties :
#
#
# Convention : Reuss Voigt Hill
#
# Bulk Modulus (GPa) = 83.75705 85.31643 84.53674
# Shear Modulus (GPa) = 45.72701 48.69343 47.21022
#
# Velocity S-wave (km/s) = 4.08696 4.21745 4.15272
# Velocity P-wave (km/s) = 7.27090 7.40813 7.33984
#
# Compressibility (1/GPa) = 0.01193929
#
# Stress axis : x y z
#
# Youngs Moduli (GPa) = 109.03427 130.63713 106.35395
#
# Poissons Ratio (x) = 0.04389 0.41757
# Poissons Ratio (y) = 0.03663 0.30657
# Poissons Ratio (z) = 0.42810 0.37657
#
# Static dielectric constant tensor:
#      x y z
#    x 6.190800 0.000000 0.000000 
#    y 0.000000 5.096840 0.000000 
#    z 0.000000 0.000000 5.286050 
# 
# 
# High freq. dielectric constant tensor:
#      x y z
#    x 2.150470 0.000000 0.000000 
#    y 0.000000 2.110790 0.000000 
#    z 0.000000 0.000000 2.107650 
# 
# From -- ./inp_files/13766.got.cif
#   From: 2010.03.12/outbox.cif.g09.slc.cpg/sg54_7_cif.got.tgz:13766.got - 2010.04.16 15:00:50.
