data_PCOD8224261
_publ_section_title
;
Structure prediction by ZEFSAII (Michael W. Deem and Ramdas Pophale) SiO2 
 PCOD8224261
Probable space group: P B A M
;
_chemical_formula_sum "Si O2"
_cell_formula_units_Z 40
_cell_length_a 9.132790
_cell_length_b 25.681404
_cell_length_c 8.525633
_cell_angle_alpha 90.000000
_cell_angle_beta 90.000000
_cell_angle_gamma 90.000000
_cell_volume 1999.626429
_symmetry_space_group_name_H-M "P B A M"
_symmetry_group_IT_number 55
_symmetry_cell_setting 'orthorhombic'
loop_
_space_group_symop_operation_xyz
x,y,z
-x,-y,z
1/2+x,1/2-y,-z
1/2-x,1/2+y,-z
-x,-y,-z
x,y,-z
1/2-x,1/2+y,z
1/2+x,1/2-y,z
loop_
_atom_site_type_symbol
_atom_site_label
_atom_site_fract_x
_atom_site_fract_y
_atom_site_fract_z
Si Si1 0.241385 0.409659 0.817226
Si Si2 0.490313 0.219195 0.184702
Si Si3 0.665554 0.980943 0.821548
Si Si4 0.432554 0.116024 0.682299
Si Si5 0.304365 0.306961 0.683014
O O1 0.268943 0.470342 0.766859
O O2 0.338077 0.368198 0.719379
O O3 0.071796 0.397007 0.788720
O O4 0.275623 0.402581 0.000000
O O5 0.387130 0.174168 0.263437
O O6 0.660114 0.211101 0.224487
O O7 0.441971 0.274164 0.257146
O O8 0.465927 0.219363 0.000000
O O9 0.690329 0.928444 0.718216
O O10 0.500000 0.000000 0.801676
O O11 0.701859 0.966491 0.000000
O O12 0.473561 0.115837 0.500000
O O13 0.278747 0.298966 0.500000
#
# Coordination Sequence:
#
# PCOD8224261 Si02
#       5
#     8   8   8   8   8
#     4   9  16  27  42  62  90 124 158 192 236 289
#     4  11  21  35  52  71  98 133 168 200 242 295
#     4   8  14  24  38  58  87 121 154 189 233 286
#     4  10  17  25  40  64  92 121 155 197 242 283
#     4  11  21  34  51  74 101 128 163 207 249 286
#
# _framework density 20.003734999999999
#
# number of rings (size 3 to 8) (size 9 to 14) (size 15 to 20)
#    0.000    2.200    0.000    9.600    0.000    4.400 
#    0.000    0.000    0.000    0.000    0.000    1.400 
#    0.000   11.200    0.000    0.000    0.000    0.000 
#
# Total GULP energy -495601.839419 kJ/mol
# GULP energy per Si atom -12390.045985 kJ/mol
# Density = 1.995821 g / cm^3
# Si number density = 20.003735 Si / 1000 Ang^3
#
#
#
# Elastic Constant Matrix: (Units=GPa)
#
#
# Indices 1 2 3 4 5 6 
#
# 1 10.6961 -3.9541 0.9687 0.0000 0.0000 0.0000
# 2 -3.9541 17.0376 13.5856 0.0000 0.0000 0.0000
# 3 0.9687 13.5856 79.9380 0.0000 0.0000 0.0000
# 4 0.0000 0.0000 0.0000 29.5434 0.0000 0.0000
# 5 0.0000 0.0000 0.0000 0.0000 14.9249 0.0000
# 6 0.0000 0.0000 0.0000 0.0000 0.0000 19.5918
#
#
#
# Elastic Compliance Matrix: (Units=1/GPa)
#
#
# Indices 1 2 3 4 5 6 
#
# 1 0.104903 0.029335 -0.006257 0.000000 0.000000 0.000000
# 2 0.029335 0.076098 -0.013289 0.000000 0.000000 0.000000
# 3 -0.006257 -0.013289 0.014844 0.000000 0.000000 0.000000
# 4 0.000000 0.000000 0.000000 0.033849 0.000000 0.000000
# 5 0.000000 0.000000 0.000000 0.000000 0.067002 0.000000
# 6 0.000000 0.000000 0.000000 0.000000 0.000000 0.051042
#
#
# Mechanical properties :
#
#
# Convention : Reuss Voigt Hill
#
# Bulk Modulus (GPa) = 4.64198 14.31912 9.48055
# Shear Modulus (GPa) = 12.50107 19.28346 15.89226
#
# Velocity S-wave (km/s) = 2.50259 3.10819 2.82168
# Velocity P-wave (km/s) = 3.26744 4.47827 3.91989
#
# Compressibility (1/GPa) = 0.21542518
#
# Stress axis : x y z
#
# Youngs Moduli (GPa) = 9.53262 13.14090 67.36764
#
# Poissons Ratio (x) = -0.38549 0.42150
# Poissons Ratio (y) = -0.27964 0.89522
# Poissons Ratio (z) = 0.05964 0.17462
#
# Static dielectric constant tensor:
#      x y z
#    x 2.860690 0.000000 0.000000 
#    y 0.000000 4.919040 0.000000 
#    z 0.000000 0.000000 3.545840 
# 
# 
# High freq. dielectric constant tensor:
#      x y z
#    x 1.688250 0.000000 0.000000 
#    y 0.000000 1.811730 0.000000 
#    z 0.000000 0.000000 1.786610 
# 
# From -- ./inp_files/2517.got.cif
#   From: 2010.03.12/outbox.cif.g09.slc.cpg/sg55_2_cif.got.tgz:2517.got - 2010.04.16 15:19:21.
