data_PCOD8224164
_publ_section_title
;
Structure prediction by ZEFSAII (Michael W. Deem and Ramdas Pophale) SiO2 
 PCOD8224164
Probable space group: P C C A
;
_chemical_formula_sum "Si O2"
_cell_formula_units_Z 40
_cell_length_a 22.666635
_cell_length_b 6.995421
_cell_length_c 11.524518
_cell_angle_alpha 90.000000
_cell_angle_beta 90.000000
_cell_angle_gamma 90.000000
_cell_volume 1827.358166
_symmetry_space_group_name_H-M "P C C A"
_symmetry_group_IT_number 54
_symmetry_cell_setting 'orthorhombic'
loop_
_space_group_symop_operation_xyz
x,y,z
1/2-x,-y,z
1/2+x,-y,1/2-z
-x,y,1/2-z
-x,-y,-z
1/2+x,y,-z
1/2-x,y,1/2+z
x,-y,1/2+z
loop_
_atom_site_type_symbol
_atom_site_label
_atom_site_fract_x
_atom_site_fract_y
_atom_site_fract_z
Si Si1 0.556648 0.889241 0.550258
Si Si2 0.000000 0.332293 0.750000
Si Si3 0.250000 0.000000 0.194540
Si Si4 0.802510 0.643188 0.440826
Si Si5 0.145783 0.173397 0.345219
Si Si6 0.091921 0.596181 0.645959
O O1 0.542852 0.799822 0.675015
O O2 0.580766 0.726580 0.465352
O O3 0.500000 0.000000 0.500000
O O4 0.610994 0.030419 0.570331
O O5 0.035419 0.462642 0.660122
O O6 0.221270 0.838666 0.114155
O O7 0.302020 0.924600 0.274878
O O8 0.750000 0.500000 0.453851
O O9 0.826670 0.669990 0.570188
O O10 0.852017 0.542612 0.362894
O O11 0.099454 0.271238 0.258591
#
# Coordination Sequence:
#
# PCOD8224164 Si02
#       6
#     8   4   4   8   8   8
#     4  12  25  46  72 109 147 191 246 305 369 445
#     4  12  24  44  74 102 146 192 240 298 376 426
#     4  12  26  48  68 104 142 192 242 306 364 446
#     4  12  27  46  69 105 142 189 243 303 359 438
#     4  12  26  43  74  99 145 190 241 296 375 422
#     4  12  25  46  71 107 145 191 246 303 363 446
#
# _framework density 21.889524000000002
#
# number of rings (size 3 to 8) (size 9 to 14) (size 15 to 20)
#    0.000    0.000    2.000    8.400    5.600    0.000 
#    0.000    0.000    0.000    0.000    0.000    0.000 
#    0.000    0.000    0.000    0.000    0.000    0.000 
#
# Total GULP energy -496304.282107 kJ/mol
# GULP energy per Si atom -12407.607053 kJ/mol
# Density = 2.183970 g / cm^3
# Si number density = 21.889524 Si / 1000 Ang^3
#
#
#
# Elastic Constant Matrix: (Units=GPa)
#
#
# Indices 1 2 3 4 5 6 
#
# 1 104.7450 36.8272 24.7797 0.0000 0.0000 0.0000
# 2 36.8272 104.6907 35.9624 0.0000 0.0000 0.0000
# 3 24.7797 35.9624 104.8673 0.0000 0.0000 0.0000
# 4 0.0000 0.0000 0.0000 -79.6510 0.0000 0.0000
# 5 0.0000 0.0000 0.0000 0.0000 55.6778 0.0000
# 6 0.0000 0.0000 0.0000 0.0000 0.0000 149.0003
#
#
#
# Elastic Compliance Matrix: (Units=1/GPa)
#
#
# Indices 1 2 3 4 5 6 
#
# 1 0.011086 -0.003401 -0.001454 0.000000 0.000000 0.000000
# 2 -0.003401 0.011871 -0.003267 0.000000 0.000000 0.000000
# 3 -0.001454 -0.003267 0.011000 0.000000 0.000000 0.000000
# 4 0.000000 0.000000 0.000000 -0.012555 0.000000 0.000000
# 5 0.000000 0.000000 0.000000 0.000000 0.017960 0.000000
# 6 0.000000 0.000000 0.000000 0.000000 0.000000 0.006711
#
#
# Mechanical properties :
#
#
# Convention : Reuss Voigt Hill
#
# Bulk Modulus (GPa) = 56.45240 56.60463 56.52851
# Shear Modulus (GPa) = 73.29100 39.45435 56.37267
#
# Velocity S-wave (km/s) = 5.79266 4.25011 5.08027
# Velocity P-wave (km/s) = 8.40152 7.07106 7.76484
#
# Compressibility (1/GPa) = 0.01771404
#
# Stress axis : x y z
#
# Youngs Moduli (GPa) = 90.20002 84.24240 90.91113
#
# Poissons Ratio (x) = 0.28648 0.13214
# Poissons Ratio (y) = 0.30673 0.29703
# Poissons Ratio (z) = 0.13111 0.27524
#
# Static dielectric constant tensor:
#      x y z
#    x 4.193500 0.000000 0.000000 
#    y 0.000000 4.382890 0.000000 
#    z 0.000000 0.000000 4.123020 
# 
# 
# High freq. dielectric constant tensor:
#      x y z
#    x 1.880590 0.000000 0.000000 
#    y 0.000000 1.878820 0.000000 
#    z 0.000000 0.000000 1.874570 
# 
# From -- ./inp_files/10172.got.cif
#   From: 2010.03.12/outbox.cif.g09.slc.cpg/sg54_6_cif.got.tgz:10172.got - 2010.04.16 15:00:50.
