data_PCOD8224267
_publ_section_title
;
Structure prediction by ZEFSAII (Michael W. Deem and Ramdas Pophale) SiO2 
 PCOD8224267
Probable space group: P B A M
;
_chemical_formula_sum "Si O2"
_cell_formula_units_Z 56
_cell_length_a 17.547041
_cell_length_b 22.323987
_cell_length_c 9.195807
_cell_angle_alpha 90.000000
_cell_angle_beta 90.000000
_cell_angle_gamma 90.000000
_cell_volume 3602.180738
_symmetry_space_group_name_H-M "P B A M"
_symmetry_group_IT_number 55
_symmetry_cell_setting 'orthorhombic'
loop_
_space_group_symop_operation_xyz
x,y,z
-x,-y,z
1/2+x,1/2-y,-z
1/2-x,1/2+y,-z
-x,-y,-z
x,y,-z
1/2-x,1/2+y,z
1/2+x,1/2-y,z
loop_
_atom_site_type_symbol
_atom_site_label
_atom_site_fract_x
_atom_site_fract_y
_atom_site_fract_z
Si Si1 0.008704 0.931216 0.667756
Si Si2 0.409598 0.778435 0.829954
Si Si3 0.873139 0.148788 0.172560
Si Si4 0.270314 0.818877 0.665178
Si Si5 0.919287 0.280426 0.166648
Si Si6 0.622774 0.341545 0.668972
Si Si7 0.215182 0.682833 0.339272
O O1 0.033368 0.923211 0.500000
O O2 0.927223 0.900257 0.697094
O O3 0.073199 0.903661 0.769663
O O4 0.000000 0.000000 0.711110
O O5 0.352209 0.822555 0.745217
O O6 0.495104 0.803229 0.804771
O O7 0.408439 0.711041 0.770267
O O8 0.388279 0.776947 0.000000
O O9 0.790269 0.140973 0.246693
O O10 0.909616 0.212150 0.222574
O O11 0.864739 0.143395 0.000000
O O12 0.277722 0.842643 0.500000
O O13 0.243908 0.750686 0.669063
O O14 0.859609 0.325906 0.241403
O O15 0.897153 0.281819 0.000000
O O16 0.619036 0.320419 0.500000
O O17 0.711377 0.356756 0.709400
O O18 0.189000 0.664969 0.500000
#
# Coordination Sequence:
#
# PCOD8224267 Si02
#       7
#     8   8   8   8   8   8   8
#     4  10  20  32  46  63  84 114 152 191 226 259
#     4  10  17  26  40  61  86 112 141 172 209 253
#     4  10  18  30  44  60  83 113 145 181 221 257
#     4   9  17  28  41  60  82 110 143 173 209 255
#     4   9  17  26  38  59  85 111 139 169 207 253
#     4   9  17  29  42  57  80 111 146 181 217 256
#     4   8  15  25  38  56  77 105 139 171 205 248
#
# _framework density 15.546137999999999
#
# number of rings (size 3 to 8) (size 9 to 14) (size 15 to 20)
#    0.000    2.714    1.429    2.143    0.000    5.429 
#    0.000    0.000    0.000    0.000    0.000    0.000 
#    0.000    1.143    0.000   13.143    0.000    3.286 
#
# Total GULP energy -694163.883490 kJ/mol
# GULP energy per Si atom -12395.783634 kJ/mol
# Density = 1.551075 g / cm^3
# Si number density = 15.546138 Si / 1000 Ang^3
#
#
#
# Elastic Constant Matrix: (Units=GPa)
#
#
# Indices 1 2 3 4 5 6 
#
# 1 135.8649 42.1891 65.8492 0.0000 0.0000 0.0000
# 2 42.1891 42.3820 26.3638 0.0000 0.0000 0.0000
# 3 65.8492 26.3638 84.5989 0.0000 0.0000 0.0000
# 4 0.0000 0.0000 0.0000 12.9351 0.0000 0.0000
# 5 0.0000 0.0000 0.0000 0.0000 31.5560 0.0000
# 6 0.0000 0.0000 0.0000 0.0000 0.0000 14.5223
#
#
#
# Elastic Compliance Matrix: (Units=1/GPa)
#
#
# Indices 1 2 3 4 5 6 
#
# 1 0.014111 -0.008949 -0.008195 0.000000 0.000000 0.000000
# 2 -0.008949 0.034944 -0.003924 0.000000 0.000000 0.000000
# 3 -0.008195 -0.003924 0.019422 0.000000 0.000000 0.000000
# 4 0.000000 0.000000 0.000000 0.077309 0.000000 0.000000
# 5 0.000000 0.000000 0.000000 0.000000 0.031690 0.000000
# 6 0.000000 0.000000 0.000000 0.000000 0.000000 0.068860
#
#
# Mechanical properties :
#
#
# Convention : Reuss Voigt Hill
#
# Bulk Modulus (GPa) = 37.96320 59.07221 48.51771
# Shear Modulus (GPa) = 16.82081 20.36561 18.59321
#
# Velocity S-wave (km/s) = 3.29293 3.62333 3.46208
# Velocity P-wave (km/s) = 6.23944 7.45555 6.87444
#
# Compressibility (1/GPa) = 0.02634130
#
# Stress axis : x y z
#
# Youngs Moduli (GPa) = 70.86788 28.61701 51.48866
#
# Poissons Ratio (x) = 0.25610 0.42193
# Poissons Ratio (y) = 0.63420 0.20205
# Poissons Ratio (z) = 0.58073 0.11230
#
# Static dielectric constant tensor:
#      x y z
#    x 3.261490 0.000000 0.000000 
#    y 0.000000 2.458970 0.000000 
#    z 0.000000 0.000000 3.058830 
# 
# 
# High freq. dielectric constant tensor:
#      x y z
#    x 1.611470 0.000000 0.000000 
#    y 0.000000 1.521110 0.000000 
#    z 0.000000 0.000000 1.606320 
# 
# From -- ./inp_files/7842.got.cif
#   From: 2010.03.12/outbox.cif.g09.slc.cpg/sg55_4_cif.got.tgz:7842.got - 2010.04.16 15:19:21.
