data_PCOD8224324
_publ_section_title
;
Structure prediction by ZEFSAII (Michael W. Deem and Ramdas Pophale) SiO2 
 PCOD8224324
Probable space group: P B A M
;
_chemical_formula_sum "Si O2"
_cell_formula_units_Z 48
_cell_length_a 8.806922
_cell_length_b 19.607529
_cell_length_c 13.616699
_cell_angle_alpha 90.000000
_cell_angle_beta 90.000000
_cell_angle_gamma 90.000000
_cell_volume 2351.358524
_symmetry_space_group_name_H-M "P B A M"
_symmetry_group_IT_number 55
_symmetry_cell_setting 'orthorhombic'
loop_
_space_group_symop_operation_xyz
x,y,z
-x,-y,z
1/2+x,1/2-y,-z
1/2-x,1/2+y,-z
-x,-y,-z
x,y,-z
1/2-x,1/2+y,z
1/2+x,1/2-y,z
loop_
_atom_site_type_symbol
_atom_site_label
_atom_site_fract_x
_atom_site_fract_y
_atom_site_fract_z
Si Si1 0.666354 0.162507 0.804850
Si Si2 0.524711 0.724523 0.115032
Si Si3 0.281349 0.294725 0.609618
Si Si4 0.882037 0.841705 0.609575
Si Si5 0.395947 0.593835 0.806934
Si Si6 0.792384 0.036433 0.884230
O O1 0.514942 0.203372 0.833856
O O2 0.685441 0.160325 0.686941
O O3 0.654746 0.085152 0.847961
O O4 0.809485 0.201611 0.852040
O O5 0.395054 0.669053 0.145051
O O6 0.521702 0.735020 0.000000
O O7 0.235363 0.319122 0.500000
O O8 0.248993 0.214435 0.622497
O O9 0.459348 0.303423 0.629539
O O10 0.877173 0.874030 0.500000
O O11 0.861748 0.901121 0.690183
O O12 0.561268 0.562519 0.825580
O O13 0.269430 0.543309 0.855286
O O14 0.817958 0.044157 0.000000
#
# Coordination Sequence:
#
# PCOD8224324 Si02
#       6
#     8   8   8   8   8   8
#     4  11  19  34  51  78 102 132 171 212 258 303
#     4  11  20  31  50  75 103 131 172 216 252 300
#     4  10  18  32  50  76 105 134 167 213 265 308
#     4  10  19  32  52  77 106 134 169 215 265 307
#     4  10  17  31  48  70 101 134 174 200 253 302
#     4  10  19  31  48  72 105 141 169 206 259 313
#
# _framework density 20.413732
#
# number of rings (size 3 to 8) (size 9 to 14) (size 15 to 20)
#    0.000    1.667    5.000    4.500    0.000    0.000 
#    0.000    2.500    0.000    1.000    0.000    3.500 
#    0.000    8.000    0.000    0.000    0.000    0.000 
#
# Total GULP energy -594988.063776 kJ/mol
# GULP energy per Si atom -12395.584662 kJ/mol
# Density = 2.036727 g / cm^3
# Si number density = 20.413732 Si / 1000 Ang^3
#
#
#
# Elastic Constant Matrix: (Units=GPa)
#
#
# Indices 1 2 3 4 5 6 
#
# 1 19.5122 -6.8837 7.5723 0.0000 0.0000 0.0000
# 2 -6.8837 39.0763 32.2662 0.0000 0.0000 0.0000
# 3 7.5723 32.2662 138.1150 0.0000 0.0000 0.0000
# 4 0.0000 0.0000 0.0000 38.7276 0.0000 0.0000
# 5 0.0000 0.0000 0.0000 0.0000 15.8239 0.0000
# 6 0.0000 0.0000 0.0000 0.0000 0.0000 19.2780
#
#
#
# Elastic Compliance Matrix: (Units=1/GPa)
#
#
# Indices 1 2 3 4 5 6 
#
# 1 0.059798 0.016406 -0.007111 0.000000 0.000000 0.000000
# 2 0.016406 0.036209 -0.009358 0.000000 0.000000 0.000000
# 3 -0.007111 -0.009358 0.009817 0.000000 0.000000 0.000000
# 4 0.000000 0.000000 0.000000 0.025821 0.000000 0.000000
# 5 0.000000 0.000000 0.000000 0.000000 0.063195 0.000000
# 6 0.000000 0.000000 0.000000 0.000000 0.000000 0.051873
#
#
# Mechanical properties :
#
#
# Convention : Reuss Voigt Hill
#
# Bulk Modulus (GPa) = 9.46117 29.17922 19.32019
# Shear Modulus (GPa) = 17.72601 25.68248 21.70425
#
# Velocity S-wave (km/s) = 2.94995 3.55082 3.26424
# Velocity P-wave (km/s) = 4.03085 5.57996 4.86743
#
# Compressibility (1/GPa) = 0.10569520
#
# Stress axis : x y z
#
# Youngs Moduli (GPa) = 16.72307 27.61778 101.86898
#
# Poissons Ratio (x) = -0.45309 0.72441
# Poissons Ratio (y) = -0.27436 0.95334
# Poissons Ratio (z) = 0.11892 0.25846
#
# Static dielectric constant tensor:
#      x y z
#    x 3.357710 0.000000 0.000000 
#    y 0.000000 4.416270 0.000000 
#    z 0.000000 0.000000 4.029920 
# 
# 
# High freq. dielectric constant tensor:
#      x y z
#    x 1.755090 0.000000 0.000000 
#    y 0.000000 1.776720 0.000000 
#    z 0.000000 0.000000 1.818880 
# 
# From -- ./inp_files/17486.got.cif
#   From: 2010.03.12/outbox.cif.g09.slc.cpg/sg55_9_cif.got.tgz:17486.got - 2010.04.16 15:19:21.
