data_PCOD8224642
_publ_section_title
;
Structure prediction by ZEFSAII (Michael W. Deem and Ramdas Pophale) SiO2 
 PCOD8224642
Probable space group: P B A M
;
_chemical_formula_sum "Si O2"
_cell_formula_units_Z 56
_cell_length_a 13.651460
_cell_length_b 24.187997
_cell_length_c 8.828807
_cell_angle_alpha 90.000000
_cell_angle_beta 90.000000
_cell_angle_gamma 90.000000
_cell_volume 2915.285081
_symmetry_space_group_name_H-M "P B A M"
_symmetry_group_IT_number 55
_symmetry_cell_setting 'orthorhombic'
loop_
_space_group_symop_operation_xyz
x,y,z
-x,-y,z
1/2+x,1/2-y,-z
1/2-x,1/2+y,-z
-x,-y,-z
x,y,-z
1/2-x,1/2+y,z
1/2+x,1/2-y,z
loop_
_atom_site_type_symbol
_atom_site_label
_atom_site_fract_x
_atom_site_fract_y
_atom_site_fract_z
Si Si1 0.375302 0.875877 0.323631
Si Si2 0.293447 0.443430 0.178613
Si Si3 0.727333 0.443106 0.320264
Si Si4 0.089737 0.837153 0.177760
Si Si5 0.128535 0.162079 0.179141
Si Si6 0.946157 0.446833 0.676360
Si Si7 0.278481 0.776039 0.821151
O O1 0.348249 0.876576 0.500000
O O2 0.309783 0.921879 0.241346
O O3 0.488681 0.892115 0.295846
O O4 0.359519 0.815184 0.255642
O O5 0.321814 0.501121 0.256507
O O6 0.377659 0.399249 0.221375
O O7 0.284865 0.451697 0.000000
O O8 0.723853 0.443938 0.500000
O O9 0.665954 0.391767 0.262015
O O10 0.838124 0.437988 0.254330
O O11 0.170252 0.793087 0.240264
O O12 0.981279 0.825244 0.241330
O O13 0.087399 0.829778 0.000000
O O14 0.198600 0.213141 0.223649
O O15 0.127915 0.151587 0.000000
O O16 0.931920 0.459237 0.500000
O O17 0.000000 0.500000 0.750761
O O18 0.287149 0.785661 0.000000
#
# Coordination Sequence:
#
# PCOD8224642 Si02
#       7
#     8   8   8   8   8   8   8
#     4  10  18  32  56  81 107 144 183 219 266 321
#     4  10  19  34  55  80 109 142 183 220 265 324
#     4  11  22  36  54  78 111 144 180 226 272 321
#     4   8  17  35  57  78 105 142 175 215 272 324
#     4  10  21  38  57  78 108 144 180 221 271 321
#     4   9  17  32  52  76 110 147 173 207 275 335
#     4   9  19  36  57  80 107 141 183 224 265 319
#
# _framework density 19.209099999999999
#
# number of rings (size 3 to 8) (size 9 to 14) (size 15 to 20)
#    0.000    2.429    1.429    2.143    0.000    2.286 
#    0.000   11.429    0.000    0.000    0.000    0.000 
#    0.000    0.000    0.000    0.000    0.000    0.000 
#
# Total GULP energy -694272.961557 kJ/mol
# GULP energy per Si atom -12397.731456 kJ/mol
# Density = 1.916538 g / cm^3
# Si number density = 19.209100 Si / 1000 Ang^3
#
#
#
# Elastic Constant Matrix: (Units=GPa)
#
#
# Indices 1 2 3 4 5 6 
#
# 1 123.6189 58.7656 28.8694 0.0000 0.0000 0.0000
# 2 58.7656 133.5857 45.2997 0.0000 0.0000 0.0000
# 3 28.8694 45.2997 48.3866 0.0000 0.0000 0.0000
# 4 0.0000 0.0000 0.0000 23.5167 0.0000 0.0000
# 5 0.0000 0.0000 0.0000 0.0000 22.2321 0.0000
# 6 0.0000 0.0000 0.0000 0.0000 0.0000 25.5339
#
#
#
# Elastic Compliance Matrix: (Units=1/GPa)
#
#
# Indices 1 2 3 4 5 6 
#
# 1 0.010488 -0.003651 -0.002840 0.000000 0.000000 0.000000
# 2 -0.003651 0.012239 -0.009280 0.000000 0.000000 0.000000
# 3 -0.002840 -0.009280 0.031049 0.000000 0.000000 0.000000
# 4 0.000000 0.000000 0.000000 0.042523 0.000000 0.000000
# 5 0.000000 0.000000 0.000000 0.000000 0.044980 0.000000
# 6 0.000000 0.000000 0.000000 0.000000 0.000000 0.039164
#
#
# Mechanical properties :
#
#
# Convention : Reuss Voigt Hill
#
# Bulk Modulus (GPa) = 44.97374 63.49563 54.23469
# Shear Modulus (GPa) = 22.79004 25.76697 24.27851
#
# Velocity S-wave (km/s) = 3.44818 3.66648 3.55900
# Velocity P-wave (km/s) = 6.27031 7.14499 6.72189
#
# Compressibility (1/GPa) = 0.02223520
#
# Stress axis : x y z
#
# Youngs Moduli (GPa) = 95.34642 81.70825 32.20742
#
# Poissons Ratio (x) = 0.29831 0.09146
# Poissons Ratio (y) = 0.34810 0.29887
# Poissons Ratio (z) = 0.27075 0.75822
#
# Static dielectric constant tensor:
#      x y z
#    x 3.890630 0.000000 0.000000 
#    y 0.000000 3.508400 0.000000 
#    z 0.000000 0.000000 3.288140 
# 
# 
# High freq. dielectric constant tensor:
#      x y z
#    x 1.746780 0.000000 0.000000 
#    y 0.000000 1.747550 0.000000 
#    z 0.000000 0.000000 1.721970 
# 
# From -- ./inp_files/6163.got.cif
#   From: 2010.03.12/outbox.cif.g09.slc.cpg/sg55_4_cif.got.tgz:6163.got - 2010.04.16 15:19:21.
