data_PCOD8224284
_publ_section_title
;
Structure prediction by ZEFSAII (Michael W. Deem and Ramdas Pophale) SiO2 
 PCOD8224284
Probable space group: P B A M
;
_chemical_formula_sum "Si O2"
_cell_formula_units_Z 64
_cell_length_a 14.375700
_cell_length_b 30.582363
_cell_length_c 8.835188
_cell_angle_alpha 90.000000
_cell_angle_beta 90.000000
_cell_angle_gamma 90.000000
_cell_volume 3884.327460
_symmetry_space_group_name_H-M "P B A M"
_symmetry_group_IT_number 55
_symmetry_cell_setting 'orthorhombic'
loop_
_space_group_symop_operation_xyz
x,y,z
-x,-y,z
1/2+x,1/2-y,-z
1/2-x,1/2+y,-z
-x,-y,-z
x,y,-z
1/2-x,1/2+y,z
1/2+x,1/2-y,z
loop_
_atom_site_type_symbol
_atom_site_label
_atom_site_fract_x
_atom_site_fract_y
_atom_site_fract_z
Si Si1 0.269958 0.717469 0.821759
Si Si2 0.174784 0.638292 0.329714
Si Si3 0.514989 0.185592 0.330033
Si Si4 0.161094 0.798725 0.320795
Si Si5 0.892556 0.546236 0.680279
Si Si6 0.397853 0.049619 0.320048
Si Si7 0.691081 0.133364 0.679399
Si Si8 0.518180 0.273299 0.823567
O O1 0.233314 0.669391 0.779645
O O2 0.211557 0.755282 0.740653
O O3 0.377001 0.718589 0.766651
O O4 0.261964 0.725014 0.000000
O O5 0.216755 0.640791 0.500000
O O6 0.171835 0.588364 0.264539
O O7 0.067156 0.651090 0.333831
O O8 0.533080 0.204058 0.500000
O O9 0.605853 0.162626 0.261512
O O10 0.487495 0.224295 0.217258
O O11 0.159892 0.794068 0.500000
O O12 0.214457 0.842862 0.266764
O O13 0.056195 0.804552 0.259887
O O14 0.895008 0.547635 0.500000
O O15 0.858890 0.497896 0.733588
O O16 0.821470 0.583713 0.742624
O O17 0.996794 0.555381 0.742219
O O18 0.401789 0.052188 0.500000
O O19 0.686555 0.131834 0.500000
O O20 0.508488 0.281741 0.000000
#
# Coordination Sequence:
#
# PCOD8224284 Si02
#       8
#     8   8   8   8   8   8   8   8
#     4  11  23  35  47  66  92 125 160 194 235 279
#     4  10  18  28  46  72  96 125 159 191 225 272
#     4  10  17  27  45  68  96 125 157 189 224 270
#     4  11  21  32  49  70  92 122 159 197 234 274
#     4   8  12  21  38  64  99 127 146 179 225 276
#     4   8  13  21  38  67  99 125 149 180 224 274
#     4   9  16  26  42  67  96 126 157 187 225 273
#     4  11  23  36  47  63  92 125 161 199 235 275
#
# _framework density 16.476469000000002
#
# number of rings (size 3 to 8) (size 9 to 14) (size 15 to 20)
#    0.000    2.250    3.750    1.875    0.000    1.500 
#    0.000    0.000    0.000    0.000    0.000    5.250 
#    0.000    7.000    0.000    0.000    0.000    0.000 
#
# Total GULP energy -793085.623139 kJ/mol
# GULP energy per Si atom -12391.962862 kJ/mol
# Density = 1.643897 g / cm^3
# Si number density = 16.476469 Si / 1000 Ang^3
#
#
#
# Elastic Constant Matrix: (Units=GPa)
#
#
# Indices 1 2 3 4 5 6 
#
# 1 74.2197 30.9035 23.3935 0.0000 0.0000 0.0000
# 2 30.9035 113.2411 15.8610 0.0000 0.0000 0.0000
# 3 23.3935 15.8610 34.4238 0.0000 0.0000 0.0000
# 4 0.0000 0.0000 0.0000 1.6140 0.0000 0.0000
# 5 0.0000 0.0000 0.0000 0.0000 19.6747 0.0000
# 6 0.0000 0.0000 0.0000 0.0000 0.0000 24.8037
#
#
#
# Elastic Compliance Matrix: (Units=1/GPa)
#
#
# Indices 1 2 3 4 5 6 
#
# 1 0.018349 -0.003486 -0.010863 0.000000 0.000000 0.000000
# 2 -0.003486 0.010102 -0.002286 0.000000 0.000000 0.000000
# 3 -0.010863 -0.002286 0.037485 0.000000 0.000000 0.000000
# 4 0.000000 0.000000 0.000000 0.619576 0.000000 0.000000
# 5 0.000000 0.000000 0.000000 0.000000 0.050827 0.000000
# 6 0.000000 0.000000 0.000000 0.000000 0.000000 0.040317
#
#
# Mechanical properties :
#
#
# Convention : Reuss Voigt Hill
#
# Bulk Modulus (GPa) = 30.61238 40.24450 35.42844
# Shear Modulus (GPa) = 6.09151 19.33358 12.71255
#
# Velocity S-wave (km/s) = 1.92487 3.42922 2.78071
# Velocity P-wave (km/s) = 4.85386 6.33702 5.64437
#
# Compressibility (1/GPa) = 0.03266652
#
# Stress axis : x y z
#
# Youngs Moduli (GPa) = 54.49883 98.98870 26.67718
#
# Poissons Ratio (x) = 0.34506 0.28980
# Poissons Ratio (y) = 0.18998 0.06098
# Poissons Ratio (z) = 0.59204 0.22626
#
# Static dielectric constant tensor:
#      x y z
#    x 3.143510 0.000000 0.000000 
#    y 0.000000 3.433280 0.000000 
#    z 0.000000 0.000000 2.782940 
# 
# 
# High freq. dielectric constant tensor:
#      x y z
#    x 1.610330 0.000000 0.000000 
#    y 0.000000 1.631660 0.000000 
#    z 0.000000 0.000000 1.601560 
# 
# From -- ./inp_files/6903.got.cif
#   From: 2010.03.12/outbox.cif.g09.slc.cpg/sg55_4_cif.got.tgz:6903.got - 2010.04.16 15:19:21.
