data_PCOD8224127
_publ_section_title
;
Structure prediction by ZEFSAII (Michael W. Deem and Ramdas Pophale) SiO2 
 PCOD8224127
Probable space group: P C C A
;
_chemical_formula_sum "Si O2"
_cell_formula_units_Z 40
_cell_length_a 15.894080
_cell_length_b 6.682129
_cell_length_c 17.289076
_cell_angle_alpha 90.000000
_cell_angle_beta 90.000000
_cell_angle_gamma 90.000000
_cell_volume 1836.208670
_symmetry_space_group_name_H-M "P C C A"
_symmetry_group_IT_number 54
_symmetry_cell_setting 'orthorhombic'
loop_
_space_group_symop_operation_xyz
x,y,z
1/2-x,-y,z
1/2+x,-y,1/2-z
-x,y,1/2-z
-x,-y,-z
1/2+x,y,-z
1/2-x,y,1/2+z
x,-y,1/2+z
loop_
_atom_site_type_symbol
_atom_site_label
_atom_site_fract_x
_atom_site_fract_y
_atom_site_fract_z
Si Si1 0.000000 0.093782 0.250000
Si Si2 0.418797 0.237924 0.155603
Si Si3 0.750000 0.000000 0.096820
Si Si4 0.583092 0.132202 0.513370
Si Si5 0.448083 0.576638 0.352758
Si Si6 0.694289 0.674420 0.708497
O O1 0.066904 0.246232 0.289331
O O2 0.024843 0.955190 0.177488
O O3 0.465306 0.452897 0.163386
O O4 0.343352 0.216127 0.216923
O O5 0.384955 0.213633 0.069218
O O6 0.836594 0.011651 0.047620
O O7 0.750493 0.189343 0.153275
O O8 0.554732 0.324816 0.562703
O O9 0.500000 0.000000 0.500000
O O10 0.376831 0.410954 0.348019
O O11 0.750000 0.500000 0.744129
#
# Coordination Sequence:
#
# PCOD8224127 Si02
#       6
#     4   8   4   8   8   8
#     4  12  20  42  76 100 136 182 256 296 358 458
#     4  12  25  43  73 105 141 188 248 303 373 439
#     4  12  28  50  74 106 152 196 252 306 382 442
#     4  12  26  48  75 108 149 197 241 313 381 441
#     4  12  23  47  73 104 140 194 246 302 372 453
#     4  12  25  46  71 100 145 195 244 306 368 441
#
# _framework density 21.784016000000001
#
# number of rings (size 3 to 8) (size 9 to 14) (size 15 to 20)
#    0.000    0.000    8.000    3.000    0.000    0.800 
#    7.200    0.000    0.000    0.000    0.000    0.000 
#    0.000    0.000    0.000    0.000    0.000    0.000 
#
# Total GULP energy -495738.823776 kJ/mol
# GULP energy per Si atom -12393.470594 kJ/mol
# Density = 2.173443 g / cm^3
# Si number density = 21.784016 Si / 1000 Ang^3
#
#
#
# Elastic Constant Matrix: (Units=GPa)
#
#
# Indices 1 2 3 4 5 6 
#
# 1 100.8511 27.4737 33.1844 0.0000 0.0000 0.0000
# 2 27.4737 103.9894 54.8255 0.0000 0.0000 0.0000
# 3 33.1844 54.8255 145.8536 0.0000 0.0000 0.0000
# 4 0.0000 0.0000 0.0000 40.9162 0.0000 0.0000
# 5 0.0000 0.0000 0.0000 0.0000 32.9488 0.0000
# 6 0.0000 0.0000 0.0000 0.0000 0.0000 30.3618
#
#
#
# Elastic Compliance Matrix: (Units=1/GPa)
#
#
# Indices 1 2 3 4 5 6 
#
# 1 0.011037 -0.001986 -0.001765 0.000000 0.000000 0.000000
# 2 -0.001986 0.012350 -0.004191 0.000000 0.000000 0.000000
# 3 -0.001765 -0.004191 0.008833 0.000000 0.000000 0.000000
# 4 0.000000 0.000000 0.000000 0.024440 0.000000 0.000000
# 5 0.000000 0.000000 0.000000 0.000000 0.030350 0.000000
# 6 0.000000 0.000000 0.000000 0.000000 0.000000 0.032936
#
#
# Mechanical properties :
#
#
# Convention : Reuss Voigt Hill
#
# Bulk Modulus (GPa) = 61.20528 64.62901 62.91714
# Shear Modulus (GPa) = 35.39191 36.52606 35.95898
#
# Velocity S-wave (km/s) = 4.03510 4.09924 4.06729
# Velocity P-wave (km/s) = 7.06164 7.22063 7.14158
#
# Compressibility (1/GPa) = 0.01633846
#
# Stress axis : x y z
#
# Youngs Moduli (GPa) = 90.60267 80.96928 113.21217
#
# Poissons Ratio (x) = 0.16077 0.19980
# Poissons Ratio (y) = 0.17990 0.47444
# Poissons Ratio (z) = 0.15990 0.33932
#
# Static dielectric constant tensor:
#      x y z
#    x 3.938480 0.000000 0.000000 
#    y 0.000000 4.095230 0.000000 
#    z 0.000000 0.000000 4.092730 
# 
# 
# High freq. dielectric constant tensor:
#      x y z
#    x 1.840360 0.000000 0.000000 
#    y 0.000000 1.871860 0.000000 
#    z 0.000000 0.000000 1.865440 
# 
# From -- ./inp_files/18408.got.cif
#   From: 2010.03.12/outbox.cif.g09.slc.cpg/sg54_10_cif.got.tgz:18408.got - 2010.04.16 15:00:50.
