data_PCOD8224436
_publ_section_title
;
Structure prediction by ZEFSAII (Michael W. Deem and Ramdas Pophale) SiO2 
 PCOD8224436
Probable space group: P B A M
;
_chemical_formula_sum "Si O2"
_cell_formula_units_Z 56
_cell_length_a 15.388275
_cell_length_b 21.812370
_cell_length_c 8.936558
_cell_angle_alpha 90.000000
_cell_angle_beta 90.000000
_cell_angle_gamma 90.000000
_cell_volume 2999.598123
_symmetry_space_group_name_H-M "P B A M"
_symmetry_group_IT_number 55
_symmetry_cell_setting 'orthorhombic'
loop_
_space_group_symop_operation_xyz
x,y,z
-x,-y,z
1/2+x,1/2-y,-z
1/2-x,1/2+y,-z
-x,-y,-z
x,y,-z
1/2-x,1/2+y,z
1/2+x,1/2-y,z
loop_
_atom_site_type_symbol
_atom_site_label
_atom_site_fract_x
_atom_site_fract_y
_atom_site_fract_z
Si Si1 0.582633 0.781569 0.823877
Si Si2 0.042457 0.061363 0.831458
Si Si3 0.255943 0.559970 0.166047
Si Si4 0.865378 0.516698 0.332383
Si Si5 0.951474 0.813180 0.676602
Si Si6 0.014428 0.601210 0.669093
Si Si7 0.247859 0.184475 0.324008
O O1 0.516003 0.732967 0.756612
O O2 0.545536 0.848569 0.786518
O O3 0.680189 0.772565 0.756496
O O4 0.587876 0.772224 0.000000
O O5 0.143310 0.047603 0.835018
O O6 0.021127 0.118664 0.725717
O O7 0.007976 0.074731 0.000000
O O8 0.000000 0.000000 0.763735
O O9 0.213608 0.495789 0.219271
O O10 0.230710 0.614599 0.278781
O O11 0.222679 0.577681 0.000000
O O12 0.828521 0.522812 0.500000
O O13 0.916260 0.579282 0.290333
O O14 0.927730 0.458595 0.319341
O O15 0.961822 0.807275 0.500000
O O16 0.851053 0.798650 0.724528
O O17 0.017406 0.628416 0.500000
O O18 0.260348 0.191137 0.500000
#
# Coordination Sequence:
#
# PCOD8224436 Si02
#       7
#     8   8   8   8   8   8   8
#     4  12  23  35  56  84 113 147 183 227 281 333
#     4   9  19  37  58  80 109 142 175 220 277 327
#     4  10  18  29  51  81 108 137 179 224 268 322
#     4   9  17  30  49  74 105 142 178 216 260 307
#     4  10  22  39  60  84 110 144 187 232 273 325
#     4   9  18  32  50  73 106 145 181 214 256 315
#     4  10  20  36  57  79 106 143 187 230 272 325
#
# _framework density 18.669167000000002
#
# number of rings (size 3 to 8) (size 9 to 14) (size 15 to 20)
#    0.000    2.143    1.429    3.429    0.000    3.143 
#    0.000    2.857    0.000    3.429    0.000    0.000 
#    0.000    0.000    0.000    0.000    0.000    0.000 
#
# Total GULP energy -694181.124057 kJ/mol
# GULP energy per Si atom -12396.091501 kJ/mol
# Density = 1.862668 g / cm^3
# Si number density = 18.669167 Si / 1000 Ang^3
#
#
#
# Elastic Constant Matrix: (Units=GPa)
#
#
# Indices 1 2 3 4 5 6 
#
# 1 89.3365 53.8259 53.3193 0.0000 0.0000 0.0000
# 2 53.8259 72.2436 41.9039 0.0000 0.0000 0.0000
# 3 53.3193 41.9039 104.0111 0.0000 0.0000 0.0000
# 4 0.0000 0.0000 0.0000 28.8419 0.0000 0.0000
# 5 0.0000 0.0000 0.0000 0.0000 28.1747 0.0000
# 6 0.0000 0.0000 0.0000 0.0000 0.0000 35.7588
#
#
#
# Elastic Compliance Matrix: (Units=1/GPa)
#
#
# Indices 1 2 3 4 5 6 
#
# 1 0.023199 -0.013554 -0.006432 0.000000 0.000000 0.000000
# 2 -0.013554 0.025982 -0.003519 0.000000 0.000000 0.000000
# 3 -0.006432 -0.003519 0.014329 0.000000 0.000000 0.000000
# 4 0.000000 0.000000 0.000000 0.034672 0.000000 0.000000
# 5 0.000000 0.000000 0.000000 0.000000 0.035493 0.000000
# 6 0.000000 0.000000 0.000000 0.000000 0.000000 0.027965
#
#
# Mechanical properties :
#
#
# Convention : Reuss Voigt Hill
#
# Bulk Modulus (GPa) = 60.60661 62.63217 61.61939
# Shear Modulus (GPa) = 23.34817 26.32456 24.83636
#
# Velocity S-wave (km/s) = 3.54026 3.75914 3.65134
# Velocity P-wave (km/s) = 7.01749 7.24312 7.13120
#
# Compressibility (1/GPa) = 0.01649985
#
# Stress axis : x y z
#
# Youngs Moduli (GPa) = 43.10605 38.48842 69.78636
#
# Poissons Ratio (x) = 0.52166 0.44885
# Poissons Ratio (y) = 0.58425 0.24561
# Poissons Ratio (z) = 0.27725 0.13546
#
# Static dielectric constant tensor:
#      x y z
#    x 3.843640 0.000000 0.000000 
#    y 0.000000 3.730980 0.000000 
#    z 0.000000 0.000000 3.557750 
# 
# 
# High freq. dielectric constant tensor:
#      x y z
#    x 1.727870 0.000000 0.000000 
#    y 0.000000 1.696980 0.000000 
#    z 0.000000 0.000000 1.727110 
# 
# From -- ./inp_files/6078.got.cif
#   From: 2010.03.12/outbox.cif.g09.slc.cpg/sg55_4_cif.got.tgz:6078.got - 2010.04.16 15:19:21.
