data_PCOD8224627
_publ_section_title
;
Structure prediction by ZEFSAII (Michael W. Deem and Ramdas Pophale) SiO2 
 PCOD8224627
Probable space group: P B A M
;
_chemical_formula_sum "Si O2"
_cell_formula_units_Z 64
_cell_length_a 18.601617
_cell_length_b 20.731859
_cell_length_c 9.043656
_cell_angle_alpha 90.000000
_cell_angle_beta 90.000000
_cell_angle_gamma 90.000000
_cell_volume 3487.650674
_symmetry_space_group_name_H-M "P B A M"
_symmetry_group_IT_number 55
_symmetry_cell_setting 'orthorhombic'
loop_
_space_group_symop_operation_xyz
x,y,z
-x,-y,z
1/2+x,1/2-y,-z
1/2-x,1/2+y,-z
-x,-y,-z
x,y,-z
1/2-x,1/2+y,z
1/2+x,1/2-y,z
loop_
_atom_site_type_symbol
_atom_site_label
_atom_site_fract_x
_atom_site_fract_y
_atom_site_fract_z
Si Si1 0.832080 0.499993 0.665838
Si Si2 0.176789 0.628994 0.823787
Si Si3 0.664083 0.629524 0.173714
Si Si4 0.580771 0.752493 0.174762
Si Si5 0.328808 0.873733 0.172724
Si Si6 0.838753 0.004631 0.663163
Si Si7 0.670805 0.363192 0.324317
Si Si8 0.416736 0.747138 0.826008
O O1 0.863430 0.494354 0.500000
O O2 0.855115 0.437790 0.760810
O O3 0.862070 0.564917 0.741869
O O4 0.746834 0.503528 0.662760
O O5 0.122061 0.684148 0.769893
O O6 0.254021 0.647395 0.758166
O O7 0.183357 0.624168 0.000000
O O8 0.618290 0.688448 0.242044
O O9 0.746762 0.639605 0.221427
O O10 0.632539 0.561514 0.232144
O O11 0.656034 0.627418 0.000000
O O12 0.498543 0.756195 0.225617
O O13 0.586528 0.749074 0.000000
O O14 0.374775 0.811775 0.216738
O O15 0.333499 0.889255 0.000000
O O16 0.868852 0.019047 0.500000
O O17 0.863058 0.933423 0.716535
O O18 0.683796 0.358046 0.500000
O O19 0.614499 0.311140 0.268439
O O20 0.409729 0.731792 0.000000
#
# Coordination Sequence:
#
# PCOD8224627 Si02
#       8
#     8   8   8   8   8   8   8   8
#     4   9  17  30  49  75 104 129 160 207 255 299
#     4  10  18  32  55  78 101 132 169 209 254 303
#     4   9  16  29  50  74  97 122 160 206 247 291
#     4   9  19  34  51  74 103 133 168 212 255 296
#     4   9  17  30  51  76  98 127 168 208 249 301
#     4   8  16  30  47  70  98 125 157 200 248 296
#     4  10  20  34  52  76 104 132 167 210 255 305
#     4  10  20  35  53  73 101 136 173 211 251 298
#
# _framework density 18.350460999999999
#
# number of rings (size 3 to 8) (size 9 to 14) (size 15 to 20)
#    0.000    2.750    0.000    2.625    0.000    6.000 
#    0.000    6.875    0.000    7.500    0.000    0.000 
#    0.000    0.000    0.000    0.000    0.000    0.000 
#
# Total GULP energy -793459.975536 kJ/mol
# GULP energy per Si atom -12397.812118 kJ/mol
# Density = 1.830869 g / cm^3
# Si number density = 18.350461 Si / 1000 Ang^3
#
#
#
# Elastic Constant Matrix: (Units=GPa)
#
#
# Indices 1 2 3 4 5 6 
#
# 1 68.1115 61.6356 31.2274 0.0000 0.0000 0.0000
# 2 61.6356 179.4383 58.2217 0.0000 0.0000 0.0000
# 3 31.2274 58.2217 64.4956 0.0000 0.0000 0.0000
# 4 0.0000 0.0000 0.0000 19.8100 0.0000 0.0000
# 5 0.0000 0.0000 0.0000 0.0000 10.8561 0.0000
# 6 0.0000 0.0000 0.0000 0.0000 0.0000 2.7402
#
#
#
# Elastic Compliance Matrix: (Units=1/GPa)
#
#
# Indices 1 2 3 4 5 6 
#
# 1 0.022637 -0.005967 -0.005574 0.000000 0.000000 0.000000
# 2 -0.005967 0.009454 -0.005646 0.000000 0.000000 0.000000
# 3 -0.005574 -0.005646 0.023300 0.000000 0.000000 0.000000
# 4 0.000000 0.000000 0.000000 0.050480 0.000000 0.000000
# 5 0.000000 0.000000 0.000000 0.000000 0.092114 0.000000
# 6 0.000000 0.000000 0.000000 0.000000 0.000000 0.364938
#
#
# Mechanical properties :
#
#
# Convention : Reuss Voigt Hill
#
# Bulk Modulus (GPa) = 47.57685 68.24611 57.91148
# Shear Modulus (GPa) = 8.27401 17.41196 12.84298
#
# Velocity S-wave (km/s) = 2.12572 3.08369 2.64838
# Velocity P-wave (km/s) = 5.65756 7.06753 6.40148
#
# Compressibility (1/GPa) = 0.02101863
#
# Stress axis : x y z
#
# Youngs Moduli (GPa) = 44.17538 105.77076 42.91850
#
# Poissons Ratio (x) = 0.63115 0.23921
# Poissons Ratio (y) = 0.26360 0.24230
# Poissons Ratio (z) = 0.24622 0.59713
#
# Static dielectric constant tensor:
#      x y z
#    x 3.155990 0.000000 0.000000 
#    y 0.000000 3.754120 0.000000 
#    z 0.000000 0.000000 3.307460 
# 
# 
# High freq. dielectric constant tensor:
#      x y z
#    x 1.675400 0.000000 0.000000 
#    y 0.000000 1.731520 0.000000 
#    z 0.000000 0.000000 1.699720 
# 
# From -- ./inp_files/8006.got.cif
#   From: 2010.03.12/outbox.cif.g09.slc.cpg/sg55_5_cif.got.tgz:8006.got - 2010.04.16 15:19:21.
