data_PCOD8224457
_publ_section_title
;
Structure prediction by ZEFSAII (Michael W. Deem and Ramdas Pophale) SiO2 
 PCOD8224457
Probable space group: P B A M
;
_chemical_formula_sum "Si O2"
_cell_formula_units_Z 56
_cell_length_a 18.429182
_cell_length_b 20.893410
_cell_length_c 8.702366
_cell_angle_alpha 90.000000
_cell_angle_beta 90.000000
_cell_angle_gamma 90.000000
_cell_volume 3350.832587
_symmetry_space_group_name_H-M "P B A M"
_symmetry_group_IT_number 55
_symmetry_cell_setting 'orthorhombic'
loop_
_space_group_symop_operation_xyz
x,y,z
-x,-y,z
1/2+x,1/2-y,-z
1/2-x,1/2+y,-z
-x,-y,-z
x,y,-z
1/2-x,1/2+y,z
1/2+x,1/2-y,z
loop_
_atom_site_type_symbol
_atom_site_label
_atom_site_fract_x
_atom_site_fract_y
_atom_site_fract_z
Si Si1 0.082934 0.002858 0.677824
Si Si2 0.347345 0.624769 0.182564
Si Si3 0.351984 0.364842 0.321333
Si Si4 0.568780 0.753214 0.184036
Si Si5 0.295313 0.178858 0.167657
Si Si6 0.085326 0.249320 0.318338
Si Si7 0.283468 0.813444 0.170042
O O1 0.087502 0.022829 0.500000
O O2 0.120501 0.935813 0.710981
O O3 0.124534 0.055037 0.777992
O O4 0.000000 0.000000 0.732808
O O5 0.264037 0.632483 0.249495
O O6 0.398978 0.678393 0.255301
O O7 0.346609 0.635845 0.000000
O O8 0.354427 0.347012 0.500000
O O9 0.406030 0.317473 0.232679
O O10 0.269151 0.361616 0.261804
O O11 0.627092 0.806677 0.248323
O O12 0.492823 0.771456 0.258589
O O13 0.564599 0.755149 0.000000
O O14 0.256467 0.246709 0.152592
O O15 0.312080 0.150081 0.000000
O O16 0.086183 0.246492 0.500000
O O17 0.141752 0.303035 0.261522
O O18 0.300101 0.841421 0.000000
#
# Coordination Sequence:
#
# PCOD8224457 Si02
#       7
#     8   8   8   8   8   8   8
#     4  10  21  34  46  65  96 130 161 192 227 270
#     4  10  19  32  49  68  91 122 161 196 230 275
#     4  10  19  31  47  68  96 128 160 194 233 275
#     4  10  18  30  48  69  95 124 154 190 235 283
#     4   7  14  28  45  65  88 114 146 188 229 270
#     4  11  20  30  46  70  98 123 152 192 239 284
#     4   9  17  31  48  66  90 121 158 194 232 279
#
# _framework density 16.712263
#
# number of rings (size 3 to 8) (size 9 to 14) (size 15 to 20)
#    0.000    2.429    0.000    5.571    0.000    2.571 
#    0.000    2.143    0.000    0.000    0.000    1.000 
#    0.000    8.000    0.000    0.000    0.000    0.000 
#
# Total GULP energy -694006.613984 kJ/mol
# GULP energy per Si atom -12392.975250 kJ/mol
# Density = 1.667423 g / cm^3
# Si number density = 16.712263 Si / 1000 Ang^3
#
#
#
# Elastic Constant Matrix: (Units=GPa)
#
#
# Indices 1 2 3 4 5 6 
#
# 1 155.4283 55.0216 50.5468 0.0000 0.0000 0.0000
# 2 55.0216 58.5091 28.7754 0.0000 0.0000 0.0000
# 3 50.5468 28.7754 88.6218 0.0000 0.0000 0.0000
# 4 0.0000 0.0000 0.0000 20.0265 0.0000 0.0000
# 5 0.0000 0.0000 0.0000 0.0000 27.4356 0.0000
# 6 0.0000 0.0000 0.0000 0.0000 0.0000 26.4065
#
#
#
# Elastic Compliance Matrix: (Units=1/GPa)
#
#
# Indices 1 2 3 4 5 6 
#
# 1 0.010386 -0.008156 -0.003276 0.000000 0.000000 0.000000
# 2 -0.008156 0.026744 -0.004032 0.000000 0.000000 0.000000
# 3 -0.003276 -0.004032 0.014461 0.000000 0.000000 0.000000
# 4 0.000000 0.000000 0.000000 0.049934 0.000000 0.000000
# 5 0.000000 0.000000 0.000000 0.000000 0.036449 0.000000
# 6 0.000000 0.000000 0.000000 0.000000 0.000000 0.037869
#
#
# Mechanical properties :
#
#
# Convention : Reuss Voigt Hill
#
# Bulk Modulus (GPa) = 48.39204 63.47186 55.93195
# Shear Modulus (GPa) = 23.40164 25.98810 24.69487
#
# Velocity S-wave (km/s) = 3.74607 3.94767 3.84819
# Velocity P-wave (km/s) = 6.90866 7.67075 7.29966
#
# Compressibility (1/GPa) = 0.02066456
#
# Stress axis : x y z
#
# Youngs Moduli (GPa) = 96.27912 37.39106 69.14968
#
# Poissons Ratio (x) = 0.30497 0.22652
# Poissons Ratio (y) = 0.78528 0.27880
# Poissons Ratio (z) = 0.31539 0.15075
#
# Static dielectric constant tensor:
#      x y z
#    x 3.564030 0.000000 0.000000 
#    y 0.000000 2.841290 0.000000 
#    z 0.000000 0.000000 3.165130 
# 
# 
# High freq. dielectric constant tensor:
#      x y z
#    x 1.655700 0.000000 0.000000 
#    y 0.000000 1.598940 0.000000 
#    z 0.000000 0.000000 1.645940 
# 
# From -- ./inp_files/7868.got.cif
#   From: 2010.03.12/outbox.cif.g09.slc.cpg/sg55_4_cif.got.tgz:7868.got - 2010.04.16 15:19:21.
