data_PCOD8224925
_publ_section_title
;
Structure prediction by ZEFSAII (Michael W. Deem and Ramdas Pophale) SiO2 
 PCOD8224925
Probable space group: P B A M
;
_chemical_formula_sum "Si O2"
_cell_formula_units_Z 56
_cell_length_a 18.898150
_cell_length_b 18.324371
_cell_length_c 8.874440
_cell_angle_alpha 90.000000
_cell_angle_beta 90.000000
_cell_angle_gamma 90.000000
_cell_volume 3073.189391
_symmetry_space_group_name_H-M "P B A M"
_symmetry_group_IT_number 55
_symmetry_cell_setting 'orthorhombic'
loop_
_space_group_symop_operation_xyz
x,y,z
-x,-y,z
1/2+x,1/2-y,-z
1/2-x,1/2+y,-z
-x,-y,-z
x,y,-z
1/2-x,1/2+y,z
1/2+x,1/2-y,z
loop_
_atom_site_type_symbol
_atom_site_label
_atom_site_fract_x
_atom_site_fract_y
_atom_site_fract_z
Si Si1 0.864612 0.462021 0.679325
Si Si2 0.116616 0.814735 0.175472
Si Si3 0.547917 0.838304 0.171832
Si Si4 0.284403 0.509836 0.335629
Si Si5 0.243526 0.342063 0.666749
Si Si6 0.107818 0.386756 0.175024
Si Si7 0.428480 0.461796 0.319416
O O1 0.861725 0.473276 0.500000
O O2 0.909641 0.391668 0.718849
O O3 0.783306 0.451610 0.744040
O O4 0.899745 0.533705 0.750356
O O5 0.069779 0.743902 0.207580
O O6 0.194693 0.800410 0.243047
O O7 0.074896 0.880859 0.253429
O O8 0.124803 0.832058 0.000000
O O9 0.464824 0.844116 0.203678
O O10 0.565769 0.860035 0.000000
O O11 0.293295 0.545628 0.500000
O O12 0.264358 0.425550 0.348787
O O13 0.361865 0.511051 0.256075
O O14 0.235741 0.307097 0.500000
O O15 0.168989 0.336359 0.753429
O O16 0.124510 0.397871 0.000000
O O17 0.500000 0.500000 0.263845
O O18 0.423919 0.456311 0.500000
#
# Coordination Sequence:
#
# PCOD8224925 Si02
#       7
#     8   8   8   8   8   8   8
#     4  10  19  31  50  75 103 136 176 220 259 301
#     4  10  20  35  53  73 101 138 176 212 257 313
#     4  10  22  36  49  71 106 142 173 210 257 311
#     4   7  13  27  46  70  97 121 152 198 249 299
#     4   9  17  32  53  75  97 123 163 211 253 301
#     4  10  19  33  53  75 102 137 173 210 256 307
#     4   9  17  32  55  78 101 131 168 216 268 311
#
# _framework density 18.222111999999999
#
# number of rings (size 3 to 8) (size 9 to 14) (size 15 to 20)
#    0.000    2.714    0.000    3.857    0.000    4.286 
#    0.000    2.143    0.000    3.429    0.000    0.000 
#    0.000    0.000    0.000    0.000    0.000    0.000 
#
# Total GULP energy -693981.656067 kJ/mol
# GULP energy per Si atom -12392.529573 kJ/mol
# Density = 1.818064 g / cm^3
# Si number density = 18.222112 Si / 1000 Ang^3
#
#
#
# Elastic Constant Matrix: (Units=GPa)
#
#
# Indices 1 2 3 4 5 6 
#
# 1 165.3791 60.5572 55.2119 0.0000 0.0000 0.0000
# 2 60.5572 66.3332 35.9124 0.0000 0.0000 0.0000
# 3 55.2119 35.9124 83.3664 0.0000 0.0000 0.0000
# 4 0.0000 0.0000 0.0000 20.6079 0.0000 0.0000
# 5 0.0000 0.0000 0.0000 0.0000 27.2355 0.0000
# 6 0.0000 0.0000 0.0000 0.0000 0.0000 22.2634
#
#
#
# Elastic Compliance Matrix: (Units=1/GPa)
#
#
# Indices 1 2 3 4 5 6 
#
# 1 0.009782 -0.007072 -0.003432 0.000000 0.000000 0.000000
# 2 -0.007072 0.024774 -0.005988 0.000000 0.000000 0.000000
# 3 -0.003432 -0.005988 0.016848 0.000000 0.000000 0.000000
# 4 0.000000 0.000000 0.000000 0.048525 0.000000 0.000000
# 5 0.000000 0.000000 0.000000 0.000000 0.036717 0.000000
# 6 0.000000 0.000000 0.000000 0.000000 0.000000 0.044917
#
#
# Mechanical properties :
#
#
# Convention : Reuss Voigt Hill
#
# Bulk Modulus (GPa) = 54.29212 68.71572 61.50392
# Shear Modulus (GPa) = 22.65654 24.91451 23.78553
#
# Velocity S-wave (km/s) = 3.52995 3.70167 3.61683
# Velocity P-wave (km/s) = 6.81714 7.48744 7.16014
#
# Compressibility (1/GPa) = 0.01841888
#
# Stress axis : x y z
#
# Youngs Moduli (GPa) = 102.22701 40.36516 59.35535
#
# Poissons Ratio (x) = 0.28548 0.20370
# Poissons Ratio (y) = 0.72298 0.35543
# Poissons Ratio (z) = 0.35083 0.24171
#
# Static dielectric constant tensor:
#      x y z
#    x 3.884310 0.000000 0.000000 
#    y 0.000000 2.966890 0.000000 
#    z 0.000000 0.000000 3.364230 
# 
# 
# High freq. dielectric constant tensor:
#      x y z
#    x 1.726180 0.000000 0.000000 
#    y 0.000000 1.665960 0.000000 
#    z 0.000000 0.000000 1.699660 
# 
# From -- ./inp_files/8737.got.cif
#   From: 2010.03.12/outbox.cif.g09.slc.cpg/sg55_5_cif.got.tgz:8737.got - 2010.04.16 15:19:21.
