data_PCOD8224794
_publ_section_title
;
Structure prediction by ZEFSAII (Michael W. Deem and Ramdas Pophale) SiO2 
 PCOD8224794
Probable space group: P B A M
;
_chemical_formula_sum "Si O2"
_cell_formula_units_Z 64
_cell_length_a 19.045571
_cell_length_b 20.678645
_cell_length_c 9.088056
_cell_angle_alpha 90.000000
_cell_angle_beta 90.000000
_cell_angle_gamma 90.000000
_cell_volume 3579.209090
_symmetry_space_group_name_H-M "P B A M"
_symmetry_group_IT_number 55
_symmetry_cell_setting 'orthorhombic'
loop_
_space_group_symop_operation_xyz
x,y,z
-x,-y,z
1/2+x,1/2-y,-z
1/2-x,1/2+y,-z
-x,-y,-z
x,y,-z
1/2-x,1/2+y,z
1/2+x,1/2-y,z
loop_
_atom_site_type_symbol
_atom_site_label
_atom_site_fract_x
_atom_site_fract_y
_atom_site_fract_z
Si Si1 0.030861 0.807223 0.669511
Si Si2 0.668958 0.135984 0.672380
Si Si3 0.332013 0.503201 0.170670
Si Si4 0.327606 0.370592 0.330675
Si Si5 0.960446 0.689208 0.825080
Si Si6 0.454185 0.560351 0.328459
Si Si7 0.037402 0.562935 0.828415
Si Si8 0.325690 0.997026 0.830639
O O1 0.016466 0.788760 0.500000
O O2 0.114552 0.814979 0.698795
O O3 0.000264 0.753209 0.775366
O O4 0.993231 0.873930 0.711953
O O5 0.652966 0.138749 0.500000
O O6 0.749777 0.156143 0.707101
O O7 0.617490 0.185845 0.755332
O O8 0.654733 0.063748 0.729720
O O9 0.347277 0.432376 0.234154
O O10 0.379593 0.557849 0.246094
O O11 0.251712 0.523449 0.202799
O O12 0.349476 0.501205 0.000000
O O13 0.331416 0.393504 0.500000
O O14 0.006321 0.628990 0.761816
O O15 0.953661 0.689818 0.000000
O O16 0.500000 0.500000 0.271954
O O17 0.439196 0.554372 0.500000
O O18 0.120751 0.555967 0.797515
O O19 0.000000 0.500000 0.758016
O O20 0.020167 0.564947 0.000000
O O21 0.332803 0.973729 0.000000
#
# Coordination Sequence:
#
# PCOD8224794 Si02
#       8
#     8   8   8   8   8   8   8   8
#     4  10  21  38  57  77 105 141 180 223 266 318
#     4  10  19  32  54  81 107 138 179 222 264 317
#     4  10  19  29  50  83 113 135 169 227 273 311
#     4   9  18  35  56  76 104 143 181 216 264 325
#     4  11  22  36  55  79 109 144 179 220 269 323
#     4  10  19  35  57  76 101 140 179 214 263 323
#     4   9  16  31  55  76 100 138 177 209 255 319
#     4   9  17  32  52  77 108 141 176 217 270 319
#
# _framework density 17.881045
#
# number of rings (size 3 to 8) (size 9 to 14) (size 15 to 20)
#    0.000    2.250    2.500    1.125    0.000    2.250 
#    0.000    3.125    0.000    3.000    0.000    0.000 
#    0.000    0.000    0.000    0.000    0.000    0.000 
#
# Total GULP energy -793530.279403 kJ/mol
# GULP energy per Si atom -12398.910616 kJ/mol
# Density = 1.784035 g / cm^3
# Si number density = 17.881045 Si / 1000 Ang^3
#
#
#
# Elastic Constant Matrix: (Units=GPa)
#
#
# Indices 1 2 3 4 5 6 
#
# 1 138.3400 60.4957 51.0166 0.0000 0.0000 0.0000
# 2 60.4957 92.7537 40.1640 0.0000 0.0000 0.0000
# 3 51.0166 40.1640 63.9107 0.0000 0.0000 0.0000
# 4 0.0000 0.0000 0.0000 26.4350 0.0000 0.0000
# 5 0.0000 0.0000 0.0000 0.0000 28.4874 0.0000
# 6 0.0000 0.0000 0.0000 0.0000 0.0000 27.3108
#
#
#
# Elastic Compliance Matrix: (Units=1/GPa)
#
#
# Indices 1 2 3 4 5 6 
#
# 1 0.011677 -0.004918 -0.006230 0.000000 0.000000 0.000000
# 2 -0.004918 0.016883 -0.006684 0.000000 0.000000 0.000000
# 3 -0.006230 -0.006684 0.024821 0.000000 0.000000 0.000000
# 4 0.000000 0.000000 0.000000 0.037829 0.000000 0.000000
# 5 0.000000 0.000000 0.000000 0.000000 0.035103 0.000000
# 6 0.000000 0.000000 0.000000 0.000000 0.000000 0.036616
#
#
# Mechanical properties :
#
#
# Convention : Reuss Voigt Hill
#
# Bulk Modulus (GPa) = 56.44726 66.48410 61.46568
# Shear Modulus (GPa) = 24.45002 26.00186 25.22594
#
# Velocity S-wave (km/s) = 3.70181 3.81748 3.76009
# Velocity P-wave (km/s) = 7.06455 7.52947 7.30071
#
# Compressibility (1/GPa) = 0.01771565
#
# Stress axis : x y z
#
# Youngs Moduli (GPa) = 85.64006 59.23015 40.28861
#
# Poissons Ratio (x) = 0.29129 0.25101
# Poissons Ratio (y) = 0.42118 0.26930
# Poissons Ratio (z) = 0.53357 0.39592
#
# Static dielectric constant tensor:
#      x y z
#    x 3.629540 0.000000 0.000000 
#    y 0.000000 3.059750 0.000000 
#    z 0.000000 0.000000 3.211140 
# 
# 
# High freq. dielectric constant tensor:
#      x y z
#    x 1.710490 0.000000 0.000000 
#    y 0.000000 1.657840 0.000000 
#    z 0.000000 0.000000 1.683490 
# 
# From -- ./inp_files/8999.got.cif
#   From: 2010.03.12/outbox.cif.g09.slc.cpg/sg55_5_cif.got.tgz:8999.got - 2010.04.16 15:19:21.
