data_PCOD8224046
_publ_section_title
;
Structure prediction by ZEFSAII (Michael W. Deem and Ramdas Pophale) SiO2 
 PCOD8224046
Probable space group: P C C A
;
_chemical_formula_sum "Si O2"
_cell_formula_units_Z 20
_cell_length_a 4.879028
_cell_length_b 14.948279
_cell_length_c 11.164433
_cell_angle_alpha 90.000000
_cell_angle_beta 90.000000
_cell_angle_gamma 90.000000
_cell_volume 814.256394
_symmetry_space_group_name_H-M "P C C A"
_symmetry_group_IT_number 54
_symmetry_cell_setting 'orthorhombic'
loop_
_space_group_symop_operation_xyz
x,y,z
1/2-x,-y,z
1/2+x,-y,1/2-z
-x,y,1/2-z
-x,-y,-z
1/2+x,y,-z
1/2-x,y,1/2+z
x,-y,1/2+z
loop_
_atom_site_type_symbol
_atom_site_label
_atom_site_fract_x
_atom_site_fract_y
_atom_site_fract_z
Si Si1 0.000000 0.644191 0.250000
Si Si2 0.250000 0.500000 0.089635
Si Si3 0.291686 0.791854 0.921394
Si Si4 0.500000 0.058605 0.250000
O O1 0.221368 0.585163 0.177212
O O2 0.169879 0.704659 0.341263
O O3 0.500000 0.500000 0.000000
O O4 0.365726 0.882590 0.853890
O O5 0.473249 0.789418 0.042218
O O6 0.250000 0.000000 0.196101
#
# Coordination Sequence:
#
# PCOD8224046 Si02
#       4
#     4   4   8   4
#     4  11  26  46  69 100 138 178 231 286 342 411
#     4  12  26  44  70 100 134 178 228 284 344 406
#     4  11  25  44  68  97 135 179 223 277 342 407
#     4  11  24  42  67 100 134 172 223 278 334 405
#
# _framework density 24.562287999999999
#
# number of rings (size 3 to 8) (size 9 to 14) (size 15 to 20)
#    0.000    0.800    0.000    6.000    0.000   16.000 
#    0.000    0.000    0.000    0.000    0.000    0.000 
#    0.000    0.000    0.000    0.000    0.000    0.000 
#
# Total GULP energy -248087.173351 kJ/mol
# GULP energy per Si atom -12404.358668 kJ/mol
# Density = 2.450638 g / cm^3
# Si number density = 24.562288 Si / 1000 Ang^3
#
#
#
# Elastic Constant Matrix: (Units=GPa)
#
#
# Indices 1 2 3 4 5 6 
#
# 1 105.6217 30.3883 25.0477 0.0000 0.0000 0.0000
# 2 30.3883 152.9637 52.9736 0.0000 0.0000 0.0000
# 3 25.0477 52.9736 115.0793 0.0000 0.0000 0.0000
# 4 0.0000 0.0000 0.0000 42.0547 0.0000 0.0000
# 5 0.0000 0.0000 0.0000 0.0000 40.8636 0.0000
# 6 0.0000 0.0000 0.0000 0.0000 0.0000 29.2647
#
#
#
# Elastic Compliance Matrix: (Units=1/GPa)
#
#
# Indices 1 2 3 4 5 6 
#
# 1 0.010267 -0.001506 -0.001541 0.000000 0.000000 0.000000
# 2 -0.001506 0.007998 -0.003354 0.000000 0.000000 0.000000
# 3 -0.001541 -0.003354 0.010569 0.000000 0.000000 0.000000
# 4 0.000000 0.000000 0.000000 0.023779 0.000000 0.000000
# 5 0.000000 0.000000 0.000000 0.000000 0.024472 0.000000
# 6 0.000000 0.000000 0.000000 0.000000 0.000000 0.034171
#
#
# Mechanical properties :
#
#
# Convention : Reuss Voigt Hill
#
# Bulk Modulus (GPa) = 62.37764 65.60932 63.99348
# Shear Modulus (GPa) = 38.63955 40.12027 39.37991
#
# Velocity S-wave (km/s) = 3.97057 4.04593 4.00843
# Velocity P-wave (km/s) = 6.81699 6.97104 6.89445
#
# Compressibility (1/GPa) = 0.01603139
#
# Stress axis : x y z
#
# Youngs Moduli (GPa) = 97.40400 125.02847 94.61554
#
# Poissons Ratio (x) = 0.18826 0.14584
# Poissons Ratio (y) = 0.14667 0.31734
# Poissons Ratio (z) = 0.15014 0.41935
#
# Static dielectric constant tensor:
#      x y z
#    x 4.340610 0.000000 0.000000 
#    y 0.000000 4.739970 0.000000 
#    z 0.000000 0.000000 5.302440 
# 
# 
# High freq. dielectric constant tensor:
#      x y z
#    x 1.982970 0.000000 0.000000 
#    y 0.000000 1.994570 0.000000 
#    z 0.000000 0.000000 1.986810 
# 
# From -- ./inp_files/2318.got.cif
#   From: 2010.03.12/outbox.cif.g09.slc.cpg/sg54_2_cif.got.tgz:2318.got - 2010.04.16 15:00:50.
