data_PCOD8224026
_publ_section_title
;
Structure prediction by ZEFSAII (Michael W. Deem and Ramdas Pophale) SiO2 
 PCOD8224026
Probable space group: P C C A
;
_chemical_formula_sum "Si O2"
_cell_formula_units_Z 24
_cell_length_a 15.875696
_cell_length_b 7.127155
_cell_length_c 9.197892
_cell_angle_alpha 90.000000
_cell_angle_beta 90.000000
_cell_angle_gamma 90.000000
_cell_volume 1040.728107
_symmetry_space_group_name_H-M "P C C A"
_symmetry_group_IT_number 54
_symmetry_cell_setting 'orthorhombic'
loop_
_space_group_symop_operation_xyz
x,y,z
1/2-x,-y,z
1/2+x,-y,1/2-z
-x,y,1/2-z
-x,-y,-z
1/2+x,y,-z
1/2-x,y,1/2+z
x,-y,1/2+z
loop_
_atom_site_type_symbol
_atom_site_label
_atom_site_fract_x
_atom_site_fract_y
_atom_site_fract_z
Si Si1 0.058959 0.593814 0.877764
Si Si2 0.157141 0.934037 0.016658
Si Si3 0.093727 0.203223 0.803860
O O1 0.124648 0.745202 0.937744
O O2 0.116081 0.423719 0.813741
O O3 0.000000 0.680716 0.750000
O O4 0.000000 0.500000 0.000000
O O5 0.250000 0.000000 0.970358
O O6 0.098748 0.105562 0.962109
O O7 0.154285 0.903657 0.189693
O O8 0.000000 0.179240 0.750000
#
# Coordination Sequence:
#
# PCOD8224026 Si02
#       3
#     8   8   8
#     4  11  23  45  74 110 139 193 253 296 357 452
#     4  12  26  44  68 110 150 189 241 314 374 423
#     4  11  24  44  73 103 143 197 249 295 360 448
#
# _framework density 23.060776000000001
#
# number of rings (size 3 to 8) (size 9 to 14) (size 15 to 20)
#    0.000    0.667    6.667    3.000    4.667    1.333 
#    0.000    3.333    0.000    0.000    0.000    0.000 
#    0.000    0.000    0.000    0.000    0.000    0.000 
#
# Total GULP energy -297492.579689 kJ/mol
# GULP energy per Si atom -12395.524154 kJ/mol
# Density = 2.300829 g / cm^3
# Si number density = 23.060776 Si / 1000 Ang^3
#
#
#
# Elastic Constant Matrix: (Units=GPa)
#
#
# Indices 1 2 3 4 5 6 
#
# 1 93.8101 61.7773 26.8499 0.0000 0.0000 0.0000
# 2 61.7773 123.1575 30.8466 0.0000 0.0000 0.0000
# 3 26.8499 30.8466 104.5370 0.0000 0.0000 0.0000
# 4 0.0000 0.0000 0.0000 43.1330 0.0000 0.0000
# 5 0.0000 0.0000 0.0000 0.0000 30.4426 0.0000
# 6 0.0000 0.0000 0.0000 0.0000 0.0000 36.3226
#
#
#
# Elastic Compliance Matrix: (Units=1/GPa)
#
#
# Indices 1 2 3 4 5 6 
#
# 1 0.016264 -0.007680 -0.001911 0.000000 0.000000 0.000000
# 2 -0.007680 0.012394 -0.001685 0.000000 0.000000 0.000000
# 3 -0.001911 -0.001685 0.010554 0.000000 0.000000 0.000000
# 4 0.000000 0.000000 0.000000 0.023184 0.000000 0.000000
# 5 0.000000 0.000000 0.000000 0.000000 0.032849 0.000000
# 6 0.000000 0.000000 0.000000 0.000000 0.000000 0.027531
#
#
# Mechanical properties :
#
#
# Convention : Reuss Voigt Hill
#
# Bulk Modulus (GPa) = 60.02093 62.27246 61.14670
# Shear Modulus (GPa) = 33.13879 35.44836 34.29358
#
# Velocity S-wave (km/s) = 3.79492 3.92493 3.86047
# Velocity P-wave (km/s) = 6.72946 6.89945 6.81498
#
# Compressibility (1/GPa) = 0.01666085
#
# Stress axis : x y z
#
# Youngs Moduli (GPa) = 61.48494 80.68551 94.75066
#
# Poissons Ratio (x) = 0.61963 0.18110
# Poissons Ratio (y) = 0.47218 0.15962
# Poissons Ratio (z) = 0.11752 0.13593
#
# Static dielectric constant tensor:
#      x y z
#    x 3.793060 0.000000 0.000000 
#    y 0.000000 4.865820 0.000000 
#    z 0.000000 0.000000 4.900360 
# 
# 
# High freq. dielectric constant tensor:
#      x y z
#    x 1.881260 0.000000 0.000000 
#    y 0.000000 1.925540 0.000000 
#    z 0.000000 0.000000 1.930210 
# 
# From -- ./inp_files/3139.got.cif
#   From: 2010.03.12/outbox.cif.g09.slc.cpg/sg54_2_cif.got.tgz:3139.got - 2010.04.16 15:00:50.
