data_PCOD8224453
_publ_section_title
;
Structure prediction by ZEFSAII (Michael W. Deem and Ramdas Pophale) SiO2 
 PCOD8224453
Probable space group: P B A M
;
_chemical_formula_sum "Si O2"
_cell_formula_units_Z 64
_cell_length_a 23.008320
_cell_length_b 18.925096
_cell_length_c 9.388948
_cell_angle_alpha 90.000000
_cell_angle_beta 90.000000
_cell_angle_gamma 90.000000
_cell_volume 4088.273425
_symmetry_space_group_name_H-M "P B A M"
_symmetry_group_IT_number 55
_symmetry_cell_setting 'orthorhombic'
loop_
_space_group_symop_operation_xyz
x,y,z
-x,-y,z
1/2+x,1/2-y,-z
1/2-x,1/2+y,-z
-x,-y,-z
x,y,-z
1/2-x,1/2+y,z
1/2+x,1/2-y,z
loop_
_atom_site_type_symbol
_atom_site_label
_atom_site_fract_x
_atom_site_fract_y
_atom_site_fract_z
Si Si1 0.733089 0.643701 0.163271
Si Si2 0.333348 0.220853 0.163748
Si Si3 0.553490 0.857754 0.837381
Si Si4 0.250965 0.510923 0.164660
Si Si5 0.329164 0.782169 0.662215
Si Si6 0.883792 0.504904 0.835632
Si Si7 0.764876 0.855412 0.333000
Si Si8 0.939289 0.632525 0.665710
O O1 0.679268 0.696311 0.195766
O O2 0.716242 0.562943 0.200108
O O3 0.790359 0.665004 0.247283
O O4 0.752202 0.648123 0.000000
O O5 0.400868 0.205448 0.192715
O O6 0.294958 0.172342 0.265925
O O7 0.317736 0.201199 0.000000
O O8 0.500068 0.844990 0.733271
O O9 0.584148 0.931731 0.804419
O O10 0.531385 0.855610 0.000000
O O11 0.183383 0.503373 0.205976
O O12 0.281649 0.570405 0.260678
O O13 0.257839 0.532304 0.000000
O O14 0.311156 0.796195 0.500000
O O15 0.316574 0.700278 0.700839
O O16 0.396374 0.800779 0.689249
O O17 0.913960 0.562946 0.738334
O O18 0.890479 0.527570 0.000000
O O19 0.755545 0.866868 0.500000
O O20 0.948226 0.615807 0.500000
#
# Coordination Sequence:
#
# PCOD8224453 Si02
#       8
#     8   8   8   8   8   8   8   8
#     4   9  17  29  50  71  90 117 152 188 227 277
#     4   9  17  32  49  68  91 119 152 191 232 271
#     4  10  20  33  47  63  91 126 157 188 225 269
#     4  10  18  30  47  71  97 123 152 185 227 276
#     4   9  19  33  45  64  93 121 151 192 234 267
#     4  10  19  32  46  65  94 127 157 186 222 267
#     4  10  19  30  47  68  92 122 152 186 231 277
#     4  11  22  33  46  65  91 123 161 198 225 259
#
# _framework density 15.654531
#
# number of rings (size 3 to 8) (size 9 to 14) (size 15 to 20)
#    0.000    2.250    2.500    1.125    0.000    4.500 
#    0.000    0.000    0.000    0.000    0.000    0.875 
#    0.000    7.000    0.000    0.000    0.000    0.000 
#
# Total GULP energy -793538.904097 kJ/mol
# GULP energy per Si atom -12399.045377 kJ/mol
# Density = 1.561890 g / cm^3
# Si number density = 15.654531 Si / 1000 Ang^3
#
#
#
# Elastic Constant Matrix: (Units=GPa)
#
#
# Indices 1 2 3 4 5 6 
#
# 1 72.9158 50.1957 41.3169 0.0000 0.0000 0.0000
# 2 50.1957 113.8438 55.7920 0.0000 0.0000 0.0000
# 3 41.3169 55.7920 73.6501 0.0000 0.0000 0.0000
# 4 0.0000 0.0000 0.0000 23.3260 0.0000 0.0000
# 5 0.0000 0.0000 0.0000 0.0000 20.6965 0.0000
# 6 0.0000 0.0000 0.0000 0.0000 0.0000 20.0587
#
#
#
# Elastic Compliance Matrix: (Units=1/GPa)
#
#
# Indices 1 2 3 4 5 6 
#
# 1 0.022347 -0.005900 -0.008067 0.000000 0.000000 0.000000
# 2 -0.005900 0.015528 -0.008453 0.000000 0.000000 0.000000
# 3 -0.008067 -0.008453 0.024507 0.000000 0.000000 0.000000
# 4 0.000000 0.000000 0.000000 0.042871 0.000000 0.000000
# 5 0.000000 0.000000 0.000000 0.000000 0.048317 0.000000
# 6 0.000000 0.000000 0.000000 0.000000 0.000000 0.049854
#
#
# Mechanical properties :
#
#
# Convention : Reuss Voigt Hill
#
# Bulk Modulus (GPa) = 57.00734 61.66877 59.33806
# Shear Modulus (GPa) = 19.67644 20.35658 20.01651
#
# Velocity S-wave (km/s) = 3.54915 3.60997 3.57969
# Velocity P-wave (km/s) = 7.30001 7.54022 7.42109
#
# Compressibility (1/GPa) = 0.01754160
#
# Stress axis : x y z
#
# Youngs Moduli (GPa) = 44.74868 64.40015 40.80475
#
# Poissons Ratio (x) = 0.37994 0.32919
# Poissons Ratio (y) = 0.26400 0.34493
# Poissons Ratio (z) = 0.36100 0.54439
#
# Static dielectric constant tensor:
#      x y z
#    x 2.853990 0.000000 0.000000 
#    y 0.000000 3.200120 0.000000 
#    z 0.000000 0.000000 3.073270 
# 
# 
# High freq. dielectric constant tensor:
#      x y z
#    x 1.570570 0.000000 0.000000 
#    y 0.000000 1.600210 0.000000 
#    z 0.000000 0.000000 1.607540 
# 
# From -- ./inp_files/8148.got.cif
#   From: 2010.03.12/outbox.cif.g09.slc.cpg/sg55_5_cif.got.tgz:8148.got - 2010.04.16 15:19:21.
