data_PCOD8224853
_publ_section_title
;
Structure prediction by ZEFSAII (Michael W. Deem and Ramdas Pophale) SiO2 
 PCOD8224853
Probable space group: P B A M
;
_chemical_formula_sum "Si O2"
_cell_formula_units_Z 64
_cell_length_a 10.060651
_cell_length_b 21.439293
_cell_length_c 16.545286
_cell_angle_alpha 90.000000
_cell_angle_beta 90.000000
_cell_angle_gamma 90.000000
_cell_volume 3568.706420
_symmetry_space_group_name_H-M "P B A M"
_symmetry_group_IT_number 55
_symmetry_cell_setting 'orthorhombic'
loop_
_space_group_symop_operation_xyz
x,y,z
-x,-y,z
1/2+x,1/2-y,-z
1/2-x,1/2+y,-z
-x,-y,-z
x,y,-z
1/2-x,1/2+y,z
1/2+x,1/2-y,z
loop_
_atom_site_type_symbol
_atom_site_label
_atom_site_fract_x
_atom_site_fract_y
_atom_site_fract_z
Si Si1 0.443494 0.354682 0.227734
Si Si2 0.373725 0.236776 0.684611
Si Si3 0.770279 0.581158 0.329540
Si Si4 0.608939 0.550835 0.093687
Si Si5 0.850430 0.502108 0.182478
Si Si6 0.859313 0.973203 0.407902
Si Si7 0.633629 0.203737 0.404220
Si Si8 0.232866 0.114841 0.728394
O O1 0.390180 0.283727 0.238656
O O2 0.373583 0.394726 0.298743
O O3 0.405458 0.383799 0.141063
O O4 0.602173 0.355501 0.232195
O O5 0.261765 0.257801 0.622049
O O6 0.508093 0.238349 0.633453
O O7 0.342327 0.168354 0.717736
O O8 0.850600 0.552218 0.254788
O O9 0.746412 0.528939 0.397609
O O10 0.860243 0.633795 0.369826
O O11 0.500000 0.500000 0.124074
O O12 0.755175 0.523297 0.109620
O O13 0.589594 0.565793 0.000000
O O14 0.798136 0.435705 0.213111
O O15 0.000000 0.500000 0.148301
O O16 0.867142 0.950812 0.500000
O O17 0.811087 0.914112 0.357031
O O18 0.000000 0.000000 0.377058
O O19 0.622080 0.202238 0.500000
#
# Coordination Sequence:
#
# PCOD8224853 Si02
#       8
#     8   8   8   8   8   8   8   8
#     4  10  19  37  57  81 112 149 191 237 273 342
#     4  11  23  38  55  79 105 158 206 234 284 335
#     4   9  19  33  53  76 108 146 189 228 293 346
#     4  10  20  36  65  96 118 144 179 226 290 350
#     4  10  20  34  58  89 118 146 178 229 282 347
#     4  10  19  30  50  80 114 146 188 244 304 349
#     4  11  22  36  52  75 111 147 195 250 289 329
#     4  11  20  36  57  80 114 149 197 241 279 335
#
# _framework density 17.933669999999999
#
# number of rings (size 3 to 8) (size 9 to 14) (size 15 to 20)
#    0.000    1.750    3.750    1.500    0.000    1.250 
#    0.000    0.000    0.000    5.625    0.000    0.000 
#    0.000    0.000    0.000    0.000    0.000    0.000 
#
# Total GULP energy -793628.037345 kJ/mol
# GULP energy per Si atom -12400.438084 kJ/mol
# Density = 1.789285 g / cm^3
# Si number density = 17.933670 Si / 1000 Ang^3
#
#
#
# Elastic Constant Matrix: (Units=GPa)
#
#
# Indices 1 2 3 4 5 6 
#
# 1 113.4823 31.6079 29.1035 0.0000 0.0000 0.0000
# 2 31.6079 104.9234 43.5691 0.0000 0.0000 0.0000
# 3 29.1035 43.5691 79.9015 0.0000 0.0000 0.0000
# 4 0.0000 0.0000 0.0000 20.3652 0.0000 0.0000
# 5 0.0000 0.0000 0.0000 0.0000 16.4096 0.0000
# 6 0.0000 0.0000 0.0000 0.0000 0.0000 29.5602
#
#
#
# Elastic Compliance Matrix: (Units=1/GPa)
#
#
# Indices 1 2 3 4 5 6 
#
# 1 0.010017 -0.001942 -0.002590 0.000000 0.000000 0.000000
# 2 -0.001942 0.012697 -0.006216 0.000000 0.000000 0.000000
# 3 -0.002590 -0.006216 0.016848 0.000000 0.000000 0.000000
# 4 0.000000 0.000000 0.000000 0.049103 0.000000 0.000000
# 5 0.000000 0.000000 0.000000 0.000000 0.060940 0.000000
# 6 0.000000 0.000000 0.000000 0.000000 0.000000 0.033829
#
#
# Mechanical properties :
#
#
# Convention : Reuss Voigt Hill
#
# Bulk Modulus (GPa) = 55.35109 56.31867 55.83488
# Shear Modulus (GPa) = 23.70199 26.20211 24.95205
#
# Velocity S-wave (km/s) = 3.63939 3.82652 3.73413
# Velocity P-wave (km/s) = 6.97077 7.14109 7.05644
#
# Compressibility (1/GPa) = 0.01806649
#
# Stress axis : x y z
#
# Youngs Moduli (GPa) = 99.82988 78.75831 59.35374
#
# Poissons Ratio (x) = 0.15297 0.15370
# Poissons Ratio (y) = 0.19390 0.36895
# Poissons Ratio (z) = 0.25851 0.48957
#
# Static dielectric constant tensor:
#      x y z
#    x 3.356240 0.000000 0.000000 
#    y 0.000000 3.393600 0.000000 
#    z 0.000000 0.000000 2.967540 
# 
# 
# High freq. dielectric constant tensor:
#      x y z
#    x 1.702710 0.000000 0.000000 
#    y 0.000000 1.696800 0.000000 
#    z 0.000000 0.000000 1.663960 
# 
# From -- ./inp_files/21137.got.cif
#   From: 2010.03.12/outbox.cif.g09.slc.cpg/sg55_11_cif.got.tgz:21137.got - 2010.04.16 15:19:21.
