data_PCOD8224509
_publ_section_title
;
Structure prediction by ZEFSAII (Michael W. Deem and Ramdas Pophale) SiO2 
 PCOD8224509
Probable space group: P B A M
;
_chemical_formula_sum "Si O2"
_cell_formula_units_Z 64
_cell_length_a 14.486980
_cell_length_b 17.558541
_cell_length_c 13.767020
_cell_angle_alpha 90.000000
_cell_angle_beta 90.000000
_cell_angle_gamma 90.000000
_cell_volume 3501.920075
_symmetry_space_group_name_H-M "P B A M"
_symmetry_group_IT_number 55
_symmetry_cell_setting 'orthorhombic'
loop_
_space_group_symop_operation_xyz
x,y,z
-x,-y,z
1/2+x,1/2-y,-z
1/2-x,1/2+y,-z
-x,-y,-z
x,y,-z
1/2-x,1/2+y,z
1/2+x,1/2-y,z
loop_
_atom_site_type_symbol
_atom_site_label
_atom_site_fract_x
_atom_site_fract_y
_atom_site_fract_z
Si Si1 0.200941 0.242043 0.274776
Si Si2 0.127444 0.338900 0.894547
Si Si3 0.053219 0.157704 0.611658
Si Si4 0.321857 0.515857 0.610014
Si Si5 0.296629 0.441794 0.109951
Si Si6 0.233983 0.582236 0.784004
Si Si7 0.136609 0.859303 0.293483
Si Si8 0.448231 0.073553 0.108287
O O1 0.142014 0.284929 0.195068
O O2 0.133783 0.219065 0.363748
O O3 0.229097 0.166979 0.217234
O O4 0.287928 0.292369 0.311534
O O5 0.190210 0.414726 0.883107
O O6 0.019750 0.357480 0.893817
O O7 0.152178 0.301501 0.000000
O O8 0.024137 0.170295 0.500000
O O9 0.090185 0.071372 0.627844
O O10 0.965309 0.172247 0.681855
O O11 0.287222 0.522112 0.500000
O O12 0.237422 0.543533 0.677477
O O13 0.346540 0.428856 0.632800
O O14 0.295926 0.529956 0.143636
O O15 0.358769 0.389312 0.181744
O O16 0.335961 0.435203 0.000000
O O17 0.129601 0.592071 0.815235
O O18 0.500000 0.000000 0.147396
O O19 0.406828 0.059741 0.000000
#
# Coordination Sequence:
#
# PCOD8224509 Si02
#       8
#     8   8   8   8   8   8   8   8
#     4  10  23  36  52  81 116 145 179 226 279 333
#     4   9  18  33  51  74 108 145 182 222 261 316
#     4  10  21  38  59  81 109 142 187 238 280 333
#     4   9  19  37  60  82 101 134 186 236 279 326
#     4   9  17  33  55  81 109 141 183 228 270 317
#     4  10  19  32  54  81 110 144 176 229 277 329
#     4  10  20  35  59  84 107 148 185 230 277 332
#     4  10  18  30  55  83 105 141 191 225 258 322
#
# _framework density 18.275687999999999
#
# number of rings (size 3 to 8) (size 9 to 14) (size 15 to 20)
#    0.000    2.375    1.250    1.125    1.750    3.000 
#    0.000    0.625    0.000   10.875    0.000    0.000 
#    0.000    0.000    0.000    0.000    0.000    0.000 
#
# Total GULP energy -793295.576578 kJ/mol
# GULP energy per Si atom -12395.243384 kJ/mol
# Density = 1.823409 g / cm^3
# Si number density = 18.275688 Si / 1000 Ang^3
#
#
#
# Elastic Constant Matrix: (Units=GPa)
#
#
# Indices 1 2 3 4 5 6 
#
# 1 99.6559 32.6706 55.0946 0.0000 0.0000 0.0000
# 2 32.6706 94.4941 33.6436 0.0000 0.0000 0.0000
# 3 55.0946 33.6436 121.2995 0.0000 0.0000 0.0000
# 4 0.0000 0.0000 0.0000 21.5872 0.0000 0.0000
# 5 0.0000 0.0000 0.0000 0.0000 29.8859 0.0000
# 6 0.0000 0.0000 0.0000 0.0000 0.0000 19.2301
#
#
#
# Elastic Compliance Matrix: (Units=1/GPa)
#
#
# Indices 1 2 3 4 5 6 
#
# 1 0.014068 -0.002873 -0.005593 0.000000 0.000000 0.000000
# 2 -0.002873 0.012329 -0.002115 0.000000 0.000000 0.000000
# 3 -0.005593 -0.002115 0.011371 0.000000 0.000000 0.000000
# 4 0.000000 0.000000 0.000000 0.046324 0.000000 0.000000
# 5 0.000000 0.000000 0.000000 0.000000 0.033461 0.000000
# 6 0.000000 0.000000 0.000000 0.000000 0.000000 0.052002
#
#
# Mechanical properties :
#
#
# Convention : Reuss Voigt Hill
#
# Bulk Modulus (GPa) = 60.21511 62.02970 61.12240
# Shear Modulus (GPa) = 25.47751 27.07667 26.27709
#
# Velocity S-wave (km/s) = 3.73777 3.85329 3.79597
# Velocity P-wave (km/s) = 7.18663 7.33566 7.26153
#
# Compressibility (1/GPa) = 0.01660713
#
# Stress axis : x y z
#
# Youngs Moduli (GPa) = 71.08098 81.11085 87.94270
#
# Poissons Ratio (x) = 0.23301 0.49188
# Poissons Ratio (y) = 0.20419 0.18598
# Poissons Ratio (z) = 0.39757 0.17153
#
# Static dielectric constant tensor:
#      x y z
#    x 3.335760 0.000000 0.000000 
#    y 0.000000 3.381190 0.000000 
#    z 0.000000 0.000000 3.432720 
# 
# 
# High freq. dielectric constant tensor:
#      x y z
#    x 1.691270 0.000000 0.000000 
#    y 0.000000 1.705620 0.000000 
#    z 0.000000 0.000000 1.709770 
# 
# From -- ./inp_files/19134.got.cif
#   From: 2010.03.12/outbox.cif.g09.slc.cpg/sg55_10_cif.got.tgz:19134.got - 2010.04.16 15:19:21.
