data_PCOD8224529
_publ_section_title
;
Structure prediction by ZEFSAII (Michael W. Deem and Ramdas Pophale) SiO2 
 PCOD8224529
Probable space group: P B A M
;
_chemical_formula_sum "Si O2"
_cell_formula_units_Z 64
_cell_length_a 18.891535
_cell_length_b 23.061181
_cell_length_c 8.903844
_cell_angle_alpha 90.000000
_cell_angle_beta 90.000000
_cell_angle_gamma 90.000000
_cell_volume 3879.058543
_symmetry_space_group_name_H-M "P B A M"
_symmetry_group_IT_number 55
_symmetry_cell_setting 'orthorhombic'
loop_
_space_group_symop_operation_xyz
x,y,z
-x,-y,z
1/2+x,1/2-y,-z
1/2-x,1/2+y,-z
-x,-y,-z
x,y,-z
1/2-x,1/2+y,z
1/2+x,1/2-y,z
loop_
_atom_site_type_symbol
_atom_site_label
_atom_site_fract_x
_atom_site_fract_y
_atom_site_fract_z
Si Si1 0.991836 0.251360 0.827807
Si Si2 0.221901 0.160439 0.672980
Si Si3 0.645959 0.765940 0.673101
Si Si4 0.779029 0.160752 0.826574
Si Si5 0.858693 0.062231 0.677222
Si Si6 0.644247 0.439130 0.823783
Si Si7 0.351499 0.764754 0.827780
Si Si8 0.994849 0.116066 0.174371
O O1 0.933557 0.282380 0.723081
O O2 0.998606 0.183689 0.787505
O O3 0.067335 0.281688 0.794141
O O4 0.969587 0.260149 0.000000
O O5 0.207275 0.145684 0.500000
O O6 0.303475 0.178853 0.700342
O O7 0.206310 0.104274 0.772730
O O8 0.171413 0.213368 0.718687
O O9 0.648027 0.746591 0.500000
O O10 0.669397 0.712028 0.774448
O O11 0.794844 0.103068 0.733314
O O12 0.697276 0.178795 0.800501
O O13 0.795903 0.148601 0.000000
O O14 0.857884 0.060098 0.500000
O O15 0.934054 0.085923 0.730386
O O16 0.844045 0.998962 0.739986
O O17 0.568806 0.412413 0.777786
O O18 0.649940 0.449566 0.000000
O O19 0.343915 0.742461 0.000000
O O20 0.978776 0.104859 0.000000
#
# Coordination Sequence:
#
# PCOD8224529 Si02
#       8
#     8   8   8   8   8   8   8   8
#     4  10  18  31  51  75 101 131 165 203 245 291
#     4  10  20  33  49  72 101 129 163 205 249 292
#     4  10  20  32  48  73 102 131 162 201 247 296
#     4  10  19  33  52  71  95 130 169 207 246 290
#     4  12  24  35  49  71 101 133 170 208 247 292
#     4  11  22  37  54  70  95 132 175 210 245 290
#     4   9  18  33  52  73  97 128 167 206 247 293
#     4  10  20  34  50  70  99 134 171 207 239 283
#
# _framework density 16.498849
#
# number of rings (size 3 to 8) (size 9 to 14) (size 15 to 20)
#    0.000    1.750    2.500    3.000    0.000    5.000 
#    0.000    0.000    0.000    0.000    0.000    0.875 
#    0.000    7.000    0.000    0.000    0.000    0.000 
#
# Total GULP energy -793780.589874 kJ/mol
# GULP energy per Si atom -12402.821717 kJ/mol
# Density = 1.646130 g / cm^3
# Si number density = 16.498849 Si / 1000 Ang^3
#
#
#
# Elastic Constant Matrix: (Units=GPa)
#
#
# Indices 1 2 3 4 5 6 
#
# 1 116.2544 53.4638 49.4913 0.0000 0.0000 0.0000
# 2 53.4638 82.0514 48.8185 0.0000 0.0000 0.0000
# 3 49.4913 48.8185 87.8504 0.0000 0.0000 0.0000
# 4 0.0000 0.0000 0.0000 26.1807 0.0000 0.0000
# 5 0.0000 0.0000 0.0000 0.0000 22.4089 0.0000
# 6 0.0000 0.0000 0.0000 0.0000 0.0000 19.7325
#
#
#
# Elastic Compliance Matrix: (Units=1/GPa)
#
#
# Indices 1 2 3 4 5 6 
#
# 1 0.013140 -0.006211 -0.003951 0.000000 0.000000 0.000000
# 2 -0.006211 0.021143 -0.008250 0.000000 0.000000 0.000000
# 3 -0.003951 -0.008250 0.018194 0.000000 0.000000 0.000000
# 4 0.000000 0.000000 0.000000 0.038196 0.000000 0.000000
# 5 0.000000 0.000000 0.000000 0.000000 0.044625 0.000000
# 6 0.000000 0.000000 0.000000 0.000000 0.000000 0.050678
#
#
# Mechanical properties :
#
#
# Convention : Reuss Voigt Hill
#
# Bulk Modulus (GPa) = 63.88946 65.52259 64.70603
# Shear Modulus (GPa) = 21.92802 22.62326 22.27564
#
# Velocity S-wave (km/s) = 3.64959 3.70699 3.67840
# Velocity P-wave (km/s) = 7.52110 7.62378 7.57262
#
# Compressibility (1/GPa) = 0.01565203
#
# Stress axis : x y z
#
# Youngs Moduli (GPa) = 76.10130 47.29615 54.96468
#
# Poissons Ratio (x) = 0.29377 0.21717
# Poissons Ratio (y) = 0.47269 0.45347
# Poissons Ratio (z) = 0.30068 0.39020
#
# Static dielectric constant tensor:
#      x y z
#    x 3.280560 0.000000 0.000000 
#    y 0.000000 2.987880 0.000000 
#    z 0.000000 0.000000 3.186240 
# 
# 
# High freq. dielectric constant tensor:
#      x y z
#    x 1.633120 0.000000 0.000000 
#    y 0.000000 1.605750 0.000000 
#    z 0.000000 0.000000 1.646300 
# 
# From -- ./inp_files/8147.got.cif
#   From: 2010.03.12/outbox.cif.g09.slc.cpg/sg55_5_cif.got.tgz:8147.got - 2010.04.16 15:19:21.
