data_PCOD8224634
_publ_section_title
;
Structure prediction by ZEFSAII (Michael W. Deem and Ramdas Pophale) SiO2 
 PCOD8224634
Probable space group: P B A M
;
_chemical_formula_sum "Si O2"
_cell_formula_units_Z 56
_cell_length_a 19.102643
_cell_length_b 16.369558
_cell_length_c 9.166030
_cell_angle_alpha 90.000000
_cell_angle_beta 90.000000
_cell_angle_gamma 90.000000
_cell_volume 2866.234286
_symmetry_space_group_name_H-M "P B A M"
_symmetry_group_IT_number 55
_symmetry_cell_setting 'orthorhombic'
loop_
_space_group_symop_operation_xyz
x,y,z
-x,-y,z
1/2+x,1/2-y,-z
1/2-x,1/2+y,-z
-x,-y,-z
x,y,-z
1/2-x,1/2+y,z
1/2+x,1/2-y,z
loop_
_atom_site_type_symbol
_atom_site_label
_atom_site_fract_x
_atom_site_fract_y
_atom_site_fract_z
Si Si1 0.728268 0.321941 0.838550
Si Si2 0.635051 0.478119 0.837701
Si Si3 0.092483 0.275598 0.174104
Si Si4 0.866169 0.308046 0.672676
Si Si5 0.626218 0.625544 0.661677
Si Si6 0.533471 0.373175 0.336755
Si Si7 0.496313 0.904352 0.672542
O O1 0.693736 0.410133 0.844042
O O2 0.672402 0.252320 0.785441
O O3 0.792036 0.338578 0.730579
O O4 0.755171 0.297836 0.000000
O O5 0.666036 0.561502 0.766793
O O6 0.572229 0.448253 0.737089
O O7 0.607149 0.497350 0.000000
O O8 0.040100 0.208937 0.241481
O O9 0.070118 0.362804 0.244257
O O10 0.083523 0.277862 0.000000
O O11 0.866271 0.311588 0.500000
O O12 0.871048 0.215569 0.730249
O O13 0.931446 0.362476 0.728581
O O14 0.660408 0.623177 0.500000
O O15 0.545976 0.599381 0.653041
O O16 0.563347 0.356822 0.500000
O O17 0.485410 0.891690 0.500000
O O18 0.500000 0.000000 0.713105
#
# Coordination Sequence:
#
# PCOD8224634 Si02
#       7
#     8   8   8   8   8   8   8
#     4   9  21  40  57  80 115 154 192 237 291 350
#     4  10  21  35  52  80 115 148 189 229 276 345
#     4  10  20  36  59  86 116 149 194 239 287 354
#     4  10  21  39  60  85 114 149 195 243 290 351
#     4  10  20  34  53  81 113 143 183 230 282 341
#     4  10  18  32  55  81 114 147 179 227 280 330
#     4  10  21  40  64  89 118 152 196 249 302 352
#
# _framework density 19.537831000000001
#
# number of rings (size 3 to 8) (size 9 to 14) (size 15 to 20)
#    0.000    2.143    1.429    2.571    0.000    7.714 
#    2.571    0.000    0.000    0.000    0.000    0.000 
#    0.000    0.000    0.000    0.000    0.000    0.000 
#
# Total GULP energy -694087.791610 kJ/mol
# GULP energy per Si atom -12394.424850 kJ/mol
# Density = 1.949336 g / cm^3
# Si number density = 19.537831 Si / 1000 Ang^3
#
#
#
# Elastic Constant Matrix: (Units=GPa)
#
#
# Indices 1 2 3 4 5 6 
#
# 1 67.5283 26.9606 21.2796 0.0000 0.0000 0.0000
# 2 26.9606 128.4682 44.5752 0.0000 0.0000 0.0000
# 3 21.2796 44.5752 74.3716 0.0000 0.0000 0.0000
# 4 0.0000 0.0000 0.0000 27.2065 0.0000 0.0000
# 5 0.0000 0.0000 0.0000 0.0000 -48.6457 0.0000
# 6 0.0000 0.0000 0.0000 0.0000 0.0000 10.0116
#
#
#
# Elastic Compliance Matrix: (Units=1/GPa)
#
#
# Indices 1 2 3 4 5 6 
#
# 1 0.016819 -0.002348 -0.003405 0.000000 0.000000 0.000000
# 2 -0.002348 0.010156 -0.005415 0.000000 0.000000 0.000000
# 3 -0.003405 -0.005415 0.017666 0.000000 0.000000 0.000000
# 4 0.000000 0.000000 0.000000 0.036756 0.000000 0.000000
# 5 0.000000 0.000000 0.000000 0.000000 -0.020557 0.000000
# 6 0.000000 0.000000 0.000000 0.000000 0.000000 0.099884
#
#
# Mechanical properties :
#
#
# Convention : Reuss Voigt Hill
#
# Bulk Modulus (GPa) = 44.83464 50.66655 47.75060
# Shear Modulus (GPa) = 26.24741 9.55132 17.89937
#
# Velocity S-wave (km/s) = 3.66924 2.21342 3.03006
# Velocity P-wave (km/s) = 6.39910 5.70273 6.06093
#
# Compressibility (1/GPa) = 0.02230418
#
# Stress axis : x y z
#
# Youngs Moduli (GPa) = 59.45619 98.46673 56.60667
#
# Poissons Ratio (x) = 0.23123 0.19274
# Poissons Ratio (y) = 0.13962 0.30653
# Poissons Ratio (z) = 0.20244 0.53320
#
# Static dielectric constant tensor:
#      x y z
#    x 3.348360 0.000000 0.000000 
#    y 0.000000 3.663880 0.000000 
#    z 0.000000 0.000000 3.696450 
# 
# 
# High freq. dielectric constant tensor:
#      x y z
#    x 1.734510 0.000000 0.000000 
#    y 0.000000 1.765990 0.000000 
#    z 0.000000 0.000000 1.762170 
# 
# From -- ./inp_files/8710.got.cif
#   From: 2010.03.12/outbox.cif.g09.slc.cpg/sg55_5_cif.got.tgz:8710.got - 2010.04.16 15:19:21.
