data_PCOD8224924
_publ_section_title
;
Structure prediction by ZEFSAII (Michael W. Deem and Ramdas Pophale) SiO2 
 PCOD8224924
Probable space group: P B A M
;
_chemical_formula_sum "Si O2"
_cell_formula_units_Z 64
_cell_length_a 27.802835
_cell_length_b 13.213516
_cell_length_c 9.398519
_cell_angle_alpha 90.000000
_cell_angle_beta 90.000000
_cell_angle_gamma 90.000000
_cell_volume 3452.764048
_symmetry_space_group_name_H-M "P B A M"
_symmetry_group_IT_number 55
_symmetry_cell_setting 'orthorhombic'
loop_
_space_group_symop_operation_xyz
x,y,z
-x,-y,z
1/2+x,1/2-y,-z
1/2-x,1/2+y,-z
-x,-y,-z
x,y,-z
1/2-x,1/2+y,z
1/2+x,1/2-y,z
loop_
_atom_site_type_symbol
_atom_site_label
_atom_site_fract_x
_atom_site_fract_y
_atom_site_fract_z
Si Si1 0.715216 0.259128 0.664132
Si Si2 0.918702 0.682925 0.838364
Si Si3 0.822120 0.571765 0.166153
Si Si4 0.184283 0.636460 0.332667
Si Si5 0.001367 0.617056 0.346599
Si Si6 0.118820 0.137200 0.664037
Si Si7 0.409751 0.246943 0.335796
Si Si8 0.448541 0.457873 0.667938
O O1 0.710571 0.224615 0.500000
O O2 0.766687 0.305104 0.697389
O O3 0.675516 0.346878 0.698713
O O4 0.709175 0.161010 0.762968
O O5 0.877956 0.598982 0.814026
O O6 0.911526 0.782325 0.748551
O O7 0.968792 0.639054 0.787944
O O8 0.922198 0.716554 0.000000
O O9 0.812976 0.467026 0.245346
O O10 0.808009 0.562767 0.000000
O O11 0.177357 0.611113 0.500000
O O12 0.141634 0.709497 0.273710
O O13 0.985525 0.667161 0.500000
O O14 0.054721 0.653631 0.308888
O O15 0.000000 0.500000 0.371731
O O16 0.108565 0.157308 0.500000
O O17 0.097177 0.028607 0.707937
O O18 0.400992 0.271910 0.500000
O O19 0.433152 0.348571 0.265807
O O20 0.500000 0.500000 0.730187
O O21 0.455355 0.447774 0.500000
#
# Coordination Sequence:
#
# PCOD8224924 Si02
#       8
#     8   8   8   8   8   8   8   8
#     4   9  19  34  54  80 104 132 175 225 272 315
#     4  10  20  33  50  73 101 133 170 212 255 301
#     4  10  21  36  54  76 105 141 176 213 263 321
#     4  10  20  35  56  80 107 137 173 222 272 316
#     4  10  19  31  50  74  99 131 170 209 253 308
#     4   9  17  31  52  75  98 128 169 213 256 308
#     4   9  18  31  49  77 107 134 169 215 267 320
#     4   9  16  27  47  74 102 132 167 209 257 311
#
# _framework density 18.535872999999999
#
# number of rings (size 3 to 8) (size 9 to 14) (size 15 to 20)
#    0.000    2.500    0.000    2.250    0.000    6.250 
#    0.000    4.375    0.000    4.125    0.000    0.000 
#    0.000    0.000    0.000    0.000    0.000    0.000 
#
# Total GULP energy -793149.074899 kJ/mol
# GULP energy per Si atom -12392.954295 kJ/mol
# Density = 1.849368 g / cm^3
# Si number density = 18.535873 Si / 1000 Ang^3
#
#
#
# Elastic Constant Matrix: (Units=GPa)
#
#
# Indices 1 2 3 4 5 6 
#
# 1 134.8681 78.3218 38.0687 0.0000 0.0000 0.0000
# 2 78.3218 130.0474 42.3237 0.0000 0.0000 0.0000
# 3 38.0687 42.3237 41.6655 0.0000 0.0000 0.0000
# 4 0.0000 0.0000 0.0000 3.7818 0.0000 0.0000
# 5 0.0000 0.0000 0.0000 0.0000 19.5795 0.0000
# 6 0.0000 0.0000 0.0000 0.0000 0.0000 22.6027
#
#
#
# Elastic Compliance Matrix: (Units=1/GPa)
#
#
# Indices 1 2 3 4 5 6 
#
# 1 0.012191 -0.005553 -0.005498 0.000000 0.000000 0.000000
# 2 -0.005553 0.014016 -0.009164 0.000000 0.000000 0.000000
# 3 -0.005498 -0.009164 0.038333 0.000000 0.000000 0.000000
# 4 0.000000 0.000000 0.000000 0.264423 0.000000 0.000000
# 5 0.000000 0.000000 0.000000 0.000000 0.051074 0.000000
# 6 0.000000 0.000000 0.000000 0.000000 0.000000 0.044242
#
#
# Mechanical properties :
#
#
# Convention : Reuss Voigt Hill
#
# Bulk Modulus (GPa) = 41.47628 69.33437 55.40532
# Shear Modulus (GPa) = 10.57647 19.05058 14.81352
#
# Velocity S-wave (km/s) = 2.39130 3.20936 2.83005
# Velocity P-wave (km/s) = 5.48172 7.15682 6.37453
#
# Compressibility (1/GPa) = 0.02411017
#
# Stress axis : x y z
#
# Youngs Moduli (GPa) = 82.02517 71.34594 26.08705
#
# Poissons Ratio (x) = 0.39618 0.14343
# Poissons Ratio (y) = 0.45548 0.23906
# Poissons Ratio (z) = 0.45100 0.65382
#
# Static dielectric constant tensor:
#      x y z
#    x 3.539610 0.000000 0.000000 
#    y 0.000000 3.195170 0.000000 
#    z 0.000000 0.000000 3.345240 
# 
# 
# High freq. dielectric constant tensor:
#      x y z
#    x 1.724930 0.000000 0.000000 
#    y 0.000000 1.720500 0.000000 
#    z 0.000000 0.000000 1.686080 
# 
# From -- ./inp_files/10780.got.cif
#   From: 2010.03.12/outbox.cif.g09.slc.cpg/sg55_6_cif.got.tgz:10780.got - 2010.04.16 15:19:21.
