data_PCOD8224949
_publ_section_title
;
Structure prediction by ZEFSAII (Michael W. Deem and Ramdas Pophale) SiO2 
 PCOD8224949
Probable space group: P B A M
;
_chemical_formula_sum "Si O2"
_cell_formula_units_Z 64
_cell_length_a 22.275104
_cell_length_b 16.294368
_cell_length_c 9.298985
_cell_angle_alpha 90.000000
_cell_angle_beta 90.000000
_cell_angle_gamma 90.000000
_cell_volume 3375.147896
_symmetry_space_group_name_H-M "P B A M"
_symmetry_group_IT_number 55
_symmetry_cell_setting 'orthorhombic'
loop_
_space_group_symop_operation_xyz
x,y,z
-x,-y,z
1/2+x,1/2-y,-z
1/2-x,1/2+y,-z
-x,-y,-z
x,y,-z
1/2-x,1/2+y,z
1/2+x,1/2-y,z
loop_
_atom_site_type_symbol
_atom_site_label
_atom_site_fract_x
_atom_site_fract_y
_atom_site_fract_z
Si Si1 0.826462 0.235035 0.331878
Si Si2 0.272282 0.437874 0.664390
Si Si3 0.514422 0.412774 0.660782
Si Si4 0.654784 0.402434 0.342695
Si Si5 0.461421 0.244439 0.328946
Si Si6 0.964649 0.584066 0.330681
Si Si7 0.839543 0.599564 0.169274
Si Si8 0.216043 0.225668 0.165363
O O1 0.821237 0.251786 0.500000
O O2 0.810222 0.141930 0.290028
O O3 0.892486 0.260303 0.276626
O O4 0.777584 0.290418 0.251520
O O5 0.250074 0.431056 0.500000
O O6 0.319678 0.508681 0.689896
O O7 0.213682 0.455524 0.762601
O O8 0.500000 0.500000 0.740747
O O9 0.486102 0.417413 0.500000
O O10 0.584474 0.404808 0.653719
O O11 0.488276 0.329940 0.735977
O O12 0.677872 0.370890 0.500000
O O13 0.671547 0.345425 0.210753
O O14 0.465616 0.247428 0.500000
O O15 0.497184 0.163299 0.275515
O O16 0.950858 0.591286 0.500000
O O17 0.902436 0.580709 0.244959
O O18 0.000000 0.500000 0.296716
O O19 0.819136 0.691694 0.204679
O O20 0.845422 0.581918 0.000000
O O21 0.232416 0.220777 0.000000
#
# Coordination Sequence:
#
# PCOD8224949 Si02
#       8
#     8   8   8   8   8   8   8   8
#     4   9  17  32  53  75 100 132 173 216 259 308
#     4   9  18  32  52  77 103 132 168 214 262 309
#     4   9  16  27  48  79 109 133 163 207 255 305
#     4  10  19  31  51  79 106 133 168 208 256 313
#     4   9  17  30  50  75 104 137 169 207 257 307
#     4  10  21  36  54  77 105 137 174 217 263 313
#     4  10  21  37  55  74 100 137 178 217 261 310
#     4  10  21  35  51  74 104 137 173 214 258 306
#
# _framework density 18.962132
#
# number of rings (size 3 to 8) (size 9 to 14) (size 15 to 20)
#    0.000    2.500    0.000    2.250    0.000    7.250 
#    0.000    3.125    0.000    1.125    0.000    0.000 
#    0.000    0.000    0.000    0.000    0.000    0.000 
#
# Total GULP energy -793271.724164 kJ/mol
# GULP energy per Si atom -12394.870690 kJ/mol
# Density = 1.891897 g / cm^3
# Si number density = 18.962132 Si / 1000 Ang^3
#
#
#
# Elastic Constant Matrix: (Units=GPa)
#
#
# Indices 1 2 3 4 5 6 
#
# 1 103.3679 23.0847 28.3200 0.0000 0.0000 0.0000
# 2 23.0847 80.9024 9.7752 0.0000 0.0000 0.0000
# 3 28.3200 9.7752 31.9398 0.0000 0.0000 0.0000
# 4 0.0000 0.0000 0.0000 -64.6973 0.0000 0.0000
# 5 0.0000 0.0000 0.0000 0.0000 14.6167 0.0000
# 6 0.0000 0.0000 0.0000 0.0000 0.0000 38.3374
#
#
#
# Elastic Compliance Matrix: (Units=1/GPa)
#
#
# Indices 1 2 3 4 5 6 
#
# 1 0.013229 -0.002448 -0.010981 0.000000 0.000000 0.000000
# 2 -0.002448 0.013288 -0.001896 0.000000 0.000000 0.000000
# 3 -0.010981 -0.001896 0.041626 0.000000 0.000000 0.000000
# 4 0.000000 0.000000 0.000000 -0.015457 0.000000 0.000000
# 5 0.000000 0.000000 0.000000 0.000000 0.068415 0.000000
# 6 0.000000 0.000000 0.000000 0.000000 0.000000 0.026084
#
#
# Mechanical properties :
#
#
# Convention : Reuss Voigt Hill
#
# Bulk Modulus (GPa) = 26.67169 37.61887 32.14528
# Shear Modulus (GPa) = 26.26966 7.98670 17.12818
#
# Velocity S-wave (km/s) = 3.72610 2.05452 3.00873
# Velocity P-wave (km/s) = 5.71035 5.05075 5.39065
#
# Compressibility (1/GPa) = 0.03749294
#
# Stress axis : x y z
#
# Youngs Moduli (GPa) = 75.58944 75.25462 24.02367
#
# Poissons Ratio (x) = 0.18423 0.26380
# Poissons Ratio (y) = 0.18505 0.04555
# Poissons Ratio (z) = 0.83003 0.14270
#
# Static dielectric constant tensor:
#      x y z
#    x 3.540920 0.000000 0.000000 
#    y 0.000000 3.438890 0.000000 
#    z 0.000000 0.000000 3.223920 
# 
# 
# High freq. dielectric constant tensor:
#      x y z
#    x 1.748430 0.000000 0.000000 
#    y 0.000000 1.738910 0.000000 
#    z 0.000000 0.000000 1.697070 
# 
# From -- ./inp_files/8051.got.cif
#   From: 2010.03.12/outbox.cif.g09.slc.cpg/sg55_5_cif.got.tgz:8051.got - 2010.04.16 15:19:21.
