data_PCOD8224855
_publ_section_title
;
Structure prediction by ZEFSAII (Michael W. Deem and Ramdas Pophale) SiO2 
 PCOD8224855
Probable space group: P B A M
;
_chemical_formula_sum "Si O2"
_cell_formula_units_Z 40
_cell_length_a 8.084385
_cell_length_b 21.457021
_cell_length_c 12.751923
_cell_angle_alpha 90.000000
_cell_angle_beta 90.000000
_cell_angle_gamma 90.000000
_cell_volume 2212.035515
_symmetry_space_group_name_H-M "P B A M"
_symmetry_group_IT_number 55
_symmetry_cell_setting 'orthorhombic'
loop_
_space_group_symop_operation_xyz
x,y,z
-x,-y,z
1/2+x,1/2-y,-z
1/2-x,1/2+y,-z
-x,-y,-z
x,y,-z
1/2-x,1/2+y,z
1/2+x,1/2-y,z
loop_
_atom_site_type_symbol
_atom_site_label
_atom_site_fract_x
_atom_site_fract_y
_atom_site_fract_z
Si Si1 0.961941 0.153729 0.000000
Si Si2 0.008529 0.370252 0.115381
Si Si3 0.834943 0.094045 0.200271
Si Si4 0.443306 0.570515 0.615543
Si Si5 0.689849 0.779136 0.000000
Si Si6 0.834083 0.468936 0.246157
O O1 0.954380 0.110512 0.897130
O O2 0.809008 0.203967 0.000000
O O3 0.124245 0.196329 0.000000
O O4 0.880594 0.422433 0.153299
O O5 0.166159 0.364799 0.193344
O O6 0.073466 0.392257 0.000000
O O7 0.907407 0.305296 0.103650
O O8 0.931539 0.108692 0.308506
O O9 0.787742 0.020907 0.196496
O O10 0.500000 0.500000 0.604495
O O11 0.441778 0.602152 0.500000
O O12 0.258198 0.570021 0.662978
O O13 0.000000 0.500000 0.294833
#
# Coordination Sequence:
#
# PCOD8224855 Si02
#       6
#     4   8   8   8   4   8
#     4  12  20  33  50  73 103 127 171 202 255 311
#     4   9  18  33  47  71 108 129 166 200 248 311
#     4  10  19  30  51  74  99 136 164 204 254 295
#     4   9  18  33  47  69 101 132 171 206 239 292
#     4  10  22  33  48  71 100 139 158 204 252 307
#     4   9  18  30  49  74 103 137 170 206 256 296
#
# _framework density 18.082891
#
# number of rings (size 3 to 8) (size 9 to 14) (size 15 to 20)
#    0.600    1.800    1.000    2.400    1.400    1.600 
#    0.000    5.500    0.000    0.000    0.000   12.600 
#    0.000    0.000    0.000    0.000    0.000    0.000 
#
# Total GULP energy -495624.759004 kJ/mol
# GULP energy per Si atom -12390.618975 kJ/mol
# Density = 1.804173 g / cm^3
# Si number density = 18.082891 Si / 1000 Ang^3
#
#
#
# Elastic Constant Matrix: (Units=GPa)
#
#
# Indices 1 2 3 4 5 6 
#
# 1 101.2184 25.1387 60.0555 0.0000 0.0000 0.0000
# 2 25.1387 44.9275 41.3262 0.0000 0.0000 0.0000
# 3 60.0555 41.3262 135.9750 0.0000 0.0000 0.0000
# 4 0.0000 0.0000 0.0000 6.3969 0.0000 0.0000
# 5 0.0000 0.0000 0.0000 0.0000 19.3687 0.0000
# 6 0.0000 0.0000 0.0000 0.0000 0.0000 27.0724
#
#
#
# Elastic Compliance Matrix: (Units=1/GPa)
#
#
# Indices 1 2 3 4 5 6 
#
# 1 0.013656 -0.002905 -0.005148 0.000000 0.000000 0.000000
# 2 -0.002905 0.031513 -0.008295 0.000000 0.000000 0.000000
# 3 -0.005148 -0.008295 0.012149 0.000000 0.000000 0.000000
# 4 0.000000 0.000000 0.000000 0.156325 0.000000 0.000000
# 5 0.000000 0.000000 0.000000 0.000000 0.051630 0.000000
# 6 0.000000 0.000000 0.000000 0.000000 0.000000 0.036938
#
#
# Mechanical properties :
#
#
# Convention : Reuss Voigt Hill
#
# Bulk Modulus (GPa) = 40.61420 59.46241 50.03831
# Shear Modulus (GPa) = 14.57238 20.94097 17.75667
#
# Velocity S-wave (km/s) = 2.84186 3.40671 3.13702
# Velocity P-wave (km/s) = 5.76862 6.95909 6.39163
#
# Compressibility (1/GPa) = 0.02462193
#
# Stress axis : x y z
#
# Youngs Moduli (GPa) = 73.22882 31.73255 82.31108
#
# Poissons Ratio (x) = 0.09219 0.42376
# Poissons Ratio (y) = 0.21275 0.68273
# Poissons Ratio (z) = 0.37700 0.26321
#
# Static dielectric constant tensor:
#      x y z
#    x 3.570930 0.000000 0.000000 
#    y 0.000000 3.017880 0.000000 
#    z 0.000000 0.000000 3.385810 
# 
# 
# High freq. dielectric constant tensor:
#      x y z
#    x 1.722890 0.000000 0.000000 
#    y 0.000000 1.659610 0.000000 
#    z 0.000000 0.000000 1.669960 
# 
# From -- ./inp_files/12084.got.cif
#   From: 2010.03.12/outbox.cif.g09.slc.cpg/sg55_7_cif.got.tgz:12084.got - 2010.04.16 15:19:21.
