data_PCOD8224661
_publ_section_title
;
Structure prediction by ZEFSAII (Michael W. Deem and Ramdas Pophale) SiO2 
 PCOD8224661
Probable space group: P B A M
;
_chemical_formula_sum "Si O2"
_cell_formula_units_Z 64
_cell_length_a 27.698646
_cell_length_b 9.137142
_cell_length_c 13.601808
_cell_angle_alpha 90.000000
_cell_angle_beta 90.000000
_cell_angle_gamma 90.000000
_cell_volume 3442.433460
_symmetry_space_group_name_H-M "P B A M"
_symmetry_group_IT_number 55
_symmetry_cell_setting 'orthorhombic'
loop_
_space_group_symop_operation_xyz
x,y,z
-x,-y,z
1/2+x,1/2-y,-z
1/2-x,1/2+y,-z
-x,-y,-z
x,y,-z
1/2-x,1/2+y,z
1/2+x,1/2-y,z
loop_
_atom_site_type_symbol
_atom_site_label
_atom_site_fract_x
_atom_site_fract_y
_atom_site_fract_z
Si Si1 0.393275 0.989288 0.777934
Si Si2 0.498580 0.159874 0.606608
Si Si3 0.889965 0.291122 0.611585
Si Si4 0.050051 0.205265 0.772188
Si Si5 0.045456 0.713534 0.114744
Si Si6 0.200418 0.421842 0.885118
Si Si7 0.701855 0.414881 0.115794
Si Si8 0.613325 0.572240 0.783161
O O1 0.382362 0.053189 0.668128
O O2 0.440084 0.067093 0.826575
O O3 0.405875 0.818301 0.784605
O O4 0.343807 0.009321 0.837174
O O5 0.522603 0.138980 0.500000
O O6 0.446508 0.230717 0.599256
O O7 0.530335 0.275348 0.663336
O O8 0.500000 0.000000 0.659799
O O9 0.866565 0.290716 0.500000
O O10 0.872529 0.156300 0.681162
O O11 0.070688 0.043908 0.772033
O O12 0.006462 0.225223 0.850292
O O13 0.090811 0.818722 0.136606
O O14 0.041679 0.680915 0.000000
O O15 0.204371 0.253673 0.849918
O O16 0.248366 0.508056 0.854898
O O17 0.191592 0.427838 0.000000
O O18 0.660950 0.498631 0.175384
O O19 0.691091 0.427900 0.000000
#
# Coordination Sequence:
#
# PCOD8224661 Si02
#       8
#     8   8   8   8   8   8   8   8
#     4  11  21  38  61  83 116 152 199 244 288 344
#     4  10  18  33  55  79 110 148 194 242 282 324
#     4  10  22  38  59  84 113 155 201 247 292 346
#     4  12  21  36  53  85 117 152 198 235 286 340
#     4  11  24  36  52  79 119 167 197 225 277 353
#     4  10  22  39  62  92 118 147 191 240 290 343
#     4  10  22  40  62  90 118 148 191 240 289 342
#     4  11  23  38  58  82 120 155 193 241 294 347
#
# _framework density 18.591498999999999
#
# number of rings (size 3 to 8) (size 9 to 14) (size 15 to 20)
#    0.000    1.375    5.000    1.500    3.500    3.500 
#    0.000    1.250    0.000    0.750    0.000    0.000 
#    0.000    0.000    0.000    0.000    0.000    0.000 
#
# Total GULP energy -793212.031686 kJ/mol
# GULP energy per Si atom -12393.937995 kJ/mol
# Density = 1.854918 g / cm^3
# Si number density = 18.591499 Si / 1000 Ang^3
#
#
#
# Elastic Constant Matrix: (Units=GPa)
#
#
# Indices 1 2 3 4 5 6 
#
# 1 82.8361 13.6661 27.6715 0.0000 0.0000 0.0000
# 2 13.6661 67.1772 22.6098 0.0000 0.0000 0.0000
# 3 27.6715 22.6098 92.8890 0.0000 0.0000 0.0000
# 4 0.0000 0.0000 0.0000 18.8149 0.0000 0.0000
# 5 0.0000 0.0000 0.0000 0.0000 22.9928 0.0000
# 6 0.0000 0.0000 0.0000 0.0000 0.0000 31.1795
#
#
#
# Elastic Compliance Matrix: (Units=1/GPa)
#
#
# Indices 1 2 3 4 5 6 
#
# 1 0.013548 -0.001522 -0.003665 0.000000 0.000000 0.000000
# 2 -0.001522 0.016385 -0.003535 0.000000 0.000000 0.000000
# 3 -0.003665 -0.003535 0.012718 0.000000 0.000000 0.000000
# 4 0.000000 0.000000 0.000000 0.053149 0.000000 0.000000
# 5 0.000000 0.000000 0.000000 0.000000 0.043492 0.000000
# 6 0.000000 0.000000 0.000000 0.000000 0.000000 0.032072
#
#
# Mechanical properties :
#
#
# Convention : Reuss Voigt Hill
#
# Bulk Modulus (GPa) = 39.67327 41.19967 40.43647
# Shear Modulus (GPa) = 25.35353 26.52777 25.94065
#
# Velocity S-wave (km/s) = 3.69686 3.78150 3.73942
# Velocity P-wave (km/s) = 6.29350 6.42456 6.35937
#
# Compressibility (1/GPa) = 0.02520589
#
# Stress axis : x y z
#
# Youngs Moduli (GPa) = 73.81395 61.02990 78.63003
#
# Poissons Ratio (x) = 0.09291 0.28820
# Poissons Ratio (y) = 0.11238 0.27794
# Poissons Ratio (z) = 0.27054 0.21573
#
# Static dielectric constant tensor:
#      x y z
#    x 3.044040 0.000000 0.000000 
#    y 0.000000 3.208660 0.000000 
#    z 0.000000 0.000000 3.644100 
# 
# 
# High freq. dielectric constant tensor:
#      x y z
#    x 1.707320 0.000000 0.000000 
#    y 0.000000 1.730480 0.000000 
#    z 0.000000 0.000000 1.713240 
# 
# From -- ./inp_files/19965.got.cif
#   From: 2010.03.12/outbox.cif.g09.slc.cpg/sg55_10_cif.got.tgz:19965.got - 2010.04.16 15:19:21.
