data_PCOD8224919
_publ_section_title
;
Structure prediction by ZEFSAII (Michael W. Deem and Ramdas Pophale) SiO2 
 PCOD8224919
Probable space group: P B A M
;
_chemical_formula_sum "Si O2"
_cell_formula_units_Z 56
_cell_length_a 23.836151
_cell_length_b 13.469236
_cell_length_c 9.271421
_cell_angle_alpha 90.000000
_cell_angle_beta 90.000000
_cell_angle_gamma 90.000000
_cell_volume 2976.633688
_symmetry_space_group_name_H-M "P B A M"
_symmetry_group_IT_number 55
_symmetry_cell_setting 'orthorhombic'
loop_
_space_group_symop_operation_xyz
x,y,z
-x,-y,z
1/2+x,1/2-y,-z
1/2-x,1/2+y,-z
-x,-y,-z
x,y,-z
1/2-x,1/2+y,z
1/2+x,1/2-y,z
loop_
_atom_site_type_symbol
_atom_site_label
_atom_site_fract_x
_atom_site_fract_y
_atom_site_fract_z
Si Si1 0.044777 0.227666 0.667257
Si Si2 0.167805 0.559373 0.331623
Si Si3 0.943084 0.549304 0.671131
Si Si4 0.174817 0.760584 0.833612
Si Si5 0.722999 0.564842 0.334328
Si Si6 0.057611 0.865277 0.833469
Si Si7 0.890412 0.963251 0.665009
O O1 0.026771 0.231257 0.500000
O O2 0.062185 0.336706 0.722871
O O3 0.097196 0.153218 0.691568
O O4 0.992274 0.191928 0.757918
O O5 0.163154 0.586498 0.500000
O O6 0.110249 0.511979 0.270940
O O7 0.182628 0.656678 0.243928
O O8 0.216923 0.481385 0.302407
O O9 0.943113 0.544826 0.500000
O O10 0.000000 0.500000 0.733394
O O11 0.217923 0.838378 0.764258
O O12 0.111854 0.797603 0.810382
O O13 0.190431 0.748465 0.000000
O O14 0.717457 0.598210 0.500000
O O15 0.674327 0.484847 0.295492
O O16 0.067287 0.972892 0.762842
O O17 0.043263 0.882141 0.000000
O O18 0.903107 0.992561 0.500000
#
# Coordination Sequence:
#
# PCOD8224919 Si02
#       7
#     8   8   8   8   8   8   8
#     4  10  19  31  50  74 102 136 171 211 261 312
#     4  10  20  35  58  83 104 133 175 219 260 305
#     4   9  18  32  51  77 106 134 167 210 259 309
#     4  10  21  36  54  76 105 141 175 211 259 313
#     4   9  19  35  55  79 105 134 173 219 261 305
#     4  10  20  33  50  74 104 138 176 213 251 302
#     4   9  18  32  50  75 105 135 168 210 260 309
#
# _framework density 18.813199000000001
#
# number of rings (size 3 to 8) (size 9 to 14) (size 15 to 20)
#    0.000    2.429    0.000    2.143    0.000    6.857 
#    0.000    5.000    0.000    4.286    0.000    0.000 
#    0.000    0.000    0.000    0.000    0.000    0.000 
#
# Total GULP energy -694512.382491 kJ/mol
# GULP energy per Si atom -12402.006830 kJ/mol
# Density = 1.877038 g / cm^3
# Si number density = 18.813199 Si / 1000 Ang^3
#
#
#
# Elastic Constant Matrix: (Units=GPa)
#
#
# Indices 1 2 3 4 5 6 
#
# 1 104.8478 61.3386 45.8016 0.0000 0.0000 0.0000
# 2 61.3386 143.5510 58.5017 0.0000 0.0000 0.0000
# 3 45.8016 58.5017 76.0145 0.0000 0.0000 0.0000
# 4 0.0000 0.0000 0.0000 4.6556 0.0000 0.0000
# 5 0.0000 0.0000 0.0000 0.0000 17.2723 0.0000
# 6 0.0000 0.0000 0.0000 0.0000 0.0000 18.2749
#
#
#
# Elastic Compliance Matrix: (Units=1/GPa)
#
#
# Indices 1 2 3 4 5 6 
#
# 1 0.014216 -0.003764 -0.005669 0.000000 0.000000 0.000000
# 2 -0.003764 0.011146 -0.006310 0.000000 0.000000 0.000000
# 3 -0.005669 -0.006310 0.021427 0.000000 0.000000 0.000000
# 4 0.000000 0.000000 0.000000 0.214796 0.000000 0.000000
# 5 0.000000 0.000000 0.000000 0.000000 0.057896 0.000000
# 6 0.000000 0.000000 0.000000 0.000000 0.000000 0.054720
#
#
# Mechanical properties :
#
#
# Convention : Reuss Voigt Hill
#
# Bulk Modulus (GPa) = 65.34483 72.85522 69.10003
# Shear Modulus (GPa) = 12.17171 18.62532 15.39852
#
# Velocity S-wave (km/s) = 2.54633 3.14986 2.86404
# Velocity P-wave (km/s) = 6.59196 7.21377 6.90987
#
# Compressibility (1/GPa) = 0.01530343
#
# Stress axis : x y z
#
# Youngs Moduli (GPa) = 70.34245 89.71662 46.66931
#
# Poissons Ratio (x) = 0.33772 0.26456
# Poissons Ratio (y) = 0.26479 0.29449
# Poissons Ratio (z) = 0.39875 0.56612
#
# Static dielectric constant tensor:
#      x y z
#    x 3.500680 0.000000 0.000000 
#    y 0.000000 3.535490 0.000000 
#    z 0.000000 0.000000 3.315660 
# 
# 
# High freq. dielectric constant tensor:
#      x y z
#    x 1.729930 0.000000 0.000000 
#    y 0.000000 1.736610 0.000000 
#    z 0.000000 0.000000 1.710180 
# 
# From -- ./inp_files/8727.got.cif
#   From: 2010.03.12/outbox.cif.g09.slc.cpg/sg55_5_cif.got.tgz:8727.got - 2010.04.16 15:19:21.
