data_PCOD8224664
_publ_section_title
;
Structure prediction by ZEFSAII (Michael W. Deem and Ramdas Pophale) SiO2 
 PCOD8224664
Probable space group: P B A M
;
_chemical_formula_sum "Si O2"
_cell_formula_units_Z 64
_cell_length_a 16.705213
_cell_length_b 21.135143
_cell_length_c 8.980785
_cell_angle_alpha 90.000000
_cell_angle_beta 90.000000
_cell_angle_gamma 90.000000
_cell_volume 3170.819407
_symmetry_space_group_name_H-M "P B A M"
_symmetry_group_IT_number 55
_symmetry_cell_setting 'orthorhombic'
loop_
_space_group_symop_operation_xyz
x,y,z
-x,-y,z
1/2+x,1/2-y,-z
1/2-x,1/2+y,-z
-x,-y,-z
x,y,-z
1/2-x,1/2+y,z
1/2+x,1/2-y,z
loop_
_atom_site_type_symbol
_atom_site_label
_atom_site_fract_x
_atom_site_fract_y
_atom_site_fract_z
Si Si1 0.202187 0.629206 0.176263
Si Si2 0.950567 0.332920 0.323334
Si Si3 0.318614 0.714937 0.666628
Si Si4 0.447303 0.605818 0.335432
Si Si5 0.780981 0.113570 0.827269
Si Si6 0.589736 0.690604 0.676756
Si Si7 0.387050 0.833778 0.172670
Si Si8 0.171079 0.023632 0.825113
O O1 0.113827 0.621072 0.244684
O O2 0.237593 0.692206 0.253566
O O3 0.254803 0.568351 0.220866
O O4 0.198769 0.639120 0.000000
O O5 0.945502 0.340147 0.500000
O O6 0.935778 0.260526 0.270200
O O7 0.036789 0.356779 0.267000
O O8 0.298733 0.740816 0.500000
O O9 0.378458 0.657262 0.653652
O O10 0.359963 0.766037 0.769609
O O11 0.467771 0.580179 0.500000
O O12 0.525474 0.638783 0.262558
O O13 0.414019 0.547175 0.239475
O O14 0.823650 0.171163 0.740286
O O15 0.685542 0.117090 0.802535
O O16 0.810637 0.046306 0.763216
O O17 0.802501 0.121076 0.000000
O O18 0.591207 0.689174 0.500000
O O19 0.410758 0.828431 0.000000
O O20 0.161560 0.022859 0.000000
#
# Coordination Sequence:
#
# PCOD8224664 Si02
#       8
#     8   8   8   8   8   8   8   8
#     4  10  20  35  57  84 109 142 189 234 275 328
#     4  11  22  38  58  84 116 147 180 227 288 344
#     4  10  18  33  55  80 113 148 180 222 280 337
#     4   9  18  34  55  81 112 146 183 223 271 326
#     4  10  23  40  56  79 111 149 188 230 277 327
#     4  10  21  37  56  83 116 147 180 222 278 337
#     4  11  22  36  56  81 111 146 187 233 281 334
#     4   9  20  39  58  78 110 149 191 231 273 324
#
# _framework density 20.184058
#
# number of rings (size 3 to 8) (size 9 to 14) (size 15 to 20)
#    0.000    2.000    1.250    2.250    0.000    6.500 
#    0.000    3.125    0.000    3.750    0.000    0.000 
#    0.000    0.000    0.000    0.000    0.000    0.000 
#
# Total GULP energy -793645.985418 kJ/mol
# GULP energy per Si atom -12400.718522 kJ/mol
# Density = 2.013812 g / cm^3
# Si number density = 20.184058 Si / 1000 Ang^3
#
#
#
# Elastic Constant Matrix: (Units=GPa)
#
#
# Indices 1 2 3 4 5 6 
#
# 1 89.9399 2.0749 24.8492 0.0000 0.0000 0.0000
# 2 2.0749 40.8422 21.7162 0.0000 0.0000 0.0000
# 3 24.8492 21.7162 52.8834 0.0000 0.0000 0.0000
# 4 0.0000 0.0000 0.0000 19.3895 0.0000 0.0000
# 5 0.0000 0.0000 0.0000 0.0000 37.5953 0.0000
# 6 0.0000 0.0000 0.0000 0.0000 0.0000 19.7007
#
#
#
# Elastic Compliance Matrix: (Units=1/GPa)
#
#
# Indices 1 2 3 4 5 6 
#
# 1 0.013124 0.003342 -0.007539 0.000000 0.000000 0.000000
# 2 0.003342 0.032175 -0.014783 0.000000 0.000000 0.000000
# 3 -0.007539 -0.014783 0.028523 0.000000 0.000000 0.000000
# 4 0.000000 0.000000 0.000000 0.051574 0.000000 0.000000
# 5 0.000000 0.000000 0.000000 0.000000 0.026599 0.000000
# 6 0.000000 0.000000 0.000000 0.000000 0.000000 0.050760
#
#
# Mechanical properties :
#
#
# Convention : Reuss Voigt Hill
#
# Bulk Modulus (GPa) = 27.88491 31.21622 29.55057
# Shear Modulus (GPa) = 19.78875 24.33879 22.06377
#
# Velocity S-wave (km/s) = 3.13455 3.47629 3.30984
# Velocity P-wave (km/s) = 5.19094 5.62247 5.41101
#
# Compressibility (1/GPa) = 0.03586169
#
# Stress axis : x y z
#
# Youngs Moduli (GPa) = 76.19356 31.08025 35.05996
#
# Poissons Ratio (x) = -0.10387 0.26433
# Poissons Ratio (y) = -0.25464 0.51828
# Poissons Ratio (z) = 0.57445 0.45945
#
# Static dielectric constant tensor:
#      x y z
#    x 3.905320 0.000000 0.000000 
#    y 0.000000 3.568180 0.000000 
#    z 0.000000 0.000000 3.680680 
# 
# 
# High freq. dielectric constant tensor:
#      x y z
#    x 1.798730 0.000000 0.000000 
#    y 0.000000 1.765740 0.000000 
#    z 0.000000 0.000000 1.785500 
# 
# From -- ./inp_files/6500.got.cif
#   From: 2010.03.12/outbox.cif.g09.slc.cpg/sg55_4_cif.got.tgz:6500.got - 2010.04.16 15:19:21.
