data_PCOD8224306
_publ_section_title
;
Structure prediction by ZEFSAII (Michael W. Deem and Ramdas Pophale) SiO2 
 PCOD8224306
Probable space group: P B A M
;
_chemical_formula_sum "Si O2"
_cell_formula_units_Z 56
_cell_length_a 19.297663
_cell_length_b 19.489110
_cell_length_c 8.743365
_cell_angle_alpha 90.000000
_cell_angle_beta 90.000000
_cell_angle_gamma 90.000000
_cell_volume 3288.329538
_symmetry_space_group_name_H-M "P B A M"
_symmetry_group_IT_number 55
_symmetry_cell_setting 'orthorhombic'
loop_
_space_group_symop_operation_xyz
x,y,z
-x,-y,z
1/2+x,1/2-y,-z
1/2-x,1/2+y,-z
-x,-y,-z
x,y,-z
1/2-x,1/2+y,z
1/2+x,1/2-y,z
loop_
_atom_site_type_symbol
_atom_site_label
_atom_site_fract_x
_atom_site_fract_y
_atom_site_fract_z
Si Si1 0.131227 0.769379 0.820940
Si Si2 0.758069 0.336034 0.179021
Si Si3 0.978658 0.793799 0.182181
Si Si4 0.708233 0.480363 0.180478
Si Si5 0.751624 0.128125 0.182145
Si Si6 0.943544 0.946687 0.182096
Si Si7 0.347573 0.767481 0.319710
O O1 0.166833 0.696070 0.780828
O O2 0.180698 0.830217 0.759696
O O3 0.054474 0.773814 0.750648
O O4 0.123150 0.779529 0.000000
O O5 0.757634 0.416237 0.224682
O O6 0.697744 0.297633 0.269329
O O7 0.740877 0.326011 0.000000
O O8 0.962132 0.870638 0.238887
O O9 0.924896 0.740667 0.255219
O O10 0.974607 0.787785 0.000000
O O11 0.741498 0.550396 0.244904
O O12 0.631477 0.468055 0.248307
O O13 0.701439 0.487846 0.000000
O O14 0.683226 0.161672 0.254006
O O15 0.744908 0.131940 0.000000
O O16 0.943175 0.948608 0.000000
O O17 0.000000 0.000000 0.247315
O O18 0.349700 0.771978 0.500000
#
# Coordination Sequence:
#
# PCOD8224306 Si02
#       7
#     8   8   8   8   8   8   8
#     4   8  15  26  46  72  96 120 154 197 237 282
#     4   9  16  31  51  73  97 123 158 200 241 287
#     4  10  17  29  48  70  96 127 158 195 240 283
#     4   9  15  25  46  73  96 121 151 192 241 286
#     4   9  17  31  50  72  96 122 157 199 242 286
#     4   9  15  22  40  72 102 122 148 185 231 289
#     4  11  21  32  46  67  94 129 168 200 233 280
#
# _framework density 17.029923
#
# number of rings (size 3 to 8) (size 9 to 14) (size 15 to 20)
#    0.000    2.714    1.429    3.000    0.000    3.429 
#    0.000    3.571    0.000    1.286    0.000    6.000 
#    0.000    0.000    0.000    0.000    0.000    0.000 
#
# Total GULP energy -694179.090982 kJ/mol
# GULP energy per Si atom -12396.055196 kJ/mol
# Density = 1.699116 g / cm^3
# Si number density = 17.029923 Si / 1000 Ang^3
#
#
#
# Elastic Constant Matrix: (Units=GPa)
#
#
# Indices 1 2 3 4 5 6 
#
# 1 116.6520 82.0629 22.7531 0.0000 0.0000 0.0000
# 2 82.0629 155.6360 22.7131 0.0000 0.0000 0.0000
# 3 22.7531 22.7131 33.3605 0.0000 0.0000 0.0000
# 4 0.0000 0.0000 0.0000 6.1035 0.0000 0.0000
# 5 0.0000 0.0000 0.0000 0.0000 3.8931 0.0000
# 6 0.0000 0.0000 0.0000 0.0000 0.0000 29.1743
#
#
#
# Elastic Compliance Matrix: (Units=1/GPa)
#
#
# Indices 1 2 3 4 5 6 
#
# 1 0.014385 -0.006832 -0.005160 0.000000 0.000000 0.000000
# 2 -0.006832 0.010379 -0.002407 0.000000 0.000000 0.000000
# 3 -0.005160 -0.002407 0.035133 0.000000 0.000000 0.000000
# 4 0.000000 0.000000 0.000000 0.163842 0.000000 0.000000
# 5 0.000000 0.000000 0.000000 0.000000 0.256864 0.000000
# 6 0.000000 0.000000 0.000000 0.000000 0.000000 0.034277
#
#
# Mechanical properties :
#
#
# Convention : Reuss Voigt Hill
#
# Bulk Modulus (GPa) = 32.15384 62.30077 47.22731
# Shear Modulus (GPa) = 9.02457 19.70881 14.36669
#
# Velocity S-wave (km/s) = 2.30451 3.40561 2.90766
# Velocity P-wave (km/s) = 5.09929 7.21989 6.25018
#
# Compressibility (1/GPa) = 0.03110048
#
# Stress axis : x y z
#
# Youngs Moduli (GPa) = 69.51677 96.35091 28.46308
#
# Poissons Ratio (x) = 0.65826 0.14686
# Poissons Ratio (y) = 0.47493 0.06850
# Poissons Ratio (z) = 0.35869 0.23188
#
# Static dielectric constant tensor:
#      x y z
#    x 3.352780 0.000000 0.000000 
#    y 0.000000 3.365870 0.000000 
#    z 0.000000 0.000000 2.686180 
# 
# 
# High freq. dielectric constant tensor:
#      x y z
#    x 1.651790 0.000000 0.000000 
#    y 0.000000 1.654500 0.000000 
#    z 0.000000 0.000000 1.607780 
# 
# From -- ./inp_files/7816.got.cif
#   From: 2010.03.12/outbox.cif.g09.slc.cpg/sg55_4_cif.got.tgz:7816.got - 2010.04.16 15:19:21.
