data_PCOD8224543
_publ_section_title
;
Structure prediction by ZEFSAII (Michael W. Deem and Ramdas Pophale) SiO2 
 PCOD8224543
Probable space group: P B A M
;
_chemical_formula_sum "Si O2"
_cell_formula_units_Z 48
_cell_length_a 15.045252
_cell_length_b 12.072284
_cell_length_c 13.461884
_cell_angle_alpha 90.000000
_cell_angle_beta 90.000000
_cell_angle_gamma 90.000000
_cell_volume 2445.089462
_symmetry_space_group_name_H-M "P B A M"
_symmetry_group_IT_number 55
_symmetry_cell_setting 'orthorhombic'
loop_
_space_group_symop_operation_xyz
x,y,z
-x,-y,z
1/2+x,1/2-y,-z
1/2-x,1/2+y,-z
-x,-y,-z
x,y,-z
1/2-x,1/2+y,z
1/2+x,1/2-y,z
loop_
_atom_site_type_symbol
_atom_site_label
_atom_site_fract_x
_atom_site_fract_y
_atom_site_fract_z
Si Si1 0.391319 0.891877 0.384230
Si Si2 0.341175 0.661467 0.888698
Si Si3 0.738059 0.722456 0.267818
Si Si4 0.580148 0.868474 0.305937
Si Si5 0.983362 0.282794 0.890246
Si Si6 0.147931 0.913551 0.110569
O O1 0.374338 0.907243 0.500000
O O2 0.316176 0.808929 0.343480
O O3 0.490013 0.841694 0.367274
O O4 0.381891 0.011496 0.332821
O O5 0.264536 0.678804 0.807707
O O6 0.413421 0.757733 0.870370
O O7 0.382812 0.539843 0.873829
O O8 0.301331 0.672496 0.000000
O O9 0.653109 0.772221 0.328057
O O10 0.716374 0.616893 0.198498
O O11 0.554653 0.869653 0.188979
O O12 0.937564 0.163523 0.879673
O O13 0.968405 0.333533 0.000000
O O14 0.191157 0.899206 0.000000
#
# Coordination Sequence:
#
# PCOD8224543 Si02
#       6
#     8   8   8   8   8   8
#     4  11  24  42  62  83 109 147 195 244 297 347
#     4  10  18  31  52  81 118 153 185 223 271 328
#     4  11  21  36  59  86 112 148 192 239 279 337
#     4  10  21  40  61  84 116 149 188 232 287 343
#     4   9  17  32  55  84 116 150 187 222 267 337
#     4   9  18  31  51  82 118 154 184 217 270 337
#
# _framework density 19.631184000000001
#
# number of rings (size 3 to 8) (size 9 to 14) (size 15 to 20)
#    0.000    2.000    1.667    3.000    0.000    4.000 
#    0.000    3.333    0.000    0.000    0.000    4.667 
#    0.000    0.000    0.000    0.000    0.000    0.000 
#
# Total GULP energy -595003.821093 kJ/mol
# GULP energy per Si atom -12395.912939 kJ/mol
# Density = 1.958650 g / cm^3
# Si number density = 19.631184 Si / 1000 Ang^3
#
#
#
# Elastic Constant Matrix: (Units=GPa)
#
#
# Indices 1 2 3 4 5 6 
#
# 1 93.3679 38.8828 39.2789 0.0000 0.0000 0.0000
# 2 38.8828 78.0855 56.5102 0.0000 0.0000 0.0000
# 3 39.2789 56.5102 113.0896 0.0000 0.0000 0.0000
# 4 0.0000 0.0000 0.0000 21.5689 0.0000 0.0000
# 5 0.0000 0.0000 0.0000 0.0000 18.9117 0.0000
# 6 0.0000 0.0000 0.0000 0.0000 0.0000 30.9790
#
#
#
# Elastic Compliance Matrix: (Units=1/GPa)
#
#
# Indices 1 2 3 4 5 6 
#
# 1 0.013834 -0.005344 -0.002135 0.000000 0.000000 0.000000
# 2 -0.005344 0.022125 -0.009200 0.000000 0.000000 0.000000
# 3 -0.002135 -0.009200 0.014181 0.000000 0.000000 0.000000
# 4 0.000000 0.000000 0.000000 0.046363 0.000000 0.000000
# 5 0.000000 0.000000 0.000000 0.000000 0.052877 0.000000
# 6 0.000000 0.000000 0.000000 0.000000 0.000000 0.032280
#
#
# Mechanical properties :
#
#
# Convention : Reuss Voigt Hill
#
# Bulk Modulus (GPa) = 59.58153 61.54298 60.56225
# Shear Modulus (GPa) = 22.66432 24.28334 23.47383
#
# Velocity S-wave (km/s) = 3.40149 3.52089 3.46170
# Velocity P-wave (km/s) = 6.77076 6.92434 6.84798
#
# Compressibility (1/GPa) = 0.01678372
#
# Stress axis : x y z
#
# Youngs Moduli (GPa) = 72.28734 45.19708 70.51657
#
# Poissons Ratio (x) = 0.24152 0.15052
# Poissons Ratio (y) = 0.38628 0.64874
# Poissons Ratio (z) = 0.15430 0.41581
#
# Static dielectric constant tensor:
#      x y z
#    x 3.620870 0.000000 0.000000 
#    y 0.000000 3.340180 0.000000 
#    z 0.000000 0.000000 3.563170 
# 
# 
# High freq. dielectric constant tensor:
#      x y z
#    x 1.766250 0.000000 0.000000 
#    y 0.000000 1.748870 0.000000 
#    z 0.000000 0.000000 1.752910 
# 
# From -- ./inp_files/18251.got.cif
#   From: 2010.03.12/outbox.cif.g09.slc.cpg/sg55_10_cif.got.tgz:18251.got - 2010.04.16 15:19:21.
