data_PCOD8224565
_publ_section_title
;
Structure prediction by ZEFSAII (Michael W. Deem and Ramdas Pophale) SiO2 
 PCOD8224565
Probable space group: P B A M
;
_chemical_formula_sum "Si O2"
_cell_formula_units_Z 56
_cell_length_a 14.690835
_cell_length_b 21.015573
_cell_length_c 9.282089
_cell_angle_alpha 90.000000
_cell_angle_beta 90.000000
_cell_angle_gamma 90.000000
_cell_volume 2865.717957
_symmetry_space_group_name_H-M "P B A M"
_symmetry_group_IT_number 55
_symmetry_cell_setting 'orthorhombic'
loop_
_space_group_symop_operation_xyz
x,y,z
-x,-y,z
1/2+x,1/2-y,-z
1/2-x,1/2+y,-z
-x,-y,-z
x,y,-z
1/2-x,1/2+y,z
1/2+x,1/2-y,z
loop_
_atom_site_type_symbol
_atom_site_label
_atom_site_fract_x
_atom_site_fract_y
_atom_site_fract_z
Si Si1 0.007501 0.234553 0.662747
Si Si2 0.752613 0.602803 0.168306
Si Si3 0.324444 0.261370 0.830821
Si Si4 0.734999 0.464931 0.169246
Si Si5 0.070728 0.370378 0.339588
Si Si6 0.341387 0.666490 0.170686
Si Si7 0.435162 0.059903 0.838462
O O1 0.986807 0.210412 0.500000
O O2 0.075185 0.294427 0.656389
O O3 0.063449 0.182602 0.752898
O O4 0.913925 0.254791 0.740289
O O5 0.696880 0.665296 0.211191
O O6 0.699074 0.536594 0.209338
O O7 0.847925 0.600910 0.248441
O O8 0.776764 0.603304 0.000000
O O9 0.242050 0.213855 0.787129
O O10 0.345276 0.254768 0.000000
O O11 0.677548 0.405317 0.229536
O O12 0.837943 0.459493 0.225819
O O13 0.734716 0.456648 0.000000
O O14 0.075440 0.399210 0.500000
O O15 0.974840 0.387025 0.266489
O O16 0.357479 0.669934 0.000000
O O17 0.500000 0.000000 0.838220
O O18 0.426046 0.088403 0.000000
#
# Coordination Sequence:
#
# PCOD8224565 Si02
#       7
#     8   8   8   8   8   8   8
#     4  11  24  39  57  82 116 154 191 236 290 344
#     4  10  19  36  59  83 111 144 185 232 282 334
#     4  10  21  37  62  88 110 147 197 244 283 330
#     4   9  18  33  55  84 114 144 181 233 293 336
#     4  11  22  34  51  79 114 150 184 226 281 340
#     4  10  20  37  61  87 114 146 191 241 283 337
#     4  10  18  31  54  80 110 147 183 226 279 339
#
# _framework density 19.541350999999999
#
# number of rings (size 3 to 8) (size 9 to 14) (size 15 to 20)
#    0.000    1.857    2.857    1.714    0.000    4.286 
#    0.000    2.143    0.000    4.286    0.000    0.000 
#    0.000    0.000    0.000    0.000    0.000    0.000 
#
# Total GULP energy -694049.070080 kJ/mol
# GULP energy per Si atom -12393.733394 kJ/mol
# Density = 1.949687 g / cm^3
# Si number density = 19.541351 Si / 1000 Ang^3
#
#
#
# Elastic Constant Matrix: (Units=GPa)
#
#
# Indices 1 2 3 4 5 6 
#
# 1 50.7926 11.6613 24.8608 0.0000 0.0000 0.0000
# 2 11.6613 115.9615 24.7879 0.0000 0.0000 0.0000
# 3 24.8608 24.7879 56.8006 0.0000 0.0000 0.0000
# 4 0.0000 0.0000 0.0000 16.2458 0.0000 0.0000
# 5 0.0000 0.0000 0.0000 0.0000 4.8968 0.0000
# 6 0.0000 0.0000 0.0000 0.0000 0.0000 30.4737
#
#
#
# Elastic Compliance Matrix: (Units=1/GPa)
#
#
# Indices 1 2 3 4 5 6 
#
# 1 0.025059 -0.000194 -0.010884 0.000000 0.000000 0.000000
# 2 -0.000194 0.009512 -0.004066 0.000000 0.000000 0.000000
# 3 -0.010884 -0.004066 0.024144 0.000000 0.000000 0.000000
# 4 0.000000 0.000000 0.000000 0.061554 0.000000 0.000000
# 5 0.000000 0.000000 0.000000 0.000000 0.204216 0.000000
# 6 0.000000 0.000000 0.000000 0.000000 0.000000 0.032815
#
#
# Mechanical properties :
#
#
# Convention : Reuss Voigt Hill
#
# Bulk Modulus (GPa) = 35.17658 38.46386 36.82022
# Shear Modulus (GPa) = 12.59242 21.13958 16.86600
#
# Velocity S-wave (km/s) = 2.54125 3.29262 2.94103
# Velocity P-wave (km/s) = 5.16244 5.84647 5.51507
#
# Compressibility (1/GPa) = 0.02842801
#
# Stress axis : x y z
#
# Youngs Moduli (GPa) = 39.90512 105.12751 41.41871
#
# Poissons Ratio (x) = 0.02035 0.45079
# Poissons Ratio (y) = 0.00772 0.16843
# Poissons Ratio (z) = 0.43432 0.42750
#
# Static dielectric constant tensor:
#      x y z
#    x 3.338520 0.000000 0.000000 
#    y 0.000000 3.904960 0.000000 
#    z 0.000000 0.000000 3.423030 
# 
# 
# High freq. dielectric constant tensor:
#      x y z
#    x 1.739140 0.000000 0.000000 
#    y 0.000000 1.772960 0.000000 
#    z 0.000000 0.000000 1.738190 
# 
# From -- ./inp_files/6034.got.cif
#   From: 2010.03.12/outbox.cif.g09.slc.cpg/sg55_4_cif.got.tgz:6034.got - 2010.04.16 15:19:21.
