data_PCOD8224967
_publ_section_title
;
Structure prediction by ZEFSAII (Michael W. Deem and Ramdas Pophale) SiO2 
 PCOD8224967
Probable space group: P B A M
;
_chemical_formula_sum "Si O2"
_cell_formula_units_Z 64
_cell_length_a 14.705339
_cell_length_b 17.868141
_cell_length_c 13.469974
_cell_angle_alpha 90.000000
_cell_angle_beta 90.000000
_cell_angle_gamma 90.000000
_cell_volume 3539.330911
_symmetry_space_group_name_H-M "P B A M"
_symmetry_group_IT_number 55
_symmetry_cell_setting 'orthorhombic'
loop_
_space_group_symop_operation_xyz
x,y,z
-x,-y,z
1/2+x,1/2-y,-z
1/2-x,1/2+y,-z
-x,-y,-z
x,y,-z
1/2-x,1/2+y,z
1/2+x,1/2-y,z
loop_
_atom_site_type_symbol
_atom_site_label
_atom_site_fract_x
_atom_site_fract_y
_atom_site_fract_z
Si Si1 0.603693 0.992386 0.740915
Si Si2 0.314636 0.681242 0.886475
Si Si3 0.927637 0.327134 0.699458
Si Si4 0.229827 0.773458 0.725295
Si Si5 0.731949 0.480518 0.889391
Si Si6 0.006329 0.750489 0.110969
Si Si7 0.155457 0.867411 0.109919
Si Si8 0.615747 0.141788 0.385020
O O1 0.613715 0.910791 0.688732
O O2 0.678476 0.997988 0.826064
O O3 0.500000 0.000000 0.782375
O O4 0.623107 0.060011 0.664656
O O5 0.242642 0.707587 0.805833
O O6 0.324551 0.593691 0.862749
O O7 0.403475 0.729539 0.863893
O O8 0.281709 0.694338 0.000000
O O9 0.856614 0.261579 0.664888
O O10 0.957032 0.312168 0.814109
O O11 0.016969 0.321128 0.631112
O O12 0.215108 0.844560 0.795615
O O13 0.310538 0.796997 0.652465
O O14 0.653487 0.543226 0.880457
O O15 0.771537 0.475598 0.000000
O O16 0.057038 0.830175 0.120800
O O17 0.016514 0.717366 0.000000
O O18 0.196493 0.845697 0.000000
O O19 0.634386 0.129015 0.500000
#
# Coordination Sequence:
#
# PCOD8224967 Si02
#       8
#     8   8   8   8   8   8   8   8
#     4  10  21  37  53  76 110 145 180 219 271 328
#     4  10  19  31  53  81 114 147 178 216 264 322
#     4  10  21  36  59  83 108 143 180 226 274 333
#     4  11  19  35  59  79 110 140 180 225 280 328
#     4  10  19  32  51  80 114 147 179 215 257 319
#     4   9  18  32  52  82 113 148 182 214 263 323
#     4   9  18  31  50  77 111 146 180 215 258 319
#     4  11  24  41  59  80 105 138 186 240 288 330
#
# _framework density 18.082514
#
# number of rings (size 3 to 8) (size 9 to 14) (size 15 to 20)
#    0.000    2.000    3.750    0.375    0.000    4.500 
#    0.000    4.375    0.000    0.000    0.000    0.000 
#    0.000    6.000    0.000    0.000    0.000    0.000 
#
# Total GULP energy -792852.881429 kJ/mol
# GULP energy per Si atom -12388.326272 kJ/mol
# Density = 1.804136 g / cm^3
# Si number density = 18.082514 Si / 1000 Ang^3
#
#
#
# Elastic Constant Matrix: (Units=GPa)
#
#
# Indices 1 2 3 4 5 6 
#
# 1 58.8146 26.3919 27.2497 0.0000 0.0000 0.0000
# 2 26.3919 103.8917 30.3795 0.0000 0.0000 0.0000
# 3 27.2497 30.3795 73.6036 0.0000 0.0000 0.0000
# 4 0.0000 0.0000 0.0000 18.8407 0.0000 0.0000
# 5 0.0000 0.0000 0.0000 0.0000 4.6568 0.0000
# 6 0.0000 0.0000 0.0000 0.0000 0.0000 27.5124
#
#
#
# Elastic Compliance Matrix: (Units=1/GPa)
#
#
# Indices 1 2 3 4 5 6 
#
# 1 0.021638 -0.003587 -0.006530 0.000000 0.000000 0.000000
# 2 -0.003587 0.011541 -0.003436 0.000000 0.000000 0.000000
# 3 -0.006530 -0.003436 0.017422 0.000000 0.000000 0.000000
# 4 0.000000 0.000000 0.000000 0.053077 0.000000 0.000000
# 5 0.000000 0.000000 0.000000 0.000000 0.214742 0.000000
# 6 0.000000 0.000000 0.000000 0.000000 0.000000 0.036347
#
#
# Mechanical properties :
#
#
# Convention : Reuss Voigt Hill
#
# Bulk Modulus (GPa) = 42.56201 44.92802 43.74501
# Shear Modulus (GPa) = 12.83025 20.35456 16.59240
#
# Velocity S-wave (km/s) = 2.66661 3.35871 3.03247
# Velocity P-wave (km/s) = 5.75064 6.31991 6.04198
#
# Compressibility (1/GPa) = 0.02349513
#
# Stress axis : x y z
#
# Youngs Moduli (GPa) = 46.21546 86.64549 57.39891
#
# Poissons Ratio (x) = 0.31081 0.37483
# Poissons Ratio (y) = 0.16578 0.19720
# Poissons Ratio (z) = 0.30180 0.29768
#
# Static dielectric constant tensor:
#      x y z
#    x 3.320260 0.000000 0.000000 
#    y 0.000000 3.447960 0.000000 
#    z 0.000000 0.000000 3.102140 
# 
# 
# High freq. dielectric constant tensor:
#      x y z
#    x 1.696560 0.000000 0.000000 
#    y 0.000000 1.708610 0.000000 
#    z 0.000000 0.000000 1.671840 
# 
# From -- ./inp_files/14410.got.cif
#   From: 2010.03.12/outbox.cif.g09.slc.cpg/sg55_8_cif.got.tgz:14410.got - 2010.04.16 15:19:21.
