data_PCOD8224799
_publ_section_title
;
Structure prediction by ZEFSAII (Michael W. Deem and Ramdas Pophale) SiO2 
 PCOD8224799
Probable space group: P B A M
;
_chemical_formula_sum "Si O2"
_cell_formula_units_Z 64
_cell_length_a 18.633203
_cell_length_b 26.269161
_cell_length_c 8.568674
_cell_angle_alpha 90.000000
_cell_angle_beta 90.000000
_cell_angle_gamma 90.000000
_cell_volume 4194.182635
_symmetry_space_group_name_H-M "P B A M"
_symmetry_group_IT_number 55
_symmetry_cell_setting 'orthorhombic'
loop_
_space_group_symop_operation_xyz
x,y,z
-x,-y,z
1/2+x,1/2-y,-z
1/2-x,1/2+y,-z
-x,-y,-z
x,y,-z
1/2-x,1/2+y,z
1/2+x,1/2-y,z
loop_
_atom_site_type_symbol
_atom_site_label
_atom_site_fract_x
_atom_site_fract_y
_atom_site_fract_z
Si Si1 0.571713 0.257119 0.186379
Si Si2 0.149578 0.145558 0.321074
Si Si3 0.201178 0.302704 0.820709
Si Si4 0.665549 0.642143 0.184128
Si Si5 0.426753 0.444461 0.318700
Si Si6 0.278688 0.211413 0.321751
Si Si7 0.090517 0.751792 0.817883
Si Si8 0.421911 0.551786 0.818902
O O1 0.599124 0.308461 0.266036
O O2 0.621007 0.208733 0.245674
O O3 0.491060 0.246065 0.240625
O O4 0.577359 0.264219 0.000000
O O5 0.130709 0.133801 0.500000
O O6 0.234465 0.158844 0.301230
O O7 0.134960 0.095633 0.219452
O O8 0.252076 0.347824 0.752674
O O9 0.245198 0.250838 0.799989
O O10 0.193213 0.315407 0.000000
O O11 0.636930 0.593857 0.276933
O O12 0.616864 0.691274 0.222730
O O13 0.664104 0.630861 0.000000
O O14 0.444948 0.441228 0.500000
O O15 0.498101 0.429237 0.223632
O O16 0.401552 0.501347 0.277063
O O17 0.270361 0.230615 0.500000
O O18 0.362791 0.208863 0.274565
O O19 0.096594 0.740243 0.000000
O O20 0.418542 0.538349 0.000000
#
# Coordination Sequence:
#
# PCOD8224799 Si02
#       8
#     8   8   8   8   8   8   8   8
#     4   9  16  27  43  63  84 111 143 173 205 242
#     4  10  19  30  43  61  83 109 140 174 208 244
#     4   8  15  27  42  58  80 108 139 172 204 238
#     4   9  16  27  41  59  83 113 144 172 203 242
#     4  11  21  32  45  62  84 108 136 174 210 242
#     4   9  17  27  40  58  82 108 136 169 205 242
#     4   9  17  27  41  60  84 111 141 172 201 238
#     4  11  21  33  47  61  80 108 139 172 207 246
#
# _framework density 15.259232000000001
#
# number of rings (size 3 to 8) (size 9 to 14) (size 15 to 20)
#    0.000    2.500    0.000    5.250    0.000    5.000 
#    0.000    0.000    0.000    0.000    0.000    0.000 
#    0.000    1.000    0.000   11.500    0.000    2.875 
#
# Total GULP energy -792982.516691 kJ/mol
# GULP energy per Si atom -12390.351823 kJ/mol
# Density = 1.522450 g / cm^3
# Si number density = 15.259232 Si / 1000 Ang^3
#
#
#
# Elastic Constant Matrix: (Units=GPa)
#
#
# Indices 1 2 3 4 5 6 
#
# 1 112.9731 46.9440 20.6631 0.0000 0.0000 0.0000
# 2 46.9440 65.6024 16.8211 0.0000 0.0000 0.0000
# 3 20.6631 16.8211 36.5204 0.0000 0.0000 0.0000
# 4 0.0000 0.0000 0.0000 18.6051 0.0000 0.0000
# 5 0.0000 0.0000 0.0000 0.0000 18.2245 0.0000
# 6 0.0000 0.0000 0.0000 0.0000 0.0000 26.6464
#
#
#
# Elastic Compliance Matrix: (Units=1/GPa)
#
#
# Indices 1 2 3 4 5 6 
#
# 1 0.012975 -0.008394 -0.003475 0.000000 0.000000 0.000000
# 2 -0.008394 0.022715 -0.005713 0.000000 0.000000 0.000000
# 3 -0.003475 -0.005713 0.031980 0.000000 0.000000 0.000000
# 4 0.000000 0.000000 0.000000 0.053749 0.000000 0.000000
# 5 0.000000 0.000000 0.000000 0.000000 0.054871 0.000000
# 6 0.000000 0.000000 0.000000 0.000000 0.000000 0.037529
#
#
# Mechanical properties :
#
#
# Convention : Reuss Voigt Hill
#
# Bulk Modulus (GPa) = 30.76413 42.66136 36.71274
# Shear Modulus (GPa) = 19.24433 21.40640 20.32536
#
# Velocity S-wave (km/s) = 3.55513 3.74953 3.65362
# Velocity P-wave (km/s) = 6.08742 6.83840 6.47381
#
# Compressibility (1/GPa) = 0.03250539
#
# Stress axis : x y z
#
# Youngs Moduli (GPa) = 77.07037 44.02442 31.26991
#
# Poissons Ratio (x) = 0.36953 0.10867
# Poissons Ratio (y) = 0.64691 0.17865
# Poissons Ratio (z) = 0.26783 0.25152
#
# Static dielectric constant tensor:
#      x y z
#    x 3.259980 0.000000 0.000000 
#    y 0.000000 2.741620 0.000000 
#    z 0.000000 0.000000 2.934140 
# 
# 
# High freq. dielectric constant tensor:
#      x y z
#    x 1.579600 0.000000 0.000000 
#    y 0.000000 1.545460 0.000000 
#    z 0.000000 0.000000 1.590110 
# 
# From -- ./inp_files/8217.got.cif
#   From: 2010.03.12/outbox.cif.g09.slc.cpg/sg55_5_cif.got.tgz:8217.got - 2010.04.16 15:19:21.
