data_PCOD8224218
_publ_section_title
;
Structure prediction by ZEFSAII (Michael W. Deem and Ramdas Pophale) SiO2 
 PCOD8224218
Probable space group: P C C A
;
_chemical_formula_sum "Si O2"
_cell_formula_units_Z 40
_cell_length_a 19.251500
_cell_length_b 6.235376
_cell_length_c 19.210979
_cell_angle_alpha 90.000000
_cell_angle_beta 90.000000
_cell_angle_gamma 90.000000
_cell_volume 2306.092471
_symmetry_space_group_name_H-M "P C C A"
_symmetry_group_IT_number 54
_symmetry_cell_setting 'orthorhombic'
loop_
_space_group_symop_operation_xyz
x,y,z
1/2-x,-y,z
1/2+x,-y,1/2-z
-x,y,1/2-z
-x,-y,-z
1/2+x,y,-z
1/2-x,y,1/2+z
x,-y,1/2+z
loop_
_atom_site_type_symbol
_atom_site_label
_atom_site_fract_x
_atom_site_fract_y
_atom_site_fract_z
Si Si1 0.500000 0.379565 0.750000
Si Si2 0.677592 0.109795 0.062967
Si Si3 0.071924 0.235469 0.683674
Si Si4 0.185055 0.127562 0.571144
Si Si5 0.066274 0.994774 0.322178
Si Si6 0.750000 0.500000 0.017252
O O1 0.447775 0.519546 0.702171
O O2 0.547659 0.239471 0.697708
O O3 0.693093 0.367050 0.063550
O O4 0.750000 0.000000 0.082658
O O5 0.621409 0.027401 0.117139
O O6 0.651743 0.034631 0.986050
O O7 0.132528 0.213174 0.628363
O O8 0.097088 0.119789 0.753956
O O9 0.003864 0.121322 0.652652
O O10 0.209012 0.337310 0.530957
O O11 0.250000 0.000000 0.606370
#
# Coordination Sequence:
#
# PCOD8224218 Si02
#       6
#     4   8   8   8   8   4
#     4   8  18  34  52  72 104 136 166 214 260 298
#     4   9  19  34  52  74 102 134 167 208 254 302
#     4   9  19  33  51  75 100 132 172 207 251 306
#     4   9  19  34  51  74 103 133 168 209 253 301
#     4   9  19  35  52  73 103 132 167 211 254 302
#     4   8  18  34  50  70 102 132 166 210 254 300
#
# _framework density 17.345357
#
# number of rings (size 3 to 8) (size 9 to 14) (size 15 to 20)
#    0.000    4.000    0.000    0.000    0.000   14.400 
#    0.000    3.000    0.000    0.000    0.000    0.000 
#    0.000    0.000    0.000    0.000    0.000    0.000 
#
# Total GULP energy -495528.714826 kJ/mol
# GULP energy per Si atom -12388.217871 kJ/mol
# Density = 1.730588 g / cm^3
# Si number density = 17.345357 Si / 1000 Ang^3
#
#
#
# Elastic Constant Matrix: (Units=GPa)
#
#
# Indices 1 2 3 4 5 6 
#
# 1 99.8666 49.4712 70.7699 0.0000 0.0000 0.0000
# 2 49.4712 141.5965 46.8253 0.0000 0.0000 0.0000
# 3 70.7699 46.8253 94.9211 0.0000 0.0000 0.0000
# 4 0.0000 0.0000 0.0000 12.7986 0.0000 0.0000
# 5 0.0000 0.0000 0.0000 0.0000 39.9173 0.0000
# 6 0.0000 0.0000 0.0000 0.0000 0.0000 13.3293
#
#
#
# Elastic Compliance Matrix: (Units=1/GPa)
#
#
# Indices 1 2 3 4 5 6 
#
# 1 0.022068 -0.002712 -0.015116 0.000000 0.000000 0.000000
# 2 -0.002712 0.008772 -0.002306 0.000000 0.000000 0.000000
# 3 -0.015116 -0.002306 0.022942 0.000000 0.000000 0.000000
# 4 0.000000 0.000000 0.000000 0.078134 0.000000 0.000000
# 5 0.000000 0.000000 0.000000 0.000000 0.025052 0.000000
# 6 0.000000 0.000000 0.000000 0.000000 0.000000 0.075023
#
#
# Mechanical properties :
#
#
# Convention : Reuss Voigt Hill
#
# Bulk Modulus (GPa) = 73.98256 74.50187 74.24221
# Shear Modulus (GPa) = 18.06606 24.49691 21.28148
#
# Velocity S-wave (km/s) = 3.23081 3.76214 3.50655
# Velocity P-wave (km/s) = 7.52747 7.86873 7.69999
#
# Compressibility (1/GPa) = 0.01351670
#
# Stress axis : x y z
#
# Youngs Moduli (GPa) = 45.31410 113.99673 43.58777
#
# Poissons Ratio (x) = 0.30911 0.65886
# Poissons Ratio (y) = 0.12287 0.10050
# Poissons Ratio (z) = 0.68495 0.26285
#
# Static dielectric constant tensor:
#      x y z
#    x 3.057370 0.000000 0.000000 
#    y 0.000000 3.567050 0.000000 
#    z 0.000000 0.000000 3.059290 
# 
# 
# High freq. dielectric constant tensor:
#      x y z
#    x 1.654000 0.000000 0.000000 
#    y 0.000000 1.687730 0.000000 
#    z 0.000000 0.000000 1.652930 
# 
# From -- ./inp_files/18805.got.cif
#   From: 2010.03.12/outbox.cif.g09.slc.cpg/sg54_10_cif.got.tgz:18805.got - 2010.04.16 15:00:50.
