data_PCOD8224738
_publ_section_title
;
Structure prediction by ZEFSAII (Michael W. Deem and Ramdas Pophale) SiO2 
 PCOD8224738
Probable space group: P B A M
;
_chemical_formula_sum "Si O2"
_cell_formula_units_Z 32
_cell_length_a 7.376429
_cell_length_b 18.724311
_cell_length_c 11.438889
_cell_angle_alpha 90.000000
_cell_angle_beta 90.000000
_cell_angle_gamma 90.000000
_cell_volume 1579.922770
_symmetry_space_group_name_H-M "P B A M"
_symmetry_group_IT_number 55
_symmetry_cell_setting 'orthorhombic'
loop_
_space_group_symop_operation_xyz
x,y,z
-x,-y,z
1/2+x,1/2-y,-z
1/2-x,1/2+y,-z
-x,-y,-z
x,y,-z
1/2-x,1/2+y,z
1/2+x,1/2-y,z
loop_
_atom_site_type_symbol
_atom_site_label
_atom_site_fract_x
_atom_site_fract_y
_atom_site_fract_z
Si Si1 0.692322 0.782476 0.500000
Si Si2 0.222728 0.318257 0.136966
Si Si3 0.351823 0.173595 0.250850
Si Si4 0.495282 0.581534 0.253630
Si Si5 0.566550 0.636052 0.500000
O O1 0.588674 0.809763 0.384041
O O2 0.723192 0.696266 0.500000
O O3 0.892283 0.813504 0.500000
O O4 0.254719 0.243002 0.198748
O O5 0.380636 0.373787 0.165675
O O6 0.029478 0.349022 0.179111
O O7 0.217020 0.304837 0.000000
O O8 0.211124 0.108281 0.245939
O O9 0.500000 0.500000 0.213051
O O10 0.574531 0.586886 0.385377
#
# Coordination Sequence:
#
# PCOD8224738 Si02
#       5
#     4   8   8   8   4
#     4  10  18  34  63  98 119 154 209 264 315 362
#     4  12  24  40  66  93 122 169 220 265 310 376
#     4  11  22  40  66  98 124 163 215 266 314 384
#     4  11  25  42  63  96 134 168 205 265 331 381
#     4  10  19  36  65  95 128 158 206 263 326 385
#
# _framework density 20.254155000000001
#
# number of rings (size 3 to 8) (size 9 to 14) (size 15 to 20)
#    0.000    1.000    5.000    2.625    0.000    2.500 
#    0.000    1.250    0.000    6.000    0.000    0.000 
#    0.000    0.000    0.000    0.000    0.000    0.000 
#
# Total GULP energy -396918.549480 kJ/mol
# GULP energy per Si atom -12403.704671 kJ/mol
# Density = 2.020806 g / cm^3
# Si number density = 20.254155 Si / 1000 Ang^3
#
#
#
# Elastic Constant Matrix: (Units=GPa)
#
#
# Indices 1 2 3 4 5 6 
#
# 1 62.5114 3.7571 19.7728 0.0000 0.0000 0.0000
# 2 3.7571 89.0813 10.8210 0.0000 0.0000 0.0000
# 3 19.7728 10.8210 110.3467 0.0000 0.0000 0.0000
# 4 0.0000 0.0000 0.0000 8.4061 0.0000 0.0000
# 5 0.0000 0.0000 0.0000 0.0000 26.6727 0.0000
# 6 0.0000 0.0000 0.0000 0.0000 0.0000 27.5851
#
#
#
# Elastic Compliance Matrix: (Units=1/GPa)
#
#
# Indices 1 2 3 4 5 6 
#
# 1 0.016969 -0.000351 -0.003006 0.000000 0.000000 0.000000
# 2 -0.000351 0.011368 -0.001052 0.000000 0.000000 0.000000
# 3 -0.003006 -0.001052 0.009704 0.000000 0.000000 0.000000
# 4 0.000000 0.000000 0.000000 0.118961 0.000000 0.000000
# 5 0.000000 0.000000 0.000000 0.000000 0.037492 0.000000
# 6 0.000000 0.000000 0.000000 0.000000 0.000000 0.036251
#
#
# Mechanical properties :
#
#
# Convention : Reuss Voigt Hill
#
# Bulk Modulus (GPa) = 34.21851 36.73791 35.47821
# Shear Modulus (GPa) = 20.05582 27.70536 23.88059
#
# Velocity S-wave (km/s) = 3.15017 3.70251 3.43745
# Velocity P-wave (km/s) = 5.49206 6.03787 5.77142
#
# Compressibility (1/GPa) = 0.02922395
#
# Stress axis : x y z
#
# Youngs Moduli (GPa) = 58.93084 87.96409 103.04819
#
# Poissons Ratio (x) = 0.03083 0.30979
# Poissons Ratio (y) = 0.02066 0.10841
# Poissons Ratio (z) = 0.17716 0.09254
#
# Static dielectric constant tensor:
#      x y z
#    x 3.746560 0.000000 0.000000 
#    y 0.000000 3.408390 0.000000 
#    z 0.000000 0.000000 3.874940 
# 
# 
# High freq. dielectric constant tensor:
#      x y z
#    x 1.796950 0.000000 0.000000 
#    y 0.000000 1.765420 0.000000 
#    z 0.000000 0.000000 1.802850 
# 
# From -- ./inp_files/11810.got.cif
#   From: 2010.03.12/outbox.cif.g09.slc.cpg/sg55_6_cif.got.tgz:11810.got - 2010.04.16 15:19:21.
