data_PCOD8224144
_publ_section_title
;
Structure prediction by ZEFSAII (Michael W. Deem and Ramdas Pophale) SiO2 
 PCOD8224144
Probable space group: P C C A
;
_chemical_formula_sum "Si O2"
_cell_formula_units_Z 48
_cell_length_a 9.225050
_cell_length_b 15.981076
_cell_length_c 14.182084
_cell_angle_alpha 90.000000
_cell_angle_beta 90.000000
_cell_angle_gamma 90.000000
_cell_volume 2090.811109
_symmetry_space_group_name_H-M "P C C A"
_symmetry_group_IT_number 54
_symmetry_cell_setting 'orthorhombic'
loop_
_space_group_symop_operation_xyz
x,y,z
1/2-x,-y,z
1/2+x,-y,1/2-z
-x,y,1/2-z
-x,-y,-z
1/2+x,y,-z
1/2-x,y,1/2+z
x,-y,1/2+z
loop_
_atom_site_type_symbol
_atom_site_label
_atom_site_fract_x
_atom_site_fract_y
_atom_site_fract_z
Si Si1 0.850397 0.081597 0.570106
Si Si2 0.935461 0.163625 0.053295
Si Si3 0.298120 0.699226 0.707558
Si Si4 0.500000 0.771471 0.250000
Si Si5 0.000000 0.152197 0.750000
Si Si6 0.209051 0.593747 0.386968
Si Si7 0.059999 0.340208 0.521439
O O1 0.738112 0.155634 0.542822
O O2 0.974625 0.084224 0.488756
O O3 0.928655 0.093448 0.670667
O O4 0.750000 0.000000 0.571537
O O5 0.961447 0.167436 0.164639
O O6 0.989842 0.244463 0.994802
O O7 0.126926 0.710181 0.716092
O O8 0.375420 0.789468 0.705780
O O9 0.350767 0.644478 0.796771
O O10 0.334232 0.650747 0.611480
O O11 0.250000 0.500000 0.358520
O O12 0.356046 0.633513 0.427329
O O13 0.080278 0.600520 0.464014
#
# Coordination Sequence:
#
# PCOD8224144 Si02
#       7
#     8   8   8   4   4   8   8
#     4  12  27  46  72 110 153 191 239 314 381 435
#     4  12  24  46  73 105 141 194 255 299 358 463
#     4  12  23  45  73 102 140 195 257 298 360 447
#     4  12  24  41  73 110 134 190 266 300 340 445
#     4  12  22  49  75 102 140 202 246 296 362 451
#     4  12  26  44  66 107 148 184 250 309 379 430
#     4  12  23  46  74 100 140 203 243 308 367 446
#
# _framework density 22.957598000000001
#
# number of rings (size 3 to 8) (size 9 to 14) (size 15 to 20)
#    0.000    0.000    6.667    4.000    0.000    1.333 
#    3.000    1.667    0.000    0.000    0.000    0.000 
#    0.000    0.000    0.000    0.000    0.000    0.000 
#
# Total GULP energy -595370.843872 kJ/mol
# GULP energy per Si atom -12403.559247 kJ/mol
# Density = 2.290535 g / cm^3
# Si number density = 22.957598 Si / 1000 Ang^3
#
#
#
# Elastic Constant Matrix: (Units=GPa)
#
#
# Indices 1 2 3 4 5 6 
#
# 1 124.7858 23.9235 29.3466 0.0000 0.0000 0.0000
# 2 23.9235 84.8757 26.7881 0.0000 0.0000 0.0000
# 3 29.3466 26.7881 101.9721 0.0000 0.0000 0.0000
# 4 0.0000 0.0000 0.0000 21.5984 0.0000 0.0000
# 5 0.0000 0.0000 0.0000 0.0000 46.0930 0.0000
# 6 0.0000 0.0000 0.0000 0.0000 0.0000 38.3536
#
#
#
# Elastic Compliance Matrix: (Units=1/GPa)
#
#
# Indices 1 2 3 4 5 6 
#
# 1 0.008852 -0.001844 -0.002063 0.000000 0.000000 0.000000
# 2 -0.001844 0.013231 -0.002945 0.000000 0.000000 0.000000
# 3 -0.002063 -0.002945 0.011174 0.000000 0.000000 0.000000
# 4 0.000000 0.000000 0.000000 0.046300 0.000000 0.000000
# 5 0.000000 0.000000 0.000000 0.000000 0.021695 0.000000
# 6 0.000000 0.000000 0.000000 0.000000 0.000000 0.026073
#
#
# Mechanical properties :
#
#
# Convention : Reuss Voigt Hill
#
# Bulk Modulus (GPa) = 51.14312 52.41667 51.77990
# Shear Modulus (GPa) = 33.88714 36.64734 35.26724
#
# Velocity S-wave (km/s) = 3.84614 3.99971 3.92368
# Velocity P-wave (km/s) = 6.48454 6.64919 6.56739
#
# Compressibility (1/GPa) = 0.01955297
#
# Stress axis : x y z
#
# Youngs Moduli (GPa) = 112.96261 75.57876 89.49284
#
# Poissons Ratio (x) = 0.13937 0.18465
# Poissons Ratio (y) = 0.20830 0.26357
# Poissons Ratio (z) = 0.23307 0.22259
#
# Static dielectric constant tensor:
#      x y z
#    x 4.415430 0.000000 0.000000 
#    y 0.000000 3.862670 0.000000 
#    z 0.000000 0.000000 4.173420 
# 
# 
# High freq. dielectric constant tensor:
#      x y z
#    x 1.929530 0.000000 0.000000 
#    y 0.000000 1.879950 0.000000 
#    z 0.000000 0.000000 1.914590 
# 
# From -- ./inp_files/11764.got.cif
#   From: 2010.03.12/outbox.cif.g09.slc.cpg/sg54_6_cif.got.tgz:11764.got - 2010.04.16 15:00:50.
