data_PCOD8224336
_publ_section_title
;
Structure prediction by ZEFSAII (Michael W. Deem and Ramdas Pophale) SiO2 
 PCOD8224336
Probable space group: P B A M
;
_chemical_formula_sum "Si O2"
_cell_formula_units_Z 64
_cell_length_a 24.956798
_cell_length_b 14.240048
_cell_length_c 8.910111
_cell_angle_alpha 90.000000
_cell_angle_beta 90.000000
_cell_angle_gamma 90.000000
_cell_volume 3166.528721
_symmetry_space_group_name_H-M "P B A M"
_symmetry_group_IT_number 55
_symmetry_cell_setting 'orthorhombic'
loop_
_space_group_symop_operation_xyz
x,y,z
-x,-y,z
1/2+x,1/2-y,-z
1/2-x,1/2+y,-z
-x,-y,-z
x,y,-z
1/2-x,1/2+y,z
1/2+x,1/2-y,z
loop_
_atom_site_type_symbol
_atom_site_label
_atom_site_fract_x
_atom_site_fract_y
_atom_site_fract_z
Si Si1 0.672143 0.990001 0.679121
Si Si2 0.302622 0.821661 0.822151
Si Si3 0.085949 0.230560 0.176379
Si Si4 0.795232 0.279828 0.321493
Si Si5 0.984844 0.274946 0.333549
Si Si6 0.055211 0.527374 0.332725
Si Si7 0.941392 0.965689 0.676016
Si Si8 0.607750 0.653602 0.676388
O O1 0.673414 0.998732 0.500000
O O2 0.693800 0.887636 0.727137
O O3 0.611118 0.003093 0.742691
O O4 0.706239 0.073896 0.753055
O O5 0.359318 0.778799 0.769651
O O6 0.259154 0.750547 0.757592
O O7 0.297445 0.828822 0.000000
O O8 0.037037 0.296120 0.232970
O O9 0.078124 0.127579 0.243305
O O10 0.084605 0.222332 0.000000
O O11 0.789204 0.271186 0.500000
O O12 0.840892 0.208401 0.257395
O O13 0.005279 0.247104 0.500000
O O14 0.943571 0.360763 0.342427
O O15 0.948935 0.192785 0.260339
O O16 0.052440 0.481732 0.500000
O O17 0.000000 0.500000 0.244879
O O18 0.944337 0.945927 0.500000
O O19 0.894752 0.042762 0.712983
O O20 0.000000 0.000000 0.732530
O O21 0.607635 0.673605 0.500000
#
# Coordination Sequence:
#
# PCOD8224336 Si02
#       8
#     8   8   8   8   8   8   8   8
#     4  10  20  38  65  94 119 148 194 249 300 350
#     4  11  26  44  59  82 122 166 204 243 292 353
#     4  11  24  39  54  80 120 161 201 246 290 341
#     4  10  21  40  66  92 118 149 197 257 302 344
#     4  10  17  32  58  85 116 149 185 235 295 357
#     4   9  16  27  52  90 121 146 181 230 289 349
#     4  10  19  34  59  87 117 155 194 237 297 361
#     4   9  17  33  58  89 118 143 183 241 298 351
#
# _framework density 20.211407999999999
#
# number of rings (size 3 to 8) (size 9 to 14) (size 15 to 20)
#    0.000    2.000    2.500    1.500    0.000    4.750 
#    0.000    5.625    0.000    2.250    0.000    0.000 
#    0.000    0.000    0.000    0.000    0.000    0.000 
#
# Total GULP energy -793141.928886 kJ/mol
# GULP energy per Si atom -12392.842639 kJ/mol
# Density = 2.016541 g / cm^3
# Si number density = 20.211408 Si / 1000 Ang^3
#
#
#
# Elastic Constant Matrix: (Units=GPa)
#
#
# Indices 1 2 3 4 5 6 
#
# 1 113.7005 43.2779 32.3744 0.0000 0.0000 0.0000
# 2 43.2779 98.1965 26.5176 0.0000 0.0000 0.0000
# 3 32.3744 26.5176 38.5859 0.0000 0.0000 0.0000
# 4 0.0000 0.0000 0.0000 13.4081 0.0000 0.0000
# 5 0.0000 0.0000 0.0000 0.0000 17.7504 0.0000
# 6 0.0000 0.0000 0.0000 0.0000 0.0000 35.7032
#
#
#
# Elastic Compliance Matrix: (Units=1/GPa)
#
#
# Indices 1 2 3 4 5 6 
#
# 1 0.012344 -0.003246 -0.008127 0.000000 0.000000 0.000000
# 2 -0.003246 0.013358 -0.006457 0.000000 0.000000 0.000000
# 3 -0.008127 -0.006457 0.037172 0.000000 0.000000 0.000000
# 4 0.000000 0.000000 0.000000 0.074582 0.000000 0.000000
# 5 0.000000 0.000000 0.000000 0.000000 0.056337 0.000000
# 6 0.000000 0.000000 0.000000 0.000000 0.000000 0.028009
#
#
# Mechanical properties :
#
#
# Convention : Reuss Voigt Hill
#
# Bulk Modulus (GPa) = 36.74320 50.53586 43.63953
# Shear Modulus (GPa) = 18.75952 23.25987 21.00969
#
# Velocity S-wave (km/s) = 3.04988 3.39607 3.22762
# Velocity P-wave (km/s) = 5.53365 6.35890 5.96057
#
# Compressibility (1/GPa) = 0.02721592
#
# Stress axis : x y z
#
# Youngs Moduli (GPa) = 81.00794 74.86253 26.90217
#
# Poissons Ratio (x) = 0.24300 0.21862
# Poissons Ratio (y) = 0.26295 0.17369
# Poissons Ratio (z) = 0.65831 0.48335
#
# Static dielectric constant tensor:
#      x y z
#    x 3.807340 0.000000 0.000000 
#    y 0.000000 3.803430 0.000000 
#    z 0.000000 0.000000 3.214450 
# 
# 
# High freq. dielectric constant tensor:
#      x y z
#    x 1.790710 0.000000 0.000000 
#    y 0.000000 1.807680 0.000000 
#    z 0.000000 0.000000 1.738990 
# 
# From -- ./inp_files/9811.got.cif
#   From: 2010.03.12/outbox.cif.g09.slc.cpg/sg55_5_cif.got.tgz:9811.got - 2010.04.16 15:19:21.
