data_PCOD8224732
_publ_section_title
;
Structure prediction by ZEFSAII (Michael W. Deem and Ramdas Pophale) SiO2 
 PCOD8224732
Probable space group: P B A M
;
_chemical_formula_sum "Si O2"
_cell_formula_units_Z 48
_cell_length_a 16.560176
_cell_length_b 17.746091
_cell_length_c 8.622564
_cell_angle_alpha 90.000000
_cell_angle_beta 90.000000
_cell_angle_gamma 90.000000
_cell_volume 2533.985228
_symmetry_space_group_name_H-M "P B A M"
_symmetry_group_IT_number 55
_symmetry_cell_setting 'orthorhombic'
loop_
_space_group_symop_operation_xyz
x,y,z
-x,-y,z
1/2+x,1/2-y,-z
1/2-x,1/2+y,-z
-x,-y,-z
x,y,-z
1/2-x,1/2+y,z
1/2+x,1/2-y,z
loop_
_atom_site_type_symbol
_atom_site_label
_atom_site_fract_x
_atom_site_fract_y
_atom_site_fract_z
Si Si1 0.145552 0.826526 0.180326
Si Si2 0.909235 0.481059 0.818228
Si Si3 0.338223 0.166449 0.318078
Si Si4 0.323221 0.593791 0.682296
Si Si5 0.740216 0.056768 0.316550
Si Si6 0.000667 0.089364 0.677038
O O1 0.133303 0.748567 0.269935
O O2 0.226997 0.867311 0.237843
O O3 0.067655 0.877351 0.213221
O O4 0.153111 0.809499 0.000000
O O5 0.891480 0.395356 0.769768
O O6 0.852075 0.541040 0.730695
O O7 0.000000 0.500000 0.768766
O O8 0.895267 0.490517 0.000000
O O9 0.350738 0.153440 0.500000
O O10 0.243330 0.156453 0.273262
O O11 0.331399 0.583614 0.500000
O O12 0.294342 0.512728 0.746940
O O13 0.411980 0.616987 0.743588
O O14 0.746249 0.066512 0.500000
O O15 0.985254 0.116201 0.500000
O O16 0.000000 0.000000 0.685829
#
# Coordination Sequence:
#
# PCOD8224732 Si02
#       6
#     8   8   8   8   8   8
#     4  12  24  37  54  84 122 155 190 239 299 345
#     4  10  21  39  62  89 120 151 188 239 295 347
#     4  10  21  39  61  83 112 154 200 240 283 339
#     4   8  16  33  58  84 106 138 186 233 275 329
#     4  10  19  36  61  85 110 149 197 236 276 339
#     4  10  18  34  60  86 115 148 185 232 285 345
#
# _framework density 18.942495000000001
#
# number of rings (size 3 to 8) (size 9 to 14) (size 15 to 20)
#    0.000    2.000    1.667    4.000    0.000    1.667 
#    3.000    1.667    0.000    0.000    0.000    0.000 
#    0.000    0.000    0.000    0.000    0.000    0.000 
#
# Total GULP energy -595190.034986 kJ/mol
# GULP energy per Si atom -12399.792396 kJ/mol
# Density = 1.889938 g / cm^3
# Si number density = 18.942495 Si / 1000 Ang^3
#
#
#
# Elastic Constant Matrix: (Units=GPa)
#
#
# Indices 1 2 3 4 5 6 
#
# 1 124.1941 37.3691 19.0503 0.0000 0.0000 0.0000
# 2 37.3691 74.0404 4.2464 0.0000 0.0000 0.0000
# 3 19.0503 4.2464 35.9617 0.0000 0.0000 0.0000
# 4 0.0000 0.0000 0.0000 27.0599 0.0000 0.0000
# 5 0.0000 0.0000 0.0000 0.0000 28.8153 0.0000
# 6 0.0000 0.0000 0.0000 0.0000 0.0000 22.0188
#
#
#
# Elastic Compliance Matrix: (Units=1/GPa)
#
#
# Indices 1 2 3 4 5 6 
#
# 1 0.010274 -0.004907 -0.004863 0.000000 0.000000 0.000000
# 2 -0.004907 0.015941 0.000717 0.000000 0.000000 0.000000
# 3 -0.004863 0.000717 0.030299 0.000000 0.000000 0.000000
# 4 0.000000 0.000000 0.000000 0.036955 0.000000 0.000000
# 5 0.000000 0.000000 0.000000 0.000000 0.034704 0.000000
# 6 0.000000 0.000000 0.000000 0.000000 0.000000 0.045416
#
#
# Mechanical properties :
#
#
# Convention : Reuss Voigt Hill
#
# Bulk Modulus (GPa) = 26.03586 39.50308 32.76947
# Shear Modulus (GPa) = 24.45006 27.14747 25.79876
#
# Velocity S-wave (km/s) = 3.59660 3.78981 3.69447
# Velocity P-wave (km/s) = 5.56973 6.32848 5.96119
#
# Compressibility (1/GPa) = 0.03840856
#
# Stress axis : x y z
#
# Youngs Moduli (GPa) = 97.33049 62.72949 33.00439
#
# Poissons Ratio (x) = 0.30779 0.16051
# Poissons Ratio (y) = 0.47756 -0.02366
# Poissons Ratio (z) = 0.47335 -0.04497
#
# Static dielectric constant tensor:
#      x y z
#    x 3.847110 0.000000 0.000000 
#    y 0.000000 3.318070 0.000000 
#    z 0.000000 0.000000 3.345580 
# 
# 
# High freq. dielectric constant tensor:
#      x y z
#    x 1.745070 0.000000 0.000000 
#    y 0.000000 1.721000 0.000000 
#    z 0.000000 0.000000 1.726020 
# 
# From -- ./inp_files/7555.got.cif
#   From: 2010.03.12/outbox.cif.g09.slc.cpg/sg55_4_cif.got.tgz:7555.got - 2010.04.16 15:19:21.
