data_PCOD8224926
_publ_section_title
;
Structure prediction by ZEFSAII (Michael W. Deem and Ramdas Pophale) SiO2 
 PCOD8224926
Probable space group: P B A M
;
_chemical_formula_sum "Si O2"
_cell_formula_units_Z 56
_cell_length_a 16.163485
_cell_length_b 19.396372
_cell_length_c 10.057524
_cell_angle_alpha 90.000000
_cell_angle_beta 90.000000
_cell_angle_gamma 90.000000
_cell_volume 3153.164199
_symmetry_space_group_name_H-M "P B A M"
_symmetry_group_IT_number 55
_symmetry_cell_setting 'orthorhombic'
loop_
_space_group_symop_operation_xyz
x,y,z
-x,-y,z
1/2+x,1/2-y,-z
1/2-x,1/2+y,-z
-x,-y,-z
x,y,-z
1/2-x,1/2+y,z
1/2+x,1/2-y,z
loop_
_atom_site_type_symbol
_atom_site_label
_atom_site_fract_x
_atom_site_fract_y
_atom_site_fract_z
Si Si1 0.711805 0.120682 0.849152
Si Si2 0.360247 0.382624 0.351577
Si Si3 0.736215 0.904856 0.846484
Si Si4 0.360528 0.536543 0.646862
Si Si5 0.592309 0.999841 0.155267
Si Si6 0.657992 0.276496 0.148529
Si Si7 0.965613 0.834515 0.348961
O O1 0.791093 0.125686 0.757447
O O2 0.646130 0.065008 0.791233
O O3 0.675885 0.196695 0.845754
O O4 0.737362 0.100516 0.000000
O O5 0.325388 0.366330 0.500000
O O6 0.396326 0.459841 0.347551
O O7 0.436502 0.331620 0.319101
O O8 0.789882 0.956251 0.757402
O O9 0.761849 0.825151 0.813010
O O10 0.640330 0.926734 0.816160
O O11 0.755058 0.921664 0.000000
O O12 0.322364 0.551822 0.500000
O O13 0.435569 0.587714 0.676364
O O14 0.500000 0.000000 0.221436
O O15 0.580530 0.011792 0.000000
O O16 0.582093 0.285031 0.248692
O O17 0.629625 0.297600 0.000000
O O18 0.947351 0.810700 0.500000
#
# Coordination Sequence:
#
# PCOD8224926 Si02
#       7
#     8   8   8   8   8   8   8
#     4  10  20  35  52  74 103 133 170 215 261 304
#     4  10  19  31  50  76 103 131 166 203 249 304
#     4   9  16  30  51  72  97 128 164 205 250 302
#     4   9  16  28  49  74 100 128 159 199 243 291
#     4   9  17  31  52  74  95 128 173 213 250 299
#     4   9  19  34  50  74 103 131 166 212 261 304
#     4   9  18  32  50  73 101 134 168 200 242 304
#
# _framework density 17.759937999999998
#
# number of rings (size 3 to 8) (size 9 to 14) (size 15 to 20)
#    0.000    2.714    1.429    0.429    0.000    2.857 
#    2.571    0.000    0.000    6.000    0.000    0.000 
#    0.000    0.000    0.000    0.000    0.000    0.000 
#
# Total GULP energy -693802.970640 kJ/mol
# GULP energy per Si atom -12389.338761 kJ/mol
# Density = 1.771952 g / cm^3
# Si number density = 17.759938 Si / 1000 Ang^3
#
#
#
# Elastic Constant Matrix: (Units=GPa)
#
#
# Indices 1 2 3 4 5 6 
#
# 1 114.0162 26.3756 57.0117 0.0000 0.0000 0.0000
# 2 26.3756 58.2772 20.9821 0.0000 0.0000 0.0000
# 3 57.0117 20.9821 77.4395 0.0000 0.0000 0.0000
# 4 0.0000 0.0000 0.0000 18.1331 0.0000 0.0000
# 5 0.0000 0.0000 0.0000 0.0000 20.3831 0.0000
# 6 0.0000 0.0000 0.0000 0.0000 0.0000 12.5104
#
#
#
# Elastic Compliance Matrix: (Units=1/GPa)
#
#
# Indices 1 2 3 4 5 6 
#
# 1 0.014332 -0.002978 -0.009745 0.000000 0.000000 0.000000
# 2 -0.002978 0.019633 -0.003127 0.000000 0.000000 0.000000
# 3 -0.009745 -0.003127 0.020935 0.000000 0.000000 0.000000
# 4 0.000000 0.000000 0.000000 0.055148 0.000000 0.000000
# 5 0.000000 0.000000 0.000000 0.000000 0.049060 0.000000
# 6 0.000000 0.000000 0.000000 0.000000 0.000000 0.079934
#
#
# Mechanical properties :
#
#
# Convention : Reuss Voigt Hill
#
# Bulk Modulus (GPa) = 43.10265 50.94130 47.02198
# Shear Modulus (GPa) = 17.95496 19.89623 18.92560
#
# Velocity S-wave (km/s) = 3.18304 3.35070 3.26795
# Velocity P-wave (km/s) = 6.15071 6.61174 6.38539
#
# Compressibility (1/GPa) = 0.02320043
#
# Stress axis : x y z
#
# Youngs Moduli (GPa) = 69.77277 50.93446 47.76776
#
# Poissons Ratio (x) = 0.15169 0.46548
# Poissons Ratio (y) = 0.20779 0.14937
# Poissons Ratio (z) = 0.67991 0.15927
#
# Static dielectric constant tensor:
#      x y z
#    x 3.304570 0.000000 0.000000 
#    y 0.000000 3.293710 0.000000 
#    z 0.000000 0.000000 3.377260 
# 
# 
# High freq. dielectric constant tensor:
#      x y z
#    x 1.671810 0.000000 0.000000 
#    y 0.000000 1.677990 0.000000 
#    z 0.000000 0.000000 1.677460 
# 
# From -- ./inp_files/6059.got.cif
#   From: 2010.03.12/outbox.cif.g09.slc.cpg/sg55_4_cif.got.tgz:6059.got - 2010.04.16 15:19:21.
