data_PCOD8224327
_publ_section_title
;
Structure prediction by ZEFSAII (Michael W. Deem and Ramdas Pophale) SiO2 
 PCOD8224327
Probable space group: P B A M
;
_chemical_formula_sum "Si O2"
_cell_formula_units_Z 64
_cell_length_a 21.258503
_cell_length_b 9.511760
_cell_length_c 18.225826
_cell_angle_alpha 90.000000
_cell_angle_beta 90.000000
_cell_angle_gamma 90.000000
_cell_volume 3685.367335
_symmetry_space_group_name_H-M "P B A M"
_symmetry_group_IT_number 55
_symmetry_cell_setting 'orthorhombic'
loop_
_space_group_symop_operation_xyz
x,y,z
-x,-y,z
1/2+x,1/2-y,-z
1/2-x,1/2+y,-z
-x,-y,-z
x,y,-z
1/2-x,1/2+y,z
1/2+x,1/2-y,z
loop_
_atom_site_type_symbol
_atom_site_label
_atom_site_fract_x
_atom_site_fract_y
_atom_site_fract_z
Si Si1 0.343495 0.461344 0.670752
Si Si2 0.499103 0.160109 0.708177
Si Si3 0.190986 0.772878 0.918761
Si Si4 0.871248 0.774911 0.247241
Si Si5 0.294949 0.579099 0.135013
Si Si6 0.628825 0.786152 0.228360
Si Si7 0.783970 0.517978 0.726234
Si Si8 0.543117 0.635499 0.583140
O O1 0.372591 0.613706 0.686541
O O2 0.352047 0.367566 0.743937
O O3 0.267234 0.474163 0.658727
O O4 0.383620 0.396088 0.603926
O O5 0.562542 0.196488 0.751854
O O6 0.445382 0.190437 0.767564
O O7 0.487078 0.246690 0.634300
O O8 0.500000 0.000000 0.682801
O O9 0.259842 0.701941 0.910474
O O10 0.146209 0.702877 0.857366
O O11 0.192013 0.942737 0.914499
O O12 0.165186 0.735781 0.000000
O O13 0.858668 0.850543 0.168707
O O14 0.813821 0.670078 0.263413
O O15 0.253166 0.528098 0.202267
O O16 0.662224 0.899728 0.283029
O O17 0.500000 0.500000 0.592362
O O18 0.542940 0.690829 0.500000
#
# Coordination Sequence:
#
# PCOD8224327 Si02
#       8
#     8   8   8   8   8   8   8   8
#     4  10  18  32  56  81 104 137 181 220 275 320
#     4  11  22  36  57  85 105 145 190 227 275 329
#     4  11  20  33  52  77 112 149 182 224 285 339
#     4  11  18  32  55  82 108 138 179 232 276 318
#     4  10  19  33  49  80 108 142 178 229 279 327
#     4  10  20  33  52  81 109 138 181 231 270 318
#     4  10  17  31  54  78 111 134 170 228 279 310
#     4  10  21  37  56  81 113 144 180 220 267 325
#
# _framework density 17.365977000000001
#
# number of rings (size 3 to 8) (size 9 to 14) (size 15 to 20)
#    0.000    1.625    6.250    1.875    0.000    0.250 
#    0.000    0.000    0.000   10.125    0.000    0.000 
#    0.000    0.000    0.000    0.000    0.000    0.000 
#
# Total GULP energy -793178.932740 kJ/mol
# GULP energy per Si atom -12393.420824 kJ/mol
# Density = 1.732645 g / cm^3
# Si number density = 17.365977 Si / 1000 Ang^3
#
#
#
# Elastic Constant Matrix: (Units=GPa)
#
#
# Indices 1 2 3 4 5 6 
#
# 1 88.5473 26.4419 34.8965 0.0000 0.0000 0.0000
# 2 26.4419 100.2870 30.1147 0.0000 0.0000 0.0000
# 3 34.8965 30.1147 91.2708 0.0000 0.0000 0.0000
# 4 0.0000 0.0000 0.0000 15.8628 0.0000 0.0000
# 5 0.0000 0.0000 0.0000 0.0000 16.8215 0.0000
# 6 0.0000 0.0000 0.0000 0.0000 0.0000 26.0170
#
#
#
# Elastic Compliance Matrix: (Units=1/GPa)
#
#
# Indices 1 2 3 4 5 6 
#
# 1 0.013748 -0.002271 -0.004507 0.000000 0.000000 0.000000
# 2 -0.002271 0.011443 -0.002907 0.000000 0.000000 0.000000
# 3 -0.004507 -0.002907 0.013639 0.000000 0.000000 0.000000
# 4 0.000000 0.000000 0.000000 0.063041 0.000000 0.000000
# 5 0.000000 0.000000 0.000000 0.000000 0.059448 0.000000
# 6 0.000000 0.000000 0.000000 0.000000 0.000000 0.038436
#
#
# Mechanical properties :
#
#
# Convention : Reuss Voigt Hill
#
# Bulk Modulus (GPa) = 51.39061 51.44569 51.41815
# Shear Modulus (GPa) = 22.16192 24.31705 23.23948
#
# Velocity S-wave (km/s) = 3.57623 3.74608 3.66214
# Velocity P-wave (km/s) = 6.83443 6.95698 6.89598
#
# Compressibility (1/GPa) = 0.01945881
#
# Stress axis : x y z
#
# Youngs Moduli (GPa) = 72.73854 87.38757 73.32019
#
# Poissons Ratio (x) = 0.19850 0.33045
# Poissons Ratio (y) = 0.16522 0.21316
# Poissons Ratio (z) = 0.32783 0.25406
#
# Static dielectric constant tensor:
#      x y z
#    x 3.444120 0.000000 0.000000 
#    y 0.000000 3.636460 0.000000 
#    z 0.000000 0.000000 2.923450 
# 
# 
# High freq. dielectric constant tensor:
#      x y z
#    x 1.667350 0.000000 0.000000 
#    y 0.000000 1.691790 0.000000 
#    z 0.000000 0.000000 1.627610 
# 
# From -- ./inp_files/23144.got.cif
#   From: 2010.03.12/outbox.cif.g09.slc.cpg/sg55_12_cif.got.tgz:23144.got - 2010.04.16 15:19:21.
