data_PCOD8224525
_publ_section_title
;
Structure prediction by ZEFSAII (Michael W. Deem and Ramdas Pophale) SiO2 
 PCOD8224525
Probable space group: P B A M
;
_chemical_formula_sum "Si O2"
_cell_formula_units_Z 32
_cell_length_a 4.929790
_cell_length_b 25.981633
_cell_length_c 11.147647
_cell_angle_alpha 90.000000
_cell_angle_beta 90.000000
_cell_angle_gamma 90.000000
_cell_volume 1427.835158
_symmetry_space_group_name_H-M "P B A M"
_symmetry_group_IT_number 55
_symmetry_cell_setting 'orthorhombic'
loop_
_space_group_symop_operation_xyz
x,y,z
-x,-y,z
1/2+x,1/2-y,-z
1/2-x,1/2+y,-z
-x,-y,-z
x,y,-z
1/2-x,1/2+y,z
1/2+x,1/2-y,z
loop_
_atom_site_type_symbol
_atom_site_label
_atom_site_fract_x
_atom_site_fract_y
_atom_site_fract_z
Si Si1 0.396126 0.107549 0.742891
Si Si2 0.713217 0.699463 0.000000
Si Si3 0.599286 0.556219 0.637838
Si Si4 0.380756 0.778384 0.743445
Si Si5 0.300990 0.131447 0.000000
O O1 0.640692 0.068343 0.719588
O O2 0.514057 0.164567 0.717479
O O3 0.269478 0.099566 0.876472
O O4 0.144779 0.096890 0.654860
O O5 0.818964 0.731635 0.114720
O O6 0.400392 0.680828 0.000000
O O7 0.883626 0.646809 0.000000
O O8 0.500000 0.500000 0.676658
O O9 0.693330 0.557712 0.500000
O O10 0.588812 0.736164 0.687529
#
# Coordination Sequence:
#
# PCOD8224525 Si02
#       5
#     8   4   8   8   4
#     4  11  22  40  63  92 130 163 199 258 318 371
#     4  10  18  31  50  82 123 168 211 242 276 335
#     4  11  24  44  69  91 112 153 218 276 317 364
#     4  11  20  32  54  86 124 164 203 239 287 359
#     4  10  20  35  57  90 128 164 194 236 309 383
#
# _framework density 22.411552
#
# number of rings (size 3 to 8) (size 9 to 14) (size 15 to 20)
#    0.000    1.250    0.000    9.750    0.000    2.000 
#    0.000    3.750    0.000   15.000    0.000    0.000 
#    0.000    0.000    0.000    0.000    0.000    0.000 
#
# Total GULP energy -396514.394704 kJ/mol
# GULP energy per Si atom -12391.074835 kJ/mol
# Density = 2.236054 g / cm^3
# Si number density = 22.411552 Si / 1000 Ang^3
#
#
#
# Elastic Constant Matrix: (Units=GPa)
#
#
# Indices 1 2 3 4 5 6 
#
# 1 128.1425 26.8244 26.6204 0.0000 0.0000 0.0000
# 2 26.8244 74.0655 38.7117 0.0000 0.0000 0.0000
# 3 26.6204 38.7117 51.6656 0.0000 0.0000 0.0000
# 4 0.0000 0.0000 0.0000 27.6072 0.0000 0.0000
# 5 0.0000 0.0000 0.0000 0.0000 29.4064 0.0000
# 6 0.0000 0.0000 0.0000 0.0000 0.0000 48.6716
#
#
#
# Elastic Compliance Matrix: (Units=1/GPa)
#
#
# Indices 1 2 3 4 5 6 
#
# 1 0.008820 -0.001346 -0.003536 0.000000 0.000000 0.000000
# 2 -0.001346 0.022398 -0.016089 0.000000 0.000000 0.000000
# 3 -0.003536 -0.016089 0.033232 0.000000 0.000000 0.000000
# 4 0.000000 0.000000 0.000000 0.036222 0.000000 0.000000
# 5 0.000000 0.000000 0.000000 0.000000 0.034006 0.000000
# 6 0.000000 0.000000 0.000000 0.000000 0.000000 0.020546
#
#
# Mechanical properties :
#
#
# Convention : Reuss Voigt Hill
#
# Bulk Modulus (GPa) = 44.42745 48.68741 46.55743
# Shear Modulus (GPa) = 24.42965 31.91817 28.17391
#
# Velocity S-wave (km/s) = 3.30517 3.77793 3.54943
# Velocity P-wave (km/s) = 5.86788 6.38762 6.13326
#
# Compressibility (1/GPa) = 0.02250861
#
# Stress axis : x y z
#
# Youngs Moduli (GPa) = 113.37653 44.64630 30.09164
#
# Poissons Ratio (x) = 0.06011 0.10639
# Poissons Ratio (y) = 0.15265 0.48414
# Poissons Ratio (z) = 0.40086 0.71830
#
# Static dielectric constant tensor:
#      x y z
#    x 4.464330 0.000000 0.000000 
#    y 0.000000 3.779280 0.000000 
#    z 0.000000 0.000000 4.136710 
# 
# 
# High freq. dielectric constant tensor:
#      x y z
#    x 1.915040 0.000000 0.000000 
#    y 0.000000 1.864970 0.000000 
#    z 0.000000 0.000000 1.847780 
# 
# From -- ./inp_files/11213.got.cif
#   From: 2010.03.12/outbox.cif.g09.slc.cpg/sg55_6_cif.got.tgz:11213.got - 2010.04.16 15:19:21.
