data_PCOD8224080
_publ_section_title
;
Structure prediction by ZEFSAII (Michael W. Deem and Ramdas Pophale) SiO2 
 PCOD8224080
Probable space group: P C C A
;
_chemical_formula_sum "Si O2"
_cell_formula_units_Z 48
_cell_length_a 15.557725
_cell_length_b 13.328122
_cell_length_c 9.809327
_cell_angle_alpha 90.000000
_cell_angle_beta 90.000000
_cell_angle_gamma 90.000000
_cell_volume 2034.015520
_symmetry_space_group_name_H-M "P C C A"
_symmetry_group_IT_number 54
_symmetry_cell_setting 'orthorhombic'
loop_
_space_group_symop_operation_xyz
x,y,z
1/2-x,-y,z
1/2+x,-y,1/2-z
-x,y,1/2-z
-x,-y,-z
1/2+x,y,-z
1/2-x,y,1/2+z
x,-y,1/2+z
loop_
_atom_site_type_symbol
_atom_site_label
_atom_site_fract_x
_atom_site_fract_y
_atom_site_fract_z
Si Si1 0.400666 0.768495 0.969591
Si Si2 0.592618 0.573037 0.188144
Si Si3 0.336944 0.444531 0.529071
Si Si4 0.335635 0.866867 0.707133
Si Si5 0.591562 0.225620 0.554534
Si Si6 0.860411 0.906631 0.788708
O O1 0.384817 0.796918 0.813767
O O2 0.339644 0.675230 0.010079
O O3 0.500769 0.742541 0.989052
O O4 0.378202 0.863258 0.062437
O O5 0.500000 0.597864 0.250000
O O6 0.650170 0.530772 0.311889
O O7 0.631773 0.675924 0.126446
O O8 0.588777 0.489914 0.069021
O O9 0.250000 0.500000 0.480656
O O10 0.343174 0.813820 0.560338
O O11 0.237503 0.881148 0.751420
O O12 0.380490 0.975622 0.702409
O O13 0.579544 0.140861 0.671096
#
# Coordination Sequence:
#
# PCOD8224080 Si02
#       6
#     8   8   8   8   8   8
#     4  12  26  46  71 109 146 187 245 295 364 434
#     4  12  26  49  72 103 146 189 238 306 365 432
#     4  12  29  47  75 108 141 193 245 301 363 439
#     4  11  27  43  74 109 145 196 244 296 358 438
#     4  12  25  45  74 103 148 192 235 308 364 425
#     4  11  24  48  71 105 150 194 245 299 358 425
#
# _framework density 23.598638999999999
#
# number of rings (size 3 to 8) (size 9 to 14) (size 15 to 20)
#    0.000    0.333    3.333    4.000    7.000    6.667 
#    0.000    0.000    0.000    0.000    0.000    0.000 
#    0.000    0.000    0.000    0.000    0.000    0.000 
#
# Total GULP energy -595492.081249 kJ/mol
# GULP energy per Si atom -12406.085026 kJ/mol
# Density = 2.354493 g / cm^3
# Si number density = 23.598639 Si / 1000 Ang^3
#
#
#
# Elastic Constant Matrix: (Units=GPa)
#
#
# Indices 1 2 3 4 5 6 
#
# 1 62.2097 23.9069 13.4376 0.0000 0.0000 0.0000
# 2 23.9069 109.7960 55.1941 0.0000 0.0000 0.0000
# 3 13.4376 55.1941 161.9049 0.0000 0.0000 0.0000
# 4 0.0000 0.0000 0.0000 52.7373 0.0000 0.0000
# 5 0.0000 0.0000 0.0000 0.0000 35.7991 0.0000
# 6 0.0000 0.0000 0.0000 0.0000 0.0000 26.8998
#
#
#
# Elastic Compliance Matrix: (Units=1/GPa)
#
#
# Indices 1 2 3 4 5 6 
#
# 1 0.017547 -0.003727 -0.000186 0.000000 0.000000 0.000000
# 2 -0.003727 0.011783 -0.003708 0.000000 0.000000 0.000000
# 3 -0.000186 -0.003708 0.007456 0.000000 0.000000 0.000000
# 4 0.000000 0.000000 0.000000 0.018962 0.000000 0.000000
# 5 0.000000 0.000000 0.000000 0.000000 0.027934 0.000000
# 6 0.000000 0.000000 0.000000 0.000000 0.000000 0.037175
#
#
# Mechanical properties :
#
#
# Convention : Reuss Voigt Hill
#
# Bulk Modulus (GPa) = 46.41466 57.66531 52.03998
# Shear Modulus (GPa) = 34.89678 39.17870 37.03774
#
# Velocity S-wave (km/s) = 3.84964 4.07899 3.96597
# Velocity P-wave (km/s) = 6.28257 6.83177 6.56292
#
# Compressibility (1/GPa) = 0.02154492
#
# Stress axis : x y z
#
# Youngs Moduli (GPa) = 56.98918 84.86668 134.12356
#
# Poissons Ratio (x) = 0.31633 0.02491
# Poissons Ratio (y) = 0.21242 0.49727
# Poissons Ratio (z) = 0.01058 0.31465
#
# Static dielectric constant tensor:
#      x y z
#    x 4.032110 0.000000 0.000000 
#    y 0.000000 4.223190 0.000000 
#    z 0.000000 0.000000 4.351260 
# 
# 
# High freq. dielectric constant tensor:
#      x y z
#    x 1.924660 0.000000 0.000000 
#    y 0.000000 1.939090 0.000000 
#    z 0.000000 0.000000 1.950540 
# 
# From -- ./inp_files/4176.got.cif
#   From: 2010.03.12/outbox.cif.g09.slc.cpg/sg54_3_cif.got.tgz:4176.got - 2010.04.16 15:00:50.
