data_PCOD8224865
_publ_section_title
;
Structure prediction by ZEFSAII (Michael W. Deem and Ramdas Pophale) SiO2 
 PCOD8224865
Probable space group: P B A M
;
_chemical_formula_sum "Si O2"
_cell_formula_units_Z 64
_cell_length_a 18.893519
_cell_length_b 20.988430
_cell_length_c 8.786463
_cell_angle_alpha 90.000000
_cell_angle_beta 90.000000
_cell_angle_gamma 90.000000
_cell_volume 3484.230615
_symmetry_space_group_name_H-M "P B A M"
_symmetry_group_IT_number 55
_symmetry_cell_setting 'orthorhombic'
loop_
_space_group_symop_operation_xyz
x,y,z
-x,-y,z
1/2+x,1/2-y,-z
1/2-x,1/2+y,-z
-x,-y,-z
x,y,-z
1/2-x,1/2+y,z
1/2+x,1/2-y,z
loop_
_atom_site_type_symbol
_atom_site_label
_atom_site_fract_x
_atom_site_fract_y
_atom_site_fract_z
Si Si1 0.173703 0.248763 0.819149
Si Si2 0.916033 0.497180 0.166603
Si Si3 0.165982 0.756422 0.181155
Si Si4 0.577799 0.632247 0.678749
Si Si5 0.584838 0.133574 0.182389
Si Si6 0.575506 0.365041 0.180937
Si Si7 0.074004 0.638953 0.817975
Si Si8 0.083612 0.995829 0.832483
O O1 0.253970 0.246580 0.761318
O O2 0.138120 0.313209 0.754330
O O3 0.130417 0.187708 0.758022
O O4 0.170733 0.248827 0.000000
O O5 0.892108 0.563400 0.248830
O O6 0.897485 0.429625 0.248719
O O7 0.000000 0.500000 0.148078
O O8 0.880261 0.496099 0.000000
O O9 0.135253 0.820017 0.253614
O O10 0.122781 0.695623 0.243286
O O11 0.161215 0.762270 0.000000
O O12 0.574017 0.639888 0.500000
O O13 0.500947 0.647690 0.746552
O O14 0.604868 0.560823 0.718817
O O15 0.505981 0.152015 0.237999
O O16 0.585854 0.130216 0.000000
O O17 0.607958 0.434301 0.227589
O O18 0.564856 0.361530 0.000000
O O19 0.076069 0.635241 0.000000
O O20 0.116145 0.981633 0.000000
O O21 0.000000 0.000000 0.847083
#
# Coordination Sequence:
#
# PCOD8224865 Si02
#       8
#     8   8   8   8   8   8   8   8
#     4   9  17  28  44  68  96 126 157 188 230 286
#     4   7  10  17  31  55  84 109 136 174 220 263
#     4  10  19  31  46  66  95 128 159 191 232 282
#     4  11  21  32  49  72  96 125 164 205 242 286
#     4   8  12  20  36  59  87 114 140 177 224 269
#     4   9  17  32  53  75  99 125 157 200 248 295
#     4   8  13  22  39  60  83 113 145 180 223 269
#     4   8  15  29  50  74  98 123 152 195 249 294
#
# _framework density 18.368475
#
# number of rings (size 3 to 8) (size 9 to 14) (size 15 to 20)
#    0.000    3.250    0.000    4.125    0.000    4.250 
#    0.000    1.875    0.000    6.000    0.000    0.000 
#    0.000   12.500    0.000    0.000    0.000    0.000 
#
# Total GULP energy -792860.898983 kJ/mol
# GULP energy per Si atom -12388.451547 kJ/mol
# Density = 1.832667 g / cm^3
# Si number density = 18.368475 Si / 1000 Ang^3
#
#
#
# Elastic Constant Matrix: (Units=GPa)
#
#
# Indices 1 2 3 4 5 6 
#
# 1 91.7325 68.9020 18.6565 0.0000 0.0000 0.0000
# 2 68.9020 174.1044 22.7731 0.0000 0.0000 0.0000
# 3 18.6565 22.7731 30.8043 0.0000 0.0000 0.0000
# 4 0.0000 0.0000 0.0000 3.4464 0.0000 0.0000
# 5 0.0000 0.0000 0.0000 0.0000 2.3828 0.0000
# 6 0.0000 0.0000 0.0000 0.0000 0.0000 8.2010
#
#
#
# Elastic Compliance Matrix: (Units=1/GPa)
#
#
# Indices 1 2 3 4 5 6 
#
# 1 0.016361 -0.005733 -0.005670 0.000000 0.000000 0.000000
# 2 -0.005733 0.008368 -0.002714 0.000000 0.000000 0.000000
# 3 -0.005670 -0.002714 0.037904 0.000000 0.000000 0.000000
# 4 0.000000 0.000000 0.000000 0.290161 0.000000 0.000000
# 5 0.000000 0.000000 0.000000 0.000000 0.419670 0.000000
# 6 0.000000 0.000000 0.000000 0.000000 0.000000 0.121936
#
#
# Mechanical properties :
#
#
# Convention : Reuss Voigt Hill
#
# Bulk Modulus (GPa) = 29.07209 57.47826 43.27517
# Shear Modulus (GPa) = 5.35275 15.22667 10.28971
#
# Velocity S-wave (km/s) = 1.70892 2.88228 2.36939
# Velocity P-wave (km/s) = 4.44471 6.51433 5.57637
#
# Compressibility (1/GPa) = 0.03439726
#
# Stress axis : x y z
#
# Youngs Moduli (GPa) = 61.12187 119.50978 26.38273
#
# Poissons Ratio (x) = 0.68516 0.14960
# Poissons Ratio (y) = 0.35042 0.07160
# Poissons Ratio (z) = 0.34659 0.32432
#
# Static dielectric constant tensor:
#      x y z
#    x 3.186150 0.000000 0.000000 
#    y 0.000000 4.148230 0.000000 
#    z 0.000000 0.000000 2.744920 
# 
# 
# High freq. dielectric constant tensor:
#      x y z
#    x 1.676700 0.000000 0.000000 
#    y 0.000000 1.742870 0.000000 
#    z 0.000000 0.000000 1.643110 
# 
# From -- ./inp_files/7946.got.cif
#   From: 2010.03.12/outbox.cif.g09.slc.cpg/sg55_4_cif.got.tgz:7946.got - 2010.04.16 15:19:21.
