data_PCOD8224374
_publ_section_title
;
Structure prediction by ZEFSAII (Michael W. Deem and Ramdas Pophale) SiO2 
 PCOD8224374
Probable space group: P B A M
;
_chemical_formula_sum "Si O2"
_cell_formula_units_Z 56
_cell_length_a 25.890959
_cell_length_b 9.645925
_cell_length_c 13.725791
_cell_angle_alpha 90.000000
_cell_angle_beta 90.000000
_cell_angle_gamma 90.000000
_cell_volume 3427.909909
_symmetry_space_group_name_H-M "P B A M"
_symmetry_group_IT_number 55
_symmetry_cell_setting 'orthorhombic'
loop_
_space_group_symop_operation_xyz
x,y,z
-x,-y,z
1/2+x,1/2-y,-z
1/2-x,1/2+y,-z
-x,-y,-z
x,y,-z
1/2-x,1/2+y,z
1/2+x,1/2-y,z
loop_
_atom_site_type_symbol
_atom_site_label
_atom_site_fract_x
_atom_site_fract_y
_atom_site_fract_z
Si Si1 0.731121 0.510976 0.393412
Si Si2 0.559633 0.491643 0.884297
Si Si3 0.862446 0.784458 0.195003
Si Si4 0.326215 0.990345 0.886105
Si Si5 0.288519 0.472997 0.185538
Si Si6 0.633161 0.726759 0.110614
Si Si7 0.815311 0.724807 0.393500
O O1 0.708117 0.556459 0.500000
O O2 0.699059 0.565210 0.299502
O O3 0.788875 0.573575 0.383432
O O4 0.730044 0.342653 0.386131
O O5 0.500000 0.500000 0.856688
O O6 0.583511 0.359982 0.827760
O O7 0.587613 0.631662 0.843500
O O8 0.568556 0.473396 0.000000
O O9 0.860335 0.645289 0.131650
O O10 0.814843 0.880348 0.159501
O O11 0.858165 0.747585 0.309971
O O12 0.272448 0.981088 0.829113
O O13 0.359201 0.120640 0.843270
O O14 0.314350 0.011119 0.000000
O O15 0.312294 0.353355 0.118829
O O16 0.617731 0.749466 0.000000
O O17 0.842498 0.735843 0.500000
#
# Coordination Sequence:
#
# PCOD8224374 Si02
#       7
#     8   8   8   8   8   8   8
#     4   9  17  27  40  60  87 122 157 183 210 251
#     4   9  18  35  54  67  85 117 154 192 235 280
#     4  10  19  30  46  68  90 119 156 188 222 274
#     4  11  20  28  41  65  96 122 148 184 220 262
#     4  10  18  28  43  62  93 130 154 176 212 263
#     4   9  19  31  44  66  93 121 155 188 222 268
#     4   9  17  29  44  64  92 122 154 187 220 262
#
# _framework density 16.336485
#
# number of rings (size 3 to 8) (size 9 to 14) (size 15 to 20)
#    0.000    2.429    1.429    1.714    2.000    2.857 
#    0.000    0.714    0.000    3.857    0.000    0.000 
#    0.000    1.143    0.000    0.000    0.000    0.000 
#
# Total GULP energy -693762.281957 kJ/mol
# GULP energy per Si atom -12388.612178 kJ/mol
# Density = 1.629930 g / cm^3
# Si number density = 16.336485 Si / 1000 Ang^3
#
#
#
# Elastic Constant Matrix: (Units=GPa)
#
#
# Indices 1 2 3 4 5 6 
#
# 1 88.8915 46.3181 22.3727 0.0000 0.0000 0.0000
# 2 46.3181 107.6343 26.4111 0.0000 0.0000 0.0000
# 3 22.3727 26.4111 61.3287 0.0000 0.0000 0.0000
# 4 0.0000 0.0000 0.0000 18.3948 0.0000 0.0000
# 5 0.0000 0.0000 0.0000 0.0000 12.7974 0.0000
# 6 0.0000 0.0000 0.0000 0.0000 0.0000 10.8410
#
#
#
# Elastic Compliance Matrix: (Units=1/GPa)
#
#
# Indices 1 2 3 4 5 6 
#
# 1 0.014981 -0.005709 -0.003007 0.000000 0.000000 0.000000
# 2 -0.005709 0.012564 -0.003328 0.000000 0.000000 0.000000
# 3 -0.003007 -0.003328 0.018836 0.000000 0.000000 0.000000
# 4 0.000000 0.000000 0.000000 0.054363 0.000000 0.000000
# 5 0.000000 0.000000 0.000000 0.000000 0.078141 0.000000
# 6 0.000000 0.000000 0.000000 0.000000 0.000000 0.092242
#
#
# Mechanical properties :
#
#
# Convention : Reuss Voigt Hill
#
# Bulk Modulus (GPa) = 44.85601 49.78428 47.32015
# Shear Modulus (GPa) = 16.52097 19.25683 17.88890
#
# Velocity S-wave (km/s) = 3.18353 3.43703 3.31271
# Velocity P-wave (km/s) = 6.40549 6.80378 6.60764
#
# Compressibility (1/GPa) = 0.02229355
#
# Stress axis : x y z
#
# Youngs Moduli (GPa) = 66.75053 79.59170 53.09101
#
# Poissons Ratio (x) = 0.45440 0.15962
# Poissons Ratio (y) = 0.38108 0.17669
# Poissons Ratio (z) = 0.20069 0.26489
#
# Static dielectric constant tensor:
#      x y z
#    x 2.675300 0.000000 0.000000 
#    y 0.000000 3.324450 0.000000 
#    z 0.000000 0.000000 3.258770 
# 
# 
# High freq. dielectric constant tensor:
#      x y z
#    x 1.567780 0.000000 0.000000 
#    y 0.000000 1.640800 0.000000 
#    z 0.000000 0.000000 1.629840 
# 
# From -- ./inp_files/17901.got.cif
#   From: 2010.03.12/outbox.cif.g09.slc.cpg/sg55_9_cif.got.tgz:17901.got - 2010.04.16 15:19:21.
