data_PCOD8224941
_publ_section_title
;
Structure prediction by ZEFSAII (Michael W. Deem and Ramdas Pophale) SiO2 
 PCOD8224941
Probable space group: P B A M
;
_chemical_formula_sum "Si O2"
_cell_formula_units_Z 32
_cell_length_a 8.706646
_cell_length_b 34.498467
_cell_length_c 5.201604
_cell_angle_alpha 90.000000
_cell_angle_beta 90.000000
_cell_angle_gamma 90.000000
_cell_volume 1562.384673
_symmetry_space_group_name_H-M "P B A M"
_symmetry_group_IT_number 55
_symmetry_cell_setting 'orthorhombic'
loop_
_space_group_symop_operation_xyz
x,y,z
-x,-y,z
1/2+x,1/2-y,-z
1/2-x,1/2+y,-z
-x,-y,-z
x,y,-z
1/2-x,1/2+y,z
1/2+x,1/2-y,z
loop_
_atom_site_type_symbol
_atom_site_label
_atom_site_fract_x
_atom_site_fract_y
_atom_site_fract_z
Si Si1 0.223623 0.572356 0.000000
Si Si2 0.275781 0.776762 0.500000
Si Si3 0.573393 0.598557 0.000000
Si Si4 0.723161 0.677835 0.000000
Si Si5 0.374537 0.445339 0.500000
Si Si6 0.724394 0.471444 0.500000
Si Si7 0.570178 0.847879 0.000000
Si Si8 0.122357 0.697531 0.500000
O O1 0.392877 0.590610 0.000000
O O2 0.194386 0.545781 0.751608
O O3 0.099674 0.606438 0.000000
O O4 0.198774 0.795632 0.249345
O O5 0.249870 0.730856 0.500000
O O6 0.457287 0.782308 0.500000
O O7 0.594111 0.644726 0.000000
O O8 0.656329 0.580461 0.751130
O O9 0.888224 0.657469 0.000000
O O10 0.546867 0.460553 0.500000
O O11 0.259113 0.481947 0.500000
O O12 0.646986 0.828933 0.749500
#
# Coordination Sequence:
#
# PCOD8224941 Si02
#       8
#     4   4   4   4   4   4   4   4
#     4  10  19  31  51  76  98 128 169 205 241 289
#     4  10  21  36  54  75  99 130 165 201 245 293
#     4  10  19  31  51  76  98 128 169 205 241 289
#     4  10  21  36  52  73 103 134 161 197 249 297
#     4   9  17  30  49  74 102 129 162 207 251 287
#     4   9  17  30  49  74 102 129 162 207 251 287
#     4  10  21  36  52  73 103 134 161 197 249 297
#     4  10  21  36  54  75  99 130 165 201 245 293
#
# _framework density 20.481511000000001
#
# number of rings (size 3 to 8) (size 9 to 14) (size 15 to 20)
#    0.000    2.250    0.000    3.000    0.000    5.000 
#    0.000    0.000    0.000    4.500    0.000    0.000 
#    0.000    0.000    0.000    0.000    0.000    0.000 
#
# Total GULP energy -396952.914465 kJ/mol
# GULP energy per Si atom -12404.778577 kJ/mol
# Density = 2.043489 g / cm^3
# Si number density = 20.481511 Si / 1000 Ang^3
#
#
#
# Elastic Constant Matrix: (Units=GPa)
#
#
# Indices 1 2 3 4 5 6 
#
# 1 8.2657 -1.6597 4.6690 0.0000 0.0000 0.0000
# 2 -1.6597 44.2935 19.1551 0.0000 0.0000 0.0000
# 3 4.6690 19.1551 172.5560 0.0000 0.0000 0.0000
# 4 0.0000 0.0000 0.0000 40.3561 0.0000 0.0000
# 5 0.0000 0.0000 0.0000 0.0000 4.8290 0.0000
# 6 0.0000 0.0000 0.0000 0.0000 0.0000 30.6581
#
#
#
# Elastic Compliance Matrix: (Units=1/GPa)
#
#
# Indices 1 2 3 4 5 6 
#
# 1 0.124582 0.006435 -0.004085 0.000000 0.000000 0.000000
# 2 0.006435 0.024048 -0.002844 0.000000 0.000000 0.000000
# 3 -0.004085 -0.002844 0.006221 0.000000 0.000000 0.000000
# 4 0.000000 0.000000 0.000000 0.024779 0.000000 0.000000
# 5 0.000000 0.000000 0.000000 0.000000 0.207081 0.000000
# 6 0.000000 0.000000 0.000000 0.000000 0.000000 0.032618
#
#
# Mechanical properties :
#
#
# Convention : Reuss Voigt Hill
#
# Bulk Modulus (GPa) = 6.49929 29.93823 18.21876
# Shear Modulus (GPa) = 10.60209 28.69869 19.65039
#
# Velocity S-wave (km/s) = 2.27764 3.74732 3.10081
# Velocity P-wave (km/s) = 3.17758 5.77686 4.66204
#
# Compressibility (1/GPa) = 0.15386285
#
# Stress axis : x y z
#
# Youngs Moduli (GPa) = 8.02685 41.58430 160.73503
#
# Poissons Ratio (x) = -0.26759 0.65665
# Poissons Ratio (y) = -0.05165 0.45706
# Poissons Ratio (z) = 0.03279 0.11825
#
# Static dielectric constant tensor:
#      x y z
#    x 3.182230 0.000000 0.000000 
#    y 0.000000 3.684010 0.000000 
#    z 0.000000 0.000000 4.084920 
# 
# 
# High freq. dielectric constant tensor:
#      x y z
#    x 1.760000 0.000000 0.000000 
#    y 0.000000 1.808270 0.000000 
#    z 0.000000 0.000000 1.822270 
# 
# From -- ./inp_files/298.got.cif
#   From: 2010.03.12/outbox.cif.g09.slc.cpg/sg55_1_cif.got.tgz:298.got - 2010.04.16 15:19:21.
