data_PCOD8224386
_publ_section_title
;
Structure prediction by ZEFSAII (Michael W. Deem and Ramdas Pophale) SiO2 
 PCOD8224386
Probable space group: P B A M
;
_chemical_formula_sum "Si O2"
_cell_formula_units_Z 64
_cell_length_a 31.721476
_cell_length_b 9.092267
_cell_length_c 12.808908
_cell_angle_alpha 90.000000
_cell_angle_beta 90.000000
_cell_angle_gamma 90.000000
_cell_volume 3694.346903
_symmetry_space_group_name_H-M "P B A M"
_symmetry_group_IT_number 55
_symmetry_cell_setting 'orthorhombic'
loop_
_space_group_symop_operation_xyz
x,y,z
-x,-y,z
1/2+x,1/2-y,-z
1/2-x,1/2+y,-z
-x,-y,-z
x,y,-z
1/2-x,1/2+y,z
1/2+x,1/2-y,z
loop_
_atom_site_type_symbol
_atom_site_label
_atom_site_fract_x
_atom_site_fract_y
_atom_site_fract_z
Si Si1 0.938137 0.892518 0.876272
Si Si2 0.265210 0.144806 0.724329
Si Si3 0.404110 0.080064 0.881608
Si Si4 0.827327 0.212252 0.115016
Si Si5 0.197040 0.101992 0.114331
Si Si6 0.028847 0.796090 0.878095
Si Si7 0.866704 0.706046 0.785530
Si Si8 0.800336 0.643473 0.377931
O O1 0.901944 0.831382 0.799668
O O2 0.979075 0.788877 0.856068
O O3 0.949821 0.054594 0.834518
O O4 0.925577 0.885875 0.000000
O O5 0.297905 0.239587 0.790510
O O6 0.234265 0.066754 0.805796
O O7 0.238719 0.248835 0.646942
O O8 0.289875 0.020835 0.660338
O O9 0.372740 0.216605 0.874881
O O10 0.448203 0.147082 0.836870
O O11 0.387272 0.949922 0.810352
O O12 0.408940 0.020051 0.000000
O O13 0.834689 0.036588 0.121671
O O14 0.807802 0.251228 0.000000
O O15 0.172108 0.253391 0.137498
O O16 0.217136 0.117706 0.000000
O O17 0.037637 0.805112 0.000000
O O18 0.844778 0.699473 0.671692
O O19 0.808084 0.641328 0.500000
#
# Coordination Sequence:
#
# PCOD8224386 Si02
#       8
#     8   8   8   8   8   8   8   8
#     4   9  16  30  49  75 109 147 176 199 239 300
#     4  11  20  38  54  73  96 127 173 209 260 312
#     4  10  18  28  45  74 107 137 167 204 244 294
#     4  10  19  31  48  73 106 137 162 193 245 311
#     4  10  20  32  48  72 104 138 165 197 244 313
#     4   8  16  29  48  73 109 148 177 197 230 297
#     4  11  21  32  50  74 103 133 173 214 260 302
#     4  11  24  40  57  72  94 129 175 230 273 302
#
# _framework density 17.323765999999999
#
# number of rings (size 3 to 8) (size 9 to 14) (size 15 to 20)
#    0.000    2.000    2.500    3.375    0.000    2.500 
#    0.000    1.875    0.000    0.000    0.000    3.500 
#    0.000    0.000    0.000    0.000    0.000    0.000 
#
# Total GULP energy -793129.398998 kJ/mol
# GULP energy per Si atom -12392.646859 kJ/mol
# Density = 1.728434 g / cm^3
# Si number density = 17.323766 Si / 1000 Ang^3
#
#
#
# Elastic Constant Matrix: (Units=GPa)
#
#
# Indices 1 2 3 4 5 6 
#
# 1 76.5951 21.4659 38.9540 0.0000 0.0000 0.0000
# 2 21.4659 60.6798 32.6936 0.0000 0.0000 0.0000
# 3 38.9540 32.6936 97.0857 0.0000 0.0000 0.0000
# 4 0.0000 0.0000 0.0000 13.4981 0.0000 0.0000
# 5 0.0000 0.0000 0.0000 0.0000 16.7572 0.0000
# 6 0.0000 0.0000 0.0000 0.0000 0.0000 38.0569
#
#
#
# Elastic Compliance Matrix: (Units=1/GPa)
#
#
# Indices 1 2 3 4 5 6 
#
# 1 0.016789 -0.002822 -0.005786 0.000000 0.000000 0.000000
# 2 -0.002822 0.020607 -0.005807 0.000000 0.000000 0.000000
# 3 -0.005786 -0.005807 0.014577 0.000000 0.000000 0.000000
# 4 0.000000 0.000000 0.000000 0.074084 0.000000 0.000000
# 5 0.000000 0.000000 0.000000 0.000000 0.059676 0.000000
# 6 0.000000 0.000000 0.000000 0.000000 0.000000 0.026276
#
#
# Mechanical properties :
#
#
# Convention : Reuss Voigt Hill
#
# Bulk Modulus (GPa) = 43.20912 46.73197 44.97054
# Shear Modulus (GPa) = 20.11627 23.07891 21.59759
#
# Velocity S-wave (km/s) = 3.41133 3.65391 3.53470
# Velocity P-wave (km/s) = 6.36494 6.69594 6.53254
#
# Compressibility (1/GPa) = 0.02314326
#
# Stress axis : x y z
#
# Youngs Moduli (GPa) = 59.56242 48.52708 68.59955
#
# Poissons Ratio (x) = 0.13693 0.39693
# Poissons Ratio (y) = 0.16807 0.39837
# Poissons Ratio (z) = 0.34464 0.28181
#
# Static dielectric constant tensor:
#      x y z
#    x 3.393980 0.000000 0.000000 
#    y 0.000000 3.389650 0.000000 
#    z 0.000000 0.000000 2.834620 
# 
# 
# High freq. dielectric constant tensor:
#      x y z
#    x 1.673250 0.000000 0.000000 
#    y 0.000000 1.682140 0.000000 
#    z 0.000000 0.000000 1.610730 
# 
# From -- ./inp_files/20201.got.cif
#   From: 2010.03.12/outbox.cif.g09.slc.cpg/sg55_11_cif.got.tgz:20201.got - 2010.04.16 15:19:21.
