data_PCOD8224244
_publ_section_title
;
Structure prediction by ZEFSAII (Michael W. Deem and Ramdas Pophale) SiO2 
 PCOD8224244
Probable space group: P B A M
;
_chemical_formula_sum "Si O2"
_cell_formula_units_Z 64
_cell_length_a 30.070676
_cell_length_b 14.826740
_cell_length_c 8.694802
_cell_angle_alpha 90.000000
_cell_angle_beta 90.000000
_cell_angle_gamma 90.000000
_cell_volume 3876.578295
_symmetry_space_group_name_H-M "P B A M"
_symmetry_group_IT_number 55
_symmetry_cell_setting 'orthorhombic'
loop_
_space_group_symop_operation_xyz
x,y,z
-x,-y,z
1/2+x,1/2-y,-z
1/2-x,1/2+y,-z
-x,-y,-z
x,y,-z
1/2-x,1/2+y,z
1/2+x,1/2-y,z
loop_
_atom_site_type_symbol
_atom_site_label
_atom_site_fract_x
_atom_site_fract_y
_atom_site_fract_z
Si Si1 0.287861 0.788178 0.184414
Si Si2 0.457353 0.601385 0.819578
Si Si3 0.635975 0.340229 0.818976
Si Si4 0.798515 0.321297 0.817507
Si Si5 0.823780 0.021533 0.172512
Si Si6 0.137087 0.811202 0.321938
Si Si7 0.951794 0.093172 0.680615
Si Si8 0.779347 0.514028 0.828770
O O1 0.333084 0.740066 0.245896
O O2 0.244115 0.735245 0.245878
O O3 0.289506 0.890105 0.254430
O O4 0.285142 0.792913 0.000000
O O5 0.416521 0.669752 0.779737
O O6 0.500724 0.635832 0.728293
O O7 0.444247 0.499887 0.771233
O O8 0.467616 0.601586 0.000000
O O9 0.651318 0.436364 0.752110
O O10 0.644102 0.344450 0.000000
O O11 0.844982 0.275377 0.769924
O O12 0.799322 0.423752 0.748390
O O13 0.794791 0.326343 0.000000
O O14 0.772730 0.996468 0.164484
O O15 0.831110 0.105232 0.284149
O O16 0.841310 0.044908 0.000000
O O17 0.140086 0.788078 0.500000
O O18 0.086544 0.835723 0.273257
O O19 0.950992 0.072091 0.500000
O O20 0.799350 0.520705 0.000000
#
# Coordination Sequence:
#
# PCOD8224244 Si02
#       8
#     8   8   8   8   8   8   8   8
#     4   9  15  25  44  69  96 120 148 186 224 268
#     4  10  18  28  46  70  92 116 150 189 226 268
#     4   9  16  25  42  70  98 121 148 185 227 266
#     4  10  18  29  48  69  89 119 158 191 220 262
#     4  10  16  27  47  68  92 122 157 189 218 262
#     4  11  22  32  43  64  93 126 158 187 229 271
#     4  10  20  32  44  61  90 124 152 183 229 279
#     4   9  16  26  45  71  92 119 156 190 223 261
#
# _framework density 16.509405000000001
#
# number of rings (size 3 to 8) (size 9 to 14) (size 15 to 20)
#    0.000    2.250    3.750    1.875    0.000    1.500 
#    0.000    0.625    0.000    1.500    0.000    0.875 
#    0.000    7.000    0.000    0.000    0.000    0.000 
#
# Total GULP energy -793071.944330 kJ/mol
# GULP energy per Si atom -12391.749130 kJ/mol
# Density = 1.647183 g / cm^3
# Si number density = 16.509405 Si / 1000 Ang^3
#
#
#
# Elastic Constant Matrix: (Units=GPa)
#
#
# Indices 1 2 3 4 5 6 
#
# 1 98.7529 43.5418 15.4122 0.0000 0.0000 0.0000
# 2 43.5418 102.2424 10.2678 0.0000 0.0000 0.0000
# 3 15.4122 10.2678 19.2672 0.0000 0.0000 0.0000
# 4 0.0000 0.0000 0.0000 6.3989 0.0000 0.0000
# 5 0.0000 0.0000 0.0000 0.0000 14.4519 0.0000
# 6 0.0000 0.0000 0.0000 0.0000 0.0000 26.7129
#
#
#
# Elastic Compliance Matrix: (Units=1/GPa)
#
#
# Indices 1 2 3 4 5 6 
#
# 1 0.013600 -0.004965 -0.008233 0.000000 0.000000 0.000000
# 2 -0.004965 0.012146 -0.002501 0.000000 0.000000 0.000000
# 3 -0.008233 -0.002501 0.059821 0.000000 0.000000 0.000000
# 4 0.000000 0.000000 0.000000 0.156277 0.000000 0.000000
# 5 0.000000 0.000000 0.000000 0.000000 0.069195 0.000000
# 6 0.000000 0.000000 0.000000 0.000000 0.000000 0.037435
#
#
# Mechanical properties :
#
#
# Convention : Reuss Voigt Hill
#
# Bulk Modulus (GPa) = 18.46109 39.85625 29.15867
# Shear Modulus (GPa) = 12.56502 19.58212 16.07357
#
# Velocity S-wave (km/s) = 2.76177 3.44774 3.12364
# Velocity P-wave (km/s) = 4.62344 6.32797 5.54164
#
# Compressibility (1/GPa) = 0.05416798
#
# Stress axis : x y z
#
# Youngs Moduli (GPa) = 73.52695 82.32906 16.71667
#
# Poissons Ratio (x) = 0.40878 0.13763
# Poissons Ratio (y) = 0.36507 0.04181
# Poissons Ratio (z) = 0.60536 0.20593
#
# Static dielectric constant tensor:
#      x y z
#    x 3.227890 0.000000 0.000000 
#    y 0.000000 3.163580 0.000000 
#    z 0.000000 0.000000 2.810610 
# 
# 
# High freq. dielectric constant tensor:
#      x y z
#    x 1.629640 0.000000 0.000000 
#    y 0.000000 1.614010 0.000000 
#    z 0.000000 0.000000 1.601380 
# 
# From -- ./inp_files/10917.got.cif
#   From: 2010.03.12/outbox.cif.g09.slc.cpg/sg55_6_cif.got.tgz:10917.got - 2010.04.16 15:19:21.
