data_PCOD8224057
_publ_section_title
;
Structure prediction by ZEFSAII (Michael W. Deem and Ramdas Pophale) SiO2 
 PCOD8224057
Probable space group: P C C A
;
_chemical_formula_sum "Si O2"
_cell_formula_units_Z 24
_cell_length_a 12.474289
_cell_length_b 4.701592
_cell_length_c 17.432979
_cell_angle_alpha 90.000000
_cell_angle_beta 90.000000
_cell_angle_gamma 90.000000
_cell_volume 1022.427088
_symmetry_space_group_name_H-M "P C C A"
_symmetry_group_IT_number 54
_symmetry_cell_setting 'orthorhombic'
loop_
_space_group_symop_operation_xyz
x,y,z
1/2-x,-y,z
1/2+x,-y,1/2-z
-x,y,1/2-z
-x,-y,-z
1/2+x,y,-z
1/2-x,y,1/2+z
x,-y,1/2+z
loop_
_atom_site_type_symbol
_atom_site_label
_atom_site_fract_x
_atom_site_fract_y
_atom_site_fract_z
Si Si1 0.990919 0.464901 0.590007
Si Si2 0.822302 0.246131 0.316692
Si Si3 0.128912 0.058152 0.345050
O O1 0.888702 0.635153 0.618798
O O2 0.000000 0.500000 0.500000
O O3 0.098585 0.600396 0.624778
O O4 0.964416 0.146251 0.619642
O O5 0.750000 0.500000 0.281245
O O6 0.883094 0.083528 0.247266
O O7 0.750000 0.000000 0.358510
O O8 0.250000 0.000000 0.370028
#
# Coordination Sequence:
#
# PCOD8224057 Si02
#       3
#     8   8   8
#     4  12  26  44  69 102 138 176 218 277 344 401
#     4  11  24  44  69  99 133 179 232 282 329 395
#     4  11  24  44  68  97 132 179 227 275 329 398
#
# _framework density 23.473559000000002
#
# number of rings (size 3 to 8) (size 9 to 14) (size 15 to 20)
#    0.000    0.667    0.000    9.000    0.000    9.333 
#    0.000    0.000    0.000    0.000    0.000    0.000 
#    0.000    0.000    0.000    0.000    0.000    0.000 
#
# Total GULP energy -297441.434488 kJ/mol
# GULP energy per Si atom -12393.393104 kJ/mol
# Density = 2.342013 g / cm^3
# Si number density = 23.473559 Si / 1000 Ang^3
#
#
#
# Elastic Constant Matrix: (Units=GPa)
#
#
# Indices 1 2 3 4 5 6 
#
# 1 105.1908 20.7129 43.7459 0.0000 0.0000 0.0000
# 2 20.7129 93.5444 20.3574 0.0000 0.0000 0.0000
# 3 43.7459 20.3574 145.2419 0.0000 0.0000 0.0000
# 4 0.0000 0.0000 0.0000 2.2072 0.0000 0.0000
# 5 0.0000 0.0000 0.0000 0.0000 7.4303 0.0000
# 6 0.0000 0.0000 0.0000 0.0000 0.0000 70.0199
#
#
#
# Elastic Compliance Matrix: (Units=1/GPa)
#
#
# Indices 1 2 3 4 5 6 
#
# 1 0.011152 -0.001793 -0.003108 0.000000 0.000000 0.000000
# 2 -0.001793 0.011315 -0.001046 0.000000 0.000000 0.000000
# 3 -0.003108 -0.001046 0.007968 0.000000 0.000000 0.000000
# 4 0.000000 0.000000 0.000000 0.453068 0.000000 0.000000
# 5 0.000000 0.000000 0.000000 0.000000 0.134584 0.000000
# 6 0.000000 0.000000 0.000000 0.000000 0.000000 0.014282
#
#
# Mechanical properties :
#
#
# Convention : Reuss Voigt Hill
#
# Bulk Modulus (GPa) = 53.93332 57.06773 55.50053
# Shear Modulus (GPa) = 7.68709 33.20888 20.44798
#
# Velocity S-wave (km/s) = 1.81160 3.76538 2.95465
# Velocity P-wave (km/s) = 5.23469 6.57787 5.94434
#
# Compressibility (1/GPa) = 0.01854141
#
# Stress axis : x y z
#
# Youngs Moduli (GPa) = 89.67044 88.38044 125.50769
#
# Poissons Ratio (x) = 0.15847 0.39003
# Poissons Ratio (y) = 0.16078 0.13126
# Poissons Ratio (z) = 0.27866 0.09243
#
# Static dielectric constant tensor:
#      x y z
#    x 4.120270 0.000000 0.000000 
#    y 0.000000 4.647890 0.000000 
#    z 0.000000 0.000000 3.663330 
# 
# 
# High freq. dielectric constant tensor:
#      x y z
#    x 1.944360 0.000000 0.000000 
#    y 0.000000 1.959410 0.000000 
#    z 0.000000 0.000000 1.900610 
# 
# From -- ./inp_files/12013.got.cif
#   From: 2010.03.12/outbox.cif.g09.slc.cpg/sg54_7_cif.got.tgz:12013.got - 2010.04.16 15:00:50.
