data_PCOD8224357
_publ_section_title
;
Structure prediction by ZEFSAII (Michael W. Deem and Ramdas Pophale) SiO2 
 PCOD8224357
Probable space group: P B A M
;
_chemical_formula_sum "Si O2"
_cell_formula_units_Z 64
_cell_length_a 25.709608
_cell_length_b 8.193961
_cell_length_c 17.320311
_cell_angle_alpha 90.000000
_cell_angle_beta 90.000000
_cell_angle_gamma 90.000000
_cell_volume 3648.757774
_symmetry_space_group_name_H-M "P B A M"
_symmetry_group_IT_number 55
_symmetry_cell_setting 'orthorhombic'
loop_
_space_group_symop_operation_xyz
x,y,z
-x,-y,z
1/2+x,1/2-y,-z
1/2-x,1/2+y,-z
-x,-y,-z
x,y,-z
1/2-x,1/2+y,z
1/2+x,1/2-y,z
loop_
_atom_site_type_symbol
_atom_site_label
_atom_site_fract_x
_atom_site_fract_y
_atom_site_fract_z
Si Si1 0.420059 0.828675 0.910717
Si Si2 0.938233 0.998488 0.412251
Si Si3 0.810958 0.808748 0.091824
Si Si4 0.011361 0.817917 0.190436
Si Si5 0.704324 0.670226 0.908761
Si Si6 0.097197 0.701432 0.912046
Si Si7 0.951984 0.319478 0.654570
Si Si8 0.439412 0.856754 0.588556
O O1 0.363125 0.779585 0.879400
O O2 0.462756 0.744386 0.858236
O O3 0.426121 0.022095 0.902438
O O4 0.428023 0.775503 0.000000
O O5 0.920476 0.022411 0.500000
O O6 0.917442 0.156399 0.363646
O O7 0.916645 0.820924 0.382760
O O8 0.000000 0.000000 0.403136
O O9 0.759398 0.724216 0.127782
O O10 0.811470 0.993173 0.122432
O O11 0.808808 0.800514 0.000000
O O12 0.062364 0.826156 0.136792
O O13 0.023043 0.694136 0.260488
O O14 0.000000 0.000000 0.222050
O O15 0.657566 0.792947 0.884935
O O16 0.711585 0.667911 0.000000
O O17 0.094121 0.762393 0.000000
O O18 0.919881 0.490987 0.642963
O O19 0.998049 0.337416 0.592027
O O20 0.422921 0.888007 0.500000
#
# Coordination Sequence:
#
# PCOD8224357 Si02
#       8
#     8   8   8   8   8   8   8   8
#     4  10  21  35  48  62  82 113 153 194 233 272
#     4   8  13  24  40  59  81 103 138 185 221 258
#     4   9  16  28  48  70  87 102 129 179 234 277
#     4  12  24  33  43  60  86 123 158 190 224 269
#     4   9  16  28  48  70  87 102 129 179 234 277
#     4  10  21  35  48  62  82 113 153 194 233 272
#     4  10  18  27  39  59  84 111 148 189 217 263
#     4   9  16  26  44  62  78 108 148 184 222 258
#
# _framework density 17.540216000000001
#
# number of rings (size 3 to 8) (size 9 to 14) (size 15 to 20)
#    0.000    2.375    0.000    5.625    3.500    6.000 
#    0.000    0.000    0.000    0.000    0.000    0.000 
#    0.000    0.000    0.000    0.000    0.000   11.250 
#
# Total GULP energy -792964.989587 kJ/mol
# GULP energy per Si atom -12390.077962 kJ/mol
# Density = 1.750029 g / cm^3
# Si number density = 17.540216 Si / 1000 Ang^3
#
#
#
# Elastic Constant Matrix: (Units=GPa)
#
#
# Indices 1 2 3 4 5 6 
#
# 1 70.1114 22.1127 28.1499 0.0000 0.0000 0.0000
# 2 22.1127 129.5739 41.8833 0.0000 0.0000 0.0000
# 3 28.1499 41.8833 56.1834 0.0000 0.0000 0.0000
# 4 0.0000 0.0000 0.0000 15.8457 0.0000 0.0000
# 5 0.0000 0.0000 0.0000 0.0000 -0.3007 0.0000
# 6 0.0000 0.0000 0.0000 0.0000 0.0000 21.1949
#
#
#
# Elastic Compliance Matrix: (Units=1/GPa)
#
#
# Indices 1 2 3 4 5 6 
#
# 1 0.017859 -0.000205 -0.008795 0.000000 0.000000 0.000000
# 2 -0.000205 0.010170 -0.007479 0.000000 0.000000 0.000000
# 3 -0.008795 -0.007479 0.027781 0.000000 0.000000 0.000000
# 4 0.000000 0.000000 0.000000 0.063109 0.000000 0.000000
# 5 0.000000 0.000000 0.000000 0.000000 -3.325548 0.000000
# 6 0.000000 0.000000 0.000000 0.000000 0.000000 0.047181
#
#
# Mechanical properties :
#
#
# Convention : Reuss Voigt Hill
#
# Bulk Modulus (GPa) = 43.75996 48.90673 46.33334
# Shear Modulus (GPa) = -1.60314 18.26284 8.32985
#
# Velocity S-wave (km/s) = -0.95706 3.23026 2.18158
# Velocity P-wave (km/s) = 4.87660 6.46962 5.72875
#
# Compressibility (1/GPa) = 0.02285194
#
# Stress axis : x y z
#
# Youngs Moduli (GPa) = 55.99434 98.32840 35.99596
#
# Poissons Ratio (x) = 0.02014 0.31660
# Poissons Ratio (y) = 0.01147 0.26921
# Poissons Ratio (z) = 0.49249 0.73538
#
# Static dielectric constant tensor:
#      x y z
#    x 2.930580 0.000000 0.000000 
#    y 0.000000 3.963990 0.000000 
#    z 0.000000 0.000000 2.926760 
# 
# 
# High freq. dielectric constant tensor:
#      x y z
#    x 1.616590 0.000000 0.000000 
#    y 0.000000 1.707940 0.000000 
#    z 0.000000 0.000000 1.636800 
# 
# From -- ./inp_files/22117.got.cif
#   From: 2010.03.12/outbox.cif.g09.slc.cpg/sg55_12_cif.got.tgz:22117.got - 2010.04.16 15:19:21.
