data_PCOD8224172
_publ_section_title
;
Structure prediction by ZEFSAII (Michael W. Deem and Ramdas Pophale) SiO2 
 PCOD8224172
Probable space group: P C C A
;
_chemical_formula_sum "Si O2"
_cell_formula_units_Z 48
_cell_length_a 14.324989
_cell_length_b 8.022800
_cell_length_c 18.288473
_cell_angle_alpha 90.000000
_cell_angle_beta 90.000000
_cell_angle_gamma 90.000000
_cell_volume 2101.830590
_symmetry_space_group_name_H-M "P C C A"
_symmetry_group_IT_number 54
_symmetry_cell_setting 'orthorhombic'
loop_
_space_group_symop_operation_xyz
x,y,z
1/2-x,-y,z
1/2+x,-y,1/2-z
-x,y,1/2-z
-x,-y,-z
1/2+x,y,-z
1/2-x,y,1/2+z
x,-y,1/2+z
loop_
_atom_site_type_symbol
_atom_site_label
_atom_site_fract_x
_atom_site_fract_y
_atom_site_fract_z
Si Si1 0.342899 0.720658 0.123591
Si Si2 0.750000 0.000000 0.287939
Si Si3 0.250000 0.500000 0.006027
Si Si4 0.603146 0.529486 0.244208
Si Si5 0.625489 0.826451 0.677766
Si Si6 0.312637 0.277156 0.888379
Si Si7 0.982475 0.948949 0.582979
O O1 0.268322 0.843413 0.160046
O O2 0.302866 0.645143 0.049422
O O3 0.354411 0.559368 0.175486
O O4 0.438170 0.822499 0.109679
O O5 0.660803 0.034613 0.235904
O O6 0.324812 0.410560 0.953404
O O7 0.500000 0.604864 0.250000
O O8 0.599206 0.337315 0.222995
O O9 0.663585 0.637406 0.188355
O O10 0.706771 0.789116 0.618470
O O11 0.530697 0.889358 0.636190
O O12 0.380266 0.128844 0.909590
O O13 0.000000 0.000000 0.500000
#
# Coordination Sequence:
#
# PCOD8224172 Si02
#       7
#     8   4   4   8   8   8   8
#     4  12  28  48  70 112 147 193 250 320 363 450
#     4  12  26  44  78 102 144 186 248 308 370 430
#     4  12  28  46  74 102 152 204 248 292 386 452
#     4  12  25  46  76 106 141 188 254 306 361 439
#     4  12  24  46  76 107 139 197 242 301 379 446
#     4  12  24  49  76 102 147 198 244 298 373 454
#     4  12  28  46  71 109 153 186 245 309 383 445
#
# _framework density 22.837236000000001
#
# number of rings (size 3 to 8) (size 9 to 14) (size 15 to 20)
#    0.000    0.000    6.667    2.000    4.667    2.000 
#    0.000    0.000    0.000    0.000    0.000    0.000 
#    0.000    0.000    0.000    0.000    0.000    0.000 
#
# Total GULP energy -595256.649378 kJ/mol
# GULP energy per Si atom -12401.180195 kJ/mol
# Density = 2.278526 g / cm^3
# Si number density = 22.837236 Si / 1000 Ang^3
#
#
#
# Elastic Constant Matrix: (Units=GPa)
#
#
# Indices 1 2 3 4 5 6 
#
# 1 91.0618 24.3102 37.6289 0.0000 0.0000 0.0000
# 2 24.3102 110.8739 51.6064 0.0000 0.0000 0.0000
# 3 37.6289 51.6064 140.2736 0.0000 0.0000 0.0000
# 4 0.0000 0.0000 0.0000 51.4816 0.0000 0.0000
# 5 0.0000 0.0000 0.0000 0.0000 29.2069 0.0000
# 6 0.0000 0.0000 0.0000 0.0000 0.0000 37.6857
#
#
#
# Elastic Compliance Matrix: (Units=1/GPa)
#
#
# Indices 1 2 3 4 5 6 
#
# 1 0.012535 -0.001428 -0.002837 0.000000 0.000000 0.000000
# 2 -0.001428 0.011045 -0.003681 0.000000 0.000000 0.000000
# 3 -0.002837 -0.003681 0.009244 0.000000 0.000000 0.000000
# 4 0.000000 0.000000 0.000000 0.019424 0.000000 0.000000
# 5 0.000000 0.000000 0.000000 0.000000 0.034239 0.000000
# 6 0.000000 0.000000 0.000000 0.000000 0.000000 0.026535
#
#
# Mechanical properties :
#
#
# Convention : Reuss Voigt Hill
#
# Bulk Modulus (GPa) = 59.05521 63.25559 61.15540
# Shear Modulus (GPa) = 37.15846 38.91908 38.03877
#
# Velocity S-wave (km/s) = 4.03811 4.13267 4.08566
# Velocity P-wave (km/s) = 6.90341 7.10848 7.00670
#
# Compressibility (1/GPa) = 0.01693331
#
# Stress axis : x y z
#
# Youngs Moduli (GPa) = 79.77551 90.53499 108.17681
#
# Poissons Ratio (x) = 0.12927 0.30693
# Poissons Ratio (y) = 0.11391 0.39815
# Poissons Ratio (z) = 0.22635 0.33322
#
# Static dielectric constant tensor:
#      x y z
#    x 3.790600 0.000000 0.000000 
#    y 0.000000 4.278200 0.000000 
#    z 0.000000 0.000000 4.261510 
# 
# 
# High freq. dielectric constant tensor:
#      x y z
#    x 1.895410 0.000000 0.000000 
#    y 0.000000 1.917000 0.000000 
#    z 0.000000 0.000000 1.911530 
# 
# From -- ./inp_files/18088.got.cif
#   From: 2010.03.12/outbox.cif.g09.slc.cpg/sg54_10_cif.got.tgz:18088.got - 2010.04.16 15:00:50.
