data_PCOD8224286
_publ_section_title
;
Structure prediction by ZEFSAII (Michael W. Deem and Ramdas Pophale) SiO2 
 PCOD8224286
Probable space group: P B A M
;
_chemical_formula_sum "Si O2"
_cell_formula_units_Z 56
_cell_length_a 22.615127
_cell_length_b 14.060132
_cell_length_c 10.222244
_cell_angle_alpha 90.000000
_cell_angle_beta 90.000000
_cell_angle_gamma 90.000000
_cell_volume 3250.384004
_symmetry_space_group_name_H-M "P B A M"
_symmetry_group_IT_number 55
_symmetry_cell_setting 'orthorhombic'
loop_
_space_group_symop_operation_xyz
x,y,z
-x,-y,z
1/2+x,1/2-y,-z
1/2-x,1/2+y,-z
-x,-y,-z
x,y,-z
1/2-x,1/2+y,z
1/2+x,1/2-y,z
loop_
_atom_site_type_symbol
_atom_site_label
_atom_site_fract_x
_atom_site_fract_y
_atom_site_fract_z
Si Si1 0.552314 0.747886 0.849541
Si Si2 0.466117 0.592483 0.746584
Si Si3 0.320252 0.324098 0.845913
Si Si4 0.843983 0.973086 0.850255
Si Si5 0.105777 0.259346 0.358605
Si Si6 0.500001 0.109200 0.353025
Si Si7 0.702422 0.276342 0.844577
O O1 0.512420 0.653412 0.832400
O O2 0.619585 0.728194 0.809824
O O3 0.536424 0.833636 0.754500
O O4 0.546410 0.780713 0.000000
O O5 0.500000 0.500000 0.684086
O O6 0.412864 0.551571 0.833585
O O7 0.436385 0.664991 0.643613
O O8 0.323448 0.429328 0.779183
O O9 0.264127 0.265442 0.792084
O O10 0.312511 0.330452 0.000000
O O11 0.800522 0.887923 0.806553
O O12 0.834157 0.994422 0.000000
O O13 0.138616 0.254936 0.500000
O O14 0.066940 0.353953 0.351738
O O15 0.149872 0.271913 0.237247
O O16 0.473094 0.121917 0.500000
O O17 0.500000 0.000000 0.310444
O O18 0.691232 0.260407 0.000000
#
# Coordination Sequence:
#
# PCOD8224286 Si02
#       7
#     8   8   8   8   8   8   8
#     4  10  19  30  50  81 108 128 163 214 255 292
#     4  10  17  27  49  77 106 135 159 193 253 319
#     4   9  17  30  47  72 104 131 162 207 250 288
#     4   9  16  27  46  70  99 133 165 196 242 301
#     4   9  19  34  52  73  97 127 165 211 250 288
#     4   9  19  37  55  70  97 137 170 200 250 312
#     4   9  18  33  51  70  96 133 171 203 243 298
#
# _framework density 17.228732999999998
#
# number of rings (size 3 to 8) (size 9 to 14) (size 15 to 20)
#    0.000    2.714    1.429    0.429    0.000    4.571 
#    2.571    0.714    0.000    3.429    0.000    0.000 
#    0.000    0.000    0.000    0.000    0.000    0.000 
#
# Total GULP energy -693731.232687 kJ/mol
# GULP energy per Si atom -12388.057727 kJ/mol
# Density = 1.718952 g / cm^3
# Si number density = 17.228733 Si / 1000 Ang^3
#
#
#
# Elastic Constant Matrix: (Units=GPa)
#
#
# Indices 1 2 3 4 5 6 
#
# 1 120.5066 69.5392 40.9805 0.0000 0.0000 0.0000
# 2 69.5392 136.9276 48.1275 0.0000 0.0000 0.0000
# 3 40.9805 48.1275 64.6000 0.0000 0.0000 0.0000
# 4 0.0000 0.0000 0.0000 9.1945 0.0000 0.0000
# 5 0.0000 0.0000 0.0000 0.0000 13.0353 0.0000
# 6 0.0000 0.0000 0.0000 0.0000 0.0000 13.7650
#
#
#
# Elastic Compliance Matrix: (Units=1/GPa)
#
#
# Indices 1 2 3 4 5 6 
#
# 1 0.012586 -0.004857 -0.004365 0.000000 0.000000 0.000000
# 2 -0.004857 0.011769 -0.005686 0.000000 0.000000 0.000000
# 3 -0.004365 -0.005686 0.022485 0.000000 0.000000 0.000000
# 4 0.000000 0.000000 0.000000 0.108760 0.000000 0.000000
# 5 0.000000 0.000000 0.000000 0.000000 0.076715 0.000000
# 6 0.000000 0.000000 0.000000 0.000000 0.000000 0.072648
#
#
# Mechanical properties :
#
#
# Convention : Reuss Voigt Hill
#
# Bulk Modulus (GPa) = 58.74799 71.03649 64.89224
# Shear Modulus (GPa) = 14.68625 18.09145 16.38885
#
# Velocity S-wave (km/s) = 2.92280 3.24400 3.08758
# Velocity P-wave (km/s) = 6.75006 7.43991 7.10336
#
# Compressibility (1/GPa) = 0.01702186
#
# Stress axis : x y z
#
# Youngs Moduli (GPa) = 79.45456 84.97174 44.47332
#
# Poissons Ratio (x) = 0.41275 0.19414
# Poissons Ratio (y) = 0.38595 0.25289
# Poissons Ratio (z) = 0.34684 0.48317
#
# Static dielectric constant tensor:
#      x y z
#    x 3.465790 0.000000 0.000000 
#    y 0.000000 3.616670 0.000000 
#    z 0.000000 0.000000 2.988600 
# 
# 
# High freq. dielectric constant tensor:
#      x y z
#    x 1.654960 0.000000 0.000000 
#    y 0.000000 1.671810 0.000000 
#    z 0.000000 0.000000 1.638420 
# 
# From -- ./inp_files/15347.got.cif
#   From: 2010.03.12/outbox.cif.g09.slc.cpg/sg55_8_cif.got.tgz:15347.got - 2010.04.16 15:19:21.
