data_PCOD8224151
_publ_section_title
;
Structure prediction by ZEFSAII (Michael W. Deem and Ramdas Pophale) SiO2 
 PCOD8224151
Probable space group: P C C A
;
_chemical_formula_sum "Si O2"
_cell_formula_units_Z 32
_cell_length_a 11.355047
_cell_length_b 9.017986
_cell_length_c 14.323520
_cell_angle_alpha 90.000000
_cell_angle_beta 90.000000
_cell_angle_gamma 90.000000
_cell_volume 1466.723505
_symmetry_space_group_name_H-M "P C C A"
_symmetry_group_IT_number 54
_symmetry_cell_setting 'orthorhombic'
loop_
_space_group_symop_operation_xyz
x,y,z
1/2-x,-y,z
1/2+x,-y,1/2-z
-x,y,1/2-z
-x,-y,-z
1/2+x,y,-z
1/2-x,y,1/2+z
x,-y,1/2+z
loop_
_atom_site_type_symbol
_atom_site_label
_atom_site_fract_x
_atom_site_fract_y
_atom_site_fract_z
Si Si1 0.246682 0.674250 0.452259
Si Si2 0.123920 0.167254 0.297729
Si Si3 0.296039 0.154398 0.128578
Si Si4 0.547114 0.095846 0.089031
O O1 0.250000 0.500000 0.440860
O O2 0.350465 0.722741 0.382644
O O3 0.280593 0.710740 0.557939
O O4 0.121454 0.756483 0.434923
O O5 0.227429 0.184791 0.223368
O O6 0.000000 0.208616 0.250000
O O7 0.126132 0.003360 0.342256
O O8 0.434179 0.142047 0.150352
O O9 0.250000 0.000000 0.081784
O O10 0.500000 0.000000 0.000000
#
# Coordination Sequence:
#
# PCOD8224151 Si02
#       4
#     8   8   8   8
#     4  12  28  47  68 107 154 192 237 305 385 453
#     4  12  25  45  76 107 137 186 252 307 362 438
#     4  12  23  44  75 106 136 190 249 305 361 439
#     4  12  23  46  77 104 138 187 250 308 356 436
#
# _framework density 21.817335
#
# number of rings (size 3 to 8) (size 9 to 14) (size 15 to 20)
#    0.000    0.000    7.500    2.250    0.000    2.000 
#    4.500    0.000    0.000    0.000    0.000    0.000 
#    0.000    0.000    0.000    0.000    0.000    0.000 
#
# Total GULP energy -396732.234955 kJ/mol
# GULP energy per Si atom -12397.882342 kJ/mol
# Density = 2.176768 g / cm^3
# Si number density = 21.817335 Si / 1000 Ang^3
#
#
#
# Elastic Constant Matrix: (Units=GPa)
#
#
# Indices 1 2 3 4 5 6 
#
# 1 123.6164 54.4945 49.1898 0.0000 0.0000 0.0000
# 2 54.4945 144.1380 34.4201 0.0000 0.0000 0.0000
# 3 49.1898 34.4201 122.3448 0.0000 0.0000 0.0000
# 4 0.0000 0.0000 0.0000 -7.6728 0.0000 0.0000
# 5 0.0000 0.0000 0.0000 0.0000 44.9018 0.0000
# 6 0.0000 0.0000 0.0000 0.0000 0.0000 28.4852
#
#
#
# Elastic Compliance Matrix: (Units=1/GPa)
#
#
# Indices 1 2 3 4 5 6 
#
# 1 0.010923 -0.003303 -0.003463 0.000000 0.000000 0.000000
# 2 -0.003303 0.008436 -0.001045 0.000000 0.000000 0.000000
# 3 -0.003463 -0.001045 0.009860 0.000000 0.000000 0.000000
# 4 0.000000 0.000000 0.000000 -0.130331 0.000000 0.000000
# 5 0.000000 0.000000 0.000000 0.000000 0.022271 0.000000
# 6 0.000000 0.000000 0.000000 0.000000 0.000000 0.035106
#
#
# Mechanical properties :
#
#
# Convention : Reuss Voigt Hill
#
# Bulk Modulus (GPa) = 73.54277 74.03423 73.78850
# Shear Modulus (GPa) = -212.04320 29.94248 -91.05036
#
# Velocity S-wave (km/s) = -9.86921 3.70863 -6.46712
# Velocity P-wave (km/s) = 9.80238 7.23505 4.67658
#
# Compressibility (1/GPa) = 0.01359753
#
# Stress axis : x y z
#
# Youngs Moduli (GPa) = 91.54591 118.53665 101.42068
#
# Poissons Ratio (x) = 0.39152 0.35118
# Poissons Ratio (y) = 0.30237 0.10603
# Poissons Ratio (z) = 0.31699 0.12392
#
# Static dielectric constant tensor:
#      x y z
#    x 4.299970 0.000000 0.000000 
#    y 0.000000 3.614610 0.000000 
#    z 0.000000 0.000000 4.078560 
# 
# 
# High freq. dielectric constant tensor:
#      x y z
#    x 1.880530 0.000000 0.000000 
#    y 0.000000 1.818500 0.000000 
#    z 0.000000 0.000000 1.877400 
# 
# From -- ./inp_files/12166.got.cif
#   From: 2010.03.12/outbox.cif.g09.slc.cpg/sg54_7_cif.got.tgz:12166.got - 2010.04.16 15:00:50.
