data_PCOD8224067
_publ_section_title
;
Structure prediction by ZEFSAII (Michael W. Deem and Ramdas Pophale) SiO2 
 PCOD8224067
Probable space group: P C C A
;
_chemical_formula_sum "Si O2"
_cell_formula_units_Z 48
_cell_length_a 25.344873
_cell_length_b 8.966941
_cell_length_c 9.211438
_cell_angle_alpha 90.000000
_cell_angle_beta 90.000000
_cell_angle_gamma 90.000000
_cell_volume 2093.446492
_symmetry_space_group_name_H-M "P C C A"
_symmetry_group_IT_number 54
_symmetry_cell_setting 'orthorhombic'
loop_
_space_group_symop_operation_xyz
x,y,z
1/2-x,-y,z
1/2+x,-y,1/2-z
-x,y,1/2-z
-x,-y,-z
1/2+x,y,-z
1/2-x,y,1/2+z
x,-y,1/2+z
loop_
_atom_site_type_symbol
_atom_site_label
_atom_site_fract_x
_atom_site_fract_y
_atom_site_fract_z
Si Si1 0.866358 0.553242 0.251863
Si Si2 0.789973 0.776023 0.380576
Si Si3 0.189821 0.737103 0.806386
Si Si4 0.128093 0.012862 0.185057
Si Si5 0.032414 0.396420 0.107326
Si Si6 0.911116 0.179154 0.581614
O O1 0.829255 0.636454 0.366120
O O2 0.831428 0.429070 0.173247
O O3 0.915566 0.484686 0.340243
O O4 0.881194 0.667295 0.121904
O O5 0.781536 0.798462 0.551248
O O6 0.732211 0.745792 0.321080
O O7 0.817186 0.920500 0.308633
O O8 0.137840 0.833970 0.770296
O O9 0.081564 0.913850 0.266049
O O10 0.116973 0.054986 0.018603
O O11 0.000000 0.351470 0.250000
O O12 0.040606 0.241551 0.016048
O O13 0.000000 0.500000 0.000000
#
# Coordination Sequence:
#
# PCOD8224067 Si02
#       6
#     8   8   8   8   8   8
#     4  11  25  45  77 103 148 188 252 316 368 439
#     4  11  27  41  68 104 148 196 245 296 365 445
#     4  12  25  42  69 105 146 194 249 297 371 434
#     4  11  24  45  73 101 151 201 240 298 368 453
#     4  12  25  47  82 112 140 188 253 317 389 444
#     4  11  24  48  75 108 147 199 246 304 378 445
#
# _framework density 22.928695999999999
#
# number of rings (size 3 to 8) (size 9 to 14) (size 15 to 20)
#    0.000    0.667    5.000    2.000    4.667    2.667 
#    0.000    0.833    0.000    0.000    0.000    0.000 
#    0.000    0.000    0.000    0.000    0.000    0.000 
#
# Total GULP energy -594750.930347 kJ/mol
# GULP energy per Si atom -12390.644382 kJ/mol
# Density = 2.287651 g / cm^3
# Si number density = 22.928696 Si / 1000 Ang^3
#
#
#
# Elastic Constant Matrix: (Units=GPa)
#
#
# Indices 1 2 3 4 5 6 
#
# 1 64.3776 23.9007 19.8767 0.0000 0.0000 0.0000
# 2 23.9007 114.6985 32.6158 0.0000 0.0000 0.0000
# 3 19.8767 32.6158 124.3720 0.0000 0.0000 0.0000
# 4 0.0000 0.0000 0.0000 44.3723 0.0000 0.0000
# 5 0.0000 0.0000 0.0000 0.0000 36.9772 0.0000
# 6 0.0000 0.0000 0.0000 0.0000 0.0000 31.1366
#
#
#
# Elastic Compliance Matrix: (Units=1/GPa)
#
#
# Indices 1 2 3 4 5 6 
#
# 1 0.017268 -0.003040 -0.001962 0.000000 0.000000 0.000000
# 2 -0.003040 0.009956 -0.002125 0.000000 0.000000 0.000000
# 3 -0.001962 -0.002125 0.008911 0.000000 0.000000 0.000000
# 4 0.000000 0.000000 0.000000 0.022537 0.000000 0.000000
# 5 0.000000 0.000000 0.000000 0.000000 0.027044 0.000000
# 6 0.000000 0.000000 0.000000 0.000000 0.000000 0.032117
#
#
# Mechanical properties :
#
#
# Convention : Reuss Voigt Hill
#
# Bulk Modulus (GPa) = 45.70366 50.69272 48.19819
# Shear Modulus (GPa) = 35.87280 37.63420 36.75350
#
# Velocity S-wave (km/s) = 3.95971 4.05576 4.00803
# Velocity P-wave (km/s) = 6.39390 6.63996 6.51810
#
# Compressibility (1/GPa) = 0.02188009
#
# Stress axis : x y z
#
# Youngs Moduli (GPa) = 57.91066 100.43863 112.21684
#
# Poissons Ratio (x) = 0.30536 0.22022
# Poissons Ratio (y) = 0.17606 0.23847
# Poissons Ratio (z) = 0.11364 0.21344
#
# Static dielectric constant tensor:
#      x y z
#    x 3.848630 0.000000 0.000000 
#    y 0.000000 4.409450 0.000000 
#    z 0.000000 0.000000 4.261470 
# 
# 
# High freq. dielectric constant tensor:
#      x y z
#    x 1.870240 0.000000 0.000000 
#    y 0.000000 1.922720 0.000000 
#    z 0.000000 0.000000 1.924590 
# 
# From -- ./inp_files/5815.got.cif
#   From: 2010.03.12/outbox.cif.g09.slc.cpg/sg54_3_cif.got.tgz:5815.got - 2010.04.16 15:00:50.
