data_PCOD8224545
_publ_section_title
;
Structure prediction by ZEFSAII (Michael W. Deem and Ramdas Pophale) SiO2 
 PCOD8224545
Probable space group: P B A M
;
_chemical_formula_sum "Si O2"
_cell_formula_units_Z 64
_cell_length_a 22.980569
_cell_length_b 19.080997
_cell_length_c 8.838146
_cell_angle_alpha 90.000000
_cell_angle_beta 90.000000
_cell_angle_gamma 90.000000
_cell_volume 3875.457802
_symmetry_space_group_name_H-M "P B A M"
_symmetry_group_IT_number 55
_symmetry_cell_setting 'orthorhombic'
loop_
_space_group_symop_operation_xyz
x,y,z
-x,-y,z
1/2+x,1/2-y,-z
1/2-x,1/2+y,-z
-x,-y,-z
x,y,-z
1/2-x,1/2+y,z
1/2+x,1/2-y,z
loop_
_atom_site_type_symbol
_atom_site_label
_atom_site_fract_x
_atom_site_fract_y
_atom_site_fract_z
Si Si1 0.221015 0.647237 0.173434
Si Si2 0.339738 0.269364 0.322875
Si Si3 0.116237 0.993808 0.676934
Si Si4 0.341578 0.722118 0.172847
Si Si5 0.264640 0.846297 0.826651
Si Si6 0.436873 0.356831 0.178394
Si Si7 0.260674 0.499679 0.174170
Si Si8 0.059701 0.141075 0.676413
O O1 0.175343 0.689751 0.275291
O O2 0.286355 0.672972 0.205282
O O3 0.218905 0.564901 0.216488
O O4 0.203756 0.660407 0.000000
O O5 0.349494 0.272798 0.500000
O O6 0.288252 0.322305 0.278364
O O7 0.398811 0.293271 0.243236
O O8 0.110926 0.978438 0.500000
O O9 0.085097 0.931576 0.764247
O O10 0.183447 0.999167 0.719814
O O11 0.084316 0.065341 0.722657
O O12 0.323161 0.802572 0.209875
O O13 0.393267 0.700656 0.283966
O O14 0.362628 0.713950 0.000000
O O15 0.276404 0.928647 0.800700
O O16 0.245860 0.830514 0.000000
O O17 0.502556 0.343509 0.228189
O O18 0.432092 0.356015 0.000000
O O19 0.281563 0.506677 0.000000
O O20 0.044937 0.144833 0.500000
#
# Coordination Sequence:
#
# PCOD8224545 Si02
#       8
#     8   8   8   8   8   8   8   8
#     4   9  18  32  51  74 101 133 170 207 246 298
#     4  11  21  33  50  73 100 131 166 210 258 299
#     4  11  22  34  48  72 105 136 169 211 249 293
#     4   9  17  31  49  72 100 131 170 208 245 292
#     4   9  18  32  51  75 101 132 168 208 248 296
#     4  12  24  37  53  70  95 134 177 213 250 300
#     4  10  18  31  53  76 102 138 173 205 245 295
#     4  11  23  36  50  71 101 134 172 212 253 296
#
# _framework density 16.514177
#
# number of rings (size 3 to 8) (size 9 to 14) (size 15 to 20)
#    0.000    1.750    2.500    4.125    0.000    5.500 
#    0.000    0.000    0.000    0.000    0.000    0.875 
#    0.000    7.000    0.000    0.000    0.000    0.000 
#
# Total GULP energy -793711.997578 kJ/mol
# GULP energy per Si atom -12401.749962 kJ/mol
# Density = 1.647659 g / cm^3
# Si number density = 16.514177 Si / 1000 Ang^3
#
#
#
# Elastic Constant Matrix: (Units=GPa)
#
#
# Indices 1 2 3 4 5 6 
#
# 1 76.7719 51.2956 48.4549 0.0000 0.0000 0.0000
# 2 51.2956 127.8243 45.6254 0.0000 0.0000 0.0000
# 3 48.4549 45.6254 91.3200 0.0000 0.0000 0.0000
# 4 0.0000 0.0000 0.0000 20.8632 0.0000 0.0000
# 5 0.0000 0.0000 0.0000 0.0000 19.3792 0.0000
# 6 0.0000 0.0000 0.0000 0.0000 0.0000 16.8995
#
#
#
# Elastic Compliance Matrix: (Units=1/GPa)
#
#
# Indices 1 2 3 4 5 6 
#
# 1 0.022688 -0.005851 -0.009115 0.000000 0.000000 0.000000
# 2 -0.005851 0.011030 -0.002406 0.000000 0.000000 0.000000
# 3 -0.009115 -0.002406 0.016989 0.000000 0.000000 0.000000
# 4 0.000000 0.000000 0.000000 0.047931 0.000000 0.000000
# 5 0.000000 0.000000 0.000000 0.000000 0.051602 0.000000
# 6 0.000000 0.000000 0.000000 0.000000 0.000000 0.059173
#
#
# Mechanical properties :
#
#
# Convention : Reuss Voigt Hill
#
# Bulk Modulus (GPa) = 62.64668 65.18535 63.91602
# Shear Modulus (GPa) = 20.04171 21.46439 20.75305
#
# Velocity S-wave (km/s) = 3.48746 3.60912 3.54882
# Velocity P-wave (km/s) = 7.36437 7.54492 7.45519
#
# Compressibility (1/GPa) = 0.01596254
#
# Stress axis : x y z
#
# Youngs Moduli (GPa) = 44.07594 90.66033 58.86081
#
# Poissons Ratio (x) = 0.53047 0.53652
# Poissons Ratio (y) = 0.25790 0.14163
# Poissons Ratio (z) = 0.40176 0.21815
#
# Static dielectric constant tensor:
#      x y z
#    x 2.924190 0.000000 0.000000 
#    y 0.000000 3.354030 0.000000 
#    z 0.000000 0.000000 3.133320 
# 
# 
# High freq. dielectric constant tensor:
#      x y z
#    x 1.604240 0.000000 0.000000 
#    y 0.000000 1.637380 0.000000 
#    z 0.000000 0.000000 1.642260 
# 
# From -- ./inp_files/9111.got.cif
#   From: 2010.03.12/outbox.cif.g09.slc.cpg/sg55_5_cif.got.tgz:9111.got - 2010.04.16 15:19:21.
