data_PCOD8224817
_publ_section_title
;
Structure prediction by ZEFSAII (Michael W. Deem and Ramdas Pophale) SiO2 
 PCOD8224817
Probable space group: P B A M
;
_chemical_formula_sum "Si O2"
_cell_formula_units_Z 48
_cell_length_a 9.380778
_cell_length_b 25.682954
_cell_length_c 11.730511
_cell_angle_alpha 90.000000
_cell_angle_beta 90.000000
_cell_angle_gamma 90.000000
_cell_volume 2826.186147
_symmetry_space_group_name_H-M "P B A M"
_symmetry_group_IT_number 55
_symmetry_cell_setting 'orthorhombic'
loop_
_space_group_symop_operation_xyz
x,y,z
-x,-y,z
1/2+x,1/2-y,-z
1/2-x,1/2+y,-z
-x,-y,-z
x,y,-z
1/2-x,1/2+y,z
1/2+x,1/2-y,z
loop_
_atom_site_type_symbol
_atom_site_label
_atom_site_fract_x
_atom_site_fract_y
_atom_site_fract_z
Si Si1 0.501160 0.672232 0.240109
Si Si2 0.990817 0.440145 0.632321
Si Si3 0.470902 0.716675 0.000000
Si Si4 0.688891 0.859461 0.240588
Si Si5 0.737021 0.137207 0.370671
Si Si6 0.348025 0.183568 0.000000
Si Si7 0.002104 0.720270 0.631774
O O1 0.359066 0.637984 0.250340
O O2 0.630341 0.637021 0.285239
O O3 0.483024 0.723617 0.314805
O O4 0.532835 0.687190 0.109790
O O5 0.948070 0.432877 0.500000
O O6 0.870487 0.413286 0.709262
O O7 0.000000 0.500000 0.667858
O O8 0.143350 0.413733 0.655922
O O9 0.520184 0.776512 0.000000
O O10 0.298915 0.716595 0.000000
O O11 0.632741 0.809838 0.310461
O O12 0.640902 0.853629 0.109489
O O13 0.793811 0.135855 0.500000
O O14 0.644180 0.188966 0.349889
O O15 0.041327 0.726197 0.500000
#
# Coordination Sequence:
#
# PCOD8224817 Si02
#       7
#     8   8   4   8   8   4   8
#     4  11  20  31  47  74 106 135 169 205 246 295
#     4   9  19  38  59  76  97 127 166 212 261 310
#     4  10  22  32  48  71 104 146 176 203 240 281
#     4  10  20  33  51  73 100 134 169 208 250 295
#     4   9  19  32  49  75 102 131 167 205 249 300
#     4  10  20  34  49  73 103 136 175 209 237 293
#     4  10  19  30  46  71 104 139 168 198 242 300
#
# _framework density 16.984020000000001
#
# number of rings (size 3 to 8) (size 9 to 14) (size 15 to 20)
#    0.000    2.167    1.667    3.000    2.333    4.000 
#    0.000    1.250    0.000    3.000    0.000    3.500 
#    0.000    0.000    0.000    0.000    0.000    0.000 
#
# Total GULP energy -595360.667207 kJ/mol
# GULP energy per Si atom -12403.347233 kJ/mol
# Density = 1.694536 g / cm^3
# Si number density = 16.984020 Si / 1000 Ang^3
#
#
#
# Elastic Constant Matrix: (Units=GPa)
#
#
# Indices 1 2 3 4 5 6 
#
# 1 84.5362 45.1318 56.4643 0.0000 0.0000 0.0000
# 2 45.1318 112.3431 50.1876 0.0000 0.0000 0.0000
# 3 56.4643 50.1876 127.7485 0.0000 0.0000 0.0000
# 4 0.0000 0.0000 0.0000 17.2266 0.0000 0.0000
# 5 0.0000 0.0000 0.0000 0.0000 27.9273 0.0000
# 6 0.0000 0.0000 0.0000 0.0000 0.0000 12.4503
#
#
#
# Elastic Compliance Matrix: (Units=1/GPa)
#
#
# Indices 1 2 3 4 5 6 
#
# 1 0.018555 -0.004597 -0.006395 0.000000 0.000000 0.000000
# 2 -0.004597 0.011935 -0.002657 0.000000 0.000000 0.000000
# 3 -0.006395 -0.002657 0.011698 0.000000 0.000000 0.000000
# 4 0.000000 0.000000 0.000000 0.058050 0.000000 0.000000
# 5 0.000000 0.000000 0.000000 0.000000 0.035807 0.000000
# 6 0.000000 0.000000 0.000000 0.000000 0.000000 0.080319
#
#
# Mechanical properties :
#
#
# Convention : Reuss Voigt Hill
#
# Bulk Modulus (GPa) = 67.15964 69.79944 68.47954
# Shear Modulus (GPa) = 20.11049 23.04380 21.57714
#
# Velocity S-wave (km/s) = 3.44478 3.68746 3.56819
# Velocity P-wave (km/s) = 7.44652 7.70170 7.57519
#
# Compressibility (1/GPa) = 0.01488990
#
# Stress axis : x y z
#
# Youngs Moduli (GPa) = 53.89340 83.78662 85.48229
#
# Poissons Ratio (x) = 0.38519 0.54668
# Poissons Ratio (y) = 0.24776 0.22712
# Poissons Ratio (z) = 0.34466 0.22261
#
# Static dielectric constant tensor:
#      x y z
#    x 3.182290 0.000000 0.000000 
#    y 0.000000 2.903580 0.000000 
#    z 0.000000 0.000000 3.368800 
# 
# 
# High freq. dielectric constant tensor:
#      x y z
#    x 1.655880 0.000000 0.000000 
#    y 0.000000 1.622080 0.000000 
#    z 0.000000 0.000000 1.666070 
# 
# From -- ./inp_files/12328.got.cif
#   From: 2010.03.12/outbox.cif.g09.slc.cpg/sg55_7_cif.got.tgz:12328.got - 2010.04.16 15:19:21.
