data_PCOD8224558
_publ_section_title
;
Structure prediction by ZEFSAII (Michael W. Deem and Ramdas Pophale) SiO2 
 PCOD8224558
Probable space group: P B A M
;
_chemical_formula_sum "Si O2"
_cell_formula_units_Z 64
_cell_length_a 14.408089
_cell_length_b 23.659485
_cell_length_c 8.713531
_cell_angle_alpha 90.000000
_cell_angle_beta 90.000000
_cell_angle_gamma 90.000000
_cell_volume 2970.337856
_symmetry_space_group_name_H-M "P B A M"
_symmetry_group_IT_number 55
_symmetry_cell_setting 'orthorhombic'
loop_
_space_group_symop_operation_xyz
x,y,z
-x,-y,z
1/2+x,1/2-y,-z
1/2-x,1/2+y,-z
-x,-y,-z
x,y,-z
1/2-x,1/2+y,z
1/2+x,1/2-y,z
loop_
_atom_site_type_symbol
_atom_site_label
_atom_site_fract_x
_atom_site_fract_y
_atom_site_fract_z
Si Si1 0.071443 0.447348 0.169639
Si Si2 0.158982 0.333013 0.828859
Si Si3 0.671073 0.604498 0.681078
Si Si4 0.731033 0.995380 0.673890
Si Si5 0.648733 0.279404 0.677891
Si Si6 0.138379 0.710086 0.680220
Si Si7 0.968533 0.183319 0.819417
Si Si8 0.124168 0.593532 0.825662
O O1 0.078709 0.379492 0.166442
O O2 0.136826 0.468324 0.306664
O O3 0.959004 0.454554 0.195957
O O4 0.102493 0.470665 0.000000
O O5 0.256083 0.358065 0.773189
O O6 0.123796 0.285603 0.711786
O O7 0.173675 0.307528 0.000000
O O8 0.685192 0.613651 0.500000
O O9 0.684124 0.537340 0.721473
O O10 0.571739 0.627239 0.736154
O O11 0.741882 0.975302 0.500000
O O12 0.719725 0.938227 0.774670
O O13 0.634473 0.292945 0.500000
O O14 0.754026 0.289812 0.732007
O O15 0.577033 0.317283 0.774533
O O16 0.127714 0.721035 0.500000
O O17 0.082314 0.759310 0.765261
O O18 0.101051 0.647921 0.723058
O O19 0.957020 0.177330 0.000000
O O20 0.133216 0.613516 0.000000
#
# Coordination Sequence:
#
# PCOD8224558 Si02
#       8
#     8   8   8   8   8   8   8   8
#     4   9  19  33  50  78 113 150 191 235 285 341
#     4  10  18  31  53  80 112 148 189 236 284 339
#     4  10  20  36  56  80 112 149 191 236 287 343
#     4  10  21  35  55  81 111 151 195 241 289 343
#     4  11  23  38  58  83 117 157 195 239 294 353
#     4  11  24  41  61  86 120 158 197 240 291 353
#     4  12  24  38  61  89 118 152 194 244 296 351
#     4  11  22  36  55  80 115 155 194 238 291 348
#
# _framework density 21.546371000000001
#
# number of rings (size 3 to 8) (size 9 to 14) (size 15 to 20)
#    0.000    1.500    1.250    4.500    0.000    7.000 
#    0.000    0.000    0.000    0.750    0.000    5.250 
#    0.000    0.000    0.000    0.000    0.000    0.000 
#
# Total GULP energy -793433.938274 kJ/mol
# GULP energy per Si atom -12397.405286 kJ/mol
# Density = 2.149733 g / cm^3
# Si number density = 21.546371 Si / 1000 Ang^3
#
#
#
# Elastic Constant Matrix: (Units=GPa)
#
#
# Indices 1 2 3 4 5 6 
#
# 1 59.3141 -11.5872 14.4927 0.0000 0.0000 0.0000
# 2 -11.5872 33.3311 9.6926 0.0000 0.0000 0.0000
# 3 14.4927 9.6926 66.2525 0.0000 0.0000 0.0000
# 4 0.0000 0.0000 0.0000 31.9128 0.0000 0.0000
# 5 0.0000 0.0000 0.0000 0.0000 27.3643 0.0000
# 6 0.0000 0.0000 0.0000 0.0000 0.0000 29.9415
#
#
#
# Elastic Compliance Matrix: (Units=1/GPa)
#
#
# Indices 1 2 3 4 5 6 
#
# 1 0.019898 0.008547 -0.005603 0.000000 0.000000 0.000000
# 2 0.008547 0.035006 -0.006991 0.000000 0.000000 0.000000
# 3 -0.005603 -0.006991 0.017342 0.000000 0.000000 0.000000
# 4 0.000000 0.000000 0.000000 0.031335 0.000000 0.000000
# 5 0.000000 0.000000 0.000000 0.000000 0.036544 0.000000
# 6 0.000000 0.000000 0.000000 0.000000 0.000000 0.033398
#
#
# Mechanical properties :
#
#
# Convention : Reuss Voigt Hill
#
# Bulk Modulus (GPa) = 15.58800 20.45486 18.02143
# Shear Modulus (GPa) = 24.63023 27.59702 26.11363
#
# Velocity S-wave (km/s) = 3.38468 3.58274 3.48512
# Velocity P-wave (km/s) = 4.74606 5.16030 4.95751
#
# Compressibility (1/GPa) = 0.06415190
#
# Stress axis : x y z
#
# Youngs Moduli (GPa) = 50.25614 28.56646 57.66290
#
# Poissons Ratio (x) = -0.24415 0.32309
# Poissons Ratio (y) = -0.42952 0.40311
# Poissons Ratio (z) = 0.28159 0.19970
#
# Static dielectric constant tensor:
#      x y z
#    x 3.823090 0.000000 0.000000 
#    y 0.000000 4.071310 0.000000 
#    z 0.000000 0.000000 3.817720 
# 
# 
# High freq. dielectric constant tensor:
#      x y z
#    x 1.823350 0.000000 0.000000 
#    y 0.000000 1.848290 0.000000 
#    z 0.000000 0.000000 1.848370 
# 
# From -- ./inp_files/6586.got.cif
#   From: 2010.03.12/outbox.cif.g09.slc.cpg/sg55_4_cif.got.tgz:6586.got - 2010.04.16 15:19:21.
