data_PCOD8224728
_publ_section_title
;
Structure prediction by ZEFSAII (Michael W. Deem and Ramdas Pophale) SiO2 
 PCOD8224728
Probable space group: P B A M
;
_chemical_formula_sum "Si O2"
_cell_formula_units_Z 64
_cell_length_a 19.994495
_cell_length_b 18.849485
_cell_length_c 8.805128
_cell_angle_alpha 90.000000
_cell_angle_beta 90.000000
_cell_angle_gamma 90.000000
_cell_volume 3318.528887
_symmetry_space_group_name_H-M "P B A M"
_symmetry_group_IT_number 55
_symmetry_cell_setting 'orthorhombic'
loop_
_space_group_symop_operation_xyz
x,y,z
-x,-y,z
1/2+x,1/2-y,-z
1/2-x,1/2+y,-z
-x,-y,-z
x,y,-z
1/2-x,1/2+y,z
1/2+x,1/2-y,z
loop_
_atom_site_type_symbol
_atom_site_label
_atom_site_fract_x
_atom_site_fract_y
_atom_site_fract_z
Si Si1 0.696592 0.460647 0.820693
Si Si2 0.852074 0.706915 0.819177
Si Si3 0.182229 0.448372 0.820261
Si Si4 0.259981 0.184837 0.820125
Si Si5 0.475612 0.714183 0.679987
Si Si6 0.055178 0.055246 0.679779
Si Si7 0.410244 0.200218 0.819732
Si Si8 0.062969 0.542645 0.180549
O O1 0.742716 0.527978 0.775851
O O2 0.733945 0.390517 0.758156
O O3 0.625891 0.470913 0.741799
O O4 0.685157 0.455018 0.000000
O O5 0.835198 0.628949 0.754950
O O6 0.791435 0.755928 0.762863
O O7 0.921135 0.732822 0.748645
O O8 0.859754 0.708286 0.000000
O O9 0.130018 0.505992 0.754967
O O10 0.175566 0.445841 0.000000
O O11 0.333882 0.203632 0.759751
O O12 0.263625 0.180931 0.000000
O O13 0.473074 0.718028 0.500000
O O14 0.461946 0.634292 0.738854
O O15 0.548499 0.737686 0.738243
O O16 0.057980 0.054222 0.500000
O O17 0.000000 0.000000 0.741073
O O18 0.440575 0.124365 0.768887
O O19 0.414596 0.210971 0.000000
O O20 0.000000 0.500000 0.248091
O O21 0.063227 0.538728 0.000000
#
# Coordination Sequence:
#
# PCOD8224728 Si02
#       8
#     8   8   8   8   8   8   8   8
#     4  10  18  34  59  86 114 140 177 232 282 330
#     4  10  19  34  57  83 110 145 184 225 281 339
#     4   9  17  29  51  84 113 138 177 226 274 327
#     4   9  17  31  54  82 110 139 176 225 277 328
#     4  11  23  38  55  79 112 148 190 235 275 326
#     4  10  23  42  60  78 107 150 193 231 279 335
#     4  10  19  33  55  80 110 146 180 221 277 335
#     4   9  15  25  45  74 104 138 178 213 252 315
#
# _framework density 19.285653
#
# number of rings (size 3 to 8) (size 9 to 14) (size 15 to 20)
#    0.000    2.250    2.500    1.125    0.000    3.750 
#    0.000    3.125    0.000    3.375    0.000    0.000 
#    0.000    0.000    0.000    0.000    0.000    0.000 
#
# Total GULP energy -793558.506124 kJ/mol
# GULP energy per Si atom -12399.351658 kJ/mol
# Density = 1.924176 g / cm^3
# Si number density = 19.285653 Si / 1000 Ang^3
#
#
#
# Elastic Constant Matrix: (Units=GPa)
#
#
# Indices 1 2 3 4 5 6 
#
# 1 151.4160 54.9934 14.3353 0.0000 0.0000 0.0000
# 2 54.9934 118.2210 16.2952 0.0000 0.0000 0.0000
# 3 14.3353 16.2952 15.2432 0.0000 0.0000 0.0000
# 4 0.0000 0.0000 0.0000 16.4074 0.0000 0.0000
# 5 0.0000 0.0000 0.0000 0.0000 7.0955 0.0000
# 6 0.0000 0.0000 0.0000 0.0000 0.0000 42.5889
#
#
#
# Elastic Compliance Matrix: (Units=1/GPa)
#
#
# Indices 1 2 3 4 5 6 
#
# 1 0.008175 -0.003217 -0.004249 0.000000 0.000000 0.000000
# 2 -0.003217 0.011187 -0.008933 0.000000 0.000000 0.000000
# 3 -0.004249 -0.008933 0.079149 0.000000 0.000000 0.000000
# 4 0.000000 0.000000 0.000000 0.060948 0.000000 0.000000
# 5 0.000000 0.000000 0.000000 0.000000 0.140935 0.000000
# 6 0.000000 0.000000 0.000000 0.000000 0.000000 0.023480
#
#
# Mechanical properties :
#
#
# Convention : Reuss Voigt Hill
#
# Bulk Modulus (GPa) = 15.21793 50.68088 32.94941
# Shear Modulus (GPa) = 13.20739 26.50210 19.85475
#
# Velocity S-wave (km/s) = 2.61976 3.71103 3.21208
# Velocity P-wave (km/s) = 4.13023 6.68568 5.55685
#
# Compressibility (1/GPa) = 0.06571194
#
# Stress axis : x y z
#
# Youngs Moduli (GPa) = 122.32349 89.39267 12.63444
#
# Poissons Ratio (x) = 0.28759 0.05368
# Poissons Ratio (y) = 0.39353 0.11287
# Poissons Ratio (z) = 0.51974 0.79856
#
# Static dielectric constant tensor:
#      x y z
#    x 3.722870 0.000000 0.000000 
#    y 0.000000 3.783440 0.000000 
#    z 0.000000 0.000000 2.986000 
# 
# 
# High freq. dielectric constant tensor:
#      x y z
#    x 1.765910 0.000000 0.000000 
#    y 0.000000 1.758530 0.000000 
#    z 0.000000 0.000000 1.695490 
# 
# From -- ./inp_files/8026.got.cif
#   From: 2010.03.12/outbox.cif.g09.slc.cpg/sg55_5_cif.got.tgz:8026.got - 2010.04.16 15:19:21.
