data_PCOD8224274
_publ_section_title
;
Structure prediction by ZEFSAII (Michael W. Deem and Ramdas Pophale) SiO2 
 PCOD8224274
Probable space group: P B A M
;
_chemical_formula_sum "Si O2"
_cell_formula_units_Z 56
_cell_length_a 12.866701
_cell_length_b 22.341747
_cell_length_c 12.486930
_cell_angle_alpha 90.000000
_cell_angle_beta 90.000000
_cell_angle_gamma 90.000000
_cell_volume 3589.550069
_symmetry_space_group_name_H-M "P B A M"
_symmetry_group_IT_number 55
_symmetry_cell_setting 'orthorhombic'
loop_
_space_group_symop_operation_xyz
x,y,z
-x,-y,z
1/2+x,1/2-y,-z
1/2-x,1/2+y,-z
-x,-y,-z
x,y,-z
1/2-x,1/2+y,z
1/2+x,1/2-y,z
loop_
_atom_site_type_symbol
_atom_site_label
_atom_site_fract_x
_atom_site_fract_y
_atom_site_fract_z
Si Si1 0.532468 0.284470 0.125473
Si Si2 0.733013 0.346349 0.876697
Si Si3 0.451270 0.152102 0.624220
Si Si4 0.643445 0.178071 0.236583
Si Si5 0.894570 0.564192 0.122951
Si Si6 0.655996 0.748599 0.744515
Si Si7 0.383887 0.064047 0.201639
O O1 0.613417 0.337023 0.160812
O O2 0.587138 0.221428 0.151992
O O3 0.430961 0.292855 0.198956
O O4 0.503446 0.287092 0.000000
O O5 0.812125 0.298551 0.829130
O O6 0.775871 0.411953 0.848539
O O7 0.735337 0.332880 0.000000
O O8 0.452664 0.137063 0.500000
O O9 0.568616 0.161518 0.665115
O O10 0.387804 0.214229 0.642964
O O11 0.399415 0.094029 0.681448
O O12 0.673563 0.118790 0.168936
O O13 0.747323 0.206728 0.287832
O O14 0.873504 0.507741 0.201574
O O15 0.016747 0.581916 0.128453
O O16 0.864447 0.549705 0.000000
#
# Coordination Sequence:
#
# PCOD8224274 Si02
#       7
#     8   8   8   8   8   8   8
#     4   9  16  25  40  62  86 112 139 169 210 258
#     4   9  15  24  40  60  84 112 140 173 210 251
#     4   9  18  31  46  62  82 110 143 182 225 261
#     4   9  18  29  41  63  88 111 141 176 210 255
#     4  10  17  26  43  65  90 119 146 172 211 264
#     4   9  17  28  42  61  86 110 139 176 215 258
#     4   9  17  28  41  61  86 114 149 183 214 254
#
# _framework density 15.600841000000001
#
# number of rings (size 3 to 8) (size 9 to 14) (size 15 to 20)
#    0.000    2.857    0.000    3.429    0.000    2.286 
#    0.000    5.714    0.000    0.857    0.000    3.000 
#    0.000    0.000    0.000   25.857    0.000    0.286 
#
# Total GULP energy -694027.887364 kJ/mol
# GULP energy per Si atom -12393.355132 kJ/mol
# Density = 1.556533 g / cm^3
# Si number density = 15.600841 Si / 1000 Ang^3
#
#
#
# Elastic Constant Matrix: (Units=GPa)
#
#
# Indices 1 2 3 4 5 6 
#
# 1 57.0867 27.3220 16.9235 0.0000 0.0000 0.0000
# 2 27.3220 78.4106 24.6781 0.0000 0.0000 0.0000
# 3 16.9235 24.6781 70.2873 0.0000 0.0000 0.0000
# 4 0.0000 0.0000 0.0000 14.7843 0.0000 0.0000
# 5 0.0000 0.0000 0.0000 0.0000 12.4991 0.0000
# 6 0.0000 0.0000 0.0000 0.0000 0.0000 24.4344
#
#
#
# Elastic Compliance Matrix: (Units=1/GPa)
#
#
# Indices 1 2 3 4 5 6 
#
# 1 0.021525 -0.006598 -0.002866 0.000000 0.000000 0.000000
# 2 -0.006598 0.016360 -0.004155 0.000000 0.000000 0.000000
# 3 -0.002866 -0.004155 0.016376 0.000000 0.000000 0.000000
# 4 0.000000 0.000000 0.000000 0.067639 0.000000 0.000000
# 5 0.000000 0.000000 0.000000 0.000000 0.080006 0.000000
# 6 0.000000 0.000000 0.000000 0.000000 0.000000 0.040926
#
#
# Mechanical properties :
#
#
# Convention : Reuss Voigt Hill
#
# Bulk Modulus (GPa) = 37.00673 38.18131 37.59402
# Shear Modulus (GPa) = 17.91603 19.46762 18.69182
#
# Velocity S-wave (km/s) = 3.39248 3.53633 3.46516
# Velocity P-wave (km/s) = 6.25442 6.41882 6.33715
#
# Compressibility (1/GPa) = 0.02702211
#
# Stress axis : x y z
#
# Youngs Moduli (GPa) = 46.45801 61.12326 61.06347
#
# Poissons Ratio (x) = 0.40331 0.17501
# Poissons Ratio (y) = 0.30654 0.25375
# Poissons Ratio (z) = 0.13315 0.25400
#
# Static dielectric constant tensor:
#      x y z
#    x 3.178160 0.000000 0.000000 
#    y 0.000000 3.017850 0.000000 
#    z 0.000000 0.000000 2.700610 
# 
# 
# High freq. dielectric constant tensor:
#      x y z
#    x 1.585960 0.000000 0.000000 
#    y 0.000000 1.585540 0.000000 
#    z 0.000000 0.000000 1.574600 
# 
# From -- ./inp_files/13507.got.cif
#   From: 2010.03.12/outbox.cif.g09.slc.cpg/sg55_7_cif.got.tgz:13507.got - 2010.04.16 15:19:21.
