data_PCOD8224491
_publ_section_title
;
Structure prediction by ZEFSAII (Michael W. Deem and Ramdas Pophale) SiO2 
 PCOD8224491
Probable space group: P B A M
;
_chemical_formula_sum "Si O2"
_cell_formula_units_Z 64
_cell_length_a 18.756482
_cell_length_b 21.610756
_cell_length_c 8.902680
_cell_angle_alpha 90.000000
_cell_angle_beta 90.000000
_cell_angle_gamma 90.000000
_cell_volume 3608.627944
_symmetry_space_group_name_H-M "P B A M"
_symmetry_group_IT_number 55
_symmetry_cell_setting 'orthorhombic'
loop_
_space_group_symop_operation_xyz
x,y,z
-x,-y,z
1/2+x,1/2-y,-z
1/2-x,1/2+y,-z
-x,-y,-z
x,y,-z
1/2-x,1/2+y,z
1/2+x,1/2-y,z
loop_
_atom_site_type_symbol
_atom_site_label
_atom_site_fract_x
_atom_site_fract_y
_atom_site_fract_z
Si Si1 0.470312 0.437179 0.826281
Si Si2 0.579887 0.185771 0.171176
Si Si3 0.487022 0.692589 0.828301
Si Si4 0.679814 0.093685 0.325146
Si Si5 0.177586 0.880636 0.821942
Si Si6 0.919393 0.353692 0.824622
Si Si7 0.625174 0.735798 0.324316
Si Si8 0.921917 0.480470 0.675372
O O1 0.500000 0.500000 0.746883
O O2 0.527844 0.380801 0.803316
O O3 0.392961 0.416869 0.762101
O O4 0.459098 0.452044 0.000000
O O5 0.580265 0.261178 0.193501
O O6 0.639330 0.156460 0.277583
O O7 0.501974 0.159865 0.215056
O O8 0.598686 0.168389 0.000000
O O9 0.545912 0.711934 0.708697
O O10 0.516737 0.702041 0.000000
O O11 0.696892 0.097948 0.500000
O O12 0.752931 0.083597 0.235453
O O13 0.631333 0.035434 0.284146
O O14 0.180441 0.811356 0.753674
O O15 0.177807 0.875831 0.000000
O O16 0.867348 0.304526 0.743705
O O17 0.896736 0.420707 0.766067
O O18 0.905299 0.349238 0.000000
O O19 0.640642 0.737697 0.500000
O O20 0.922526 0.464350 0.500000
O O21 0.000000 0.500000 0.731064
#
# Coordination Sequence:
#
# PCOD8224491 Si02
#       8
#     8   8   8   8   8   8   8   8
#     4   8  14  28  54  82 103 128 166 213 261 311
#     4   9  17  29  46  71 101 134 169 213 262 304
#     4   8  15  28  47  75 104 128 161 206 254 304
#     4  11  22  34  51  73 102 141 181 220 266 322
#     4  10  20  35  54  76 104 134 173 220 268 322
#     4  10  19  31  51  77 104 133 173 219 260 305
#     4  10  18  30  51  75 100 129 164 208 260 310
#     4  10  20  34  50  74 107 143 183 223 265 311
#
# _framework density 17.735271999999998
#
# number of rings (size 3 to 8) (size 9 to 14) (size 15 to 20)
#    0.000    2.500    1.250    3.750    0.000    3.250 
#    0.000    0.000    2.750    9.375    0.000    0.000 
#    0.000    0.000    0.000    0.000    0.000    0.000 
#
# Total GULP energy -793252.673207 kJ/mol
# GULP energy per Si atom -12394.573019 kJ/mol
# Density = 1.769491 g / cm^3
# Si number density = 17.735272 Si / 1000 Ang^3
#
#
#
# Elastic Constant Matrix: (Units=GPa)
#
#
# Indices 1 2 3 4 5 6 
#
# 1 72.6324 51.4695 33.0626 0.0000 0.0000 0.0000
# 2 51.4695 149.1002 45.7532 0.0000 0.0000 0.0000
# 3 33.0626 45.7532 74.7346 0.0000 0.0000 0.0000
# 4 0.0000 0.0000 0.0000 24.7350 0.0000 0.0000
# 5 0.0000 0.0000 0.0000 0.0000 22.8407 0.0000
# 6 0.0000 0.0000 0.0000 0.0000 0.0000 22.6957
#
#
#
# Elastic Compliance Matrix: (Units=1/GPa)
#
#
# Indices 1 2 3 4 5 6 
#
# 1 0.020019 -0.005163 -0.005696 0.000000 0.000000 0.000000
# 2 -0.005163 0.009590 -0.003587 0.000000 0.000000 0.000000
# 3 -0.005696 -0.003587 0.018096 0.000000 0.000000 0.000000
# 4 0.000000 0.000000 0.000000 0.040429 0.000000 0.000000
# 5 0.000000 0.000000 0.000000 0.000000 0.043781 0.000000
# 6 0.000000 0.000000 0.000000 0.000000 0.000000 0.044061
#
#
# Mechanical properties :
#
#
# Convention : Reuss Voigt Hill
#
# Bulk Modulus (GPa) = 53.15078 61.89311 57.52195
# Shear Modulus (GPa) = 23.68104 25.13306 24.40705
#
# Velocity S-wave (km/s) = 3.65807 3.76855 3.71372
# Velocity P-wave (km/s) = 6.91925 7.34235 7.13394
#
# Compressibility (1/GPa) = 0.01881440
#
# Stress axis : x y z
#
# Youngs Moduli (GPa) = 49.95195 104.27735 55.25948
#
# Poissons Ratio (x) = 0.53837 0.31475
# Poissons Ratio (y) = 0.25789 0.19821
# Poissons Ratio (z) = 0.28452 0.37404
#
# Static dielectric constant tensor:
#      x y z
#    x 3.025710 0.000000 0.000000 
#    y 0.000000 3.624060 0.000000 
#    z 0.000000 0.000000 3.128600 
# 
# 
# High freq. dielectric constant tensor:
#      x y z
#    x 1.643140 0.000000 0.000000 
#    y 0.000000 1.696220 0.000000 
#    z 0.000000 0.000000 1.677880 
# 
# From -- ./inp_files/8003.got.cif
#   From: 2010.03.12/outbox.cif.g09.slc.cpg/sg55_5_cif.got.tgz:8003.got - 2010.04.16 15:19:21.
