data_PCOD8224391
_publ_section_title
;
Structure prediction by ZEFSAII (Michael W. Deem and Ramdas Pophale) SiO2 
 PCOD8224391
Probable space group: P B A M
;
_chemical_formula_sum "Si O2"
_cell_formula_units_Z 64
_cell_length_a 15.404374
_cell_length_b 24.136062
_cell_length_c 9.240265
_cell_angle_alpha 90.000000
_cell_angle_beta 90.000000
_cell_angle_gamma 90.000000
_cell_volume 3435.539083
_symmetry_space_group_name_H-M "P B A M"
_symmetry_group_IT_number 55
_symmetry_cell_setting 'orthorhombic'
loop_
_space_group_symop_operation_xyz
x,y,z
-x,-y,z
1/2+x,1/2-y,-z
1/2-x,1/2+y,-z
-x,-y,-z
x,y,-z
1/2-x,1/2+y,z
1/2+x,1/2-y,z
loop_
_atom_site_type_symbol
_atom_site_label
_atom_site_fract_x
_atom_site_fract_y
_atom_site_fract_z
Si Si1 0.941034 0.080720 0.828436
Si Si2 0.307737 0.046882 0.833138
Si Si3 0.877842 0.198289 0.171587
Si Si4 0.819879 0.692837 0.168664
Si Si5 0.040092 0.597989 0.664533
Si Si6 0.486436 0.776063 0.667095
Si Si7 0.621152 0.071673 0.164705
Si Si8 0.380988 0.535933 0.828609
O O1 0.897823 0.136600 0.768560
O O2 0.042395 0.077492 0.780090
O O3 0.894090 0.026097 0.764146
O O4 0.932907 0.081278 0.000000
O O5 0.369153 0.084868 0.738506
O O6 0.210660 0.061267 0.779155
O O7 0.318433 0.981127 0.808527
O O8 0.323091 0.062562 0.000000
O O9 0.777512 0.212621 0.209712
O O10 0.943562 0.238605 0.252255
O O11 0.893589 0.203088 0.000000
O O12 0.890917 0.727690 0.259532
O O13 0.826282 0.627296 0.205427
O O14 0.838600 0.703521 0.000000
O O15 0.044814 0.578974 0.500000
O O16 0.022026 0.662394 0.682755
O O17 0.963919 0.563025 0.738710
O O18 0.477846 0.758024 0.500000
O O19 0.588732 0.074826 0.000000
O O20 0.381953 0.529035 0.000000
#
# Coordination Sequence:
#
# PCOD8224391 Si02
#       8
#     8   8   8   8   8   8   8   8
#     4   8  14  27  49  77 107 132 159 201 250 301
#     4  10  18  28  47  76 104 133 167 201 247 306
#     4  10  19  33  57  84 105 130 172 223 266 305
#     4   9  18  34  56  80 103 131 170 220 269 308
#     4  10  21  35  48  65  96 136 174 211 255 302
#     4  10  22  39  54  71 102 142 179 218 263 313
#     4   9  17  30  50  75 102 129 165 210 255 303
#     4   8  14  26  46  75 109 137 158 191 245 307
#
# _framework density 18.628807999999999
#
# number of rings (size 3 to 8) (size 9 to 14) (size 15 to 20)
#    0.000    2.750    0.000    2.625    0.000    7.000 
#    2.250    0.000    0.000    2.250    0.000    1.750 
#    0.000    0.000    0.000    0.000    0.000    0.000 
#
# Total GULP energy -793351.828060 kJ/mol
# GULP energy per Si atom -12396.122313 kJ/mol
# Density = 1.858641 g / cm^3
# Si number density = 18.628808 Si / 1000 Ang^3
#
#
#
# Elastic Constant Matrix: (Units=GPa)
#
#
# Indices 1 2 3 4 5 6 
#
# 1 159.0851 39.5841 59.9895 0.0000 0.0000 0.0000
# 2 39.5841 34.8949 28.8740 0.0000 0.0000 0.0000
# 3 59.9895 28.8740 70.0297 0.0000 0.0000 0.0000
# 4 0.0000 0.0000 0.0000 18.3513 0.0000 0.0000
# 5 0.0000 0.0000 0.0000 0.0000 4.1478 0.0000
# 6 0.0000 0.0000 0.0000 0.0000 0.0000 28.8356
#
#
#
# Elastic Compliance Matrix: (Units=1/GPa)
#
#
# Indices 1 2 3 4 5 6 
#
# 1 0.010193 -0.006584 -0.006017 0.000000 0.000000 0.000000
# 2 -0.006584 0.047750 -0.014048 0.000000 0.000000 0.000000
# 3 -0.006017 -0.014048 0.025226 0.000000 0.000000 0.000000
# 4 0.000000 0.000000 0.000000 0.054492 0.000000 0.000000
# 5 0.000000 0.000000 0.000000 0.000000 0.241091 0.000000
# 6 0.000000 0.000000 0.000000 0.000000 0.000000 0.034679
#
#
# Mechanical properties :
#
#
# Convention : Reuss Voigt Hill
#
# Bulk Modulus (GPa) = 33.47664 57.87832 45.67748
# Shear Modulus (GPa) = 10.48906 19.30442 14.89674
#
# Velocity S-wave (km/s) = 2.37545 3.22260 2.83090
# Velocity P-wave (km/s) = 5.05303 6.70698 5.93787
#
# Compressibility (1/GPa) = 0.02987157
#
# Stress axis : x y z
#
# Youngs Moduli (GPa) = 98.10450 20.94231 39.64138
#
# Poissons Ratio (x) = 0.13789 0.23853
# Poissons Ratio (y) = 0.64593 0.55688
# Poissons Ratio (z) = 0.59031 0.29419
#
# Static dielectric constant tensor:
#      x y z
#    x 3.706170 0.000000 0.000000 
#    y 0.000000 3.337070 0.000000 
#    z 0.000000 0.000000 3.184390 
# 
# 
# High freq. dielectric constant tensor:
#      x y z
#    x 1.736400 0.000000 0.000000 
#    y 0.000000 1.709020 0.000000 
#    z 0.000000 0.000000 1.686750 
# 
# From -- ./inp_files/6520.got.cif
#   From: 2010.03.12/outbox.cif.g09.slc.cpg/sg55_4_cif.got.tgz:6520.got - 2010.04.16 15:19:21.
