data_PCOD8224665
_publ_section_title
;
Structure prediction by ZEFSAII (Michael W. Deem and Ramdas Pophale) SiO2 
 PCOD8224665
Probable space group: P B A M
;
_chemical_formula_sum "Si O2"
_cell_formula_units_Z 64
_cell_length_a 24.577975
_cell_length_b 15.456906
_cell_length_c 8.611727
_cell_angle_alpha 90.000000
_cell_angle_beta 90.000000
_cell_angle_gamma 90.000000
_cell_volume 3271.590344
_symmetry_space_group_name_H-M "P B A M"
_symmetry_group_IT_number 55
_symmetry_cell_setting 'orthorhombic'
loop_
_space_group_symop_operation_xyz
x,y,z
-x,-y,z
1/2+x,1/2-y,-z
1/2-x,1/2+y,-z
-x,-y,-z
x,y,-z
1/2-x,1/2+y,z
1/2+x,1/2-y,z
loop_
_atom_site_type_symbol
_atom_site_label
_atom_site_fract_x
_atom_site_fract_y
_atom_site_fract_z
Si Si1 0.617589 0.854429 0.826637
Si Si2 0.506682 0.902142 0.681020
Si Si3 0.123996 0.847944 0.172450
Si Si4 0.565467 0.249125 0.184298
Si Si5 0.237384 0.905127 0.185702
Si Si6 0.234612 0.594969 0.814942
Si Si7 0.311041 0.749151 0.814970
Si Si8 0.989674 0.096668 0.185699
O O1 0.568502 0.875507 0.712759
O O2 0.625808 0.753575 0.839487
O O3 0.673326 0.891055 0.753944
O O4 0.605957 0.892033 0.000000
O O5 0.494291 0.896306 0.500000
O O6 0.464300 0.838787 0.765067
O O7 0.500000 0.000000 0.743064
O O8 0.178522 0.880588 0.257663
O O9 0.068917 0.877818 0.257997
O O10 0.123220 0.889075 0.000000
O O11 0.627173 0.252507 0.249502
O O12 0.534184 0.334502 0.248330
O O13 0.565724 0.249772 0.000000
O O14 0.282559 0.837171 0.245910
O O15 0.249269 0.000820 0.247442
O O16 0.235956 0.900565 0.000000
O O17 0.277029 0.666609 0.750505
O O18 0.234344 0.599941 0.000000
O O19 0.311705 0.746406 0.000000
O O20 0.989358 0.101431 0.000000
O O21 0.000000 0.000000 0.246378
#
# Coordination Sequence:
#
# PCOD8224665 Si02
#       8
#     8   8   8   8   8   8   8   8
#     4  10  18  33  56  79 103 134 176 222 261 307
#     4  11  25  41  55  74 103 140 179 223 277 326
#     4   9  15  26  44  68 103 137 166 207 253 299
#     4  10  20  34  54  80 109 140 178 220 260 312
#     4   9  16  25  39  66 104 140 164 196 255 308
#     4   9  17  27  44  74 109 139 166 206 261 310
#     4   9  17  28  42  70 109 137 164 206 254 307
#     4   9  17  27  43  73 107 137 169 209 258 305
#
# _framework density 19.562352000000001
#
# number of rings (size 3 to 8) (size 9 to 14) (size 15 to 20)
#    0.000    2.500    2.500    0.375    3.500    1.000 
#    0.000    0.000    0.000    1.125    0.000    0.875 
#    0.000    0.000    0.000    0.000    0.000    0.000 
#
# Total GULP energy -793265.008142 kJ/mol
# GULP energy per Si atom -12394.765752 kJ/mol
# Density = 1.951783 g / cm^3
# Si number density = 19.562352 Si / 1000 Ang^3
#
#
#
# Elastic Constant Matrix: (Units=GPa)
#
#
# Indices 1 2 3 4 5 6 
#
# 1 172.1359 68.2051 3.8409 0.0000 0.0000 0.0000
# 2 68.2051 145.3931 4.5791 0.0000 0.0000 0.0000
# 3 3.8409 4.5791 7.7506 0.0000 0.0000 0.0000
# 4 0.0000 0.0000 0.0000 13.7591 0.0000 0.0000
# 5 0.0000 0.0000 0.0000 0.0000 4.0523 0.0000
# 6 0.0000 0.0000 0.0000 0.0000 0.0000 38.1950
#
#
#
# Elastic Compliance Matrix: (Units=1/GPa)
#
#
# Indices 1 2 3 4 5 6 
#
# 1 0.007155 -0.003306 -0.001592 0.000000 0.000000 0.000000
# 2 -0.003306 0.008536 -0.003405 0.000000 0.000000 0.000000
# 3 -0.001592 -0.003405 0.131824 0.000000 0.000000 0.000000
# 4 0.000000 0.000000 0.000000 0.072679 0.000000 0.000000
# 5 0.000000 0.000000 0.000000 0.000000 0.246773 0.000000
# 6 0.000000 0.000000 0.000000 0.000000 0.000000 0.026181
#
#
# Mechanical properties :
#
#
# Convention : Reuss Voigt Hill
#
# Bulk Modulus (GPa) = 7.63895 53.16996 30.40446
# Shear Modulus (GPa) = 9.03520 27.77824 18.40672
#
# Velocity S-wave (km/s) = 2.15144 3.77236 3.07078
# Velocity P-wave (km/s) = 3.17569 6.79801 5.30556
#
# Compressibility (1/GPa) = 0.13090797
#
# Stress axis : x y z
#
# Youngs Moduli (GPa) = 139.76360 117.14897 7.58589
#
# Poissons Ratio (x) = 0.38733 0.01208
# Poissons Ratio (y) = 0.46210 0.02583
# Poissons Ratio (z) = 0.22255 0.39886
#
# Static dielectric constant tensor:
#      x y z
#    x 3.819030 0.000000 0.000000 
#    y 0.000000 3.722060 0.000000 
#    z 0.000000 0.000000 2.798860 
# 
# 
# High freq. dielectric constant tensor:
#      x y z
#    x 1.783300 0.000000 0.000000 
#    y 0.000000 1.772820 0.000000 
#    z 0.000000 0.000000 1.678980 
# 
# From -- ./inp_files/9820.got.cif
#   From: 2010.03.12/outbox.cif.g09.slc.cpg/sg55_5_cif.got.tgz:9820.got - 2010.04.16 15:19:21.
