data_PCOD8224326
_publ_section_title
;
Structure prediction by ZEFSAII (Michael W. Deem and Ramdas Pophale) SiO2 
 PCOD8224326
Probable space group: P B A M
;
_chemical_formula_sum "Si O2"
_cell_formula_units_Z 64
_cell_length_a 20.657455
_cell_length_b 19.700715
_cell_length_c 9.116759
_cell_angle_alpha 90.000000
_cell_angle_beta 90.000000
_cell_angle_gamma 90.000000
_cell_volume 3710.216719
_symmetry_space_group_name_H-M "P B A M"
_symmetry_group_IT_number 55
_symmetry_cell_setting 'orthorhombic'
loop_
_space_group_symop_operation_xyz
x,y,z
-x,-y,z
1/2+x,1/2-y,-z
1/2-x,1/2+y,-z
-x,-y,-z
x,y,-z
1/2-x,1/2+y,z
1/2+x,1/2-y,z
loop_
_atom_site_type_symbol
_atom_site_label
_atom_site_fract_x
_atom_site_fract_y
_atom_site_fract_z
Si Si1 0.877820 0.430070 0.171639
Si Si2 0.313964 0.700265 0.674762
Si Si3 0.926583 0.300277 0.328176
Si Si4 0.272558 0.568875 0.171922
Si Si5 0.692552 0.712170 0.673808
Si Si6 0.271930 0.433998 0.667535
Si Si7 0.071477 0.293490 0.328436
Si Si8 0.380568 0.935381 0.332587
O O1 0.918638 0.370546 0.244330
O O2 0.802585 0.419680 0.210865
O O3 0.903255 0.500987 0.236150
O O4 0.890374 0.429895 0.000000
O O5 0.312609 0.691066 0.500000
O O6 0.313910 0.626714 0.748766
O O7 0.252475 0.743259 0.732815
O O8 0.378893 0.737435 0.733276
O O9 0.917022 0.314856 0.500000
O O10 0.874573 0.245287 0.271517
O O11 0.998014 0.271050 0.293791
O O12 0.295978 0.496307 0.233285
O O13 0.285845 0.571040 0.000000
O O14 0.697377 0.710104 0.500000
O O15 0.695595 0.634805 0.731305
O O16 0.292936 0.448222 0.500000
O O17 0.195609 0.423276 0.678246
O O18 0.085379 0.299351 0.500000
O O19 0.085265 0.368599 0.264435
O O20 0.401811 0.949256 0.500000
#
# Coordination Sequence:
#
# PCOD8224326 Si02
#       8
#     8   8   8   8   8   8   8   8
#     4  10  20  32  45  67 100 133 164 198 235 283
#     4  10  17  31  53  75  97 126 161 200 244 288
#     4  10  19  32  50  73  99 129 162 199 243 289
#     4  10  20  32  47  73 102 126 158 202 245 287
#     4   9  16  28  51  76  95 120 161 203 239 283
#     4   9  16  29  50  73  94 122 160 200 241 287
#     4   9  18  31  50  75 100 125 161 205 243 284
#     4   9  16  29  48  68  93 127 163 197 235 284
#
# _framework density 17.249665
#
# number of rings (size 3 to 8) (size 9 to 14) (size 15 to 20)
#    0.000    2.500    2.500    0.750    0.000    1.500 
#    0.000    5.625    0.000    0.750    0.000    5.250 
#    0.000    0.000    0.000    0.000    0.000    0.000 
#
# Total GULP energy -793581.333137 kJ/mol
# GULP energy per Si atom -12399.708330 kJ/mol
# Density = 1.721040 g / cm^3
# Si number density = 17.249665 Si / 1000 Ang^3
#
#
#
# Elastic Constant Matrix: (Units=GPa)
#
#
# Indices 1 2 3 4 5 6 
#
# 1 93.8184 63.4478 28.0890 0.0000 0.0000 0.0000
# 2 63.4478 138.6675 36.6997 0.0000 0.0000 0.0000
# 3 28.0890 36.6997 45.7462 0.0000 0.0000 0.0000
# 4 0.0000 0.0000 0.0000 1.6675 0.0000 0.0000
# 5 0.0000 0.0000 0.0000 0.0000 11.5979 0.0000
# 6 0.0000 0.0000 0.0000 0.0000 0.0000 25.3936
#
#
#
# Elastic Compliance Matrix: (Units=1/GPa)
#
#
# Indices 1 2 3 4 5 6 
#
# 1 0.016328 -0.006116 -0.005119 0.000000 0.000000 0.000000
# 2 -0.006116 0.011446 -0.005427 0.000000 0.000000 0.000000
# 3 -0.005119 -0.005427 0.029357 0.000000 0.000000 0.000000
# 4 0.000000 0.000000 0.000000 0.599695 0.000000 0.000000
# 5 0.000000 0.000000 0.000000 0.000000 0.086223 0.000000
# 6 0.000000 0.000000 0.000000 0.000000 0.000000 0.039380
#
#
# Mechanical properties :
#
#
# Convention : Reuss Voigt Hill
#
# Bulk Modulus (GPa) = 42.00585 59.41168 50.70877
# Shear Modulus (GPa) = 6.07026 17.73150 11.90088
#
# Velocity S-wave (km/s) = 1.87795 3.20962 2.62948
# Velocity P-wave (km/s) = 5.39507 6.94640 6.21930
#
# Compressibility (1/GPa) = 0.02380621
#
# Stress axis : x y z
#
# Youngs Moduli (GPa) = 61.24592 87.36451 34.06347
#
# Poissons Ratio (x) = 0.53432 0.17437
# Poissons Ratio (y) = 0.37458 0.18488
# Poissons Ratio (z) = 0.31351 0.47416
#
# Static dielectric constant tensor:
#      x y z
#    x 3.106440 0.000000 0.000000 
#    y 0.000000 3.348500 0.000000 
#    z 0.000000 0.000000 2.921580 
# 
# 
# High freq. dielectric constant tensor:
#      x y z
#    x 1.642960 0.000000 0.000000 
#    y 0.000000 1.672770 0.000000 
#    z 0.000000 0.000000 1.636130 
# 
# From -- ./inp_files/7993.got.cif
#   From: 2010.03.12/outbox.cif.g09.slc.cpg/sg55_4_cif.got.tgz:7993.got - 2010.04.16 15:19:21.
