data_PCOD8224915
_publ_section_title
;
Structure prediction by ZEFSAII (Michael W. Deem and Ramdas Pophale) SiO2 
 PCOD8224915
Probable space group: P B A M
;
_chemical_formula_sum "Si O2"
_cell_formula_units_Z 48
_cell_length_a 23.720719
_cell_length_b 13.703591
_cell_length_c 8.947635
_cell_angle_alpha 90.000000
_cell_angle_beta 90.000000
_cell_angle_gamma 90.000000
_cell_volume 2908.509566
_symmetry_space_group_name_H-M "P B A M"
_symmetry_group_IT_number 55
_symmetry_cell_setting 'orthorhombic'
loop_
_space_group_symop_operation_xyz
x,y,z
-x,-y,z
1/2+x,1/2-y,-z
1/2-x,1/2+y,-z
-x,-y,-z
x,y,-z
1/2-x,1/2+y,z
1/2+x,1/2-y,z
loop_
_atom_site_type_symbol
_atom_site_label
_atom_site_fract_x
_atom_site_fract_y
_atom_site_fract_z
Si Si1 0.722496 0.395192 0.326434
Si Si2 0.167385 0.726918 0.674259
Si Si3 0.163298 0.276974 0.824346
Si Si4 0.227393 0.897415 0.824479
Si Si5 0.436218 0.886880 0.676483
Si Si6 0.062924 0.606068 0.324053
O O1 0.708284 0.402456 0.500000
O O2 0.784564 0.353186 0.297180
O O3 0.675844 0.326798 0.250612
O O4 0.718669 0.501036 0.256074
O O5 0.163494 0.754755 0.500000
O O6 0.179021 0.824109 0.768100
O O7 0.109271 0.681404 0.738319
O O8 0.211593 0.354532 0.779960
O O9 0.103766 0.313871 0.764512
O O10 0.160346 0.261214 0.000000
O O11 0.221242 0.912095 0.000000
O O12 0.424639 0.878571 0.500000
O O13 0.500417 0.856616 0.716479
O O14 0.426016 0.996808 0.737019
O O15 0.069668 0.598225 0.500000
#
# Coordination Sequence:
#
# PCOD8224915 Si02
#       6
#     8   8   8   8   8   8
#     4  10  19  31  50  72  92 120 158 195 229 272
#     4   9  17  30  48  70  94 121 155 190 227 274
#     4  10  20  32  46  68  99 129 154 186 231 278
#     4  10  20  32  46  67  96 126 153 187 233 277
#     4   9  16  29  49  71  95 124 158 192 229 272
#     4   8  15  28  48  72  96 122 153 194 235 269
#
# _framework density 16.503298000000001
#
# number of rings (size 3 to 8) (size 9 to 14) (size 15 to 20)
#    0.000    2.667    0.000    3.500    0.000    4.000 
#    0.000    3.333    0.000    1.000    0.000    7.000 
#    0.000    0.000    0.000    0.000    0.000    0.000 
#
# Total GULP energy -595205.411928 kJ/mol
# GULP energy per Si atom -12400.112749 kJ/mol
# Density = 1.646574 g / cm^3
# Si number density = 16.503298 Si / 1000 Ang^3
#
#
#
# Elastic Constant Matrix: (Units=GPa)
#
#
# Indices 1 2 3 4 5 6 
#
# 1 111.9175 67.5910 42.3026 0.0000 0.0000 0.0000
# 2 67.5910 131.0111 55.7385 0.0000 0.0000 0.0000
# 3 42.3026 55.7385 66.0298 0.0000 0.0000 0.0000
# 4 0.0000 0.0000 0.0000 20.6591 0.0000 0.0000
# 5 0.0000 0.0000 0.0000 0.0000 20.1185 0.0000
# 6 0.0000 0.0000 0.0000 0.0000 0.0000 26.4857
#
#
#
# Elastic Compliance Matrix: (Units=1/GPa)
#
#
# Indices 1 2 3 4 5 6 
#
# 1 0.013753 -0.005222 -0.004403 0.000000 0.000000 0.000000
# 2 -0.005222 0.013894 -0.008382 0.000000 0.000000 0.000000
# 3 -0.004403 -0.008382 0.025041 0.000000 0.000000 0.000000
# 4 0.000000 0.000000 0.000000 0.048405 0.000000 0.000000
# 5 0.000000 0.000000 0.000000 0.000000 0.049706 0.000000
# 6 0.000000 0.000000 0.000000 0.000000 0.000000 0.037756
#
#
# Mechanical properties :
#
#
# Convention : Reuss Voigt Hill
#
# Bulk Modulus (GPa) = 59.97685 71.13584 65.55635
# Shear Modulus (GPa) = 21.72711 23.00773 22.36742
#
# Velocity S-wave (km/s) = 3.63234 3.73785 3.68547
# Velocity P-wave (km/s) = 7.34936 7.86297 7.61050
#
# Compressibility (1/GPa) = 0.01667310
#
# Stress axis : x y z
#
# Youngs Moduli (GPa) = 72.70963 71.97590 39.93432
#
# Poissons Ratio (x) = 0.37589 0.17582
# Poissons Ratio (y) = 0.37972 0.33474
# Poissons Ratio (z) = 0.32012 0.60332
#
# Static dielectric constant tensor:
#      x y z
#    x 3.235540 0.000000 0.000000 
#    y 0.000000 3.092230 0.000000 
#    z 0.000000 0.000000 2.994740 
# 
# 
# High freq. dielectric constant tensor:
#      x y z
#    x 1.627410 0.000000 0.000000 
#    y 0.000000 1.628800 0.000000 
#    z 0.000000 0.000000 1.627740 
# 
# From -- ./inp_files/4027.got.cif
#   From: 2010.03.12/outbox.cif.g09.slc.cpg/sg55_3_cif.got.tgz:4027.got - 2010.04.16 15:19:21.
