data_PCOD8224434
_publ_section_title
;
Structure prediction by ZEFSAII (Michael W. Deem and Ramdas Pophale) SiO2 
 PCOD8224434
Probable space group: P B A M
;
_chemical_formula_sum "Si O2"
_cell_formula_units_Z 56
_cell_length_a 18.757456
_cell_length_b 18.003730
_cell_length_c 8.927961
_cell_angle_alpha 90.000000
_cell_angle_beta 90.000000
_cell_angle_gamma 90.000000
_cell_volume 3015.009689
_symmetry_space_group_name_H-M "P B A M"
_symmetry_group_IT_number 55
_symmetry_cell_setting 'orthorhombic'
loop_
_space_group_symop_operation_xyz
x,y,z
-x,-y,z
1/2+x,1/2-y,-z
1/2-x,1/2+y,-z
-x,-y,-z
x,y,-z
1/2-x,1/2+y,z
1/2+x,1/2-y,z
loop_
_atom_site_type_symbol
_atom_site_label
_atom_site_fract_x
_atom_site_fract_y
_atom_site_fract_z
Si Si1 0.404933 0.620709 0.169364
Si Si2 0.575793 0.971922 0.174836
Si Si3 0.248833 0.142885 0.169403
Si Si4 0.394660 0.199128 0.830439
Si Si5 0.455146 0.336981 0.325470
Si Si6 0.853296 0.045391 0.174102
Si Si7 0.284395 0.995960 0.674766
O O1 0.332725 0.670584 0.188890
O O2 0.462357 0.651075 0.285039
O O3 0.386077 0.535535 0.206462
O O4 0.434637 0.627483 0.000000
O O5 0.582911 0.884606 0.209722
O O6 0.637375 0.019497 0.256933
O O7 0.500000 0.000000 0.236710
O O8 0.583281 0.988370 0.000000
O O9 0.308159 0.207403 0.187675
O O10 0.264110 0.080883 0.292628
O O11 0.256687 0.108075 0.000000
O O12 0.433520 0.253378 0.715995
O O13 0.417543 0.219239 0.000000
O O14 0.444289 0.350078 0.500000
O O15 0.407619 0.394613 0.235911
O O16 0.776390 0.056075 0.252141
O O17 0.842668 0.059885 0.000000
O O18 0.286304 0.979923 0.500000
#
# Coordination Sequence:
#
# PCOD8224434 Si02
#       7
#     8   8   8   8   8   8   8
#     4   9  18  34  56  79 101 131 174 218 259 307
#     4   9  18  35  59  82 103 135 181 225 261 306
#     4   8  16  33  56  76  95 128 174 214 248 301
#     4   9  18  35  56  76 101 136 176 215 259 311
#     4  12  24  34  48  76 112 143 172 212 265 319
#     4  10  20  36  56  75 100 138 182 221 257 308
#     4  10  18  29  50  80 109 132 160 207 264 314
#
# _framework density 18.573737999999999
#
# number of rings (size 3 to 8) (size 9 to 14) (size 15 to 20)
#    0.000    2.429    0.000    5.143    0.000    7.143 
#    0.000    1.429    0.000    3.429    0.000    0.000 
#    0.000    0.000    0.000    0.000    0.000    0.000 
#
# Total GULP energy -694206.764809 kJ/mol
# GULP energy per Si atom -12396.549372 kJ/mol
# Density = 1.853146 g / cm^3
# Si number density = 18.573738 Si / 1000 Ang^3
#
#
#
# Elastic Constant Matrix: (Units=GPa)
#
#
# Indices 1 2 3 4 5 6 
#
# 1 157.7046 41.4134 54.2005 0.0000 0.0000 0.0000
# 2 41.4134 46.8782 26.3802 0.0000 0.0000 0.0000
# 3 54.2005 26.3802 92.6211 0.0000 0.0000 0.0000
# 4 0.0000 0.0000 0.0000 20.7338 0.0000 0.0000
# 5 0.0000 0.0000 0.0000 0.0000 21.2428 0.0000
# 6 0.0000 0.0000 0.0000 0.0000 0.0000 15.5816
#
#
#
# Elastic Compliance Matrix: (Units=1/GPa)
#
#
# Indices 1 2 3 4 5 6 
#
# 1 0.009187 -0.006063 -0.003650 0.000000 0.000000 0.000000
# 2 -0.006063 0.029404 -0.004827 0.000000 0.000000 0.000000
# 3 -0.003650 -0.004827 0.014307 0.000000 0.000000 0.000000
# 4 0.000000 0.000000 0.000000 0.048230 0.000000 0.000000
# 5 0.000000 0.000000 0.000000 0.000000 0.047075 0.000000
# 6 0.000000 0.000000 0.000000 0.000000 0.000000 0.064178
#
#
# Mechanical properties :
#
#
# Convention : Reuss Voigt Hill
#
# Bulk Modulus (GPa) = 41.98121 60.13246 51.05684
# Shear Modulus (GPa) = 20.04807 23.19229 21.62018
#
# Velocity S-wave (km/s) = 3.28895 3.53747 3.41547
# Velocity P-wave (km/s) = 6.08888 7.00930 6.56524
#
# Compressibility (1/GPa) = 0.02382018
#
# Stress axis : x y z
#
# Youngs Moduli (GPa) = 108.84592 34.00884 69.89498
#
# Poissons Ratio (x) = 0.20618 0.25508
# Poissons Ratio (y) = 0.65989 0.33739
# Poissons Ratio (z) = 0.39724 0.16416
#
# Static dielectric constant tensor:
#      x y z
#    x 3.814950 0.000000 0.000000 
#    y 0.000000 3.036820 0.000000 
#    z 0.000000 0.000000 3.288020 
# 
# 
# High freq. dielectric constant tensor:
#      x y z
#    x 1.740460 0.000000 0.000000 
#    y 0.000000 1.675810 0.000000 
#    z 0.000000 0.000000 1.714910 
# 
# From -- ./inp_files/7885.got.cif
#   From: 2010.03.12/outbox.cif.g09.slc.cpg/sg55_4_cif.got.tgz:7885.got - 2010.04.16 15:19:21.
