data_PCOD8224646
_publ_section_title
;
Structure prediction by ZEFSAII (Michael W. Deem and Ramdas Pophale) SiO2 
 PCOD8224646
Probable space group: P B A M
;
_chemical_formula_sum "Si O2"
_cell_formula_units_Z 56
_cell_length_a 14.920962
_cell_length_b 19.836972
_cell_length_c 9.119074
_cell_angle_alpha 90.000000
_cell_angle_beta 90.000000
_cell_angle_gamma 90.000000
_cell_volume 2699.124670
_symmetry_space_group_name_H-M "P B A M"
_symmetry_group_IT_number 55
_symmetry_cell_setting 'orthorhombic'
loop_
_space_group_symop_operation_xyz
x,y,z
-x,-y,z
1/2+x,1/2-y,-z
1/2-x,1/2+y,-z
-x,-y,-z
x,y,-z
1/2-x,1/2+y,z
1/2+x,1/2-y,z
loop_
_atom_site_type_symbol
_atom_site_label
_atom_site_fract_x
_atom_site_fract_y
_atom_site_fract_z
Si Si1 0.999500 0.122315 0.171867
Si Si2 0.823070 0.080660 0.670688
Si Si3 0.898819 0.490040 0.156894
Si Si4 0.334744 0.864417 0.828454
Si Si5 0.170800 0.073059 0.331815
Si Si6 0.503371 0.778658 0.171659
Si Si7 0.645081 0.864773 0.331532
O O1 0.091460 0.087969 0.220382
O O2 0.003878 0.200884 0.211402
O O3 0.920719 0.086584 0.259374
O O4 0.985256 0.110427 0.000000
O O5 0.828821 0.097088 0.500000
O O6 0.759857 0.139177 0.742268
O O7 0.791481 0.002806 0.698700
O O8 0.861898 0.560450 0.212173
O O9 0.893417 0.436665 0.286045
O O10 0.000000 0.500000 0.116353
O O11 0.852472 0.467885 0.000000
O O12 0.412315 0.814430 0.768207
O O13 0.317583 0.851187 0.000000
O O14 0.137106 0.077800 0.500000
O O15 0.247996 0.129328 0.302550
O O16 0.595533 0.806302 0.241322
O O17 0.510708 0.793377 0.000000
O O18 0.623381 0.851537 0.500000
#
# Coordination Sequence:
#
# PCOD8224646 Si02
#       7
#     8   8   8   8   8   8   8
#     4  11  25  43  64  87 115 157 209 255 293 352
#     4  11  23  41  64  90 123 157 193 250 311 356
#     4  10  18  32  56  86 121 160 196 242 299 350
#     4  10  20  36  61  90 121 157 200 244 294 356
#     4  10  23  42  62  88 122 156 194 247 306 355
#     4  10  23  43  61  86 125 163 199 243 298 353
#     4  11  22  36  59  92 126 157 196 242 296 363
#
# _framework density 20.747465999999999
#
# number of rings (size 3 to 8) (size 9 to 14) (size 15 to 20)
#    0.000    1.571    2.857    1.714    0.000    7.143 
#    0.000    4.286    0.000    0.000    0.000    0.000 
#    0.000    0.000    0.000    0.000    0.000    0.000 
#
# Total GULP energy -694126.195588 kJ/mol
# GULP energy per Si atom -12395.110635 kJ/mol
# Density = 2.070024 g / cm^3
# Si number density = 20.747466 Si / 1000 Ang^3
#
#
#
# Elastic Constant Matrix: (Units=GPa)
#
#
# Indices 1 2 3 4 5 6 
#
# 1 98.2732 24.9748 40.0931 0.0000 0.0000 0.0000
# 2 24.9748 65.0523 34.0905 0.0000 0.0000 0.0000
# 3 40.0931 34.0905 68.5518 0.0000 0.0000 0.0000
# 4 0.0000 0.0000 0.0000 20.1553 0.0000 0.0000
# 5 0.0000 0.0000 0.0000 0.0000 38.0388 0.0000
# 6 0.0000 0.0000 0.0000 0.0000 0.0000 -24.4369
#
#
#
# Elastic Compliance Matrix: (Units=1/GPa)
#
#
# Indices 1 2 3 4 5 6 
#
# 1 0.013459 -0.001409 -0.007171 0.000000 0.000000 0.000000
# 2 -0.001409 0.020938 -0.009588 0.000000 0.000000 0.000000
# 3 -0.007171 -0.009588 0.023550 0.000000 0.000000 0.000000
# 4 0.000000 0.000000 0.000000 0.049615 0.000000 0.000000
# 5 0.000000 0.000000 0.000000 0.000000 0.026289 0.000000
# 6 0.000000 0.000000 0.000000 0.000000 0.000000 -0.040922
#
#
# Mechanical properties :
#
#
# Convention : Reuss Voigt Hill
#
# Bulk Modulus (GPa) = 46.27455 47.79934 47.03695
# Shear Modulus (GPa) = 36.63832 15.59938 26.11885
#
# Velocity S-wave (km/s) = 4.20684 2.74500 3.55194
# Velocity P-wave (km/s) = 6.77856 5.75633 6.28825
#
# Compressibility (1/GPa) = 0.02161015
#
# Stress axis : x y z
#
# Youngs Moduli (GPa) = 74.29702 47.76020 42.46357
#
# Poissons Ratio (x) = 0.06731 0.30451
# Poissons Ratio (y) = 0.10471 0.40714
# Poissons Ratio (z) = 0.53278 0.45793
#
# Static dielectric constant tensor:
#      x y z
#    x 3.873560 0.000000 0.000000 
#    y 0.000000 3.665660 0.000000 
#    z 0.000000 0.000000 3.711560 
# 
# 
# High freq. dielectric constant tensor:
#      x y z
#    x 1.820150 0.000000 0.000000 
#    y 0.000000 1.800140 0.000000 
#    z 0.000000 0.000000 1.810680 
# 
# From -- ./inp_files/6105.got.cif
#   From: 2010.03.12/outbox.cif.g09.slc.cpg/sg55_4_cif.got.tgz:6105.got - 2010.04.16 15:19:21.
