data_PCOD8224592
_publ_section_title
;
Structure prediction by ZEFSAII (Michael W. Deem and Ramdas Pophale) SiO2 
 PCOD8224592
Probable space group: P B A M
;
_chemical_formula_sum "Si O2"
_cell_formula_units_Z 48
_cell_length_a 16.695890
_cell_length_b 18.231657
_cell_length_c 8.624479
_cell_angle_alpha 90.000000
_cell_angle_beta 90.000000
_cell_angle_gamma 90.000000
_cell_volume 2625.237417
_symmetry_space_group_name_H-M "P B A M"
_symmetry_group_IT_number 55
_symmetry_cell_setting 'orthorhombic'
loop_
_space_group_symop_operation_xyz
x,y,z
-x,-y,z
1/2+x,1/2-y,-z
1/2-x,1/2+y,-z
-x,-y,-z
x,y,-z
1/2-x,1/2+y,z
1/2+x,1/2-y,z
loop_
_atom_site_type_symbol
_atom_site_label
_atom_site_fract_x
_atom_site_fract_y
_atom_site_fract_z
Si Si1 0.679386 0.914590 0.319751
Si Si2 0.502839 0.918454 0.318048
Si Si3 0.666472 0.331740 0.681671
Si Si4 0.647932 0.169601 0.314729
Si Si5 0.911780 0.979180 0.315470
Si Si6 0.240196 0.947627 0.182058
O O1 0.686494 0.937323 0.500000
O O2 0.590474 0.884940 0.280662
O O3 0.741243 0.850312 0.277764
O O4 0.698192 0.987560 0.223520
O O5 0.486986 0.923460 0.500000
O O6 0.432977 0.867876 0.247353
O O7 0.500000 0.000000 0.245794
O O8 0.652809 0.327149 0.500000
O O9 0.646817 0.252472 0.753946
O O10 0.609791 0.397156 0.746439
O O11 0.651155 0.169982 0.500000
O O12 0.726197 0.127906 0.252684
O O13 0.906848 0.982229 0.500000
O O14 0.847932 0.037295 0.250539
O O15 0.000000 0.000000 0.254761
O O16 0.232838 0.939327 0.000000
#
# Coordination Sequence:
#
# PCOD8224592 Si02
#       6
#     8   8   8   8   8   8
#     4   9  16  32  52  72  97 130 170 211 256 305
#     4   9  15  25  48  75  96 126 163 203 253 302
#     4   8  16  30  51  77 101 128 165 211 261 306
#     4  10  18  32  50  73 105 136 168 212 261 305
#     4   9  18  36  59  81 102 129 171 220 264 309
#     4  11  21  32  50  75 101 137 174 206 250 308
#
# _framework density 18.28406
#
# number of rings (size 3 to 8) (size 9 to 14) (size 15 to 20)
#    0.000    2.667    1.667    2.500    0.000    0.333 
#    3.000    5.000    0.000    0.000    0.000    0.000 
#    0.000    0.000    0.000    0.000    0.000    0.000 
#
# Total GULP energy -594964.396335 kJ/mol
# GULP energy per Si atom -12395.091590 kJ/mol
# Density = 1.824244 g / cm^3
# Si number density = 18.284060 Si / 1000 Ang^3
#
#
#
# Elastic Constant Matrix: (Units=GPa)
#
#
# Indices 1 2 3 4 5 6 
#
# 1 167.4217 91.4460 21.7175 0.0000 0.0000 0.0000
# 2 91.4460 147.0762 18.5846 0.0000 0.0000 0.0000
# 3 21.7175 18.5846 31.0631 0.0000 0.0000 0.0000
# 4 0.0000 0.0000 0.0000 4.8730 0.0000 0.0000
# 5 0.0000 0.0000 0.0000 0.0000 8.8199 0.0000
# 6 0.0000 0.0000 0.0000 0.0000 0.0000 27.3266
#
#
#
# Elastic Compliance Matrix: (Units=1/GPa)
#
#
# Indices 1 2 3 4 5 6 
#
# 1 0.009349 -0.005395 -0.003309 0.000000 0.000000 0.000000
# 2 -0.005395 0.010468 -0.002491 0.000000 0.000000 0.000000
# 3 -0.003309 -0.002491 0.035996 0.000000 0.000000 0.000000
# 4 0.000000 0.000000 0.000000 0.205213 0.000000 0.000000
# 5 0.000000 0.000000 0.000000 0.000000 0.113380 0.000000
# 6 0.000000 0.000000 0.000000 0.000000 0.000000 0.036594
#
#
# Mechanical properties :
#
#
# Convention : Reuss Voigt Hill
#
# Bulk Modulus (GPa) = 29.91859 67.67302 48.79581
# Shear Modulus (GPa) = 11.24783 22.45809 16.85296
#
# Velocity S-wave (km/s) = 2.48296 3.50850 3.03929
# Velocity P-wave (km/s) = 4.96174 7.31472 6.24996
#
# Compressibility (1/GPa) = 0.03342403
#
# Stress axis : x y z
#
# Youngs Moduli (GPa) = 106.96778 95.52831 27.78073
#
# Poissons Ratio (x) = 0.51533 0.09191
# Poissons Ratio (y) = 0.57704 0.06921
# Poissons Ratio (z) = 0.35391 0.23800
#
# Static dielectric constant tensor:
#      x y z
#    x 3.609400 0.000000 0.000000 
#    y 0.000000 3.564370 0.000000 
#    z 0.000000 0.000000 2.894800 
# 
# 
# High freq. dielectric constant tensor:
#      x y z
#    x 1.717840 0.000000 0.000000 
#    y 0.000000 1.697980 0.000000 
#    z 0.000000 0.000000 1.662360 
# 
# From -- ./inp_files/7539.got.cif
#   From: 2010.03.12/outbox.cif.g09.slc.cpg/sg55_4_cif.got.tgz:7539.got - 2010.04.16 15:19:21.
