data_PCOD8224132
_publ_section_title
;
Structure prediction by ZEFSAII (Michael W. Deem and Ramdas Pophale) SiO2 
 PCOD8224132
Probable space group: P C C A
;
_chemical_formula_sum "Si O2"
_cell_formula_units_Z 24
_cell_length_a 16.393420
_cell_length_b 4.738874
_cell_length_c 12.459624
_cell_angle_alpha 90.000000
_cell_angle_beta 90.000000
_cell_angle_gamma 90.000000
_cell_volume 967.942733
_symmetry_space_group_name_H-M "P C C A"
_symmetry_group_IT_number 54
_symmetry_cell_setting 'orthorhombic'
loop_
_space_group_symop_operation_xyz
x,y,z
1/2-x,-y,z
1/2+x,-y,1/2-z
-x,y,1/2-z
-x,-y,-z
1/2+x,y,-z
1/2-x,y,1/2+z
x,-y,1/2+z
loop_
_atom_site_type_symbol
_atom_site_label
_atom_site_fract_x
_atom_site_fract_y
_atom_site_fract_z
Si Si1 0.069748 0.758642 0.816176
Si Si2 0.419510 0.967556 0.605755
Si Si3 0.844751 0.463909 0.502275
O O1 0.113698 0.956290 0.726514
O O2 0.000000 0.576136 0.750000
O O3 0.017291 0.957589 0.900474
O O4 0.133441 0.559118 0.876372
O O5 0.367296 0.139355 0.516504
O O6 0.399935 0.640793 0.582489
O O7 0.750000 0.500000 0.480801
#
# Coordination Sequence:
#
# PCOD8224132 Si02
#       3
#     8   8   8
#     4   8  22  41  68  91 127 177 226 263 312 403
#     4   9  23  40  64  92 127 170 219 265 318 391
#     4  12  22  40  63  97 131 167 210 280 333 380
#
# _framework density 24.794854999999998
#
# number of rings (size 3 to 8) (size 9 to 14) (size 15 to 20)
#    2.000    0.000    0.000    3.000    0.000    9.333 
#    0.000    3.333    0.000    0.000    0.000    0.000 
#    0.000    0.000    0.000    0.000    0.000    0.000 
#
# Total GULP energy -297360.657919 kJ/mol
# GULP energy per Si atom -12390.027413 kJ/mol
# Density = 2.473842 g / cm^3
# Si number density = 24.794855 Si / 1000 Ang^3
#
#
#
# Elastic Constant Matrix: (Units=GPa)
#
#
# Indices 1 2 3 4 5 6 
#
# 1 99.4897 9.6485 9.8230 0.0000 0.0000 0.0000
# 2 9.6485 44.1362 7.5520 0.0000 0.0000 0.0000
# 3 9.8230 7.5520 73.0307 0.0000 0.0000 0.0000
# 4 0.0000 0.0000 0.0000 16.3581 0.0000 0.0000
# 5 0.0000 0.0000 0.0000 0.0000 29.6156 0.0000
# 6 0.0000 0.0000 0.0000 0.0000 0.0000 28.5602
#
#
#
# Elastic Compliance Matrix: (Units=1/GPa)
#
#
# Indices 1 2 3 4 5 6 
#
# 1 0.010368 -0.002064 -0.001181 0.000000 0.000000 0.000000
# 2 -0.002064 0.023476 -0.002150 0.000000 0.000000 0.000000
# 3 -0.001181 -0.002150 0.014074 0.000000 0.000000 0.000000
# 4 0.000000 0.000000 0.000000 0.061132 0.000000 0.000000
# 5 0.000000 0.000000 0.000000 0.000000 0.033766 0.000000
# 6 0.000000 0.000000 0.000000 0.000000 0.000000 0.035014
#
#
# Mechanical properties :
#
#
# Convention : Reuss Voigt Hill
#
# Bulk Modulus (GPa) = 26.93425 30.07819 28.50622
# Shear Modulus (GPa) = 24.87602 27.54899 26.21250
#
# Velocity S-wave (km/s) = 3.17089 3.33690 3.25495
# Velocity P-wave (km/s) = 4.92874 5.19651 5.06439
#
# Compressibility (1/GPa) = 0.03712745
#
# Stress axis : x y z
#
# Youngs Moduli (GPa) = 96.44949 42.59608 71.05269
#
# Poissons Ratio (x) = 0.08794 0.08392
# Poissons Ratio (y) = 0.19912 0.15276
# Poissons Ratio (z) = 0.11391 0.09158
#
# Static dielectric constant tensor:
#      x y z
#    x 3.905300 0.000000 0.000000 
#    y 0.000000 3.967880 0.000000 
#    z 0.000000 0.000000 4.558920 
# 
# 
# High freq. dielectric constant tensor:
#      x y z
#    x 1.945140 0.000000 0.000000 
#    y 0.000000 1.969680 0.000000 
#    z 0.000000 0.000000 2.011330 
# 
# From -- ./inp_files/8596.got.cif
#   From: 2010.03.12/outbox.cif.g09.slc.cpg/sg54_5_cif.got.tgz:8596.got - 2010.04.16 15:00:50.
