data_PCOD8224379
_publ_section_title
;
Structure prediction by ZEFSAII (Michael W. Deem and Ramdas Pophale) SiO2 
 PCOD8224379
Probable space group: P B A M
;
_chemical_formula_sum "Si O2"
_cell_formula_units_Z 64
_cell_length_a 19.299666
_cell_length_b 23.536231
_cell_length_c 8.783037
_cell_angle_alpha 90.000000
_cell_angle_beta 90.000000
_cell_angle_gamma 90.000000
_cell_volume 3989.618999
_symmetry_space_group_name_H-M "P B A M"
_symmetry_group_IT_number 55
_symmetry_cell_setting 'orthorhombic'
loop_
_space_group_symop_operation_xyz
x,y,z
-x,-y,z
1/2+x,1/2-y,-z
1/2-x,1/2+y,-z
-x,-y,-z
x,y,-z
1/2-x,1/2+y,z
1/2+x,1/2-y,z
loop_
_atom_site_type_symbol
_atom_site_label
_atom_site_fract_x
_atom_site_fract_y
_atom_site_fract_z
Si Si1 0.638265 0.063082 0.818413
Si Si2 0.728462 0.163368 0.825042
Si Si3 0.647903 0.733677 0.180880
Si Si4 0.351091 0.721171 0.175606
Si Si5 0.002964 0.616842 0.818749
Si Si6 0.273183 0.163030 0.679222
Si Si7 0.352583 0.065137 0.180754
Si Si8 0.502705 0.244329 0.180228
O O1 0.696181 0.106583 0.749348
O O2 0.562515 0.081066 0.757030
O O3 0.656360 0.999812 0.764685
O O4 0.637119 0.067355 0.000000
O O5 0.803271 0.182498 0.755327
O O6 0.674560 0.214454 0.803648
O O7 0.740832 0.149449 0.000000
O O8 0.672388 0.793402 0.248080
O O9 0.567982 0.722699 0.227027
O O10 0.656989 0.739553 0.000000
O O11 0.305557 0.677689 0.273637
O O12 0.430421 0.720267 0.237814
O O13 0.345932 0.702348 0.000000
O O14 0.998967 0.680700 0.751660
O O15 0.072965 0.587074 0.760467
O O16 0.002987 0.618096 0.000000
O O17 0.279883 0.165426 0.500000
O O18 0.291383 0.100477 0.740050
O O19 0.345904 0.070984 0.000000
O O20 0.508873 0.238816 0.000000
#
# Coordination Sequence:
#
# PCOD8224379 Si02
#       8
#     8   8   8   8   8   8   8   8
#     4   9  15  23  39  66  92 117 148 184 219 252
#     4   8  13  22  38  63  90 111 136 175 219 258
#     4   9  16  28  47  68  90 116 145 179 222 269
#     4   9  16  28  47  65  85 112 143 181 223 267
#     4   9  14  22  38  66  94 113 144 183 211 246
#     4  11  21  31  42  60  88 119 151 186 221 257
#     4  10  18  28  44  63  87 119 156 188 214 253
#     4   9  14  23  44  70  91 112 141 177 220 267
#
# _framework density 16.041633000000001
#
# number of rings (size 3 to 8) (size 9 to 14) (size 15 to 20)
#    0.000    2.750    2.500    2.250    0.000    1.500 
#    0.000    0.625    0.000    4.500    0.000    0.875 
#    0.000    7.000    0.000    0.000    0.000    0.000 
#
# Total GULP energy -793144.578904 kJ/mol
# GULP energy per Si atom -12392.884045 kJ/mol
# Density = 1.600512 g / cm^3
# Si number density = 16.041633 Si / 1000 Ang^3
#
#
#
# Elastic Constant Matrix: (Units=GPa)
#
#
# Indices 1 2 3 4 5 6 
#
# 1 137.0978 64.0447 20.2962 0.0000 0.0000 0.0000
# 2 64.0447 96.9031 15.3184 0.0000 0.0000 0.0000
# 3 20.2962 15.3184 25.1603 0.0000 0.0000 0.0000
# 4 0.0000 0.0000 0.0000 3.0371 0.0000 0.0000
# 5 0.0000 0.0000 0.0000 0.0000 4.7988 0.0000
# 6 0.0000 0.0000 0.0000 0.0000 0.0000 26.8818
#
#
#
# Elastic Compliance Matrix: (Units=1/GPa)
#
#
# Indices 1 2 3 4 5 6 
#
# 1 0.011084 -0.006542 -0.004958 0.000000 0.000000 0.000000
# 2 -0.006542 0.015280 -0.004026 0.000000 0.000000 0.000000
# 3 -0.004958 -0.004026 0.046196 0.000000 0.000000 0.000000
# 4 0.000000 0.000000 0.000000 0.329263 0.000000 0.000000
# 5 0.000000 0.000000 0.000000 0.000000 0.208388 0.000000
# 6 0.000000 0.000000 0.000000 0.000000 0.000000 0.037200
#
#
# Mechanical properties :
#
#
# Convention : Reuss Voigt Hill
#
# Bulk Modulus (GPa) = 24.09177 50.94218 37.51697
# Shear Modulus (GPa) = 7.22233 17.57699 12.39966
#
# Velocity S-wave (km/s) = 2.12415 3.31374 2.78325
# Velocity P-wave (km/s) = 4.58987 6.81662 5.81091
#
# Compressibility (1/GPa) = 0.04150795
#
# Stress axis : x y z
#
# Youngs Moduli (GPa) = 90.21937 65.44702 21.64698
#
# Poissons Ratio (x) = 0.42814 0.10733
# Poissons Ratio (y) = 0.59020 0.08714
# Poissons Ratio (z) = 0.44734 0.26346
#
# Static dielectric constant tensor:
#      x y z
#    x 3.356150 0.000000 0.000000 
#    y 0.000000 3.035460 0.000000 
#    z 0.000000 0.000000 2.532890 
# 
# 
# High freq. dielectric constant tensor:
#      x y z
#    x 1.620710 0.000000 0.000000 
#    y 0.000000 1.592490 0.000000 
#    z 0.000000 0.000000 1.564240 
# 
# From -- ./inp_files/9202.got.cif
#   From: 2010.03.12/outbox.cif.g09.slc.cpg/sg55_5_cif.got.tgz:9202.got - 2010.04.16 15:19:21.
