data_PCOD8224307
_publ_section_title
;
Structure prediction by ZEFSAII (Michael W. Deem and Ramdas Pophale) SiO2 
 PCOD8224307
Probable space group: P B A M
;
_chemical_formula_sum "Si O2"
_cell_formula_units_Z 64
_cell_length_a 5.215021
_cell_length_b 26.570655
_cell_length_c 24.187746
_cell_angle_alpha 90.000000
_cell_angle_beta 90.000000
_cell_angle_gamma 90.000000
_cell_volume 3351.611882
_symmetry_space_group_name_H-M "P B A M"
_symmetry_group_IT_number 55
_symmetry_cell_setting 'orthorhombic'
loop_
_space_group_symop_operation_xyz
x,y,z
-x,-y,z
1/2+x,1/2-y,-z
1/2-x,1/2+y,-z
-x,-y,-z
x,y,-z
1/2-x,1/2+y,z
1/2+x,1/2-y,z
loop_
_atom_site_type_symbol
_atom_site_label
_atom_site_fract_x
_atom_site_fract_y
_atom_site_fract_z
Si Si1 0.923402 0.108519 0.563577
Si Si2 0.966069 0.222112 0.434037
Si Si3 0.260550 0.031743 0.275583
Si Si4 0.188309 0.135401 0.781951
Si Si5 0.292596 0.281144 0.059930
Si Si6 0.321411 0.819801 0.176909
Si Si7 0.704487 0.265303 0.272808
Si Si8 0.574483 0.945087 0.602004
O O1 0.836000 0.108752 0.500000
O O2 0.976782 0.164435 0.586041
O O3 0.683811 0.087793 0.598542
O O4 0.185146 0.076572 0.568183
O O5 0.966036 0.224214 0.500000
O O6 0.714582 0.249549 0.410138
O O7 0.214082 0.078139 0.235334
O O8 0.339505 0.052750 0.334851
O O9 0.500000 0.000000 0.251423
O O10 0.000000 0.000000 0.280030
O O11 0.409437 0.150289 0.825414
O O12 0.240916 0.175239 0.732751
O O13 0.898686 0.143384 0.801174
O O14 0.586388 0.263642 0.063391
O O15 0.242730 0.314761 0.112824
O O16 0.254593 0.308879 0.000000
O O17 0.333864 0.767728 0.214127
O O18 0.444219 0.256349 0.307136
O O19 0.500000 0.000000 0.578462
#
# Coordination Sequence:
#
# PCOD8224307 Si02
#       8
#     8   8   8   8   8   8   8   8
#     4  11  22  36  59  88 112 141 182 217 253 315
#     4   9  17  31  52  77 105 136 170 208 246 282
#     4  11  23  41  59  77 102 134 176 221 276 334
#     4  10  19  31  53  74  94 131 174 221 263 301
#     4  10  18  27  42  69 111 158 190 214 249 304
#     4  10  17  29  48  76 108 139 176 211 257 313
#     4   8  14  24  42  67  96 126 160 195 240 300
#     4  11  23  39  57  79 111 146 172 214 279 334
#
# _framework density 19.095288
#
# number of rings (size 3 to 8) (size 9 to 14) (size 15 to 20)
#    0.000    2.000    0.000    6.750    0.000    3.500 
#    0.000    0.000    0.000   13.500    0.000    0.000 
#    0.000   10.000    0.000    0.000    0.000    0.000 
#
# Total GULP energy -792891.098901 kJ/mol
# GULP energy per Si atom -12388.923420 kJ/mol
# Density = 1.905183 g / cm^3
# Si number density = 19.095288 Si / 1000 Ang^3
#
#
#
# Elastic Constant Matrix: (Units=GPa)
#
#
# Indices 1 2 3 4 5 6 
#
# 1 132.3866 39.2268 4.5658 0.0000 0.0000 0.0000
# 2 39.2268 107.8670 28.9594 0.0000 0.0000 0.0000
# 3 4.5658 28.9594 19.7563 0.0000 0.0000 0.0000
# 4 0.0000 0.0000 0.0000 21.5913 0.0000 0.0000
# 5 0.0000 0.0000 0.0000 0.0000 20.9195 0.0000
# 6 0.0000 0.0000 0.0000 0.0000 0.0000 35.7350
#
#
#
# Elastic Compliance Matrix: (Units=1/GPa)
#
#
# Indices 1 2 3 4 5 6 
#
# 1 0.008684 -0.004319 0.004324 0.000000 0.000000 0.000000
# 2 -0.004319 0.017434 -0.024558 0.000000 0.000000 0.000000
# 3 0.004324 -0.024558 0.085615 0.000000 0.000000 0.000000
# 4 0.000000 0.000000 0.000000 0.046315 0.000000 0.000000
# 5 0.000000 0.000000 0.000000 0.000000 0.047802 0.000000
# 6 0.000000 0.000000 0.000000 0.000000 0.000000 0.027984
#
#
# Mechanical properties :
#
#
# Convention : Reuss Voigt Hill
#
# Bulk Modulus (GPa) = 15.96734 45.05711 30.51222
# Shear Modulus (GPa) = 16.45732 28.13300 22.29516
#
# Velocity S-wave (km/s) = 2.93892 3.84252 3.42069
# Velocity P-wave (km/s) = 4.46054 6.58284 5.62273
#
# Compressibility (1/GPa) = 0.06262785
#
# Stress axis : x y z
#
# Youngs Moduli (GPa) = 115.15117 57.35792 11.68022
#
# Poissons Ratio (x) = 0.24773 -0.05050
# Poissons Ratio (y) = 0.49733 0.28684
# Poissons Ratio (z) = -0.49789 1.40858
#
# Static dielectric constant tensor:
#      x y z
#    x 4.228940 0.000000 0.000000 
#    y 0.000000 3.414420 0.000000 
#    z 0.000000 0.000000 3.273270 
# 
# 
# High freq. dielectric constant tensor:
#      x y z
#    x 1.783660 0.000000 0.000000 
#    y 0.000000 1.718820 0.000000 
#    z 0.000000 0.000000 1.709120 
# 
# From -- ./inp_files/23377.got.cif
#   From: 2010.03.12/outbox.cif.g09.slc.cpg/sg55_12_cif.got.tgz:23377.got - 2010.04.16 15:19:21.
