data_PCOD8224382
_publ_section_title
;
Structure prediction by ZEFSAII (Michael W. Deem and Ramdas Pophale) SiO2 
 PCOD8224382
Probable space group: P B A M
;
_chemical_formula_sum "Si O2"
_cell_formula_units_Z 56
_cell_length_a 13.364166
_cell_length_b 29.021285
_cell_length_c 9.021635
_cell_angle_alpha 90.000000
_cell_angle_beta 90.000000
_cell_angle_gamma 90.000000
_cell_volume 3498.998465
_symmetry_space_group_name_H-M "P B A M"
_symmetry_group_IT_number 55
_symmetry_cell_setting 'orthorhombic'
loop_
_space_group_symop_operation_xyz
x,y,z
-x,-y,z
1/2+x,1/2-y,-z
1/2-x,1/2+y,-z
-x,-y,-z
x,y,-z
1/2-x,1/2+y,z
1/2+x,1/2-y,z
loop_
_atom_site_type_symbol
_atom_site_label
_atom_site_fract_x
_atom_site_fract_y
_atom_site_fract_z
Si Si1 0.305158 0.318471 0.673413
Si Si2 0.114291 0.089275 0.828465
Si Si3 0.403559 0.234262 0.172384
Si Si4 0.617367 0.592825 0.173855
Si Si5 0.398424 0.768577 0.672052
Si Si6 0.881130 0.001131 0.666836
Si Si7 0.200158 0.186272 0.170877
O O1 0.329570 0.319823 0.500000
O O2 0.380304 0.282611 0.749145
O O3 0.319245 0.368255 0.744233
O O4 0.191046 0.303928 0.704697
O O5 0.180946 0.133389 0.786630
O O6 0.999292 0.100010 0.788240
O O7 0.158697 0.046625 0.735747
O O8 0.123113 0.075935 0.000000
O O9 0.504441 0.213062 0.241057
O O10 0.316260 0.197221 0.201466
O O11 0.418652 0.244432 0.000000
O O12 0.656816 0.543933 0.235286
O O13 0.638555 0.595216 0.000000
O O14 0.423963 0.765336 0.500000
O O15 0.370181 0.717767 0.728439
O O16 0.840002 0.006168 0.500000
O O17 0.000000 0.000000 0.669973
O O18 0.171663 0.195795 0.000000
#
# Coordination Sequence:
#
# PCOD8224382 Si02
#       7
#     8   8   8   8   8   8   8
#     4  10  20  32  46  66  91 119 152 187 224 266
#     4   9  17  29  44  64  90 117 147 182 219 261
#     4  10  19  31  47  66  90 120 152 186 223 265
#     4  10  18  28  45  67  91 120 150 182 221 264
#     4  10  20  32  46  65  91 121 151 187 226 263
#     4   9  17  28  42  62  89 119 148 179 217 262
#     4   9  18  31  47  67  90 118 152 187 223 264
#
# _framework density 16.004577999999999
#
# number of rings (size 3 to 8) (size 9 to 14) (size 15 to 20)
#    0.000    2.429    0.000    3.000    0.000    6.286 
#    0.000    0.000    0.000    0.000    0.000    1.000 
#    0.000    8.000    0.000    0.000    0.000    0.000 
#
# Total GULP energy -694543.817676 kJ/mol
# GULP energy per Si atom -12402.568173 kJ/mol
# Density = 1.596815 g / cm^3
# Si number density = 16.004578 Si / 1000 Ang^3
#
#
#
# Elastic Constant Matrix: (Units=GPa)
#
#
# Indices 1 2 3 4 5 6 
#
# 1 71.6243 43.2526 46.2259 0.0000 0.0000 0.0000
# 2 43.2526 125.5008 58.7734 0.0000 0.0000 0.0000
# 3 46.2259 58.7734 101.1853 0.0000 0.0000 0.0000
# 4 0.0000 0.0000 0.0000 29.6913 0.0000 0.0000
# 5 0.0000 0.0000 0.0000 0.0000 23.8044 0.0000
# 6 0.0000 0.0000 0.0000 0.0000 0.0000 19.0053
#
#
#
# Elastic Compliance Matrix: (Units=1/GPa)
#
#
# Indices 1 2 3 4 5 6 
#
# 1 0.021025 -0.003775 -0.007413 0.000000 0.000000 0.000000
# 2 -0.003775 0.011623 -0.005027 0.000000 0.000000 0.000000
# 3 -0.007413 -0.005027 0.016189 0.000000 0.000000 0.000000
# 4 0.000000 0.000000 0.000000 0.033680 0.000000 0.000000
# 5 0.000000 0.000000 0.000000 0.000000 0.042009 0.000000
# 6 0.000000 0.000000 0.000000 0.000000 0.000000 0.052617
#
#
# Mechanical properties :
#
#
# Convention : Reuss Voigt Hill
#
# Bulk Modulus (GPa) = 60.94204 66.09048 63.51626
# Shear Modulus (GPa) = 23.25129 24.50410 23.87770
#
# Velocity S-wave (km/s) = 3.81568 3.91713 3.86674
# Velocity P-wave (km/s) = 7.58770 7.86403 7.72710
#
# Compressibility (1/GPa) = 0.01640904
#
# Stress axis : x y z
#
# Youngs Moduli (GPa) = 47.56161 86.03544 61.76969
#
# Poissons Ratio (x) = 0.32476 0.45788
# Poissons Ratio (y) = 0.17953 0.31051
# Poissons Ratio (z) = 0.35256 0.43249
#
# Static dielectric constant tensor:
#      x y z
#    x 2.855930 0.000000 0.000000 
#    y 0.000000 3.017170 0.000000 
#    z 0.000000 0.000000 3.181560 
# 
# 
# High freq. dielectric constant tensor:
#      x y z
#    x 1.582460 0.000000 0.000000 
#    y 0.000000 1.609580 0.000000 
#    z 0.000000 0.000000 1.631210 
# 
# From -- ./inp_files/6851.got.cif
#   From: 2010.03.12/outbox.cif.g09.slc.cpg/sg55_4_cif.got.tgz:6851.got - 2010.04.16 15:19:21.
