data_PCOD8224572
_publ_section_title
;
Structure prediction by ZEFSAII (Michael W. Deem and Ramdas Pophale) SiO2 
 PCOD8224572
Probable space group: P B A M
;
_chemical_formula_sum "Si O2"
_cell_formula_units_Z 40
_cell_length_a 13.844972
_cell_length_b 9.178274
_cell_length_c 15.358677
_cell_angle_alpha 90.000000
_cell_angle_beta 90.000000
_cell_angle_gamma 90.000000
_cell_volume 1951.672341
_symmetry_space_group_name_H-M "P B A M"
_symmetry_group_IT_number 55
_symmetry_cell_setting 'orthorhombic'
loop_
_space_group_symop_operation_xyz
x,y,z
-x,-y,z
1/2+x,1/2-y,-z
1/2-x,1/2+y,-z
-x,-y,-z
x,y,-z
1/2-x,1/2+y,z
1/2+x,1/2-y,z
loop_
_atom_site_type_symbol
_atom_site_label
_atom_site_fract_x
_atom_site_fract_y
_atom_site_fract_z
Si Si1 0.558948 0.360774 0.221353
Si Si2 0.546990 0.846536 0.904891
Si Si3 0.380560 0.650897 0.404595
Si Si4 0.212490 0.639850 0.222130
Si Si5 0.252291 0.395212 0.660759
O O1 0.500000 0.500000 0.189058
O O2 0.521054 0.228478 0.165300
O O3 0.542336 0.335132 0.325760
O O4 0.673016 0.376976 0.204475
O O5 0.655778 0.860702 0.868447
O O6 0.500000 0.000000 0.920815
O O7 0.552161 0.767549 0.000000
O O8 0.430961 0.650413 0.500000
O O9 0.323280 0.497962 0.394689
O O10 0.309704 0.790834 0.401807
O O11 0.182343 0.500544 0.281498
O O12 0.188168 0.790374 0.272818
#
# Coordination Sequence:
#
# PCOD8224572 Si02
#       5
#     8   8   8   8   8
#     4  10  22  39  58  84 117 151 187 231 284 337
#     4  11  23  38  59  85 111 145 190 236 286 345
#     4  10  18  31  54  84 116 151 192 234 277 330
#     4  10  19  38  59  79 112 154 187 231 289 338
#     4   8  17  32  55  80 110 150 188 230 283 333
#
# _framework density 20.495242999999999
#
# number of rings (size 3 to 8) (size 9 to 14) (size 15 to 20)
#    0.000    2.600    0.000    5.400    0.000    1.600 
#    0.000    5.000    0.000   10.200    0.000    0.000 
#    0.000    0.000    0.000    0.000    0.000    0.000 
#
# Total GULP energy -495593.973607 kJ/mol
# GULP energy per Si atom -12389.849340 kJ/mol
# Density = 2.044859 g / cm^3
# Si number density = 20.495243 Si / 1000 Ang^3
#
#
#
# Elastic Constant Matrix: (Units=GPa)
#
#
# Indices 1 2 3 4 5 6 
#
# 1 83.8522 19.7490 49.2530 0.0000 0.0000 0.0000
# 2 19.7490 119.4386 42.5083 0.0000 0.0000 0.0000
# 3 49.2530 42.5083 156.8597 0.0000 0.0000 0.0000
# 4 0.0000 0.0000 0.0000 16.4281 0.0000 0.0000
# 5 0.0000 0.0000 0.0000 0.0000 34.8262 0.0000
# 6 0.0000 0.0000 0.0000 0.0000 0.0000 22.4029
#
#
#
# Elastic Compliance Matrix: (Units=1/GPa)
#
#
# Indices 1 2 3 4 5 6 
#
# 1 0.014704 -0.000872 -0.004381 0.000000 0.000000 0.000000
# 2 -0.000872 0.009318 -0.002251 0.000000 0.000000 0.000000
# 3 -0.004381 -0.002251 0.008361 0.000000 0.000000 0.000000
# 4 0.000000 0.000000 0.000000 0.060871 0.000000 0.000000
# 5 0.000000 0.000000 0.000000 0.000000 0.028714 0.000000
# 6 0.000000 0.000000 0.000000 0.000000 0.000000 0.044637
#
#
# Mechanical properties :
#
#
# Convention : Reuss Voigt Hill
#
# Bulk Modulus (GPa) = 57.55525 64.79677 61.17601
# Shear Modulus (GPa) = 26.68016 31.30746 28.99381
#
# Velocity S-wave (km/s) = 3.61192 3.91263 3.76528
# Velocity P-wave (km/s) = 6.74818 7.21773 6.98690
#
# Compressibility (1/GPa) = 0.01737461
#
# Stress axis : x y z
#
# Youngs Moduli (GPa) = 68.00734 107.31976 119.60709
#
# Poissons Ratio (x) = 0.09361 0.52396
# Poissons Ratio (y) = 0.05932 0.26926
# Poissons Ratio (z) = 0.29792 0.24160
#
# Static dielectric constant tensor:
#      x y z
#    x 3.384810 0.000000 0.000000 
#    y 0.000000 3.604470 0.000000 
#    z 0.000000 0.000000 3.818860 
# 
# 
# High freq. dielectric constant tensor:
#      x y z
#    x 1.773510 0.000000 0.000000 
#    y 0.000000 1.816940 0.000000 
#    z 0.000000 0.000000 1.796430 
# 
# From -- ./inp_files/18741.got.cif
#   From: 2010.03.12/outbox.cif.g09.slc.cpg/sg55_10_cif.got.tgz:18741.got - 2010.04.16 15:19:21.
