data_PCOD8224989
_publ_section_title
;
Structure prediction by ZEFSAII (Michael W. Deem and Ramdas Pophale) SiO2 
 PCOD8224989
Probable space group: P B A M
;
_chemical_formula_sum "Si O2"
_cell_formula_units_Z 56
_cell_length_a 18.941469
_cell_length_b 18.465889
_cell_length_c 8.862704
_cell_angle_alpha 90.000000
_cell_angle_beta 90.000000
_cell_angle_gamma 90.000000
_cell_volume 3099.917408
_symmetry_space_group_name_H-M "P B A M"
_symmetry_group_IT_number 55
_symmetry_cell_setting 'orthorhombic'
loop_
_space_group_symop_operation_xyz
x,y,z
-x,-y,z
1/2+x,1/2-y,-z
1/2-x,1/2+y,-z
-x,-y,-z
x,y,-z
1/2-x,1/2+y,z
1/2+x,1/2-y,z
loop_
_atom_site_type_symbol
_atom_site_label
_atom_site_fract_x
_atom_site_fract_y
_atom_site_fract_z
Si Si1 0.395907 0.611647 0.177279
Si Si2 0.568422 0.963093 0.325425
Si Si3 0.252890 0.153807 0.175471
Si Si4 0.387674 0.194579 0.678392
Si Si5 0.456561 0.330594 0.178693
Si Si6 0.848352 0.045224 0.178308
Si Si7 0.280480 0.003458 0.675074
O O1 0.330319 0.666080 0.214611
O O2 0.467678 0.644583 0.245489
O O3 0.382287 0.530175 0.238439
O O4 0.406033 0.603700 0.000000
O O5 0.551096 0.951528 0.500000
O O6 0.584487 0.883060 0.259496
O O7 0.636503 0.016107 0.304188
O O8 0.500000 0.000000 0.246033
O O9 0.306276 0.205894 0.266867
O O10 0.266670 0.071265 0.217986
O O11 0.267572 0.166537 0.000000
O O12 0.388220 0.198959 0.500000
O O13 0.438335 0.254834 0.745786
O O14 0.399311 0.390095 0.226941
O O15 0.458751 0.320368 0.000000
O O16 0.773009 0.058298 0.263948
O O17 0.835110 0.044072 0.000000
O O18 0.265485 0.022244 0.500000
#
# Coordination Sequence:
#
# PCOD8224989 Si02
#       7
#     8   8   8   8   8   8   8
#     4   8  15  29  51  75  94 120 164 208 240 280
#     4   8  15  30  51  70  89 119 159 200 242 288
#     4   9  16  30  52  71  90 121 160 199 240 289
#     4  10  20  33  49  71  98 127 162 202 247 300
#     4  10  19  32  50  71  99 132 163 199 245 294
#     4   9  17  30  49  71  96 129 166 200 236 286
#     4   9  16  27  47  73  97 120 151 196 243 287
#
# _framework density 18.064997000000002
#
# number of rings (size 3 to 8) (size 9 to 14) (size 15 to 20)
#    0.000    3.000    0.000    3.429    0.000    2.286 
#    0.000    5.000    0.000   23.143    0.000    0.000 
#    0.000    0.000    0.000    0.000    0.000    0.000 
#
# Total GULP energy -693849.410457 kJ/mol
# GULP energy per Si atom -12390.168044 kJ/mol
# Density = 1.802388 g / cm^3
# Si number density = 18.064997 Si / 1000 Ang^3
#
#
#
# Elastic Constant Matrix: (Units=GPa)
#
#
# Indices 1 2 3 4 5 6 
#
# 1 170.5934 64.2921 40.1185 0.0000 0.0000 0.0000
# 2 64.2921 70.6152 23.8849 0.0000 0.0000 0.0000
# 3 40.1185 23.8849 29.5897 0.0000 0.0000 0.0000
# 4 0.0000 0.0000 0.0000 19.5970 0.0000 0.0000
# 5 0.0000 0.0000 0.0000 0.0000 21.3199 0.0000
# 6 0.0000 0.0000 0.0000 0.0000 0.0000 21.4088
#
#
#
# Elastic Compliance Matrix: (Units=1/GPa)
#
#
# Indices 1 2 3 4 5 6 
#
# 1 0.010377 -0.006450 -0.008863 0.000000 0.000000 0.000000
# 2 -0.006450 0.023489 -0.010215 0.000000 0.000000 0.000000
# 3 -0.008863 -0.010215 0.054058 0.000000 0.000000 0.000000
# 4 0.000000 0.000000 0.000000 0.051028 0.000000 0.000000
# 5 0.000000 0.000000 0.000000 0.000000 0.046905 0.000000
# 6 0.000000 0.000000 0.000000 0.000000 0.000000 0.046710
#
#
# Mechanical properties :
#
#
# Convention : Reuss Voigt Hill
#
# Bulk Modulus (GPa) = 27.12424 58.59882 42.86153
# Shear Modulus (GPa) = 16.89693 21.96534 19.43113
#
# Velocity S-wave (km/s) = 3.06165 3.49077 3.28323
# Velocity P-wave (km/s) = 5.24840 6.98251 6.17661
#
# Compressibility (1/GPa) = 0.03686740
#
# Stress axis : x y z
#
# Youngs Moduli (GPa) = 96.36663 42.57317 18.49871
#
# Poissons Ratio (x) = 0.27460 0.16395
# Poissons Ratio (y) = 0.62157 0.18897
# Poissons Ratio (z) = 0.85409 0.43490
#
# Static dielectric constant tensor:
#      x y z
#    x 3.986260 0.000000 0.000000 
#    y 0.000000 3.130880 0.000000 
#    z 0.000000 0.000000 3.112710 
# 
# 
# High freq. dielectric constant tensor:
#      x y z
#    x 1.718720 0.000000 0.000000 
#    y 0.000000 1.659810 0.000000 
#    z 0.000000 0.000000 1.676150 
# 
# From -- ./inp_files/7887.got.cif
#   From: 2010.03.12/outbox.cif.g09.slc.cpg/sg55_4_cif.got.tgz:7887.got - 2010.04.16 15:19:21.
