data_PCOD8224579
_publ_section_title
;
Structure prediction by ZEFSAII (Michael W. Deem and Ramdas Pophale) SiO2 
 PCOD8224579
Probable space group: P B A M
;
_chemical_formula_sum "Si O2"
_cell_formula_units_Z 56
_cell_length_a 14.596167
_cell_length_b 22.279378
_cell_length_c 8.763091
_cell_angle_alpha 90.000000
_cell_angle_beta 90.000000
_cell_angle_gamma 90.000000
_cell_volume 2849.700425
_symmetry_space_group_name_H-M "P B A M"
_symmetry_group_IT_number 55
_symmetry_cell_setting 'orthorhombic'
loop_
_space_group_symop_operation_xyz
x,y,z
-x,-y,z
1/2+x,1/2-y,-z
1/2-x,1/2+y,-z
-x,-y,-z
x,y,-z
1/2-x,1/2+y,z
1/2+x,1/2-y,z
loop_
_atom_site_type_symbol
_atom_site_label
_atom_site_fract_x
_atom_site_fract_y
_atom_site_fract_z
Si Si1 0.903897 0.475269 0.319253
Si Si2 0.422191 0.385794 0.822824
Si Si3 0.270222 0.474126 0.825470
Si Si4 0.175531 0.190217 0.667518
Si Si5 0.590544 0.439948 0.330697
Si Si6 0.868104 0.341873 0.318124
Si Si7 0.509748 0.733176 0.318118
O O1 0.907272 0.472768 0.500000
O O2 0.822389 0.520118 0.272113
O O3 0.887489 0.408237 0.252125
O O4 0.000000 0.500000 0.253884
O O5 0.317666 0.408979 0.800497
O O6 0.488529 0.434001 0.739023
O O7 0.428374 0.319336 0.753514
O O8 0.449880 0.383944 0.000000
O O9 0.344265 0.523561 0.780286
O O10 0.242938 0.484289 0.000000
O O11 0.194796 0.217365 0.500000
O O12 0.132788 0.125132 0.654049
O O13 0.273395 0.185294 0.753903
O O14 0.095575 0.230785 0.746073
O O15 0.585407 0.469277 0.500000
O O16 0.856793 0.346271 0.500000
O O17 0.950108 0.297636 0.270558
O O18 0.510242 0.723667 0.500000
#
# Coordination Sequence:
#
# PCOD8224579 Si02
#       7
#     8   8   8   8   8   8   8
#     4  10  21  38  59  83 108 140 187 241 284 326
#     4  10  21  35  50  76 117 149 177 222 273 329
#     4  11  22  35  53  78 111 151 181 216 275 335
#     4   8  14  27  49  75 103 134 168 216 271 320
#     4  10  18  31  55  83 109 139 180 224 269 326
#     4   9  16  32  55  79 108 136 174 231 280 320
#     4   9  18  32  53  79 104 140 186 224 273 331
#
# _framework density 19.651188000000001
#
# number of rings (size 3 to 8) (size 9 to 14) (size 15 to 20)
#    0.000    2.429    1.429    2.571    0.000    4.286 
#    2.571    0.714    0.000    0.000    0.000    0.000 
#    0.000    0.000    0.000    0.000    0.000    0.000 
#
# Total GULP energy -694004.650993 kJ/mol
# GULP energy per Si atom -12392.940196 kJ/mol
# Density = 1.960646 g / cm^3
# Si number density = 19.651188 Si / 1000 Ang^3
#
#
#
# Elastic Constant Matrix: (Units=GPa)
#
#
# Indices 1 2 3 4 5 6 
#
# 1 144.4329 69.2785 11.6369 0.0000 0.0000 0.0000
# 2 69.2785 66.4608 19.5395 0.0000 0.0000 0.0000
# 3 11.6369 19.5395 30.4794 0.0000 0.0000 0.0000
# 4 0.0000 0.0000 0.0000 14.5157 0.0000 0.0000
# 5 0.0000 0.0000 0.0000 0.0000 18.5732 0.0000
# 6 0.0000 0.0000 0.0000 0.0000 0.0000 20.8368
#
#
#
# Elastic Compliance Matrix: (Units=1/GPa)
#
#
# Indices 1 2 3 4 5 6 
#
# 1 0.014464 -0.016579 0.005106 0.000000 0.000000 0.000000
# 2 -0.016579 0.037543 -0.017738 0.000000 0.000000 0.000000
# 3 0.005106 -0.017738 0.042231 0.000000 0.000000 0.000000
# 4 0.000000 0.000000 0.000000 0.068891 0.000000 0.000000
# 5 0.000000 0.000000 0.000000 0.000000 0.053841 0.000000
# 6 0.000000 0.000000 0.000000 0.000000 0.000000 0.047992
#
#
# Mechanical properties :
#
#
# Convention : Reuss Voigt Hill
#
# Bulk Modulus (GPa) = 27.92023 49.14257 38.53140
# Shear Modulus (GPa) = 14.91095 20.17967 17.54531
#
# Velocity S-wave (km/s) = 2.75759 3.20799 2.99128
# Velocity P-wave (km/s) = 4.93739 6.22763 5.61966
#
# Compressibility (1/GPa) = 0.03581633
#
# Stress axis : x y z
#
# Youngs Moduli (GPa) = 69.13526 26.63604 23.67917
#
# Poissons Ratio (x) = 0.44159 -0.12090
# Poissons Ratio (y) = 1.14617 0.42003
# Poissons Ratio (z) = -0.35299 0.47248
#
# Static dielectric constant tensor:
#      x y z
#    x 3.885790 0.000000 0.000000 
#    y 0.000000 3.536890 0.000000 
#    z 0.000000 0.000000 3.304400 
# 
# 
# High freq. dielectric constant tensor:
#      x y z
#    x 1.773540 0.000000 0.000000 
#    y 0.000000 1.750140 0.000000 
#    z 0.000000 0.000000 1.729700 
# 
# From -- ./inp_files/6053.got.cif
#   From: 2010.03.12/outbox.cif.g09.slc.cpg/sg55_4_cif.got.tgz:6053.got - 2010.04.16 15:19:21.
