data_PCOD8224873
_publ_section_title
;
Structure prediction by ZEFSAII (Michael W. Deem and Ramdas Pophale) SiO2 
 PCOD8224873
Probable space group: P B A M
;
_chemical_formula_sum "Si O2"
_cell_formula_units_Z 64
_cell_length_a 23.379749
_cell_length_b 18.754397
_cell_length_c 9.315399
_cell_angle_alpha 90.000000
_cell_angle_beta 90.000000
_cell_angle_gamma 90.000000
_cell_volume 4084.551826
_symmetry_space_group_name_H-M "P B A M"
_symmetry_group_IT_number 55
_symmetry_cell_setting 'orthorhombic'
loop_
_space_group_symop_operation_xyz
x,y,z
-x,-y,z
1/2+x,1/2-y,-z
1/2-x,1/2+y,-z
-x,-y,-z
x,y,-z
1/2-x,1/2+y,z
1/2+x,1/2-y,z
loop_
_atom_site_type_symbol
_atom_site_label
_atom_site_fract_x
_atom_site_fract_y
_atom_site_fract_z
Si Si1 0.728801 0.138432 0.335894
Si Si2 0.064540 0.130056 0.336254
Si Si3 0.934312 0.134786 0.334743
Si Si4 0.244100 0.994655 0.165390
Si Si5 0.386392 0.498435 0.170775
Si Si6 0.169658 0.222289 0.664866
Si Si7 0.664868 0.736587 0.334683
Si Si8 0.729657 0.847242 0.833073
O O1 0.728199 0.114299 0.500000
O O2 0.677178 0.193576 0.300694
O O3 0.788527 0.176391 0.295985
O O4 0.720848 0.067246 0.244244
O O5 0.071751 0.102933 0.500000
O O6 0.080576 0.066603 0.230630
O O7 0.104489 0.198871 0.307250
O O8 0.000013 0.155118 0.306793
O O9 0.923476 0.111548 0.500000
O O10 0.897391 0.205130 0.298137
O O11 0.916934 0.071295 0.230682
O O12 0.179218 0.000602 0.223876
O O13 0.277729 0.068344 0.191243
O O14 0.242046 0.973796 0.000000
O O15 0.391245 0.499368 0.000000
O O16 0.188530 0.208803 0.500000
O O17 0.210303 0.175516 0.764792
O O18 0.670337 0.759333 0.500000
O O19 0.676186 0.806794 0.239519
O O20 0.731589 0.827711 0.000000
#
# Coordination Sequence:
#
# PCOD8224873 Si02
#       8
#     8   8   8   8   8   8   8   8
#     4   9  17  29  47  67  89 117 149 189 231 273
#     4  10  20  33  50  67  91 128 163 194 230 272
#     4  10  20  34  49  67  92 126 164 195 228 273
#     4  10  20  31  44  67  95 123 153 185 228 275
#     4  11  21  32  44  65  98 130 161 195 227 265
#     4   9  18  32  47  68  92 118 154 193 231 271
#     4   9  18  32  47  67  92 118 153 194 232 272
#     4  10  19  31  47  67  92 120 152 189 231 278
#
# _framework density 15.668794
#
# number of rings (size 3 to 8) (size 9 to 14) (size 15 to 20)
#    0.000    2.250    2.500    1.875    0.000    6.000 
#    0.000    0.000    0.000    0.000    0.000    0.875 
#    0.000    7.000    0.000    0.000    0.000    0.000 
#
# Total GULP energy -793605.371491 kJ/mol
# GULP energy per Si atom -12400.083930 kJ/mol
# Density = 1.563313 g / cm^3
# Si number density = 15.668794 Si / 1000 Ang^3
#
#
#
# Elastic Constant Matrix: (Units=GPa)
#
#
# Indices 1 2 3 4 5 6 
#
# 1 93.1557 59.1287 40.2338 0.0000 0.0000 0.0000
# 2 59.1287 106.4539 59.1929 0.0000 0.0000 0.0000
# 3 40.2338 59.1929 71.7505 0.0000 0.0000 0.0000
# 4 0.0000 0.0000 0.0000 25.5106 0.0000 0.0000
# 5 0.0000 0.0000 0.0000 0.0000 16.7079 0.0000
# 6 0.0000 0.0000 0.0000 0.0000 0.0000 21.3399
#
#
#
# Elastic Compliance Matrix: (Units=1/GPa)
#
#
# Indices 1 2 3 4 5 6 
#
# 1 0.016972 -0.007640 -0.003215 0.000000 0.000000 0.000000
# 2 -0.007640 0.020794 -0.012870 0.000000 0.000000 0.000000
# 3 -0.003215 -0.012870 0.026358 0.000000 0.000000 0.000000
# 4 0.000000 0.000000 0.000000 0.039199 0.000000 0.000000
# 5 0.000000 0.000000 0.000000 0.000000 0.059852 0.000000
# 6 0.000000 0.000000 0.000000 0.000000 0.000000 0.046861
#
#
# Mechanical properties :
#
#
# Convention : Reuss Voigt Hill
#
# Bulk Modulus (GPa) = 59.97298 65.38563 62.67931
# Shear Modulus (GPa) = 19.00833 20.23200 19.62017
#
# Velocity S-wave (km/s) = 3.48678 3.59727 3.54246
# Velocity P-wave (km/s) = 7.38707 7.68597 7.53800
#
# Compressibility (1/GPa) = 0.01667418
#
# Stress axis : x y z
#
# Youngs Moduli (GPa) = 58.92010 48.09173 37.93967
#
# Poissons Ratio (x) = 0.36740 0.12196
# Poissons Ratio (y) = 0.45012 0.48830
# Poissons Ratio (z) = 0.18940 0.61896
#
# Static dielectric constant tensor:
#      x y z
#    x 2.960200 0.000000 0.000000 
#    y 0.000000 2.961480 0.000000 
#    z 0.000000 0.000000 3.010570 
# 
# 
# High freq. dielectric constant tensor:
#      x y z
#    x 1.577830 0.000000 0.000000 
#    y 0.000000 1.591300 0.000000 
#    z 0.000000 0.000000 1.606660 
# 
# From -- ./inp_files/8142.got.cif
#   From: 2010.03.12/outbox.cif.g09.slc.cpg/sg55_5_cif.got.tgz:8142.got - 2010.04.16 15:19:21.
