data_PCOD8224971
_publ_section_title
;
Structure prediction by ZEFSAII (Michael W. Deem and Ramdas Pophale) SiO2 
 PCOD8224971
Probable space group: P B A M
;
_chemical_formula_sum "Si O2"
_cell_formula_units_Z 64
_cell_length_a 18.989671
_cell_length_b 20.314345
_cell_length_c 9.106668
_cell_angle_alpha 90.000000
_cell_angle_beta 90.000000
_cell_angle_gamma 90.000000
_cell_volume 3513.013092
_symmetry_space_group_name_H-M "P B A M"
_symmetry_group_IT_number 55
_symmetry_cell_setting 'orthorhombic'
loop_
_space_group_symop_operation_xyz
x,y,z
-x,-y,z
1/2+x,1/2-y,-z
1/2-x,1/2+y,-z
-x,-y,-z
x,y,-z
1/2-x,1/2+y,z
1/2+x,1/2-y,z
loop_
_atom_site_type_symbol
_atom_site_label
_atom_site_fract_x
_atom_site_fract_y
_atom_site_fract_z
Si Si1 0.973637 0.810776 0.670951
Si Si2 0.538621 0.813611 0.826011
Si Si3 0.035464 0.431636 0.330688
Si Si4 0.536925 0.567958 0.832540
Si Si5 0.817755 0.511197 0.332478
Si Si6 0.828544 0.871080 0.330642
Si Si7 0.328471 0.139851 0.330340
Si Si8 0.319445 0.495757 0.167477
O O1 0.989275 0.797820 0.500000
O O2 0.889639 0.817910 0.699503
O O3 0.001089 0.751121 0.767030
O O4 0.012966 0.876831 0.719360
O O5 0.493589 0.875784 0.774382
O O6 0.618587 0.816997 0.767038
O O7 0.540548 0.811096 0.000000
O O8 0.018249 0.413753 0.500000
O O9 0.118955 0.438136 0.304201
O O10 0.000000 0.500000 0.287174
O O11 0.500000 0.500000 0.788863
O O12 0.620828 0.559575 0.815934
O O13 0.516913 0.587586 0.000000
O O14 0.792705 0.513095 0.500000
O O15 0.841985 0.436962 0.294195
O O16 0.751807 0.533637 0.235765
O O17 0.826713 0.892521 0.500000
O O18 0.752055 0.841133 0.287948
O O19 0.845157 0.936926 0.241650
O O20 0.344556 0.155188 0.500000
O O21 0.304459 0.513209 0.000000
#
# Coordination Sequence:
#
# PCOD8224971 Si02
#       8
#     8   8   8   8   8   8   8   8
#     4  11  23  39  60  84 111 149 195 238 278 330
#     4  12  25  38  55  84 119 151 186 232 284 340
#     4  10  19  37  61  82 109 147 187 229 280 330
#     4  10  20  36  56  82 117 151 182 224 283 337
#     4   9  18  33  56  83 112 146 186 234 279 326
#     4   9  19  35  57  83 109 141 187 235 276 327
#     4   9  17  35  58  81 110 145 186 228 276 333
#     4  10  19  31  53  83 117 151 181 225 283 337
#
# _framework density 18.217979
#
# number of rings (size 3 to 8) (size 9 to 14) (size 15 to 20)
#    0.000    2.000    2.500    2.625    0.000    4.500 
#    0.000    1.250    0.000    1.500    0.000    0.000 
#    0.000    0.000    0.000    0.000    0.000    0.000 
#
# Total GULP energy -793679.218724 kJ/mol
# GULP energy per Si atom -12401.237793 kJ/mol
# Density = 1.817651 g / cm^3
# Si number density = 18.217979 Si / 1000 Ang^3
#
#
#
# Elastic Constant Matrix: (Units=GPa)
#
#
# Indices 1 2 3 4 5 6 
#
# 1 125.2869 56.1480 64.4331 0.0000 0.0000 0.0000
# 2 56.1480 79.9400 53.5465 0.0000 0.0000 0.0000
# 3 64.4331 53.5465 109.8302 0.0000 0.0000 0.0000
# 4 0.0000 0.0000 0.0000 27.3417 0.0000 0.0000
# 5 0.0000 0.0000 0.0000 0.0000 156.2417 0.0000
# 6 0.0000 0.0000 0.0000 0.0000 0.0000 24.3266
#
#
#
# Elastic Compliance Matrix: (Units=1/GPa)
#
#
# Indices 1 2 3 4 5 6 
#
# 1 0.013137 -0.006036 -0.004764 0.000000 0.000000 0.000000
# 2 -0.006036 0.021349 -0.006867 0.000000 0.000000 0.000000
# 3 -0.004764 -0.006867 0.015248 0.000000 0.000000 0.000000
# 4 0.000000 0.000000 0.000000 0.036574 0.000000 0.000000
# 5 0.000000 0.000000 0.000000 0.000000 0.006400 0.000000
# 6 0.000000 0.000000 0.000000 0.000000 0.000000 0.041107
#
#
# Mechanical properties :
#
#
# Convention : Reuss Voigt Hill
#
# Bulk Modulus (GPa) = 69.44969 73.70139 71.57554
# Shear Modulus (GPa) = 28.74392 50.97728 39.86060
#
# Velocity S-wave (km/s) = 3.97643 5.29553 4.68266
# Velocity P-wave (km/s) = 7.69980 8.82798 8.28312
#
# Compressibility (1/GPa) = 0.01439891
#
# Stress axis : x y z
#
# Youngs Moduli (GPa) = 76.12215 46.84100 65.58218
#
# Poissons Ratio (x) = 0.28272 0.31244
# Poissons Ratio (y) = 0.45946 0.45038
# Poissons Ratio (z) = 0.36266 0.32168
#
# Static dielectric constant tensor:
#      x y z
#    x 3.691030 0.000000 0.000000 
#    y 0.000000 3.407520 0.000000 
#    z 0.000000 0.000000 3.336200 
# 
# 
# High freq. dielectric constant tensor:
#      x y z
#    x 1.724590 0.000000 0.000000 
#    y 0.000000 1.672880 0.000000 
#    z 0.000000 0.000000 1.705680 
# 
# From -- ./inp_files/8973.got.cif
#   From: 2010.03.12/outbox.cif.g09.slc.cpg/sg55_5_cif.got.tgz:8973.got - 2010.04.16 15:19:21.
