data_PCOD8224697
_publ_section_title
;
Structure prediction by ZEFSAII (Michael W. Deem and Ramdas Pophale) SiO2 
 PCOD8224697
Probable space group: P B A M
;
_chemical_formula_sum "Si O2"
_cell_formula_units_Z 48
_cell_length_a 17.994148
_cell_length_b 9.405110
_cell_length_c 13.607890
_cell_angle_alpha 90.000000
_cell_angle_beta 90.000000
_cell_angle_gamma 90.000000
_cell_volume 2302.957681
_symmetry_space_group_name_H-M "P B A M"
_symmetry_group_IT_number 55
_symmetry_cell_setting 'orthorhombic'
loop_
_space_group_symop_operation_xyz
x,y,z
-x,-y,z
1/2+x,1/2-y,-z
1/2-x,1/2+y,-z
-x,-y,-z
x,y,-z
1/2-x,1/2+y,z
1/2+x,1/2-y,z
loop_
_atom_site_type_symbol
_atom_site_label
_atom_site_fract_x
_atom_site_fract_y
_atom_site_fract_z
Si Si1 0.829956 0.998442 0.724143
Si Si2 0.919612 0.721496 0.271347
Si Si3 0.169668 0.562021 0.716084
Si Si4 0.165058 0.779772 0.888280
Si Si5 0.499137 0.654944 0.893620
Si Si6 0.929098 0.216864 0.385384
O O1 0.747920 0.998613 0.674850
O O2 0.818160 0.070617 0.832303
O O3 0.894774 0.076916 0.664049
O O4 0.853391 0.834404 0.720383
O O5 0.888388 0.564747 0.276528
O O6 0.947863 0.734131 0.160812
O O7 0.989014 0.746768 0.344616
O O8 0.187376 0.645400 0.819144
O O9 0.131627 0.662334 0.635767
O O10 0.077566 0.769918 0.900448
O O11 0.200664 0.774794 0.000000
O O12 0.500000 0.500000 0.838714
O O13 0.463081 0.628522 0.000000
O O14 0.937801 0.191135 0.500000
#
# Coordination Sequence:
#
# PCOD8224697 Si02
#       6
#     8   8   8   8   8   8
#     4  11  23  43  65  91 126 166 209 253 306 367
#     4  12  21  39  67  93 122 162 210 259 304 361
#     4  11  25  41  62  94 133 165 195 252 322 372
#     4  10  21  39  61  90 130 170 210 251 297 358
#     4  10  18  33  60  92 122 162 213 258 297 348
#     4  11  25  45  67  92 120 157 209 261 312 375
#
# _framework density 20.842763000000001
#
# number of rings (size 3 to 8) (size 9 to 14) (size 15 to 20)
#    0.000    1.167    5.000    3.000    0.000    4.667 
#    0.000    5.000    0.000    0.000    0.000    0.000 
#    0.000    0.000    0.000    0.000    0.000    0.000 
#
# Total GULP energy -594679.170384 kJ/mol
# GULP energy per Si atom -12389.149383 kJ/mol
# Density = 2.079532 g / cm^3
# Si number density = 20.842763 Si / 1000 Ang^3
#
#
#
# Elastic Constant Matrix: (Units=GPa)
#
#
# Indices 1 2 3 4 5 6 
#
# 1 93.7900 6.6218 19.1548 0.0000 0.0000 0.0000
# 2 6.6218 74.2597 17.8965 0.0000 0.0000 0.0000
# 3 19.1548 17.8965 100.4187 0.0000 0.0000 0.0000
# 4 0.0000 0.0000 0.0000 10.0018 0.0000 0.0000
# 5 0.0000 0.0000 0.0000 0.0000 10.5041 0.0000
# 6 0.0000 0.0000 0.0000 0.0000 0.0000 34.0389
#
#
#
# Elastic Compliance Matrix: (Units=1/GPa)
#
#
# Indices 1 2 3 4 5 6 
#
# 1 0.011112 -0.000502 -0.002030 0.000000 0.000000 0.000000
# 2 -0.000502 0.014093 -0.002416 0.000000 0.000000 0.000000
# 3 -0.002030 -0.002416 0.010776 0.000000 0.000000 0.000000
# 4 0.000000 0.000000 0.000000 0.099982 0.000000 0.000000
# 5 0.000000 0.000000 0.000000 0.000000 0.095201 0.000000
# 6 0.000000 0.000000 0.000000 0.000000 0.000000 0.029378
#
#
# Mechanical properties :
#
#
# Convention : Reuss Voigt Hill
#
# Bulk Modulus (GPa) = 38.33494 39.53496 38.93495
# Shear Modulus (GPa) = 17.91260 25.89532 21.90396
#
# Velocity S-wave (km/s) = 2.93476 3.52861 3.24530
# Velocity P-wave (km/s) = 5.46956 5.96748 5.72394
#
# Compressibility (1/GPa) = 0.02608587
#
# Stress axis : x y z
#
# Youngs Moduli (GPa) = 89.99145 70.95606 92.79754
#
# Poissons Ratio (x) = 0.03559 0.18840
# Poissons Ratio (y) = 0.04514 0.22420
# Poissons Ratio (z) = 0.18270 0.17143
#
# Static dielectric constant tensor:
#      x y z
#    x 3.781320 0.000000 0.000000 
#    y 0.000000 3.549430 0.000000 
#    z 0.000000 0.000000 3.917560 
# 
# 
# High freq. dielectric constant tensor:
#      x y z
#    x 1.822480 0.000000 0.000000 
#    y 0.000000 1.820800 0.000000 
#    z 0.000000 0.000000 1.796470 
# 
# From -- ./inp_files/19351.got.cif
#   From: 2010.03.12/outbox.cif.g09.slc.cpg/sg55_10_cif.got.tgz:19351.got - 2010.04.16 15:19:21.
