data_PCOD8224918
_publ_section_title
;
Structure prediction by ZEFSAII (Michael W. Deem and Ramdas Pophale) SiO2 
 PCOD8224918
Probable space group: P B A M
;
_chemical_formula_sum "Si O2"
_cell_formula_units_Z 56
_cell_length_a 19.374053
_cell_length_b 18.844350
_cell_length_c 9.170182
_cell_angle_alpha 90.000000
_cell_angle_beta 90.000000
_cell_angle_gamma 90.000000
_cell_volume 3347.954912
_symmetry_space_group_name_H-M "P B A M"
_symmetry_group_IT_number 55
_symmetry_cell_setting 'orthorhombic'
loop_
_space_group_symop_operation_xyz
x,y,z
-x,-y,z
1/2+x,1/2-y,-z
1/2-x,1/2+y,-z
-x,-y,-z
x,y,-z
1/2-x,1/2+y,z
1/2+x,1/2-y,z
loop_
_atom_site_type_symbol
_atom_site_label
_atom_site_fract_x
_atom_site_fract_y
_atom_site_fract_z
Si Si1 0.298946 0.973147 0.668072
Si Si2 0.479494 0.791704 0.827235
Si Si3 0.763089 0.367095 0.668233
Si Si4 0.632725 0.769374 0.172038
Si Si5 0.238001 0.848000 0.165613
Si Si6 0.939635 0.553979 0.171730
Si Si7 0.342653 0.722182 0.832591
O O1 0.313717 0.956646 0.500000
O O2 0.245660 0.915049 0.729422
O O3 0.370532 0.972529 0.752945
O O4 0.262964 0.048848 0.689699
O O5 0.554152 0.766168 0.770366
O O6 0.461725 0.869463 0.765089
O O7 0.421273 0.734976 0.778824
O O8 0.480463 0.797137 0.000000
O O9 0.767499 0.345027 0.500000
O O10 0.828667 0.333988 0.750017
O O11 0.691342 0.338188 0.733643
O O12 0.668826 0.694626 0.210196
O O13 0.637529 0.784588 0.000000
O O14 0.303696 0.796959 0.184381
O O15 0.233089 0.875444 0.000000
O O16 0.000000 0.500000 0.212180
O O17 0.925249 0.556673 0.000000
O O18 0.339430 0.696596 0.000000
#
# Coordination Sequence:
#
# PCOD8224918 Si02
#       7
#     8   8   8   8   8   8   8
#     4  11  22  33  47  69 101 137 167 203 245 287
#     4   9  16  30  51  76 101 124 158 203 249 296
#     4  10  21  34  47  69 101 132 168 207 241 289
#     4   9  18  33  54  76  98 127 162 204 251 296
#     4   9  17  31  51  74  97 124 166 207 242 294
#     4  10  19  31  50  74 102 134 163 195 242 303
#     4   9  17  32  53  74  96 125 164 209 250 293
#
# _framework density 16.72663
#
# number of rings (size 3 to 8) (size 9 to 14) (size 15 to 20)
#    0.000    2.429    1.429    2.571    0.000    6.000 
#    0.000    1.429    0.000    0.857    0.000    6.000 
#    0.000    0.000    0.000    0.000    0.000    0.000 
#
# Total GULP energy -694415.682404 kJ/mol
# GULP energy per Si atom -12400.280043 kJ/mol
# Density = 1.668856 g / cm^3
# Si number density = 16.726630 Si / 1000 Ang^3
#
#
#
# Elastic Constant Matrix: (Units=GPa)
#
#
# Indices 1 2 3 4 5 6 
#
# 1 114.1441 57.0181 38.4108 0.0000 0.0000 0.0000
# 2 57.0181 91.0416 46.0330 0.0000 0.0000 0.0000
# 3 38.4108 46.0330 58.9390 0.0000 0.0000 0.0000
# 4 0.0000 0.0000 0.0000 26.4837 0.0000 0.0000
# 5 0.0000 0.0000 0.0000 0.0000 10.0351 0.0000
# 6 0.0000 0.0000 0.0000 0.0000 0.0000 21.8088
#
#
#
# Elastic Compliance Matrix: (Units=1/GPa)
#
#
# Indices 1 2 3 4 5 6 
#
# 1 0.013182 -0.006465 -0.003541 0.000000 0.000000 0.000000
# 2 -0.006465 0.021323 -0.012441 0.000000 0.000000 0.000000
# 3 -0.003541 -0.012441 0.028991 0.000000 0.000000 0.000000
# 4 0.000000 0.000000 0.000000 0.037759 0.000000 0.000000
# 5 0.000000 0.000000 0.000000 0.000000 0.099650 0.000000
# 6 0.000000 0.000000 0.000000 0.000000 0.000000 0.045853
#
#
# Mechanical properties :
#
#
# Convention : Reuss Voigt Hill
#
# Bulk Modulus (GPa) = 53.75739 60.78316 57.27027
# Shear Modulus (GPa) = 16.78674 19.84305 18.31489
#
# Velocity S-wave (km/s) = 3.17139 3.44803 3.31260
# Velocity P-wave (km/s) = 6.75417 7.22979 6.99603
#
# Compressibility (1/GPa) = 0.01860209
#
# Stress axis : x y z
#
# Youngs Moduli (GPa) = 75.86056 46.89685 34.49320
#
# Poissons Ratio (x) = 0.30319 0.12215
# Poissons Ratio (y) = 0.49045 0.42912
# Poissons Ratio (z) = 0.26865 0.58343
#
# Static dielectric constant tensor:
#      x y z
#    x 3.328120 0.000000 0.000000 
#    y 0.000000 3.074030 0.000000 
#    z 0.000000 0.000000 3.020240 
# 
# 
# High freq. dielectric constant tensor:
#      x y z
#    x 1.642760 0.000000 0.000000 
#    y 0.000000 1.633540 0.000000 
#    z 0.000000 0.000000 1.630520 
# 
# From -- ./inp_files/7852.got.cif
#   From: 2010.03.12/outbox.cif.g09.slc.cpg/sg55_4_cif.got.tgz:7852.got - 2010.04.16 15:19:21.
