data_PCOD8224597
_publ_section_title
;
Structure prediction by ZEFSAII (Michael W. Deem and Ramdas Pophale) SiO2 
 PCOD8224597
Probable space group: P B A M
;
_chemical_formula_sum "Si O2"
_cell_formula_units_Z 64
_cell_length_a 22.892332
_cell_length_b 19.060161
_cell_length_c 8.679388
_cell_angle_alpha 90.000000
_cell_angle_beta 90.000000
_cell_angle_gamma 90.000000
_cell_volume 3787.090677
_symmetry_space_group_name_H-M "P B A M"
_symmetry_group_IT_number 55
_symmetry_cell_setting 'orthorhombic'
loop_
_space_group_symop_operation_xyz
x,y,z
-x,-y,z
1/2+x,1/2-y,-z
1/2-x,1/2+y,-z
-x,-y,-z
x,y,-z
1/2-x,1/2+y,z
1/2+x,1/2-y,z
loop_
_atom_site_type_symbol
_atom_site_label
_atom_site_fract_x
_atom_site_fract_y
_atom_site_fract_z
Si Si1 0.716088 0.631016 0.819994
Si Si2 0.262037 0.662078 0.320259
Si Si3 0.931395 0.628438 0.821004
Si Si4 0.349555 0.246905 0.682468
Si Si5 0.383826 0.008046 0.677843
Si Si6 0.826218 0.703434 0.320454
Si Si7 0.247055 0.008159 0.320721
Si Si8 0.934746 0.354106 0.819926
O O1 0.665171 0.673715 0.732456
O O2 0.780381 0.657248 0.773772
O O3 0.710670 0.549580 0.773173
O O4 0.706646 0.640106 0.000000
O O5 0.251497 0.651601 0.500000
O O6 0.203334 0.697975 0.255344
O O7 0.316740 0.713569 0.285491
O O8 0.271918 0.584364 0.251546
O O9 0.919614 0.547919 0.777609
O O10 0.891281 0.682189 0.725732
O O11 0.997338 0.647033 0.777341
O O12 0.918565 0.639283 0.000000
O O13 0.357546 0.243776 0.500000
O O14 0.408217 0.220351 0.766067
O O15 0.399500 0.996321 0.500000
O O16 0.315611 0.997215 0.707553
O O17 0.402043 0.085599 0.725910
O O18 0.815042 0.687607 0.500000
O O19 0.231276 0.000786 0.500000
O O20 0.924993 0.366862 0.000000
#
# Coordination Sequence:
#
# PCOD8224597 Si02
#       8
#     8   8   8   8   8   8   8   8
#     4  11  21  32  49  75 104 133 164 205 256 305
#     4   8  16  31  51  72  96 123 160 207 253 293
#     4  11  23  36  49  69 102 140 173 213 257 300
#     4  10  19  35  54  73  97 131 172 212 251 297
#     4  11  21  33  51  72  99 138 179 213 245 294
#     4  10  19  33  52  73  96 130 172 215 253 299
#     4  10  18  32  51  74 101 134 168 204 249 301
#     4  11  23  36  50  71 102 137 173 213 258 302
#
# _framework density 16.899516999999999
#
# number of rings (size 3 to 8) (size 9 to 14) (size 15 to 20)
#    0.000    1.750    2.500    4.125    0.000    4.000 
#    0.000    1.250    0.000    0.000    0.000    0.875 
#    0.000    7.000    0.000    0.000    0.000    0.000 
#
# Total GULP energy -793679.473991 kJ/mol
# GULP energy per Si atom -12401.241781 kJ/mol
# Density = 1.686105 g / cm^3
# Si number density = 16.899517 Si / 1000 Ang^3
#
#
#
# Elastic Constant Matrix: (Units=GPa)
#
#
# Indices 1 2 3 4 5 6 
#
# 1 34.5963 11.5255 19.8963 0.0000 0.0000 0.0000
# 2 11.5255 86.0798 24.3567 0.0000 0.0000 0.0000
# 3 19.8963 24.3567 42.3526 0.0000 0.0000 0.0000
# 4 0.0000 0.0000 0.0000 20.3929 0.0000 0.0000
# 5 0.0000 0.0000 0.0000 0.0000 21.9233 0.0000
# 6 0.0000 0.0000 0.0000 0.0000 0.0000 23.1926
#
#
#
# Elastic Compliance Matrix: (Units=1/GPa)
#
#
# Indices 1 2 3 4 5 6 
#
# 1 0.039605 -0.000046 -0.018579 0.000000 0.000000 0.000000
# 2 -0.000046 0.013875 -0.007958 0.000000 0.000000 0.000000
# 3 -0.018579 -0.007958 0.036916 0.000000 0.000000 0.000000
# 4 0.000000 0.000000 0.000000 0.049037 0.000000 0.000000
# 5 0.000000 0.000000 0.000000 0.000000 0.045613 0.000000
# 6 0.000000 0.000000 0.000000 0.000000 0.000000 0.043117
#
#
# Mechanical properties :
#
#
# Convention : Reuss Voigt Hill
#
# Bulk Modulus (GPa) = 26.85999 30.50954 28.68477
# Shear Modulus (GPa) = 17.02193 20.25179 18.63686
#
# Velocity S-wave (km/s) = 3.17715 3.46550 3.32445
# Velocity P-wave (km/s) = 5.42103 5.84000 5.63441
#
# Compressibility (1/GPa) = 0.03723009
#
# Stress axis : x y z
#
# Youngs Moduli (GPa) = 25.24940 72.07221 27.08862
#
# Poissons Ratio (x) = 0.00330 0.50328
# Poissons Ratio (y) = 0.00116 0.21557
# Poissons Ratio (z) = 0.46911 0.57354
#
# Static dielectric constant tensor:
#      x y z
#    x 2.995350 0.000000 0.000000 
#    y 0.000000 3.391200 0.000000 
#    z 0.000000 0.000000 3.114310 
# 
# 
# High freq. dielectric constant tensor:
#      x y z
#    x 1.618460 0.000000 0.000000 
#    y 0.000000 1.653170 0.000000 
#    z 0.000000 0.000000 1.653920 
# 
# From -- ./inp_files/8088.got.cif
#   From: 2010.03.12/outbox.cif.g09.slc.cpg/sg55_5_cif.got.tgz:8088.got - 2010.04.16 15:19:21.
