data_PCOD8224147
_publ_section_title
;
Structure prediction by ZEFSAII (Michael W. Deem and Ramdas Pophale) SiO2 
 PCOD8224147
Probable space group: P C C A
;
_chemical_formula_sum "Si O2"
_cell_formula_units_Z 40
_cell_length_a 8.984468
_cell_length_b 9.700318
_cell_length_c 21.101579
_cell_angle_alpha 90.000000
_cell_angle_beta 90.000000
_cell_angle_gamma 90.000000
_cell_volume 1839.048963
_symmetry_space_group_name_H-M "P C C A"
_symmetry_group_IT_number 54
_symmetry_cell_setting 'orthorhombic'
loop_
_space_group_symop_operation_xyz
x,y,z
1/2-x,-y,z
1/2+x,-y,1/2-z
-x,y,1/2-z
-x,-y,-z
1/2+x,y,-z
1/2-x,y,1/2+z
x,-y,1/2+z
loop_
_atom_site_type_symbol
_atom_site_label
_atom_site_fract_x
_atom_site_fract_y
_atom_site_fract_z
Si Si1 0.000000 0.175428 0.750000
Si Si2 0.750000 0.000000 0.321347
Si Si3 0.577134 0.513586 0.433029
Si Si4 0.203669 0.851629 0.949461
Si Si5 0.347458 0.362642 0.353923
Si Si6 0.883426 0.812926 0.926300
O O1 0.898795 0.274191 0.706141
O O2 0.120464 0.075254 0.717810
O O3 0.670339 0.886822 0.363728
O O4 0.750000 0.500000 0.444270
O O5 0.500000 0.500000 0.500000
O O6 0.504123 0.403313 0.386218
O O7 0.560061 0.664007 0.403313
O O8 0.251166 0.731831 0.901117
O O9 0.028805 0.878244 0.957185
O O10 0.250000 0.000000 0.923101
O O11 0.256663 0.813667 0.020124
O O12 0.250000 0.500000 0.336551
#
# Coordination Sequence:
#
# PCOD8224147 Si02
#       6
#     4   4   8   8   8   8
#     4  12  32  52  78 104 156 208 274 308 376 466
#     4  12  30  52  74 114 146 210 256 324 382 446
#     4  12  23  40  71 111 151 189 244 309 384 460
#     4  12  25  42  75 113 151 186 242 315 383 464
#     4  12  27  51  74 109 150 206 253 312 386 452
#     4  12  25  43  74 111 151 191 241 310 393 449
#
# _framework density 21.750373
#
# number of rings (size 3 to 8) (size 9 to 14) (size 15 to 20)
#    0.000    0.000    5.000    4.800    7.000    2.400 
#    0.000    0.000    0.000    0.000    0.000    0.000 
#    0.000    0.000    0.000    0.000    0.000    0.000 
#
# Total GULP energy -495763.761309 kJ/mol
# GULP energy per Si atom -12394.094033 kJ/mol
# Density = 2.170087 g / cm^3
# Si number density = 21.750373 Si / 1000 Ang^3
#
#
#
# Elastic Constant Matrix: (Units=GPa)
#
#
# Indices 1 2 3 4 5 6 
#
# 1 161.1330 42.9825 66.0242 0.0000 0.0000 0.0000
# 2 42.9825 150.9985 64.0724 0.0000 0.0000 0.0000
# 3 66.0242 64.0724 139.1622 0.0000 0.0000 0.0000
# 4 0.0000 0.0000 0.0000 42.1892 0.0000 0.0000
# 5 0.0000 0.0000 0.0000 0.0000 52.6483 0.0000
# 6 0.0000 0.0000 0.0000 0.0000 0.0000 46.7857
#
#
#
# Elastic Compliance Matrix: (Units=1/GPa)
#
#
# Indices 1 2 3 4 5 6 
#
# 1 0.007782 -0.000806 -0.003321 0.000000 0.000000 0.000000
# 2 -0.000806 0.008314 -0.003446 0.000000 0.000000 0.000000
# 3 -0.003321 -0.003446 0.010348 0.000000 0.000000 0.000000
# 4 0.000000 0.000000 0.000000 0.023703 0.000000 0.000000
# 5 0.000000 0.000000 0.000000 0.000000 0.018994 0.000000
# 6 0.000000 0.000000 0.000000 0.000000 0.000000 0.021374
#
#
# Mechanical properties :
#
#
# Convention : Reuss Voigt Hill
#
# Bulk Modulus (GPa) = 88.50493 88.60577 88.55535
# Shear Modulus (GPa) = 45.69319 46.87227 46.28273
#
# Velocity S-wave (km/s) = 4.58842 4.64724 4.61793
# Velocity P-wave (km/s) = 8.29765 8.34397 8.32084
#
# Compressibility (1/GPa) = 0.01129881
#
# Stress axis : x y z
#
# Youngs Moduli (GPa) = 128.50512 120.27866 96.63887
#
# Poissons Ratio (x) = 0.09694 0.32093
# Poissons Ratio (y) = 0.10357 0.33297
# Poissons Ratio (z) = 0.42675 0.41442
#
# Static dielectric constant tensor:
#      x y z
#    x 3.581120 0.000000 0.000000 
#    y 0.000000 4.742290 0.000000 
#    z 0.000000 0.000000 3.744520 
# 
# 
# High freq. dielectric constant tensor:
#      x y z
#    x 1.884680 0.000000 0.000000 
#    y 0.000000 1.884750 0.000000 
#    z 0.000000 0.000000 1.833600 
# 
# From -- ./inp_files/23335.got.cif
#   From: 2010.03.12/outbox.cif.g09.slc.cpg/sg54_12_cif.got.tgz:23335.got - 2010.04.16 15:00:50.
