data_PCOD8224840
_publ_section_title
;
Structure prediction by ZEFSAII (Michael W. Deem and Ramdas Pophale) SiO2 
 PCOD8224840
Probable space group: P B A M
;
_chemical_formula_sum "Si O2"
_cell_formula_units_Z 64
_cell_length_a 14.900115
_cell_length_b 18.311893
_cell_length_c 12.554525
_cell_angle_alpha 90.000000
_cell_angle_beta 90.000000
_cell_angle_gamma 90.000000
_cell_volume 3425.493503
_symmetry_space_group_name_H-M "P B A M"
_symmetry_group_IT_number 55
_symmetry_cell_setting 'orthorhombic'
loop_
_space_group_symop_operation_xyz
x,y,z
-x,-y,z
1/2+x,1/2-y,-z
1/2-x,1/2+y,-z
-x,-y,-z
x,y,-z
1/2-x,1/2+y,z
1/2+x,1/2-y,z
loop_
_atom_site_type_symbol
_atom_site_label
_atom_site_fract_x
_atom_site_fract_y
_atom_site_fract_z
Si Si1 0.623808 0.393952 0.121351
Si Si2 0.286547 0.036386 0.785373
Si Si3 0.984494 0.289223 0.739945
Si Si4 0.436523 0.344380 0.120693
Si Si5 0.259819 0.886062 0.124261
Si Si6 0.037780 0.576370 0.878565
Si Si7 0.681853 0.845723 0.624238
Si Si8 0.824470 0.756810 0.241415
O O1 0.682155 0.450235 0.189604
O O2 0.518452 0.398857 0.151337
O O3 0.656464 0.312175 0.145444
O O4 0.641988 0.413796 0.000000
O O5 0.354031 0.079327 0.865184
O O6 0.307807 0.070912 0.668987
O O7 0.303316 0.950258 0.803175
O O8 0.081455 0.261492 0.697297
O O9 0.932436 0.226033 0.803822
O O10 0.007676 0.356834 0.817189
O O11 0.918656 0.315322 0.645450
O O12 0.347599 0.392615 0.129374
O O13 0.450838 0.315459 0.000000
O O14 0.285121 0.811959 0.181158
O O15 0.292208 0.890710 0.000000
O O16 0.000000 0.500000 0.831412
O O17 0.009205 0.584749 0.000000
O O18 0.699593 0.849319 0.500000
O O19 0.754911 0.791006 0.674900
#
# Coordination Sequence:
#
# PCOD8224840 Si02
#       8
#     8   8   8   8   8   8   8   8
#     4   9  17  31  49  76 110 150 186 213 261 330
#     4  10  21  34  51  75 107 148 187 227 268 322
#     4  10  19  34  55  79 107 140 178 227 276 325
#     4   9  18  30  49  79 113 145 177 216 267 326
#     4  11  20  32  53  85 120 148 175 213 267 332
#     4  10  19  30  48  77 114 151 181 210 260 332
#     4  10  22  41  59  76 101 140 190 239 280 317
#     4  10  20  34  56  83 110 141 178 227 276 329
#
# _framework density 18.683440000000001
#
# number of rings (size 3 to 8) (size 9 to 14) (size 15 to 20)
#    0.000    2.125    1.250    2.625    0.000    3.500 
#    0.000    2.500    0.000   12.750    0.000    2.625 
#    0.000    0.000    0.000    0.000    0.000    0.000 
#
# Total GULP energy -793216.568126 kJ/mol
# GULP energy per Si atom -12394.008877 kJ/mol
# Density = 1.864092 g / cm^3
# Si number density = 18.683440 Si / 1000 Ang^3
#
#
#
# Elastic Constant Matrix: (Units=GPa)
#
#
# Indices 1 2 3 4 5 6 
#
# 1 79.4758 5.7178 25.0871 0.0000 0.0000 0.0000
# 2 5.7178 64.9266 27.6625 0.0000 0.0000 0.0000
# 3 25.0871 27.6625 85.4238 0.0000 0.0000 0.0000
# 4 0.0000 0.0000 0.0000 18.3645 0.0000 0.0000
# 5 0.0000 0.0000 0.0000 0.0000 14.7014 0.0000
# 6 0.0000 0.0000 0.0000 0.0000 0.0000 25.6290
#
#
#
# Elastic Compliance Matrix: (Units=1/GPa)
#
#
# Indices 1 2 3 4 5 6 
#
# 1 0.013888 0.000597 -0.004272 0.000000 0.000000 0.000000
# 2 0.000597 0.017893 -0.005970 0.000000 0.000000 0.000000
# 3 -0.004272 -0.005970 0.014894 0.000000 0.000000 0.000000
# 4 0.000000 0.000000 0.000000 0.054453 0.000000 0.000000
# 5 0.000000 0.000000 0.000000 0.000000 0.068021 0.000000
# 6 0.000000 0.000000 0.000000 0.000000 0.000000 0.039018
#
#
# Mechanical properties :
#
#
# Convention : Reuss Voigt Hill
#
# Bulk Modulus (GPa) = 36.51503 38.52898 37.52201
# Shear Modulus (GPa) = 21.13411 23.16289 22.14850
#
# Velocity S-wave (km/s) = 3.36693 3.52484 3.44679
# Velocity P-wave (km/s) = 5.89080 6.10186 5.99726
#
# Compressibility (1/GPa) = 0.02738598
#
# Stress axis : x y z
#
# Youngs Moduli (GPa) = 72.00486 55.88841 67.14116
#
# Poissons Ratio (x) = -0.03337 0.28682
# Poissons Ratio (y) = -0.04299 0.40080
# Poissons Ratio (z) = 0.30760 0.33363
#
# Static dielectric constant tensor:
#      x y z
#    x 3.775370 0.000000 0.000000 
#    y 0.000000 3.420900 0.000000 
#    z 0.000000 0.000000 2.969490 
# 
# 
# High freq. dielectric constant tensor:
#      x y z
#    x 1.750360 0.000000 0.000000 
#    y 0.000000 1.726210 0.000000 
#    z 0.000000 0.000000 1.670410 
# 
# From -- ./inp_files/14409.got.cif
#   From: 2010.03.12/outbox.cif.g09.slc.cpg/sg55_8_cif.got.tgz:14409.got - 2010.04.16 15:19:21.
