data_PCOD8224423
_publ_section_title
;
Structure prediction by ZEFSAII (Michael W. Deem and Ramdas Pophale) SiO2 
 PCOD8224423
Probable space group: P B A M
;
_chemical_formula_sum "Si O2"
_cell_formula_units_Z 64
_cell_length_a 20.459319
_cell_length_b 19.857976
_cell_length_c 8.501701
_cell_angle_alpha 90.000000
_cell_angle_beta 90.000000
_cell_angle_gamma 90.000000
_cell_volume 3454.076742
_symmetry_space_group_name_H-M "P B A M"
_symmetry_group_IT_number 55
_symmetry_cell_setting 'orthorhombic'
loop_
_space_group_symop_operation_xyz
x,y,z
-x,-y,z
1/2+x,1/2-y,-z
1/2-x,1/2+y,-z
-x,-y,-z
x,y,-z
1/2-x,1/2+y,z
1/2+x,1/2-y,z
loop_
_atom_site_type_symbol
_atom_site_label
_atom_site_fract_x
_atom_site_fract_y
_atom_site_fract_z
Si Si1 0.559243 0.546483 0.688081
Si Si2 0.357332 0.840906 0.181102
Si Si3 0.071858 0.806034 0.819443
Si Si4 0.511150 0.189968 0.680707
Si Si5 0.664225 0.012511 0.314204
Si Si6 0.548106 0.941979 0.182774
Si Si7 0.696939 0.522583 0.322000
Si Si8 0.286909 0.338780 0.180030
O O1 0.500000 0.500000 0.742404
O O2 0.561058 0.557505 0.500000
O O3 0.554022 0.617949 0.772888
O O4 0.625166 0.507206 0.749991
O O5 0.412202 0.799835 0.277626
O O6 0.358917 0.919245 0.229886
O O7 0.285391 0.806550 0.209041
O O8 0.377509 0.837053 0.000000
O O9 0.150024 0.790179 0.795293
O O10 0.028987 0.757707 0.711185
O O11 0.052238 0.794153 0.000000
O O12 0.504484 0.169775 0.500000
O O13 0.481335 0.130804 0.785659
O O14 0.667086 0.026325 0.500000
O O15 0.736839 0.990376 0.248692
O O16 0.616306 0.951145 0.274521
O O17 0.500000 0.000000 0.245494
O O18 0.562222 0.950579 0.000000
O O19 0.693973 0.499178 0.500000
O O20 0.706115 0.602826 0.307744
O O21 0.288993 0.367147 0.000000
#
# Coordination Sequence:
#
# PCOD8224423 Si02
#       8
#     8   8   8   8   8   8   8   8
#     4   9  17  32  56  83 110 139 173 214 261 312
#     4  10  18  31  51  77 104 133 171 214 259 306
#     4  10  20  36  56  79 107 138 174 217 264 316
#     4  12  24  36  53  77 106 140 178 217 264 316
#     4  10  18  29  48  74 104 135 172 216 259 304
#     4  11  22  35  52  74 103 140 179 219 263 307
#     4   8  15  27  46  75 105 133 166 208 254 301
#     4   8  16  30  51  75  99 129 167 211 255 304
#
# _framework density 18.528829000000002
#
# number of rings (size 3 to 8) (size 9 to 14) (size 15 to 20)
#    0.000    2.250    1.250    2.625    0.000    2.250 
#    0.000    0.000    2.750    0.000    0.000    0.000 
#    0.000    0.000    0.000    0.000    0.000    0.000 
#
# Total GULP energy -792904.320878 kJ/mol
# GULP energy per Si atom -12389.130014 kJ/mol
# Density = 1.848666 g / cm^3
# Si number density = 18.528829 Si / 1000 Ang^3
#
#
#
# Elastic Constant Matrix: (Units=GPa)
#
#
# Indices 1 2 3 4 5 6 
#
# 1 178.3063 48.0362 26.1123 0.0000 0.0000 0.0000
# 2 48.0362 49.6109 7.3438 0.0000 0.0000 0.0000
# 3 26.1123 7.3438 43.5965 0.0000 0.0000 0.0000
# 4 0.0000 0.0000 0.0000 21.9122 0.0000 0.0000
# 5 0.0000 0.0000 0.0000 0.0000 22.6244 0.0000
# 6 0.0000 0.0000 0.0000 0.0000 0.0000 28.4900
#
#
#
# Elastic Compliance Matrix: (Units=1/GPa)
#
#
# Indices 1 2 3 4 5 6 
#
# 1 0.008110 -0.007316 -0.003625 0.000000 0.000000 0.000000
# 2 -0.007316 0.027272 -0.000212 0.000000 0.000000 0.000000
# 3 -0.003625 -0.000212 0.025145 0.000000 0.000000 0.000000
# 4 0.000000 0.000000 0.000000 0.045637 0.000000 0.000000
# 5 0.000000 0.000000 0.000000 0.000000 0.044200 0.000000
# 6 0.000000 0.000000 0.000000 0.000000 0.000000 0.035100
#
#
# Mechanical properties :
#
#
# Convention : Reuss Voigt Hill
#
# Bulk Modulus (GPa) = 26.16405 48.27760 37.22082
# Shear Modulus (GPa) = 22.67463 27.27341 24.97402
#
# Velocity S-wave (km/s) = 3.50201 3.84076 3.67529
# Velocity P-wave (km/s) = 5.52299 6.76613 6.17592
#
# Compressibility (1/GPa) = 0.03822039
#
# Stress axis : x y z
#
# Youngs Moduli (GPa) = 123.30110 36.66737 39.76980
#
# Poissons Ratio (x) = 0.26826 0.14418
# Poissons Ratio (y) = 0.90209 0.00843
# Poissons Ratio (z) = 0.44700 0.00777
#
# Static dielectric constant tensor:
#      x y z
#    x 4.065460 0.000000 0.000000 
#    y 0.000000 2.842390 0.000000 
#    z 0.000000 0.000000 3.360140 
# 
# 
# High freq. dielectric constant tensor:
#      x y z
#    x 1.749180 0.000000 0.000000 
#    y 0.000000 1.652910 0.000000 
#    z 0.000000 0.000000 1.720550 
# 
# From -- ./inp_files/9025.got.cif
#   From: 2010.03.12/outbox.cif.g09.slc.cpg/sg55_5_cif.got.tgz:9025.got - 2010.04.16 15:19:21.
