data_PCOD8224737
_publ_section_title
;
Structure prediction by ZEFSAII (Michael W. Deem and Ramdas Pophale) SiO2 
 PCOD8224737
Probable space group: P B A M
;
_chemical_formula_sum "Si O2"
_cell_formula_units_Z 64
_cell_length_a 10.044926
_cell_length_b 19.287623
_cell_length_c 17.139840
_cell_angle_alpha 90.000000
_cell_angle_beta 90.000000
_cell_angle_gamma 90.000000
_cell_volume 3320.719663
_symmetry_space_group_name_H-M "P B A M"
_symmetry_group_IT_number 55
_symmetry_cell_setting 'orthorhombic'
loop_
_space_group_symop_operation_xyz
x,y,z
-x,-y,z
1/2+x,1/2-y,-z
1/2-x,1/2+y,-z
-x,-y,-z
x,y,-z
1/2-x,1/2+y,z
1/2+x,1/2-y,z
loop_
_atom_site_type_symbol
_atom_site_label
_atom_site_fract_x
_atom_site_fract_y
_atom_site_fract_z
Si Si1 0.640791 0.522046 0.177534
Si Si2 0.408742 0.792232 0.092417
Si Si3 0.233623 0.107260 0.272938
Si Si4 0.392768 0.445019 0.412850
Si Si5 0.637154 0.964708 0.588089
Si Si6 0.164000 0.729494 0.181826
Si Si7 0.107876 0.448361 0.090670
Si Si8 0.938706 0.149526 0.278841
O O1 0.500000 0.500000 0.140796
O O2 0.696212 0.468789 0.241726
O O3 0.743805 0.524955 0.106737
O O4 0.620924 0.596384 0.216083
O O5 0.300599 0.749775 0.140436
O O6 0.552503 0.762239 0.115074
O O7 0.406501 0.871046 0.123006
O O8 0.384578 0.784358 0.000000
O O9 0.315322 0.096649 0.353718
O O10 0.325119 0.150622 0.212970
O O11 0.099136 0.152139 0.282739
O O12 0.500000 0.500000 0.376019
O O13 0.440960 0.426571 0.500000
O O14 0.245906 0.475105 0.412480
O O15 0.390560 0.373980 0.364293
O O16 0.620601 0.934238 0.500000
O O17 0.500000 0.000000 0.617124
O O18 0.123718 0.776482 0.256459
O O19 0.000000 0.500000 0.130774
O O20 0.080315 0.447143 0.000000
#
# Coordination Sequence:
#
# PCOD8224737 Si02
#       8
#     8   8   8   8   8   8   8   8
#     4  10  20  36  60  86 115 150 200 249 305 360
#     4  11  24  43  63  85 119 163 207 254 309 374
#     4  11  22  38  61  90 125 161 198 255 309 354
#     4  10  18  34  63  90 116 160 205 243 293 357
#     4  10  21  37  61  96 128 155 199 252 303 358
#     4  12  24  40  61  90 122 162 209 255 306 371
#     4  10  21  38  58  84 117 151 197 256 312 368
#     4  11  20  38  59  89 121 154 209 255 295 362
#
# _framework density 19.272929999999999
#
# number of rings (size 3 to 8) (size 9 to 14) (size 15 to 20)
#    0.000    1.375    5.000    1.500    0.000    2.750 
#    0.000    1.250    0.000    0.000    0.000    0.000 
#    0.000    0.000    0.000    0.000    0.000    0.000 
#
# Total GULP energy -793553.654488 kJ/mol
# GULP energy per Si atom -12399.275851 kJ/mol
# Density = 1.922906 g / cm^3
# Si number density = 19.272930 Si / 1000 Ang^3
#
#
#
# Elastic Constant Matrix: (Units=GPa)
#
#
# Indices 1 2 3 4 5 6 
#
# 1 121.6596 28.2582 28.8892 0.0000 0.0000 0.0000
# 2 28.2582 63.2598 27.6788 0.0000 0.0000 0.0000
# 3 28.8892 27.6788 61.5989 0.0000 0.0000 0.0000
# 4 0.0000 0.0000 0.0000 28.5545 0.0000 0.0000
# 5 0.0000 0.0000 0.0000 0.0000 31.7100 0.0000
# 6 0.0000 0.0000 0.0000 0.0000 0.0000 25.6205
#
#
#
# Elastic Compliance Matrix: (Units=1/GPa)
#
#
# Indices 1 2 3 4 5 6 
#
# 1 0.009660 -0.002904 -0.003226 0.000000 0.000000 0.000000
# 2 -0.002904 0.020549 -0.007872 0.000000 0.000000 0.000000
# 3 -0.003226 -0.007872 0.021284 0.000000 0.000000 0.000000
# 4 0.000000 0.000000 0.000000 0.035021 0.000000 0.000000
# 5 0.000000 0.000000 0.000000 0.000000 0.031536 0.000000
# 6 0.000000 0.000000 0.000000 0.000000 0.000000 0.039031
#
#
# Mechanical properties :
#
#
# Convention : Reuss Voigt Hill
#
# Bulk Modulus (GPa) = 42.56981 46.24118 44.40550
# Shear Modulus (GPa) = 25.91834 27.95647 26.93740
#
# Velocity S-wave (km/s) = 3.67114 3.81275 3.74261
# Velocity P-wave (km/s) = 6.33289 6.58996 6.46271
#
# Compressibility (1/GPa) = 0.02349082
#
# Stress axis : x y z
#
# Youngs Moduli (GPa) = 103.51867 48.66388 46.98388
#
# Poissons Ratio (x) = 0.14131 0.15156
# Poissons Ratio (y) = 0.30060 0.36984
# Poissons Ratio (z) = 0.33392 0.38307
#
# Static dielectric constant tensor:
#      x y z
#    x 3.681320 0.000000 0.000000 
#    y 0.000000 3.428140 0.000000 
#    z 0.000000 0.000000 3.438760 
# 
# 
# High freq. dielectric constant tensor:
#      x y z
#    x 1.766450 0.000000 0.000000 
#    y 0.000000 1.729360 0.000000 
#    z 0.000000 0.000000 1.741440 
# 
# From -- ./inp_files/21094.got.cif
#   From: 2010.03.12/outbox.cif.g09.slc.cpg/sg55_11_cif.got.tgz:21094.got - 2010.04.16 15:19:21.
