data_PCOD8224271
_publ_section_title
;
Structure prediction by ZEFSAII (Michael W. Deem and Ramdas Pophale) SiO2 
 PCOD8224271
Probable space group: P B A M
;
_chemical_formula_sum "Si O2"
_cell_formula_units_Z 56
_cell_length_a 17.767583
_cell_length_b 22.393961
_cell_length_c 8.780309
_cell_angle_alpha 90.000000
_cell_angle_beta 90.000000
_cell_angle_gamma 90.000000
_cell_volume 3493.566950
_symmetry_space_group_name_H-M "P B A M"
_symmetry_group_IT_number 55
_symmetry_cell_setting 'orthorhombic'
loop_
_space_group_symop_operation_xyz
x,y,z
-x,-y,z
1/2+x,1/2-y,-z
1/2-x,1/2+y,-z
-x,-y,-z
x,y,-z
1/2-x,1/2+y,z
1/2+x,1/2-y,z
loop_
_atom_site_type_symbol
_atom_site_label
_atom_site_fract_x
_atom_site_fract_y
_atom_site_fract_z
Si Si1 0.114385 0.850052 0.673100
Si Si2 0.729724 0.194555 0.676053
Si Si3 0.915588 0.713466 0.179890
Si Si4 0.999537 0.933389 0.180010
Si Si5 0.124966 0.154544 0.820260
Si Si6 0.716736 0.813204 0.177008
Si Si7 0.929723 0.284767 0.322588
O O1 0.090102 0.862435 0.500000
O O2 0.205175 0.855715 0.692047
O O3 0.076359 0.899425 0.778960
O O4 0.088056 0.783696 0.721742
O O5 0.726501 0.216159 0.500000
O O6 0.647905 0.172431 0.735466
O O7 0.752244 0.247658 0.788608
O O8 0.904229 0.781397 0.240229
O O9 0.997772 0.691845 0.231622
O O10 0.907187 0.706300 0.000000
O O11 0.927622 0.897600 0.249190
O O12 0.993259 0.937000 0.000000
O O13 0.000000 0.000000 0.250219
O O14 0.213203 0.142858 0.778553
O O15 0.115308 0.155963 0.000000
O O16 0.641446 0.826085 0.273859
O O17 0.696206 0.818430 0.000000
O O18 0.944005 0.292897 0.500000
#
# Coordination Sequence:
#
# PCOD8224271 Si02
#       7
#     8   8   8   8   8   8   8
#     4   9  18  30  42  57  81 113 143 176 217 252
#     4   9  17  28  40  58  83 109 140 175 212 255
#     4  10  17  26  42  62  84 113 143 171 207 253
#     4  10  19  30  45  63  83 111 148 187 219 248
#     4   8  15  27  40  57  80 107 140 176 211 246
#     4   9  16  26  40  57  79 109 143 175 208 253
#     4  10  18  27  40  61  86 112 141 173 212 255
#
# _framework density 16.029461999999999
#
# number of rings (size 3 to 8) (size 9 to 14) (size 15 to 20)
#    0.000    2.714    1.429    3.429    0.000    3.143 
#    0.000    0.714    0.000    0.000    0.000    0.000 
#    0.000    1.143    0.000   13.143    0.000    3.286 
#
# Total GULP energy -693932.526102 kJ/mol
# GULP energy per Si atom -12391.652252 kJ/mol
# Density = 1.599298 g / cm^3
# Si number density = 16.029462 Si / 1000 Ang^3
#
#
#
# Elastic Constant Matrix: (Units=GPa)
#
#
# Indices 1 2 3 4 5 6 
#
# 1 144.7043 33.7733 32.1984 0.0000 0.0000 0.0000
# 2 33.7733 42.0997 15.6298 0.0000 0.0000 0.0000
# 3 32.1984 15.6298 44.6568 0.0000 0.0000 0.0000
# 4 0.0000 0.0000 0.0000 9.9318 0.0000 0.0000
# 5 0.0000 0.0000 0.0000 0.0000 29.0735 0.0000
# 6 0.0000 0.0000 0.0000 0.0000 0.0000 12.9269
#
#
#
# Elastic Compliance Matrix: (Units=1/GPa)
#
#
# Indices 1 2 3 4 5 6 
#
# 1 0.009288 -0.005706 -0.004700 0.000000 0.000000 0.000000
# 2 -0.005706 0.030806 -0.006668 0.000000 0.000000 0.000000
# 3 -0.004700 -0.006668 0.028115 0.000000 0.000000 0.000000
# 4 0.000000 0.000000 0.000000 0.100687 0.000000 0.000000
# 5 0.000000 0.000000 0.000000 0.000000 0.034396 0.000000
# 6 0.000000 0.000000 0.000000 0.000000 0.000000 0.077358
#
#
# Mechanical properties :
#
#
# Convention : Reuss Voigt Hill
#
# Bulk Modulus (GPa) = 29.35815 43.85152 36.60484
# Shear Modulus (GPa) = 15.33029 20.37708 17.85368
#
# Velocity S-wave (km/s) = 3.09590 3.56929 3.34099
# Velocity P-wave (km/s) = 5.57981 6.66354 6.14561
#
# Compressibility (1/GPa) = 0.03406209
#
# Stress axis : x y z
#
# Youngs Moduli (GPa) = 107.66299 32.46083 35.56780
#
# Poissons Ratio (x) = 0.18523 0.16716
# Poissons Ratio (y) = 0.61437 0.23716
# Poissons Ratio (z) = 0.50599 0.21644
#
# Static dielectric constant tensor:
#      x y z
#    x 3.533600 0.000000 0.000000 
#    y 0.000000 2.645250 0.000000 
#    z 0.000000 0.000000 2.926170 
# 
# 
# High freq. dielectric constant tensor:
#      x y z
#    x 1.638700 0.000000 0.000000 
#    y 0.000000 1.532230 0.000000 
#    z 0.000000 0.000000 1.615310 
# 
# From -- ./inp_files/7814.got.cif
#   From: 2010.03.12/outbox.cif.g09.slc.cpg/sg55_4_cif.got.tgz:7814.got - 2010.04.16 15:19:21.
