data_PCOD8224082
_publ_section_title
;
Structure prediction by ZEFSAII (Michael W. Deem and Ramdas Pophale) SiO2 
 PCOD8224082
Probable space group: P C C A
;
_chemical_formula_sum "Si O2"
_cell_formula_units_Z 40
_cell_length_a 9.708862
_cell_length_b 11.428413
_cell_length_c 16.086925
_cell_angle_alpha 90.000000
_cell_angle_beta 90.000000
_cell_angle_gamma 90.000000
_cell_volume 1784.955082
_symmetry_space_group_name_H-M "P C C A"
_symmetry_group_IT_number 54
_symmetry_cell_setting 'orthorhombic'
loop_
_space_group_symop_operation_xyz
x,y,z
1/2-x,-y,z
1/2+x,-y,1/2-z
-x,y,1/2-z
-x,-y,-z
1/2+x,y,-z
1/2-x,y,1/2+z
x,-y,1/2+z
loop_
_atom_site_type_symbol
_atom_site_label
_atom_site_fract_x
_atom_site_fract_y
_atom_site_fract_z
Si Si1 0.177295 0.120662 0.181785
Si Si2 0.901984 0.470264 0.176401
Si Si3 0.988984 0.622270 0.457688
Si Si4 0.619360 0.209343 0.647379
Si Si5 0.237591 0.766920 0.514720
O O1 0.201152 0.202140 0.264019
O O2 0.253508 0.155393 0.096973
O O3 0.014211 0.125606 0.158701
O O4 0.250000 0.000000 0.207522
O O5 0.750000 0.500000 0.208038
O O6 0.955936 0.589958 0.134021
O O7 0.906897 0.347456 0.123857
O O8 0.000000 0.435608 0.250000
O O9 0.081533 0.724383 0.499280
O O10 0.000000 0.500000 0.500000
O O11 0.830056 0.655960 0.460363
O O12 0.707495 0.164147 0.567699
#
# Coordination Sequence:
#
# PCOD8224082 Si02
#       5
#     8   8   8   8   8
#     4  11  26  49  73  97 134 192 244 304 374 401
#     4  12  24  40  67 104 148 190 229 280 366 438
#     4  12  23  39  66 106 144 187 227 276 360 444
#     4  11  24  49  69 102 148 181 238 311 349 435
#     4  12  24  45  72 104 146 185 239 300 357 439
#
# _framework density 22.409528999999999
#
# number of rings (size 3 to 8) (size 9 to 14) (size 15 to 20)
#    0.000    0.400    8.000    0.600    2.800    1.600 
#    7.200    0.000    0.000    0.000    0.000    0.000 
#    0.000    0.000    0.000    0.000    0.000    0.000 
#
# Total GULP energy -495525.860712 kJ/mol
# GULP energy per Si atom -12388.146518 kJ/mol
# Density = 2.235852 g / cm^3
# Si number density = 22.409529 Si / 1000 Ang^3
#
#
#
# Elastic Constant Matrix: (Units=GPa)
#
#
# Indices 1 2 3 4 5 6 
#
# 1 70.1461 7.5809 11.0358 0.0000 0.0000 0.0000
# 2 7.5809 66.5980 13.1181 0.0000 0.0000 0.0000
# 3 11.0358 13.1181 156.1586 0.0000 0.0000 0.0000
# 4 0.0000 0.0000 0.0000 30.2311 0.0000 0.0000
# 5 0.0000 0.0000 0.0000 0.0000 36.9273 0.0000
# 6 0.0000 0.0000 0.0000 0.0000 0.0000 28.6554
#
#
#
# Elastic Compliance Matrix: (Units=1/GPa)
#
#
# Indices 1 2 3 4 5 6 
#
# 1 0.014558 -0.001479 -0.000905 0.000000 0.000000 0.000000
# 2 -0.001479 0.015418 -0.001191 0.000000 0.000000 0.000000
# 3 -0.000905 -0.001191 0.006568 0.000000 0.000000 0.000000
# 4 0.000000 0.000000 0.000000 0.033079 0.000000 0.000000
# 5 0.000000 0.000000 0.000000 0.000000 0.027080 0.000000
# 6 0.000000 0.000000 0.000000 0.000000 0.000000 0.034897
#
#
# Mechanical properties :
#
#
# Convention : Reuss Voigt Hill
#
# Bulk Modulus (GPa) = 34.01865 39.59691 36.80778
# Shear Modulus (GPa) = 33.65929 36.57396 35.11662
#
# Velocity S-wave (km/s) = 3.87978 4.04427 3.96288
# Velocity P-wave (km/s) = 5.94000 6.28619 6.11555
#
# Compressibility (1/GPa) = 0.02939564
#
# Stress axis : x y z
#
# Youngs Moduli (GPa) = 68.69024 64.85776 152.26032
#
# Poissons Ratio (x) = 0.09592 0.13773
# Poissons Ratio (y) = 0.10159 0.18130
# Poissons Ratio (z) = 0.06214 0.07723
#
# Static dielectric constant tensor:
#      x y z
#    x 3.650140 0.000000 0.000000 
#    y 0.000000 5.216360 0.000000 
#    z 0.000000 0.000000 2.506990 
# 
# 
# High freq. dielectric constant tensor:
#      x y z
#    x 1.878070 0.000000 0.000000 
#    y 0.000000 1.847560 0.000000 
#    z 0.000000 0.000000 1.911650 
# 
# From -- ./inp_files/16303.got.cif
#   From: 2010.03.12/outbox.cif.g09.slc.cpg/sg54_9_cif.got.tgz:16303.got - 2010.04.16 15:00:50.
