data_PCOD8224401
_publ_section_title
;
Structure prediction by ZEFSAII (Michael W. Deem and Ramdas Pophale) SiO2 
 PCOD8224401
Probable space group: P B A M
;
_chemical_formula_sum "Si O2"
_cell_formula_units_Z 64
_cell_length_a 22.004312
_cell_length_b 17.120989
_cell_length_c 10.316755
_cell_angle_alpha 90.000000
_cell_angle_beta 90.000000
_cell_angle_gamma 90.000000
_cell_volume 3886.688717
_symmetry_space_group_name_H-M "P B A M"
_symmetry_group_IT_number 55
_symmetry_cell_setting 'orthorhombic'
loop_
_space_group_symop_operation_xyz
x,y,z
-x,-y,z
1/2+x,1/2-y,-z
1/2-x,1/2+y,-z
-x,-y,-z
x,y,-z
1/2-x,1/2+y,z
1/2+x,1/2-y,z
loop_
_atom_site_type_symbol
_atom_site_label
_atom_site_fract_x
_atom_site_fract_y
_atom_site_fract_z
Si Si1 0.968705 0.422327 0.351993
Si Si2 0.845707 0.565869 0.862333
Si Si3 0.281212 0.251992 0.147556
Si Si4 0.161176 0.596932 0.233630
Si Si5 0.587302 0.156080 0.353686
Si Si6 0.285172 0.547462 0.353939
Si Si7 0.820773 0.784457 0.647850
Si Si8 0.292510 0.419836 0.855951
O O1 0.956549 0.442891 0.500000
O O2 0.904659 0.396364 0.296474
O O3 0.000000 0.500000 0.287682
O O4 0.014542 0.348188 0.334202
O O5 0.840984 0.471984 0.871054
O O6 0.884328 0.591198 0.739668
O O7 0.778691 0.600163 0.849173
O O8 0.874408 0.594048 0.000000
O O9 0.326293 0.179510 0.166586
O O10 0.226785 0.249752 0.250581
O O11 0.319868 0.332820 0.168941
O O12 0.255564 0.249100 0.000000
O O13 0.215390 0.574369 0.333448
O O14 0.604104 0.130098 0.500000
O O15 0.614136 0.242382 0.325435
O O16 0.291126 0.514392 0.500000
O O17 0.328648 0.622634 0.333158
O O18 0.310079 0.482461 0.253748
O O19 0.798536 0.767350 0.500000
O O20 0.310748 0.451671 0.000000
#
# Coordination Sequence:
#
# PCOD8224401 Si02
#       8
#     8   8   8   8   8   8   8   8
#     4  10  19  31  47  68  96 133 171 200 233 279
#     4  10  18  29  44  65  92 123 158 194 230 275
#     4  10  19  32  49  68  95 127 157 196 244 292
#     4  10  19  31  46  67  96 129 165 198 232 278
#     4  10  19  31  48  67  91 127 163 198 231 274
#     4   9  18  30  47  69  95 122 152 197 243 285
#     4   9  18  31  47  71  95 122 161 200 243 286
#     4   9  18  30  45  68  93 121 154 188 237 293
#
# _framework density 16.466460000000001
#
# number of rings (size 3 to 8) (size 9 to 14) (size 15 to 20)
#    0.000    2.375    2.500    0.750    0.000    6.000 
#    0.000    1.875    0.000    0.000    0.000    0.875 
#    0.000    6.000    0.000    0.000    0.000    0.000 
#
# Total GULP energy -792862.298908 kJ/mol
# GULP energy per Si atom -12388.473420 kJ/mol
# Density = 1.642898 g / cm^3
# Si number density = 16.466460 Si / 1000 Ang^3
#
#
#
# Elastic Constant Matrix: (Units=GPa)
#
#
# Indices 1 2 3 4 5 6 
#
# 1 38.3627 24.7268 7.6206 0.0000 0.0000 0.0000
# 2 24.7268 110.0313 50.0741 0.0000 0.0000 0.0000
# 3 7.6206 50.0741 92.7108 0.0000 0.0000 0.0000
# 4 0.0000 0.0000 0.0000 21.7810 0.0000 0.0000
# 5 0.0000 0.0000 0.0000 0.0000 4.0432 0.0000
# 6 0.0000 0.0000 0.0000 0.0000 0.0000 20.9342
#
#
#
# Elastic Compliance Matrix: (Units=1/GPa)
#
#
# Indices 1 2 3 4 5 6 
#
# 1 0.030659 -0.007615 0.001593 0.000000 0.000000 0.000000
# 2 -0.007615 0.013941 -0.006904 0.000000 0.000000 0.000000
# 3 0.001593 -0.006904 0.014384 0.000000 0.000000 0.000000
# 4 0.000000 0.000000 0.000000 0.045912 0.000000 0.000000
# 5 0.000000 0.000000 0.000000 0.000000 0.247331 0.000000
# 6 0.000000 0.000000 0.000000 0.000000 0.000000 0.047769
#
#
# Mechanical properties :
#
#
# Convention : Reuss Voigt Hill
#
# Bulk Modulus (GPa) = 30.18190 45.10531 37.64360
# Shear Modulus (GPa) = 11.44448 19.93055 15.68752
#
# Velocity S-wave (km/s) = 2.63918 3.48282 3.08992
# Velocity P-wave (km/s) = 5.25891 6.60492 5.96997
#
# Compressibility (1/GPa) = 0.03313244
#
# Stress axis : x y z
#
# Youngs Moduli (GPa) = 32.61725 71.72852 69.52042
#
# Poissons Ratio (x) = 0.54618 -0.11072
# Poissons Ratio (y) = 0.24837 0.47997
# Poissons Ratio (z) = -0.05195 0.49522
#
# Static dielectric constant tensor:
#      x y z
#    x 2.844450 0.000000 0.000000 
#    y 0.000000 3.246790 0.000000 
#    z 0.000000 0.000000 3.216150 
# 
# 
# High freq. dielectric constant tensor:
#      x y z
#    x 1.582340 0.000000 0.000000 
#    y 0.000000 1.636250 0.000000 
#    z 0.000000 0.000000 1.643230 
# 
# From -- ./inp_files/9872.got.cif
#   From: 2010.03.12/outbox.cif.g09.slc.cpg/sg55_5_cif.got.tgz:9872.got - 2010.04.16 15:19:21.
