data_PCOD8224607
_publ_section_title
;
Structure prediction by ZEFSAII (Michael W. Deem and Ramdas Pophale) SiO2 
 PCOD8224607
Probable space group: P B A M
;
_chemical_formula_sum "Si O2"
_cell_formula_units_Z 48
_cell_length_a 10.337662
_cell_length_b 29.324589
_cell_length_c 8.729945
_cell_angle_alpha 90.000000
_cell_angle_beta 90.000000
_cell_angle_gamma 90.000000
_cell_volume 2646.462655
_symmetry_space_group_name_H-M "P B A M"
_symmetry_group_IT_number 55
_symmetry_cell_setting 'orthorhombic'
loop_
_space_group_symop_operation_xyz
x,y,z
-x,-y,z
1/2+x,1/2-y,-z
1/2-x,1/2+y,-z
-x,-y,-z
x,y,-z
1/2-x,1/2+y,z
1/2+x,1/2-y,z
loop_
_atom_site_type_symbol
_atom_site_label
_atom_site_fract_x
_atom_site_fract_y
_atom_site_fract_z
Si Si1 0.503174 0.282416 0.321322
Si Si2 0.273285 0.882395 0.820249
Si Si3 0.130244 0.478381 0.818199
Si Si4 0.120644 0.031543 0.819712
Si Si5 0.499454 0.614848 0.321588
Si Si6 0.786303 0.712806 0.682257
O O1 0.497724 0.272065 0.500000
O O2 0.550496 0.333887 0.288754
O O3 0.608214 0.247914 0.247430
O O4 0.357840 0.275082 0.253890
O O5 0.361337 0.925349 0.770128
O O6 0.127166 0.894954 0.776371
O O7 0.325751 0.837970 0.733150
O O8 0.280464 0.873290 0.000000
O O9 0.251655 0.506987 0.755084
O O10 0.000000 0.500000 0.748214
O O11 0.131600 0.482035 0.000000
O O12 0.110335 0.079821 0.732634
O O13 0.127296 0.040901 0.000000
O O14 0.000000 0.000000 0.776139
O O15 0.532561 0.608849 0.500000
O O16 0.783931 0.714240 0.500000
#
# Coordination Sequence:
#
# PCOD8224607 Si02
#       6
#     8   8   8   8   8   8
#     4   8  16  31  51  70  95 127 163 197 241 298
#     4  10  18  32  53  75  99 131 169 207 247 296
#     4   9  18  33  51  70  99 137 169 198 247 310
#     4  10  18  32  53  76  98 130 170 207 250 298
#     4  10  19  32  52  78 102 131 170 210 251 297
#     4   9  17  33  53  73  95 131 167 201 247 300
#
# _framework density 18.137416999999999
#
# number of rings (size 3 to 8) (size 9 to 14) (size 15 to 20)
#    0.000    2.667    1.667    2.000    0.000    0.333 
#    3.000    4.167    0.000    3.500    0.000    0.000 
#    0.000    0.000    0.000    0.000    0.000    0.000 
#
# Total GULP energy -595054.713682 kJ/mol
# GULP energy per Si atom -12396.973202 kJ/mol
# Density = 1.809614 g / cm^3
# Si number density = 18.137417 Si / 1000 Ang^3
#
#
#
# Elastic Constant Matrix: (Units=GPa)
#
#
# Indices 1 2 3 4 5 6 
#
# 1 125.7228 90.9131 14.4129 0.0000 0.0000 0.0000
# 2 90.9131 154.1039 21.2608 0.0000 0.0000 0.0000
# 3 14.4129 21.2608 18.0877 0.0000 0.0000 0.0000
# 4 0.0000 0.0000 0.0000 29.5924 0.0000 0.0000
# 5 0.0000 0.0000 0.0000 0.0000 12.7404 0.0000
# 6 0.0000 0.0000 0.0000 0.0000 0.0000 38.7339
#
#
#
# Elastic Compliance Matrix: (Units=1/GPa)
#
#
# Indices 1 2 3 4 5 6 
#
# 1 0.013916 -0.007973 -0.001717 0.000000 0.000000 0.000000
# 2 -0.007973 0.012313 -0.008120 0.000000 0.000000 0.000000
# 3 -0.001717 -0.008120 0.066199 0.000000 0.000000 0.000000
# 4 0.000000 0.000000 0.000000 0.033792 0.000000 0.000000
# 5 0.000000 0.000000 0.000000 0.000000 0.078491 0.000000
# 6 0.000000 0.000000 0.000000 0.000000 0.000000 0.025817
#
#
# Mechanical properties :
#
#
# Convention : Reuss Voigt Hill
#
# Bulk Modulus (GPa) = 17.60321 61.23200 39.41761
# Shear Modulus (GPa) = 17.53862 27.63516 22.58689
#
# Velocity S-wave (km/s) = 3.11301 3.90764 3.53274
# Velocity P-wave (km/s) = 4.75896 7.36158 6.19841
#
# Compressibility (1/GPa) = 0.05680781
#
# Stress axis : x y z
#
# Youngs Moduli (GPa) = 71.85803 81.21492 15.10597
#
# Poissons Ratio (x) = 0.64752 0.02594
# Poissons Ratio (y) = 0.57292 0.12266
# Poissons Ratio (z) = 0.12341 0.65946
#
# Static dielectric constant tensor:
#      x y z
#    x 3.557090 0.000000 0.000000 
#    y 0.000000 3.541680 0.000000 
#    z 0.000000 0.000000 2.998470 
# 
# 
# High freq. dielectric constant tensor:
#      x y z
#    x 1.687980 0.000000 0.000000 
#    y 0.000000 1.714200 0.000000 
#    z 0.000000 0.000000 1.670450 
# 
# From -- ./inp_files/4025.got.cif
#   From: 2010.03.12/outbox.cif.g09.slc.cpg/sg55_3_cif.got.tgz:4025.got - 2010.04.16 15:19:21.
