data_PCOD8224867
_publ_section_title
;
Structure prediction by ZEFSAII (Michael W. Deem and Ramdas Pophale) SiO2 
 PCOD8224867
Probable space group: P B A M
;
_chemical_formula_sum "Si O2"
_cell_formula_units_Z 40
_cell_length_a 15.655339
_cell_length_b 18.556467
_cell_length_c 8.837756
_cell_angle_alpha 90.000000
_cell_angle_beta 90.000000
_cell_angle_gamma 90.000000
_cell_volume 2567.436889
_symmetry_space_group_name_H-M "P B A M"
_symmetry_group_IT_number 55
_symmetry_cell_setting 'orthorhombic'
loop_
_space_group_symop_operation_xyz
x,y,z
-x,-y,z
1/2+x,1/2-y,-z
1/2-x,1/2+y,-z
-x,-y,-z
x,y,-z
1/2-x,1/2+y,z
1/2+x,1/2-y,z
loop_
_atom_site_type_symbol
_atom_site_label
_atom_site_fract_x
_atom_site_fract_y
_atom_site_fract_z
Si Si1 0.187714 0.083501 0.168873
Si Si2 0.403791 0.307203 0.820413
Si Si3 0.589529 0.280674 0.832453
Si Si4 0.255223 0.214198 0.677839
Si Si5 0.910782 0.036971 0.321988
O O1 0.102053 0.132395 0.157767
O O2 0.259523 0.132873 0.253190
O O3 0.167463 0.012664 0.265562
O O4 0.219556 0.062336 0.000000
O O5 0.493335 0.268761 0.772687
O O6 0.329388 0.260791 0.749113
O O7 0.399828 0.387311 0.758339
O O8 0.394459 0.309269 0.000000
O O9 0.662993 0.249069 0.720929
O O10 0.601746 0.246527 0.000000
O O11 0.266152 0.211111 0.500000
O O12 0.903110 0.048360 0.500000
O O13 0.000000 0.000000 0.277418
#
# Coordination Sequence:
#
# PCOD8224867 Si02
#       5
#     8   8   8   8   8
#     4   9  17  31  46  62  90 126 158 188 230 279
#     4  11  20  31  49  71  97 130 165 196 233 287
#     4   8  17  31  47  65  91 125 160 194 230 276
#     4  10  19  31  46  67  96 125 159 200 239 282
#     4  11  20  28  43  70 100 126 154 193 242 289
#
# _framework density 15.579739999999999
#
# number of rings (size 3 to 8) (size 9 to 14) (size 15 to 20)
#    1.200    1.000    2.000    3.000    0.000    2.400 
#    0.000    0.000    0.000    0.000    0.000    1.400 
#    0.000   11.200    0.000    0.000    0.000    0.000 
#
# Total GULP energy -495531.536013 kJ/mol
# GULP energy per Si atom -12388.288400 kJ/mol
# Density = 1.554428 g / cm^3
# Si number density = 15.579740 Si / 1000 Ang^3
#
#
#
# Elastic Constant Matrix: (Units=GPa)
#
#
# Indices 1 2 3 4 5 6 
#
# 1 81.0443 12.9587 36.4017 0.0000 0.0000 0.0000
# 2 12.9587 -9.8250 8.0098 0.0000 0.0000 0.0000
# 3 36.4017 8.0098 90.8458 0.0000 0.0000 0.0000
# 4 0.0000 0.0000 0.0000 24.5743 0.0000 0.0000
# 5 0.0000 0.0000 0.0000 0.0000 17.4773 0.0000
# 6 0.0000 0.0000 0.0000 0.0000 0.0000 25.0383
#
#
#
# Elastic Compliance Matrix: (Units=1/GPa)
#
#
# Indices 1 2 3 4 5 6 
#
# 1 0.013248 0.012264 -0.006390 0.000000 0.000000 0.000000
# 2 0.012264 -0.083602 0.002457 0.000000 0.000000 0.000000
# 3 -0.006390 0.002457 0.013351 0.000000 0.000000 0.000000
# 4 0.000000 0.000000 0.000000 0.040693 0.000000 0.000000
# 5 0.000000 0.000000 0.000000 0.000000 0.057217 0.000000
# 6 0.000000 0.000000 0.000000 0.000000 0.000000 0.039939
#
#
# Mechanical properties :
#
#
# Convention : Reuss Voigt Hill
#
# Bulk Modulus (GPa) = -24.78906 30.75616 2.98355
# Shear Modulus (GPa) = 98.54926 20.39765 59.47345
#
# Velocity S-wave (km/s) = 7.96191 3.62227 6.18518
# Velocity P-wave (km/s) = 8.28113 6.10561 7.27515
#
# Compressibility (1/GPa) = -0.04034037
#
# Stress axis : x y z
#
# Youngs Moduli (GPa) = 75.48359 -11.96137 74.89862
#
# Poissons Ratio (x) = 0.14670 0.47858
# Poissons Ratio (y) = -0.92575 -0.18402
# Poissons Ratio (z) = 0.48232 0.02939
#
# Static dielectric constant tensor:
#      x y z
#    x 2.848620 0.000000 0.000000 
#    y 0.000000 2.683130 0.000000 
#    z 0.000000 0.000000 3.043090 
# 
# 
# High freq. dielectric constant tensor:
#      x y z
#    x 1.575780 0.000000 0.000000 
#    y 0.000000 1.562710 0.000000 
#    z 0.000000 0.000000 1.614210 
# 
# From -- ./inp_files/7493.got.cif
#   From: 2010.03.12/outbox.cif.g09.slc.cpg/sg55_4_cif.got.tgz:7493.got - 2010.04.16 15:19:21.
