data_PCOD8224866
_publ_section_title
;
Structure prediction by ZEFSAII (Michael W. Deem and Ramdas Pophale) SiO2 
 PCOD8224866
Probable space group: P B A M
;
_chemical_formula_sum "Si O2"
_cell_formula_units_Z 64
_cell_length_a 22.919420
_cell_length_b 19.196116
_cell_length_c 9.125343
_cell_angle_alpha 90.000000
_cell_angle_beta 90.000000
_cell_angle_gamma 90.000000
_cell_volume 4014.820993
_symmetry_space_group_name_H-M "P B A M"
_symmetry_group_IT_number 55
_symmetry_cell_setting 'orthorhombic'
loop_
_space_group_symop_operation_xyz
x,y,z
-x,-y,z
1/2+x,1/2-y,-z
1/2-x,1/2+y,-z
-x,-y,-z
x,y,-z
1/2-x,1/2+y,z
1/2+x,1/2-y,z
loop_
_atom_site_type_symbol
_atom_site_label
_atom_site_fract_x
_atom_site_fract_y
_atom_site_fract_z
Si Si1 0.220916 0.649521 0.168680
Si Si2 0.330981 0.271619 0.330012
Si Si3 0.113083 0.999629 0.825716
Si Si4 0.343200 0.725339 0.166283
Si Si5 0.269198 0.851471 0.829607
Si Si6 0.435418 0.368359 0.333253
Si Si7 0.255155 0.502648 0.172059
Si Si8 0.068693 0.135480 0.669071
O O1 0.174418 0.695345 0.257814
O O2 0.285866 0.678935 0.189198
O O3 0.221362 0.570603 0.233750
O O4 0.201570 0.651950 0.000000
O O5 0.316979 0.263871 0.500000
O O6 0.285431 0.325785 0.262867
O O7 0.395439 0.301234 0.299478
O O8 0.078979 0.931505 0.774201
O O9 0.179300 0.996731 0.765011
O O10 0.081840 0.067194 0.762270
O O11 0.110453 0.003302 0.000000
O O12 0.326881 0.805808 0.203590
O O13 0.393469 0.700830 0.275403
O O14 0.365875 0.718114 0.000000
O O15 0.280936 0.932470 0.789766
O O16 0.251594 0.843051 0.000000
O O17 0.425520 0.394229 0.500000
O O18 0.501496 0.343891 0.308472
O O19 0.261092 0.514240 0.000000
O O20 0.083541 0.120940 0.500000
#
# Coordination Sequence:
#
# PCOD8224866 Si02
#       8
#     8   8   8   8   8   8   8   8
#     4   9  17  31  49  68  94 121 148 186 234 282
#     4  10  19  31  46  67  92 119 156 195 229 269
#     4  11  20  32  49  69  93 124 163 197 225 269
#     4   9  17  30  47  69  93 118 154 196 229 269
#     4   9  17  31  50  69  92 121 150 186 235 280
#     4  10  22  36  46  63  94 130 162 196 233 270
#     4   9  16  29  49  71  94 122 151 181 228 283
#     4  11  22  34  47  63  93 132 163 192 234 274
#
# _framework density 15.940935
#
# number of rings (size 3 to 8) (size 9 to 14) (size 15 to 20)
#    0.000    2.250    2.500    2.250    0.000    5.000 
#    0.000    0.625    0.000    0.000    0.000    0.875 
#    0.000    7.000    0.000    0.000    0.000    0.000 
#
# Total GULP energy -793501.035228 kJ/mol
# GULP energy per Si atom -12398.453675 kJ/mol
# Density = 1.590465 g / cm^3
# Si number density = 15.940935 Si / 1000 Ang^3
#
#
#
# Elastic Constant Matrix: (Units=GPa)
#
#
# Indices 1 2 3 4 5 6 
#
# 1 78.8317 57.8227 44.8793 0.0000 0.0000 0.0000
# 2 57.8227 138.9320 47.6284 0.0000 0.0000 0.0000
# 3 44.8793 47.6284 73.9455 0.0000 0.0000 0.0000
# 4 0.0000 0.0000 0.0000 19.8681 0.0000 0.0000
# 5 0.0000 0.0000 0.0000 0.0000 20.7006 0.0000
# 6 0.0000 0.0000 0.0000 0.0000 0.0000 22.5011
#
#
#
# Elastic Compliance Matrix: (Units=1/GPa)
#
#
# Indices 1 2 3 4 5 6 
#
# 1 0.022795 -0.006089 -0.009913 0.000000 0.000000 0.000000
# 2 -0.006089 0.010864 -0.003302 0.000000 0.000000 0.000000
# 3 -0.009913 -0.003302 0.021667 0.000000 0.000000 0.000000
# 4 0.000000 0.000000 0.000000 0.050332 0.000000 0.000000
# 5 0.000000 0.000000 0.000000 0.000000 0.048308 0.000000
# 6 0.000000 0.000000 0.000000 0.000000 0.000000 0.044442
#
#
# Mechanical properties :
#
#
# Convention : Reuss Voigt Hill
#
# Bulk Modulus (GPa) = 59.81592 65.81889 62.81741
# Shear Modulus (GPa) = 20.61111 22.03921 21.32516
#
# Velocity S-wave (km/s) = 3.59969 3.72231 3.66151
# Velocity P-wave (km/s) = 7.40823 7.73647 7.57413
#
# Compressibility (1/GPa) = 0.01671796
#
# Stress axis : x y z
#
# Youngs Moduli (GPa) = 43.86959 92.04840 46.15369
#
# Poissons Ratio (x) = 0.56046 0.45752
# Poissons Ratio (y) = 0.26711 0.15240
# Poissons Ratio (z) = 0.43488 0.30395
#
# Static dielectric constant tensor:
#      x y z
#    x 2.888230 0.000000 0.000000 
#    y 0.000000 3.255800 0.000000 
#    z 0.000000 0.000000 3.009950 
# 
# 
# High freq. dielectric constant tensor:
#      x y z
#    x 1.581150 0.000000 0.000000 
#    y 0.000000 1.613820 0.000000 
#    z 0.000000 0.000000 1.609450 
# 
# From -- ./inp_files/9044.got.cif
#   From: 2010.03.12/outbox.cif.g09.slc.cpg/sg55_5_cif.got.tgz:9044.got - 2010.04.16 15:19:21.
