data_PCOD8224979
_publ_section_title
;
Structure prediction by ZEFSAII (Michael W. Deem and Ramdas Pophale) SiO2 
 PCOD8224979
Probable space group: P B A M
;
_chemical_formula_sum "Si O2"
_cell_formula_units_Z 64
_cell_length_a 10.177183
_cell_length_b 29.318079
_cell_length_c 13.762072
_cell_angle_alpha 90.000000
_cell_angle_beta 90.000000
_cell_angle_gamma 90.000000
_cell_volume 4106.264497
_symmetry_space_group_name_H-M "P B A M"
_symmetry_group_IT_number 55
_symmetry_cell_setting 'orthorhombic'
loop_
_space_group_symop_operation_xyz
x,y,z
-x,-y,z
1/2+x,1/2-y,-z
1/2-x,1/2+y,-z
-x,-y,-z
x,y,-z
1/2-x,1/2+y,z
1/2+x,1/2-y,z
loop_
_atom_site_type_symbol
_atom_site_label
_atom_site_fract_x
_atom_site_fract_y
_atom_site_fract_z
Si Si1 0.514500 0.285946 0.883988
Si Si2 0.880343 0.969886 0.886814
Si Si3 0.718476 0.211895 0.885531
Si Si4 0.715710 0.504547 0.608350
Si Si5 0.482138 0.574833 0.608481
Si Si6 0.983307 0.882632 0.195688
Si Si7 0.139950 0.479682 0.201077
Si Si8 0.229608 0.390419 0.114710
O O1 0.609759 0.246379 0.842674
O O2 0.365451 0.275533 0.848906
O O3 0.564795 0.332893 0.836538
O O4 0.520759 0.290966 0.000000
O O5 0.877482 0.920177 0.837735
O O6 0.745146 0.995180 0.866133
O O7 0.900525 0.963234 0.000000
O O8 0.000000 0.000000 0.842418
O O9 0.681299 0.160291 0.855606
O O10 0.716780 0.216611 0.000000
O O11 0.776756 0.503694 0.500000
O O12 0.612844 0.545245 0.617337
O O13 0.643792 0.456803 0.630735
O O14 0.831593 0.512703 0.685019
O O15 0.471090 0.595856 0.500000
O O16 0.491824 0.615592 0.686769
O O17 0.119069 0.896149 0.143924
O O18 0.140658 0.426086 0.173922
O O19 0.000000 0.500000 0.174464
O O20 0.216106 0.399037 0.000000
#
# Coordination Sequence:
#
# PCOD8224979 Si02
#       8
#     8   8   8   8   8   8   8   8
#     4   9  17  30  48  70  94 120 155 197 235 280
#     4  11  20  31  48  67  96 134 166 194 227 277
#     4   8  16  31  48  66  89 119 156 196 236 271
#     4   9  17  32  49  67  92 125 163 205 244 278
#     4   9  16  28  51  75  92 115 156 209 250 275
#     4  11  17  29  52  75  92 118 164 203 235 284
#     4  12  23  33  45  69 102 135 166 194 239 291
#     4  10  19  32  49  67  96 135 164 192 234 285
#
# _framework density 15.585941999999999
#
# number of rings (size 3 to 8) (size 9 to 14) (size 15 to 20)
#    0.000    2.125    3.750    3.000    0.000    1.250 
#    2.250    0.000    0.000    0.000    0.000    4.375 
#    0.000    0.000    0.000    0.000    0.000    0.000 
#
# Total GULP energy -793474.213698 kJ/mol
# GULP energy per Si atom -12398.034589 kJ/mol
# Density = 1.555047 g / cm^3
# Si number density = 15.585942 Si / 1000 Ang^3
#
#
#
# Elastic Constant Matrix: (Units=GPa)
#
#
# Indices 1 2 3 4 5 6 
#
# 1 75.7129 49.7721 19.0799 0.0000 0.0000 0.0000
# 2 49.7721 107.0698 30.1173 0.0000 0.0000 0.0000
# 3 19.0799 30.1173 66.5135 0.0000 0.0000 0.0000
# 4 0.0000 0.0000 0.0000 16.4693 0.0000 0.0000
# 5 0.0000 0.0000 0.0000 0.0000 11.9211 0.0000
# 6 0.0000 0.0000 0.0000 0.0000 0.0000 24.8150
#
#
#
# Elastic Compliance Matrix: (Units=1/GPa)
#
#
# Indices 1 2 3 4 5 6 
#
# 1 0.019182 -0.008445 -0.001679 0.000000 0.000000 0.000000
# 2 -0.008445 0.014421 -0.004107 0.000000 0.000000 0.000000
# 3 -0.001679 -0.004107 0.017376 0.000000 0.000000 0.000000
# 4 0.000000 0.000000 0.000000 0.060719 0.000000 0.000000
# 5 0.000000 0.000000 0.000000 0.000000 0.083885 0.000000
# 6 0.000000 0.000000 0.000000 0.000000 0.000000 0.040298
#
#
# Mechanical properties :
#
#
# Convention : Reuss Voigt Hill
#
# Bulk Modulus (GPa) = 44.41051 49.69276 47.05163
# Shear Modulus (GPa) = 18.39261 20.66288 19.52775
#
# Velocity S-wave (km/s) = 3.43895 3.64502 3.54348
# Velocity P-wave (km/s) = 6.65765 7.04749 6.85534
#
# Compressibility (1/GPa) = 0.02251719
#
# Stress axis : x y z
#
# Youngs Moduli (GPa) = 52.13148 69.34520 57.55119
#
# Poissons Ratio (x) = 0.58561 0.09662
# Poissons Ratio (y) = 0.44024 0.23637
# Poissons Ratio (z) = 0.08752 0.28481
#
# Static dielectric constant tensor:
#      x y z
#    x 2.838130 0.000000 0.000000 
#    y 0.000000 3.040800 0.000000 
#    z 0.000000 0.000000 3.069840 
# 
# 
# High freq. dielectric constant tensor:
#      x y z
#    x 1.575320 0.000000 0.000000 
#    y 0.000000 1.585540 0.000000 
#    z 0.000000 0.000000 1.586750 
# 
# From -- ./inp_files/17935.got.cif
#   From: 2010.03.12/outbox.cif.g09.slc.cpg/sg55_9_cif.got.tgz:17935.got - 2010.04.16 15:19:21.
