data_PCOD8224235
_publ_section_title
;
Structure prediction by ZEFSAII (Michael W. Deem and Ramdas Pophale) SiO2 
 PCOD8224235
Probable space group: P B A M
;
_chemical_formula_sum "Si O2"
_cell_formula_units_Z 56
_cell_length_a 5.243665
_cell_length_b 32.798594
_cell_length_c 23.539562
_cell_angle_alpha 90.000000
_cell_angle_beta 90.000000
_cell_angle_gamma 90.000000
_cell_volume 4048.447790
_symmetry_space_group_name_H-M "P B A M"
_symmetry_group_IT_number 55
_symmetry_cell_setting 'orthorhombic'
loop_
_space_group_symop_operation_xyz
x,y,z
-x,-y,z
1/2+x,1/2-y,-z
1/2-x,1/2+y,-z
-x,-y,-z
x,y,-z
1/2-x,1/2+y,z
1/2+x,1/2-y,z
loop_
_atom_site_type_symbol
_atom_site_label
_atom_site_fract_x
_atom_site_fract_y
_atom_site_fract_z
Si Si1 0.748281 0.292806 0.171945
Si Si2 0.794450 0.775609 0.500000
Si Si3 0.724656 0.337720 0.399466
Si Si4 0.222400 0.384308 0.567560
Si Si5 0.274666 0.776562 0.000000
Si Si6 0.247950 0.724642 0.695480
Si Si7 0.749916 0.022253 0.432545
Si Si8 0.748250 0.202406 0.123446
O O1 0.750816 0.284867 0.238317
O O2 0.742993 0.250517 0.137413
O O3 0.496585 0.317846 0.152981
O O4 0.998008 0.317956 0.152112
O O5 0.585594 0.739792 0.500000
O O6 0.746162 0.801692 0.555726
O O7 0.452655 0.359402 0.404819
O O8 0.746069 0.318300 0.337082
O O9 0.951317 0.369747 0.408630
O O10 0.232267 0.378763 0.500000
O O11 0.252640 0.430938 0.586451
O O12 0.247077 0.804743 0.055775
O O13 0.554972 0.757249 0.000000
O O14 0.494034 0.751007 0.678126
O O15 0.748443 0.018883 0.500000
O O16 0.500000 0.000000 0.407454
O O17 0.000000 0.000000 0.407602
#
# Coordination Sequence:
#
# PCOD8224235 Si02
#       8
#     8   4   8   8   4   8   8   8
#     4  10  16  27  39  49  68  91 119 159 201 235
#     4  12  22  36  46  56  74  98 136 178 206 244
#     4  12  23  34  47  62  78 105 133 164 215 244
#     4  11  20  36  50  64  88 106 118 149 198 254
#     4  12  16  20  34  52  72  88 108 142 184 274
#     4  12  21  33  45  57  71  98 141 183 206 237
#     4   9  17  29  49  73  88 102 120 136 165 230
#     4  10  16  25  36  53  70  90 115 146 208 251
#
# _framework density 13.832463000000001
#
# number of rings (size 3 to 8) (size 9 to 14) (size 15 to 20)
#    0.000    1.143    7.143    3.429    0.000    2.286 
#    0.000    0.000    0.000    0.000    0.000    0.000 
#    0.000    0.000    0.000    0.000    0.000    0.000 
#
# Total GULP energy -694293.080627 kJ/mol
# GULP energy per Si atom -12398.090725 kJ/mol
# Density = 1.380098 g / cm^3
# Si number density = 13.832463 Si / 1000 Ang^3
#
#
#
# Elastic Constant Matrix: (Units=GPa)
#
#
# Indices 1 2 3 4 5 6 
#
# 1 110.1247 17.9429 12.7919 0.0000 0.0000 0.0000
# 2 17.9429 46.4604 20.4925 0.0000 0.0000 0.0000
# 3 12.7919 20.4925 50.7942 0.0000 0.0000 0.0000
# 4 0.0000 0.0000 0.0000 -0.8561 0.0000 0.0000
# 5 0.0000 0.0000 0.0000 0.0000 15.9288 0.0000
# 6 0.0000 0.0000 0.0000 0.0000 0.0000 22.3021
#
#
#
# Elastic Compliance Matrix: (Units=1/GPa)
#
#
# Indices 1 2 3 4 5 6 
#
# 1 0.009744 -0.003261 -0.001138 0.000000 0.000000 0.000000
# 2 -0.003261 0.027274 -0.010182 0.000000 0.000000 0.000000
# 3 -0.001138 -0.010182 0.024082 0.000000 0.000000 0.000000
# 4 0.000000 0.000000 0.000000 -1.168073 0.000000 0.000000
# 5 0.000000 0.000000 0.000000 0.000000 0.062779 0.000000
# 6 0.000000 0.000000 0.000000 0.000000 0.000000 0.044839
#
#
# Mechanical properties :
#
#
# Convention : Reuss Voigt Hill
#
# Bulk Modulus (GPa) = 31.31165 34.42597 32.86881
# Shear Modulus (GPa) = -5.21080 17.88509 6.33715
#
# Velocity S-wave (km/s) = -1.94300 3.59970 2.14273
# Velocity P-wave (km/s) = 4.20141 6.49761 5.47133
#
# Compressibility (1/GPa) = 0.03193699
#
# Stress axis : x y z
#
# Youngs Moduli (GPa) = 102.62540 36.66453 41.52493
#
# Poissons Ratio (x) = 0.11957 0.04727
# Poissons Ratio (y) = 0.33467 0.42282
# Poissons Ratio (z) = 0.11682 0.37333
#
# Static dielectric constant tensor:
#      x y z
#    x 6.385730 0.000000 0.000000 
#    y 0.000000 2.389250 0.000000 
#    z 0.000000 0.000000 2.686690 
# 
# 
# High freq. dielectric constant tensor:
#      x y z
#    x 1.565250 0.000000 0.000000 
#    y 0.000000 1.464980 0.000000 
#    z 0.000000 0.000000 1.509810 
# 
# From -- ./inp_files/22438.got.cif
#   From: 2010.03.12/outbox.cif.g09.slc.cpg/sg55_12_cif.got.tgz:22438.got - 2010.04.16 15:19:21.
