data_PCOD8224158
_publ_section_title
;
Structure prediction by ZEFSAII (Michael W. Deem and Ramdas Pophale) SiO2 
 PCOD8224158
Probable space group: P C C A
;
_chemical_formula_sum "Si O2"
_cell_formula_units_Z 36
_cell_length_a 23.859207
_cell_length_b 6.638680
_cell_length_c 10.060362
_cell_angle_alpha 90.000000
_cell_angle_beta 90.000000
_cell_angle_gamma 90.000000
_cell_volume 1593.497360
_symmetry_space_group_name_H-M "P C C A"
_symmetry_group_IT_number 54
_symmetry_cell_setting 'orthorhombic'
loop_
_space_group_symop_operation_xyz
x,y,z
1/2-x,-y,z
1/2+x,-y,1/2-z
-x,y,1/2-z
-x,-y,-z
1/2+x,y,-z
1/2-x,y,1/2+z
x,-y,1/2+z
loop_
_atom_site_type_symbol
_atom_site_label
_atom_site_fract_x
_atom_site_fract_y
_atom_site_fract_z
Si Si1 0.705601 0.146025 0.891112
Si Si2 0.935829 0.218002 0.743767
Si Si3 0.639641 0.594597 0.189951
Si Si4 0.250000 0.500000 0.453406
Si Si5 0.606942 0.058725 0.513872
O O1 0.658158 0.245108 0.800584
O O2 0.750000 0.000000 0.814129
O O3 0.670895 0.020531 0.001391
O O4 0.748027 0.304770 0.955250
O O5 0.899350 0.421643 0.750424
O O6 0.921420 0.075128 0.868863
O O7 0.000000 0.285382 0.750000
O O8 0.926663 0.096776 0.606800
O O9 0.695109 0.489603 0.136018
O O10 0.606725 0.717431 0.076677
#
# Coordination Sequence:
#
# PCOD8224158 Si02
#       5
#     8   8   8   4   8
#     4  12  26  43  70 110 150 197 240 302 379 452
#     4  12  29  52  78 107 150 203 257 318 375 442
#     4  12  27  44  74 111 153 190 254 306 380 446
#     4  12  24  42  70 106 152 200 238 310 374 456
#     4  12  26  50  76 111 149 195 256 312 373 456
#
# _framework density 22.591816999999999
#
# number of rings (size 3 to 8) (size 9 to 14) (size 15 to 20)
#    0.000    0.000    6.667    2.667    6.222    1.778 
#    0.000    0.000    0.000    0.000    0.000    0.000 
#    0.000    0.000    0.000    0.000    0.000    0.000 
#
# Total GULP energy -446478.535914 kJ/mol
# GULP energy per Si atom -12402.181553 kJ/mol
# Density = 2.254040 g / cm^3
# Si number density = 22.591817 Si / 1000 Ang^3
#
#
#
# Elastic Constant Matrix: (Units=GPa)
#
#
# Indices 1 2 3 4 5 6 
#
# 1 148.5738 67.3748 43.3824 0.0000 0.0000 0.0000
# 2 67.3748 126.0748 53.8691 0.0000 0.0000 0.0000
# 3 43.3824 53.8691 110.7609 0.0000 0.0000 0.0000
# 4 0.0000 0.0000 0.0000 -0.5814 0.0000 0.0000
# 5 0.0000 0.0000 0.0000 0.0000 27.6259 0.0000
# 6 0.0000 0.0000 0.0000 0.0000 0.0000 40.3752
#
#
#
# Elastic Compliance Matrix: (Units=1/GPa)
#
#
# Indices 1 2 3 4 5 6 
#
# 1 0.009079 -0.004207 -0.001510 0.000000 0.000000 0.000000
# 2 -0.004207 0.011962 -0.004170 0.000000 0.000000 0.000000
# 3 -0.001510 -0.004170 0.011648 0.000000 0.000000 0.000000
# 4 0.000000 0.000000 0.000000 -1.720058 0.000000 0.000000
# 5 0.000000 0.000000 0.000000 0.000000 0.036198 0.000000
# 6 0.000000 0.000000 0.000000 0.000000 0.000000 0.024768
#
#
# Mechanical properties :
#
#
# Convention : Reuss Voigt Hill
#
# Bulk Modulus (GPa) = 77.42774 79.40691 78.41732
# Shear Modulus (GPa) = -3.12047 28.20285 12.54119
#
# Velocity S-wave (km/s) = -1.17654 3.53705 2.35866
# Velocity P-wave (km/s) = 5.70098 7.20457 6.49642
#
# Compressibility (1/GPa) = 0.01291527
#
# Stress axis : x y z
#
# Youngs Moduli (GPa) = 110.14098 83.60085 85.85159
#
# Poissons Ratio (x) = 0.35169 0.12965
# Poissons Ratio (y) = 0.46333 0.35799
# Poissons Ratio (z) = 0.16633 0.34861
#
# Static dielectric constant tensor:
#      x y z
#    x 3.927830 0.000000 0.000000 
#    y 0.000000 4.220100 0.000000 
#    z 0.000000 0.000000 4.128880 
# 
# 
# High freq. dielectric constant tensor:
#      x y z
#    x 1.886360 0.000000 0.000000 
#    y 0.000000 1.907100 0.000000 
#    z 0.000000 0.000000 1.890180 
# 
# From -- ./inp_files/9723.got.cif
#   From: 2010.03.12/outbox.cif.g09.slc.cpg/sg54_5_cif.got.tgz:9723.got - 2010.04.16 15:00:50.
