data_PCOD8224961
_publ_section_title
;
Structure prediction by ZEFSAII (Michael W. Deem and Ramdas Pophale) SiO2 
 PCOD8224961
Probable space group: P B A M
;
_chemical_formula_sum "Si O2"
_cell_formula_units_Z 64
_cell_length_a 23.591951
_cell_length_b 8.511986
_cell_length_c 17.720921
_cell_angle_alpha 90.000000
_cell_angle_beta 90.000000
_cell_angle_gamma 90.000000
_cell_volume 3558.615349
_symmetry_space_group_name_H-M "P B A M"
_symmetry_group_IT_number 55
_symmetry_cell_setting 'orthorhombic'
loop_
_space_group_symop_operation_xyz
x,y,z
-x,-y,z
1/2+x,1/2-y,-z
1/2-x,1/2+y,-z
-x,-y,-z
x,y,-z
1/2-x,1/2+y,z
1/2+x,1/2-y,z
loop_
_atom_site_type_symbol
_atom_site_label
_atom_site_fract_x
_atom_site_fract_y
_atom_site_fract_z
Si Si1 0.461774 0.812259 0.320526
Si Si2 0.826769 0.395939 0.353251
Si Si3 0.777514 0.719789 0.411992
Si Si4 0.995620 0.825135 0.821233
Si Si5 0.090478 0.582746 0.776925
Si Si6 0.059688 0.413595 0.083405
Si Si7 0.570465 0.733180 0.414255
Si Si8 0.113254 0.103533 0.585870
O O1 0.460319 0.679453 0.256049
O O2 0.448762 0.979258 0.280118
O O3 0.521649 0.810328 0.363994
O O4 0.413149 0.759231 0.377226
O O5 0.804461 0.568894 0.371757
O O6 0.778223 0.266330 0.365603
O O7 0.850598 0.381024 0.266673
O O8 0.877360 0.353992 0.410696
O O9 0.763686 0.682295 0.500000
O O10 0.819173 0.871614 0.406595
O O11 0.055323 0.737711 0.801499
O O12 0.957610 0.758180 0.889169
O O13 0.000000 0.000000 0.849346
O O14 0.102759 0.490989 0.855554
O O15 0.000000 0.500000 0.082761
O O16 0.087876 0.411710 0.000000
O O17 0.549271 0.718348 0.500000
O O18 0.590903 0.563104 0.381029
O O19 0.093833 0.105756 0.500000
#
# Coordination Sequence:
#
# PCOD8224961 Si02
#       8
#     8   8   8   8   8   8   8   8
#     4  11  19  34  52  77 112 148 181 223 282 343
#     4  12  23  40  56  75 103 141 191 248 288 339
#     4  11  23  39  56  71  98 140 193 246 294 333
#     4  10  19  31  52  81 117 153 181 219 266 325
#     4  10  21  36  56  81 113 148 187 222 276 339
#     4   8  16  32  55  83 120 156 182 211 262 337
#     4  11  22  33  51  76 106 141 182 233 290 343
#     4  10  21  36  52  75 104 140 186 236 286 335
#
# _framework density 17.984522999999999
#
# number of rings (size 3 to 8) (size 9 to 14) (size 15 to 20)
#    0.000    1.625    2.500    4.500    0.000    2.250 
#    0.000    0.625    0.000    0.000    0.000    0.875 
#    0.000    0.000    0.000    0.000    0.000    0.000 
#
# Total GULP energy -792878.479243 kJ/mol
# GULP energy per Si atom -12388.726238 kJ/mol
# Density = 1.794359 g / cm^3
# Si number density = 17.984523 Si / 1000 Ang^3
#
#
#
# Elastic Constant Matrix: (Units=GPa)
#
#
# Indices 1 2 3 4 5 6 
#
# 1 86.0089 28.6736 42.5596 0.0000 0.0000 0.0000
# 2 28.6736 95.7194 43.0870 0.0000 0.0000 0.0000
# 3 42.5596 43.0870 113.3583 0.0000 0.0000 0.0000
# 4 0.0000 0.0000 0.0000 8.0677 0.0000 0.0000
# 5 0.0000 0.0000 0.0000 0.0000 47.7977 0.0000
# 6 0.0000 0.0000 0.0000 0.0000 0.0000 27.3918
#
#
#
# Elastic Compliance Matrix: (Units=1/GPa)
#
#
# Indices 1 2 3 4 5 6 
#
# 1 0.014693 -0.002314 -0.004637 0.000000 0.000000 0.000000
# 2 -0.002314 0.012968 -0.004060 0.000000 0.000000 0.000000
# 3 -0.004637 -0.004060 0.012106 0.000000 0.000000 0.000000
# 4 0.000000 0.000000 0.000000 0.123952 0.000000 0.000000
# 5 0.000000 0.000000 0.000000 0.000000 0.020922 0.000000
# 6 0.000000 0.000000 0.000000 0.000000 0.000000 0.036507
#
#
# Mechanical properties :
#
#
# Convention : Reuss Voigt Hill
#
# Bulk Modulus (GPa) = 56.35646 58.19189 57.27417
# Shear Modulus (GPa) = 20.07359 28.70252 24.38806
#
# Velocity S-wave (km/s) = 3.34452 3.99928 3.68646
# Velocity P-wave (km/s) = 6.80577 7.33161 7.07358
#
# Compressibility (1/GPa) = 0.01774420
#
# Stress axis : x y z
#
# Youngs Moduli (GPa) = 68.06182 77.11214 82.60595
#
# Poissons Ratio (x) = 0.17845 0.38301
# Poissons Ratio (y) = 0.15751 0.33540
# Poissons Ratio (z) = 0.31558 0.31310
#
# Static dielectric constant tensor:
#      x y z
#    x 3.205040 0.000000 0.000000 
#    y 0.000000 3.431820 0.000000 
#    z 0.000000 0.000000 3.551500 
# 
# 
# High freq. dielectric constant tensor:
#      x y z
#    x 1.669210 0.000000 0.000000 
#    y 0.000000 1.707610 0.000000 
#    z 0.000000 0.000000 1.677710 
# 
# From -- ./inp_files/22049.got.cif
#   From: 2010.03.12/outbox.cif.g09.slc.cpg/sg55_12_cif.got.tgz:22049.got - 2010.04.16 15:19:21.
