data_PCOD8224142
_publ_section_title
;
Structure prediction by ZEFSAII (Michael W. Deem and Ramdas Pophale) SiO2 
 PCOD8224142
Probable space group: P C C A
;
_chemical_formula_sum "Si O2"
_cell_formula_units_Z 48
_cell_length_a 17.182909
_cell_length_b 7.953867
_cell_length_c 16.299217
_cell_angle_alpha 90.000000
_cell_angle_beta 90.000000
_cell_angle_gamma 90.000000
_cell_volume 2227.623325
_symmetry_space_group_name_H-M "P C C A"
_symmetry_group_IT_number 54
_symmetry_cell_setting 'orthorhombic'
loop_
_space_group_symop_operation_xyz
x,y,z
1/2-x,-y,z
1/2+x,-y,1/2-z
-x,y,1/2-z
-x,-y,-z
1/2+x,y,-z
1/2-x,y,1/2+z
x,-y,1/2+z
loop_
_atom_site_type_symbol
_atom_site_label
_atom_site_fract_x
_atom_site_fract_y
_atom_site_fract_z
Si Si1 0.161719 0.778096 0.656714
Si Si2 0.089880 0.545516 0.238841
Si Si3 0.163716 0.277006 0.594402
Si Si4 0.331171 0.249963 0.376043
Si Si5 0.750000 0.500000 0.510996
Si Si6 0.750000 0.000000 0.737269
Si Si7 0.089132 0.042740 0.012364
O O1 0.133519 0.625179 0.713369
O O2 0.248441 0.748844 0.624244
O O3 0.172752 0.947983 0.710627
O O4 0.101173 0.816351 0.583258
O O5 0.104547 0.687863 0.169259
O O6 0.118379 0.612600 0.326997
O O7 0.000000 0.504839 0.250000
O O8 0.172502 0.447975 0.540847
O O9 0.135844 0.124215 0.537658
O O10 0.273312 0.338737 0.437988
O O11 0.382694 0.114022 0.424872
O O12 0.273546 0.160635 0.314000
O O13 0.000000 0.000000 0.000000
#
# Coordination Sequence:
#
# PCOD8224142 Si02
#       7
#     8   8   8   8   4   4   8
#     4  12  23  46  72  99 135 199 237 279 357 442
#     4  12  26  44  70 103 148 183 231 297 371 423
#     4  12  22  47  72  97 136 197 235 281 355 440
#     4  12  25  41  65 110 133 176 240 306 338 410
#     4  12  24  40  74  96 136 176 246 294 338 408
#     4  12  24  40  74  96 138 176 248 294 338 412
#     4  12  26  44  71 104 147 182 234 298 372 421
#
# _framework density 21.547629000000001
#
# number of rings (size 3 to 8) (size 9 to 14) (size 15 to 20)
#    0.000    0.000    6.667    3.000    0.000    2.667 
#    0.000    4.167    0.000    0.000    0.000    0.000 
#    0.000    0.000    0.000    0.000    0.000    0.000 
#
# Total GULP energy -595209.492920 kJ/mol
# GULP energy per Si atom -12400.197769 kJ/mol
# Density = 2.149859 g / cm^3
# Si number density = 21.547629 Si / 1000 Ang^3
#
#
#
# Elastic Constant Matrix: (Units=GPa)
#
#
# Indices 1 2 3 4 5 6 
#
# 1 141.8376 47.0844 51.4534 0.0000 0.0000 0.0000
# 2 47.0844 106.5895 45.4557 0.0000 0.0000 0.0000
# 3 51.4534 45.4557 118.9816 0.0000 0.0000 0.0000
# 4 0.0000 0.0000 0.0000 56.8496 0.0000 0.0000
# 5 0.0000 0.0000 0.0000 0.0000 30.9544 0.0000
# 6 0.0000 0.0000 0.0000 0.0000 0.0000 36.4139
#
#
#
# Elastic Compliance Matrix: (Units=1/GPa)
#
#
# Indices 1 2 3 4 5 6 
#
# 1 0.008996 -0.002765 -0.002834 0.000000 0.000000 0.000000
# 2 -0.002765 0.012058 -0.003411 0.000000 0.000000 0.000000
# 3 -0.002834 -0.003411 0.010933 0.000000 0.000000 0.000000
# 4 0.000000 0.000000 0.000000 0.017590 0.000000 0.000000
# 5 0.000000 0.000000 0.000000 0.000000 0.032306 0.000000
# 6 0.000000 0.000000 0.000000 0.000000 0.000000 0.027462
#
#
# Mechanical properties :
#
#
# Convention : Reuss Voigt Hill
#
# Bulk Modulus (GPa) = 71.59578 72.82174 72.20876
# Shear Modulus (GPa) = 37.87265 39.73792 38.80528
#
# Velocity S-wave (km/s) = 4.19695 4.29906 4.24831
# Velocity P-wave (km/s) = 7.53557 7.64929 7.59264
#
# Compressibility (1/GPa) = 0.01396730
#
# Stress axis : x y z
#
# Youngs Moduli (GPa) = 111.15565 82.93324 91.46437
#
# Poissons Ratio (x) = 0.22935 0.25921
# Poissons Ratio (y) = 0.30740 0.31196
# Poissons Ratio (z) = 0.31501 0.28286
#
# Static dielectric constant tensor:
#      x y z
#    x 3.916040 0.000000 0.000000 
#    y 0.000000 4.236260 0.000000 
#    z 0.000000 0.000000 4.744710 
# 
# 
# High freq. dielectric constant tensor:
#      x y z
#    x 1.824480 0.000000 0.000000 
#    y 0.000000 1.866050 0.000000 
#    z 0.000000 0.000000 1.866920 
# 
# From -- ./inp_files/14195.got.cif
#   From: 2010.03.12/outbox.cif.g09.slc.cpg/sg54_8_cif.got.tgz:14195.got - 2010.04.16 15:00:50.
