data_PCOD8224078
_publ_section_title
;
Structure prediction by ZEFSAII (Michael W. Deem and Ramdas Pophale) SiO2 
 PCOD8224078
Probable space group: P C C A
;
_chemical_formula_sum "Si O2"
_cell_formula_units_Z 32
_cell_length_a 8.830333
_cell_length_b 14.560125
_cell_length_c 11.068953
_cell_angle_alpha 90.000000
_cell_angle_beta 90.000000
_cell_angle_gamma 90.000000
_cell_volume 1423.143614
_symmetry_space_group_name_H-M "P C C A"
_symmetry_group_IT_number 54
_symmetry_cell_setting 'orthorhombic'
loop_
_space_group_symop_operation_xyz
x,y,z
1/2-x,-y,z
1/2+x,-y,1/2-z
-x,y,1/2-z
-x,-y,-z
1/2+x,y,-z
1/2-x,y,1/2+z
x,-y,1/2+z
loop_
_atom_site_type_symbol
_atom_site_label
_atom_site_fract_x
_atom_site_fract_y
_atom_site_fract_z
Si Si1 0.750000 0.500000 0.085376
Si Si2 0.500000 0.561081 0.750000
Si Si3 0.474771 0.238111 0.620689
Si Si4 0.815786 0.670383 0.434777
Si Si5 0.575152 0.969623 0.125721
O O1 0.594791 0.505852 0.162226
O O2 0.772217 0.589932 0.004304
O O3 0.379524 0.628211 0.687907
O O4 0.500000 0.287040 0.750000
O O5 0.547238 0.294083 0.513342
O O6 0.294770 0.243287 0.594112
O O7 0.551483 0.138883 0.628650
O O8 0.500000 0.011111 0.250000
O O9 0.750000 0.000000 0.125279
O O10 0.500000 0.000000 0.000000
#
# Coordination Sequence:
#
# PCOD8224078 Si02
#       5
#     4   4   8   8   8
#     4  12  26  44  66 100 140 194 236 306 356 434
#     4  12  26  42  70  98 140 192 246 300 362 424
#     4  11  26  45  71 102 145 181 239 299 358 433
#     4  12  25  46  66 102 139 189 245 295 359 421
#     4  11  24  47  76 111 149 193 243 307 378 458
#
# _framework density 22.485433
#
# number of rings (size 3 to 8) (size 9 to 14) (size 15 to 20)
#    0.000    0.500    2.500    5.250    5.250    2.000 
#    2.250    0.000    0.000    0.000    0.000    0.000 
#    0.000    0.000    0.000    0.000    0.000    0.000 
#
# Total GULP energy -396682.960240 kJ/mol
# GULP energy per Si atom -12396.342508 kJ/mol
# Density = 2.243425 g / cm^3
# Si number density = 22.485433 Si / 1000 Ang^3
#
#
#
# Elastic Constant Matrix: (Units=GPa)
#
#
# Indices 1 2 3 4 5 6 
#
# 1 166.0443 45.0094 62.2495 0.0000 0.0000 0.0000
# 2 45.0094 78.7959 22.6755 0.0000 0.0000 0.0000
# 3 62.2495 22.6755 152.3401 0.0000 0.0000 0.0000
# 4 0.0000 0.0000 0.0000 94.5982 0.0000 0.0000
# 5 0.0000 0.0000 0.0000 0.0000 39.3907 0.0000
# 6 0.0000 0.0000 0.0000 0.0000 0.0000 50.1362
#
#
#
# Elastic Compliance Matrix: (Units=1/GPa)
#
#
# Indices 1 2 3 4 5 6 
#
# 1 0.008086 -0.003832 -0.002734 0.000000 0.000000 0.000000
# 2 -0.003832 0.015075 -0.000678 0.000000 0.000000 0.000000
# 3 -0.002734 -0.000678 0.007782 0.000000 0.000000 0.000000
# 4 0.000000 0.000000 0.000000 0.010571 0.000000 0.000000
# 5 0.000000 0.000000 0.000000 0.000000 0.025387 0.000000
# 6 0.000000 0.000000 0.000000 0.000000 0.000000 0.019946
#
#
# Mechanical properties :
#
#
# Convention : Reuss Voigt Hill
#
# Bulk Modulus (GPa) = 60.76949 73.00546 66.88747
# Shear Modulus (GPa) = 46.80765 54.64140 50.72453
#
# Velocity S-wave (km/s) = 4.56750 4.93493 4.75477
# Velocity P-wave (km/s) = 7.40952 8.06286 7.74308
#
# Compressibility (1/GPa) = 0.01645563
#
# Stress axis : x y z
#
# Youngs Moduli (GPa) = 123.66794 66.33437 128.49749
#
# Poissons Ratio (x) = 0.25421 0.35128
# Poissons Ratio (y) = 0.47392 0.08712
# Poissons Ratio (z) = 0.33808 0.04497
#
# Static dielectric constant tensor:
#      x y z
#    x 4.573400 0.000000 0.000000 
#    y 0.000000 4.065920 0.000000 
#    z 0.000000 0.000000 4.745190 
# 
# 
# High freq. dielectric constant tensor:
#      x y z
#    x 1.899110 0.000000 0.000000 
#    y 0.000000 1.869560 0.000000 
#    z 0.000000 0.000000 1.914630 
# 
# From -- ./inp_files/6736.got.cif
#   From: 2010.03.12/outbox.cif.g09.slc.cpg/sg54_4_cif.got.tgz:6736.got - 2010.04.16 15:00:50.
