data_PCOD8224134
_publ_section_title
;
Structure prediction by ZEFSAII (Michael W. Deem and Ramdas Pophale) SiO2 
 PCOD8224134
Probable space group: P C C A
;
_chemical_formula_sum "Si O2"
_cell_formula_units_Z 32
_cell_length_a 4.919386
_cell_length_b 10.941462
_cell_length_c 25.456504
_cell_angle_alpha 90.000000
_cell_angle_beta 90.000000
_cell_angle_gamma 90.000000
_cell_volume 1370.203328
_symmetry_space_group_name_H-M "P C C A"
_symmetry_group_IT_number 54
_symmetry_cell_setting 'orthorhombic'
loop_
_space_group_symop_operation_xyz
x,y,z
1/2-x,-y,z
1/2+x,-y,1/2-z
-x,y,1/2-z
-x,-y,-z
1/2+x,y,-z
1/2-x,y,1/2+z
x,-y,1/2+z
loop_
_atom_site_type_symbol
_atom_site_label
_atom_site_fract_x
_atom_site_fract_y
_atom_site_fract_z
Si Si1 0.818258 0.244276 0.966187
Si Si2 0.750000 0.500000 0.159045
Si Si3 0.862836 0.244377 0.194918
Si Si4 0.351185 0.864461 0.642643
Si Si5 0.250000 0.500000 0.084625
O O1 0.918053 0.158466 0.918367
O O2 0.834655 0.386802 0.951625
O O3 0.514446 0.214454 0.984871
O O4 0.731950 0.380410 0.196069
O O5 0.498311 0.528128 0.122334
O O6 0.614888 0.155036 0.179388
O O7 0.000000 0.207812 0.250000
O O8 0.108477 0.231573 0.153630
O O9 0.250000 0.000000 0.653820
#
# Coordination Sequence:
#
# PCOD8224134 Si02
#       5
#     8   4   8   8   4
#     4  12  24  42  71 106 142 193 242 294 361 424
#     4  12  22  44  74 104 146 184 228 300 376 422
#     4  12  26  47  76 106 141 186 238 298 365 431
#     4  12  27  49  72 103 146 194 243 298 349 419
#     4  12  22  42  70 104 150 190 230 300 366 428
#
# _framework density 23.354196999999999
#
# number of rings (size 3 to 8) (size 9 to 14) (size 15 to 20)
#    0.000    0.000    5.000    5.250    0.000    6.000 
#    0.000    0.000    0.000    0.000    0.000    0.000 
#    0.000    0.000    0.000    0.000    0.000    0.000 
#
# Total GULP energy -396873.556815 kJ/mol
# GULP energy per Si atom -12402.298650 kJ/mol
# Density = 2.330104 g / cm^3
# Si number density = 23.354197 Si / 1000 Ang^3
#
#
#
# Elastic Constant Matrix: (Units=GPa)
#
#
# Indices 1 2 3 4 5 6 
#
# 1 141.1223 44.0597 51.2452 0.0000 0.0000 0.0000
# 2 44.0597 87.3714 61.3888 0.0000 0.0000 0.0000
# 3 51.2452 61.3888 115.7773 0.0000 0.0000 0.0000
# 4 0.0000 0.0000 0.0000 12.9416 0.0000 0.0000
# 5 0.0000 0.0000 0.0000 0.0000 52.2231 0.0000
# 6 0.0000 0.0000 0.0000 0.0000 0.0000 31.6518
#
#
#
# Elastic Compliance Matrix: (Units=1/GPa)
#
#
# Indices 1 2 3 4 5 6 
#
# 1 0.008831 -0.002720 -0.002466 0.000000 0.000000 0.000000
# 2 -0.002720 0.019079 -0.008912 0.000000 0.000000 0.000000
# 3 -0.002466 -0.008912 0.014454 0.000000 0.000000 0.000000
# 4 0.000000 0.000000 0.000000 0.077270 0.000000 0.000000
# 5 0.000000 0.000000 0.000000 0.000000 0.019149 0.000000
# 6 0.000000 0.000000 0.000000 0.000000 0.000000 0.031594
#
#
# Mechanical properties :
#
#
# Convention : Reuss Voigt Hill
#
# Bulk Modulus (GPa) = 70.58844 73.07319 71.83081
# Shear Modulus (GPa) = 24.59452 31.86846 28.23149
#
# Velocity S-wave (km/s) = 3.24869 3.69802 3.48061
# Velocity P-wave (km/s) = 6.66053 7.04207 6.85396
#
# Compressibility (1/GPa) = 0.01416663
#
# Stress axis : x y z
#
# Youngs Moduli (GPa) = 113.23785 52.41309 69.18265
#
# Poissons Ratio (x) = 0.14259 0.17063
# Poissons Ratio (y) = 0.30805 0.61658
# Poissons Ratio (z) = 0.27928 0.46712
#
# Static dielectric constant tensor:
#      x y z
#    x 4.321480 0.000000 0.000000 
#    y 0.000000 4.029820 0.000000 
#    z 0.000000 0.000000 4.108610 
# 
# 
# High freq. dielectric constant tensor:
#      x y z
#    x 1.941520 0.000000 0.000000 
#    y 0.000000 1.917740 0.000000 
#    z 0.000000 0.000000 1.924520 
# 
# From -- ./inp_files/19535.got.cif
#   From: 2010.03.12/outbox.cif.g09.slc.cpg/sg54_10_cif.got.tgz:19535.got - 2010.04.16 15:00:50.
