data_PCOD8224205
_publ_section_title
;
Structure prediction by ZEFSAII (Michael W. Deem and Ramdas Pophale) SiO2 
 PCOD8224205
Probable space group: P C C A
;
_chemical_formula_sum "Si O2"
_cell_formula_units_Z 40
_cell_length_a 16.557314
_cell_length_b 9.042184
_cell_length_c 11.252798
_cell_angle_alpha 90.000000
_cell_angle_beta 90.000000
_cell_angle_gamma 90.000000
_cell_volume 1684.704548
_symmetry_space_group_name_H-M "P C C A"
_symmetry_group_IT_number 54
_symmetry_cell_setting 'orthorhombic'
loop_
_space_group_symop_operation_xyz
x,y,z
1/2-x,-y,z
1/2+x,-y,1/2-z
-x,y,1/2-z
-x,-y,-z
1/2+x,y,-z
1/2-x,y,1/2+z
x,-y,1/2+z
loop_
_atom_site_type_symbol
_atom_site_label
_atom_site_fract_x
_atom_site_fract_y
_atom_site_fract_z
Si Si1 0.308573 0.629900 0.793784
Si Si2 0.801052 0.148955 0.116403
Si Si3 0.451987 0.639414 0.955845
Si Si4 0.403394 0.828470 0.613262
Si Si5 0.421050 0.836563 0.178772
O O1 0.250000 0.500000 0.743231
O O2 0.261556 0.717612 0.897536
O O3 0.387006 0.571256 0.863698
O O4 0.335470 0.744234 0.690501
O O5 0.839926 0.179074 0.245218
O O6 0.750000 0.000000 0.107843
O O7 0.871155 0.156053 0.020126
O O8 0.512530 0.742269 0.882417
O O9 0.500000 0.500000 0.000000
O O10 0.411862 0.734313 0.062247
O O11 0.427477 0.990251 0.654223
O O12 0.500000 0.783380 0.250000
#
# Coordination Sequence:
#
# PCOD8224205 Si02
#       5
#     8   8   8   8   8
#     4  12  29  48  76 111 155 198 255 320 394 461
#     4  12  27  48  73 113 150 200 255 320 388 457
#     4  12  28  50  80 108 153 203 262 315 388 474
#     4  12  27  49  77 110 152 203 258 321 387 466
#     4  12  26  48  79 109 149 201 256 320 378 465
#
# _framework density 23.743036
#
# number of rings (size 3 to 8) (size 9 to 14) (size 15 to 20)
#    0.000    0.000    4.000    4.800    8.400    0.800 
#    0.000    0.000    0.000    0.000    0.000    0.000 
#    0.000    0.000    0.000    0.000    0.000    0.000 
#
# Total GULP energy -496009.096226 kJ/mol
# GULP energy per Si atom -12400.227406 kJ/mol
# Density = 2.368900 g / cm^3
# Si number density = 23.743036 Si / 1000 Ang^3
#
#
#
# Elastic Constant Matrix: (Units=GPa)
#
#
# Indices 1 2 3 4 5 6 
#
# 1 102.2679 29.0756 29.6827 0.0000 0.0000 0.0000
# 2 29.0756 125.3654 27.0032 0.0000 0.0000 0.0000
# 3 29.6827 27.0032 86.3165 0.0000 0.0000 0.0000
# 4 0.0000 0.0000 0.0000 -29.2374 0.0000 0.0000
# 5 0.0000 0.0000 0.0000 0.0000 31.5158 0.0000
# 6 0.0000 0.0000 0.0000 0.0000 0.0000 52.2811
#
#
#
# Elastic Compliance Matrix: (Units=1/GPa)
#
#
# Indices 1 2 3 4 5 6 
#
# 1 0.011273 -0.001908 -0.003280 0.000000 0.000000 0.000000
# 2 -0.001908 0.008876 -0.002121 0.000000 0.000000 0.000000
# 3 -0.003280 -0.002121 0.013376 0.000000 0.000000 0.000000
# 4 0.000000 0.000000 0.000000 -0.034203 0.000000 0.000000
# 5 0.000000 0.000000 0.000000 0.000000 0.031730 0.000000
# 6 0.000000 0.000000 0.000000 0.000000 0.000000 0.019127
#
#
# Mechanical properties :
#
#
# Convention : Reuss Voigt Hill
#
# Bulk Modulus (GPa) = 52.88581 53.94142 53.41362
# Shear Modulus (GPa) = 70.32452 26.12446 48.22449
#
# Velocity S-wave (km/s) = 5.44824 3.32068 4.51166
# Velocity P-wave (km/s) = 7.86768 6.12133 7.04879
#
# Compressibility (1/GPa) = 0.01890866
#
# Stress axis : x y z
#
# Youngs Moduli (GPa) = 88.71096 112.66370 74.75825
#
# Poissons Ratio (x) = 0.21496 0.24517
# Poissons Ratio (y) = 0.16926 0.15853
# Poissons Ratio (z) = 0.29093 0.23892
#
# Static dielectric constant tensor:
#      x y z
#    x 3.767230 0.000000 0.000000 
#    y 0.000000 4.470510 0.000000 
#    z 0.000000 0.000000 4.290060 
# 
# 
# High freq. dielectric constant tensor:
#      x y z
#    x 1.963730 0.000000 0.000000 
#    y 0.000000 1.949950 0.000000 
#    z 0.000000 0.000000 1.939980 
# 
# From -- ./inp_files/8706.got.cif
#   From: 2010.03.12/outbox.cif.g09.slc.cpg/sg54_5_cif.got.tgz:8706.got - 2010.04.16 15:00:50.
