data_PCOD8224621
_publ_section_title
;
Structure prediction by ZEFSAII (Michael W. Deem and Ramdas Pophale) SiO2 
 PCOD8224621
Probable space group: P B A M
;
_chemical_formula_sum "Si O2"
_cell_formula_units_Z 64
_cell_length_a 14.554549
_cell_length_b 24.522087
_cell_length_c 8.986995
_cell_angle_alpha 90.000000
_cell_angle_beta 90.000000
_cell_angle_gamma 90.000000
_cell_volume 3207.529664
_symmetry_space_group_name_H-M "P B A M"
_symmetry_group_IT_number 55
_symmetry_cell_setting 'orthorhombic'
loop_
_space_group_symop_operation_xyz
x,y,z
-x,-y,z
1/2+x,1/2-y,-z
1/2-x,1/2+y,-z
-x,-y,-z
x,y,-z
1/2-x,1/2+y,z
1/2+x,1/2-y,z
loop_
_atom_site_type_symbol
_atom_site_label
_atom_site_fract_x
_atom_site_fract_y
_atom_site_fract_z
Si Si1 0.428791 0.546020 0.325765
Si Si2 0.055236 0.554457 0.323883
Si Si3 0.748990 0.584413 0.332594
Si Si4 0.136536 0.758247 0.827406
Si Si5 0.015774 0.663041 0.170839
Si Si6 0.184205 0.314041 0.831791
Si Si7 0.737308 0.975753 0.175397
Si Si8 0.061535 0.861133 0.666212
O O1 0.500000 0.500000 0.268458
O O2 0.408270 0.536688 0.500000
O O3 0.334573 0.544180 0.236241
O O4 0.468652 0.606538 0.293831
O O5 0.065693 0.556401 0.500000
O O6 0.002077 0.608345 0.267337
O O7 0.155228 0.558490 0.248735
O O8 0.000000 0.500000 0.274338
O O9 0.779581 0.568030 0.500000
O O10 0.798849 0.639463 0.287938
O O11 0.780036 0.538339 0.218418
O O12 0.639892 0.592486 0.323592
O O13 0.097003 0.701415 0.761295
O O14 0.245972 0.764043 0.792376
O O15 0.079862 0.810684 0.773062
O O16 0.115335 0.755129 0.000000
O O17 0.923141 0.700510 0.180934
O O18 0.034347 0.645737 0.000000
O O19 0.208154 0.333893 0.000000
O O20 0.734296 0.967922 0.000000
O O21 0.057684 0.837043 0.500000
#
# Coordination Sequence:
#
# PCOD8224621 Si02
#       8
#     8   8   8   8   8   8   8   8
#     4  10  19  36  57  81 120 164 201 244 297 352
#     4  11  25  44  65  88 116 153 198 250 306 367
#     4  10  18  32  54  81 113 150 194 240 286 340
#     4   9  19  36  57  83 116 151 192 242 293 348
#     4  10  21  39  61  86 118 155 194 243 300 355
#     4   9  18  34  57  83 111 148 190 238 293 344
#     4  12  24  36  55  86 120 156 195 239 296 361
#     4   9  18  33  55  80 111 154 198 242 288 336
#
# _framework density 19.953049
#
# number of rings (size 3 to 8) (size 9 to 14) (size 15 to 20)
#    0.000    2.000    1.250    2.625    0.000    5.250 
#    2.250    0.000    0.000    0.000    0.000    0.000 
#    0.000    0.000    0.000    0.000    0.000    0.000 
#
# Total GULP energy -793385.466061 kJ/mol
# GULP energy per Si atom -12396.647907 kJ/mol
# Density = 1.990764 g / cm^3
# Si number density = 19.953049 Si / 1000 Ang^3
#
#
#
# Elastic Constant Matrix: (Units=GPa)
#
#
# Indices 1 2 3 4 5 6 
#
# 1 121.2640 43.3124 42.3972 0.0000 0.0000 0.0000
# 2 43.3124 90.8885 29.4348 0.0000 0.0000 0.0000
# 3 42.3972 29.4348 73.3507 0.0000 0.0000 0.0000
# 4 0.0000 0.0000 0.0000 24.7111 0.0000 0.0000
# 5 0.0000 0.0000 0.0000 0.0000 25.6215 0.0000
# 6 0.0000 0.0000 0.0000 0.0000 0.0000 28.1119
#
#
#
# Elastic Compliance Matrix: (Units=1/GPa)
#
#
# Indices 1 2 3 4 5 6 
#
# 1 0.011362 -0.003779 -0.005051 0.000000 0.000000 0.000000
# 2 -0.003779 0.013903 -0.003395 0.000000 0.000000 0.000000
# 3 -0.005051 -0.003395 0.017915 0.000000 0.000000 0.000000
# 4 0.000000 0.000000 0.000000 0.040468 0.000000 0.000000
# 5 0.000000 0.000000 0.000000 0.000000 0.039030 0.000000
# 6 0.000000 0.000000 0.000000 0.000000 0.000000 0.035572
#
#
# Mechanical properties :
#
#
# Convention : Reuss Voigt Hill
#
# Bulk Modulus (GPa) = 53.38869 57.31021 55.34945
# Shear Modulus (GPa) = 26.46312 27.04613 26.75463
#
# Velocity S-wave (km/s) = 3.64575 3.68569 3.66577
# Velocity P-wave (km/s) = 6.67362 6.84816 6.76145
#
# Compressibility (1/GPa) = 0.01873056
#
# Stress axis : x y z
#
# Youngs Moduli (GPa) = 88.01176 71.92857 55.81922
#
# Poissons Ratio (x) = 0.27180 0.28194
# Poissons Ratio (y) = 0.33257 0.18950
# Poissons Ratio (z) = 0.44455 0.24419
#
# Static dielectric constant tensor:
#      x y z
#    x 3.838820 0.000000 0.000000 
#    y 0.000000 3.456580 0.000000 
#    z 0.000000 0.000000 3.530170 
# 
# 
# High freq. dielectric constant tensor:
#      x y z
#    x 1.786160 0.000000 0.000000 
#    y 0.000000 1.759150 0.000000 
#    z 0.000000 0.000000 1.770790 
# 
# From -- ./inp_files/6713.got.cif
#   From: 2010.03.12/outbox.cif.g09.slc.cpg/sg55_4_cif.got.tgz:6713.got - 2010.04.16 15:19:21.
