data_PCOD8224441
_publ_section_title
;
Structure prediction by ZEFSAII (Michael W. Deem and Ramdas Pophale) SiO2 
 PCOD8224441
Probable space group: P B A M
;
_chemical_formula_sum "Si O2"
_cell_formula_units_Z 64
_cell_length_a 26.119269
_cell_length_b 18.383120
_cell_length_c 8.843345
_cell_angle_alpha 90.000000
_cell_angle_beta 90.000000
_cell_angle_gamma 90.000000
_cell_volume 4246.164436
_symmetry_space_group_name_H-M "P B A M"
_symmetry_group_IT_number 55
_symmetry_cell_setting 'orthorhombic'
loop_
_space_group_symop_operation_xyz
x,y,z
-x,-y,z
1/2+x,1/2-y,-z
1/2-x,1/2+y,-z
-x,-y,-z
x,y,-z
1/2-x,1/2+y,z
1/2+x,1/2-y,z
loop_
_atom_site_type_symbol
_atom_site_label
_atom_site_fract_x
_atom_site_fract_y
_atom_site_fract_z
Si Si1 0.852032 0.672381 0.176483
Si Si2 0.802259 0.211094 0.328513
Si Si3 0.052101 0.422718 0.820392
Si Si4 0.854883 0.337773 0.178173
Si Si5 0.748054 0.086555 0.821238
Si Si6 0.555501 0.923804 0.320013
Si Si7 0.247249 0.578387 0.177636
Si Si8 0.697402 0.298816 0.669534
O O1 0.905995 0.637490 0.222290
O O2 0.807040 0.617861 0.228901
O O3 0.847440 0.751268 0.254356
O O4 0.847919 0.686157 0.000000
O O5 0.822097 0.203791 0.500000
O O6 0.843568 0.255066 0.229097
O O7 0.793931 0.131317 0.257394
O O8 0.749049 0.253106 0.320536
O O9 0.071068 0.499831 0.755749
O O10 0.999701 0.398533 0.741011
O O11 0.044665 0.430083 0.000000
O O12 0.904158 0.363322 0.270417
O O13 0.807758 0.389594 0.225605
O O14 0.865721 0.340429 0.000000
O O15 0.751103 0.003907 0.763000
O O16 0.755300 0.091775 0.000000
O O17 0.553896 0.931990 0.500000
O O18 0.293901 0.624305 0.248097
O O19 0.253592 0.582804 0.000000
O O20 0.680544 0.315788 0.500000
#
# Coordination Sequence:
#
# PCOD8224441 Si02
#       8
#     8   8   8   8   8   8   8   8
#     4   9  17  29  45  61  80 109 145 177 207 244
#     4   9  17  28  40  59  84 109 137 172 211 250
#     4  10  19  32  47  62  82 111 146 180 210 247
#     4  10  18  30  46  61  80 112 148 178 208 247
#     4   9  16  27  42  61  83 110 142 174 207 246
#     4  11  21  31  43  62  87 112 139 177 218 252
#     4   9  17  28  43  61  83 111 145 178 207 244
#     4   9  17  27  40  59  84 110 137 170 211 252
#
# _framework density 15.072426999999999
#
# number of rings (size 3 to 8) (size 9 to 14) (size 15 to 20)
#    0.000    2.500    0.000    4.125    0.000    7.000 
#    0.000    2.500    0.000    0.000    0.000    0.000 
#    0.000    1.000    0.000   10.500    0.000    5.000 
#
# Total GULP energy -793581.168329 kJ/mol
# GULP energy per Si atom -12399.705755 kJ/mol
# Density = 1.503812 g / cm^3
# Si number density = 15.072427 Si / 1000 Ang^3
#
#
#
# Elastic Constant Matrix: (Units=GPa)
#
#
# Indices 1 2 3 4 5 6 
#
# 1 68.3442 48.6851 33.8789 0.0000 0.0000 0.0000
# 2 48.6851 108.2653 38.1751 0.0000 0.0000 0.0000
# 3 33.8789 38.1751 65.9879 0.0000 0.0000 0.0000
# 4 0.0000 0.0000 0.0000 18.0122 0.0000 0.0000
# 5 0.0000 0.0000 0.0000 0.0000 18.8319 0.0000
# 6 0.0000 0.0000 0.0000 0.0000 0.0000 26.2853
#
#
#
# Elastic Compliance Matrix: (Units=1/GPa)
#
#
# Indices 1 2 3 4 5 6 
#
# 1 0.024311 -0.008205 -0.007735 0.000000 0.000000 0.000000
# 2 -0.008205 0.014373 -0.004102 0.000000 0.000000 0.000000
# 3 -0.007735 -0.004102 0.021499 0.000000 0.000000 0.000000
# 4 0.000000 0.000000 0.000000 0.055518 0.000000 0.000000
# 5 0.000000 0.000000 0.000000 0.000000 0.053102 0.000000
# 6 0.000000 0.000000 0.000000 0.000000 0.000000 0.038044
#
#
# Mechanical properties :
#
#
# Convention : Reuss Voigt Hill
#
# Bulk Modulus (GPa) = 49.75575 53.78617 51.77096
# Shear Modulus (GPa) = 19.71383 20.74975 20.23179
#
# Velocity S-wave (km/s) = 3.62047 3.71437 3.66772
# Velocity P-wave (km/s) = 7.11054 7.35922 7.23595
#
# Compressibility (1/GPa) = 0.02009818
#
# Stress axis : x y z
#
# Youngs Moduli (GPa) = 41.13407 69.57652 46.51446
#
# Poissons Ratio (x) = 0.57086 0.35978
# Poissons Ratio (y) = 0.33750 0.19082
# Poissons Ratio (z) = 0.31816 0.28543
#
# Static dielectric constant tensor:
#      x y z
#    x 2.711920 0.000000 0.000000 
#    y 0.000000 2.959260 0.000000 
#    z 0.000000 0.000000 2.963670 
# 
# 
# High freq. dielectric constant tensor:
#      x y z
#    x 1.542140 0.000000 0.000000 
#    y 0.000000 1.566690 0.000000 
#    z 0.000000 0.000000 1.588590 
# 
# From -- ./inp_files/8224.got.cif
#   From: 2010.03.12/outbox.cif.g09.slc.cpg/sg55_5_cif.got.tgz:8224.got - 2010.04.16 15:19:21.
