data_PCOD8224797
_publ_section_title
;
Structure prediction by ZEFSAII (Michael W. Deem and Ramdas Pophale) SiO2 
 PCOD8224797
Probable space group: P B A M
;
_chemical_formula_sum "Si O2"
_cell_formula_units_Z 64
_cell_length_a 10.489832
_cell_length_b 28.441146
_cell_length_c 12.310228
_cell_angle_alpha 90.000000
_cell_angle_beta 90.000000
_cell_angle_gamma 90.000000
_cell_volume 3672.668425
_symmetry_space_group_name_H-M "P B A M"
_symmetry_group_IT_number 55
_symmetry_cell_setting 'orthorhombic'
loop_
_space_group_symop_operation_xyz
x,y,z
-x,-y,z
1/2+x,1/2-y,-z
1/2-x,1/2+y,-z
-x,-y,-z
x,y,-z
1/2-x,1/2+y,z
1/2+x,1/2-y,z
loop_
_atom_site_type_symbol
_atom_site_label
_atom_site_fract_x
_atom_site_fract_y
_atom_site_fract_z
Si Si1 0.751324 0.558042 0.870745
Si Si2 0.121966 0.638716 0.812870
Si Si3 0.521479 0.419761 0.872085
Si Si4 0.102237 0.707583 0.625298
Si Si5 0.851470 0.656769 0.877005
Si Si6 0.339668 0.760777 0.278256
Si Si7 0.288918 0.043872 0.870616
Si Si8 0.383862 0.677726 0.121202
O O1 0.606848 0.557332 0.824047
O O2 0.819643 0.605109 0.828374
O O3 0.822845 0.509795 0.834941
O O4 0.747974 0.559790 0.000000
O O5 0.124386 0.659074 0.690573
O O6 0.117257 0.581476 0.812655
O O7 0.243464 0.655329 0.880524
O O8 0.003694 0.660980 0.876798
O O9 0.645749 0.446210 0.826780
O O10 0.520309 0.364053 0.843126
O O11 0.524044 0.426139 0.000000
O O12 0.118705 0.695259 0.500000
O O13 0.212864 0.744918 0.657653
O O14 0.957981 0.726342 0.643525
O O15 0.793193 0.696062 0.797549
O O16 0.799411 0.664054 0.000000
O O17 0.397889 0.720291 0.203004
O O18 0.302273 0.050141 0.000000
O O19 0.415602 0.695919 0.000000
#
# Coordination Sequence:
#
# PCOD8224797 Si02
#       8
#     8   8   8   8   8   8   8   8
#     4   9  17  25  38  63  97 135 162 186 225 268
#     4   9  18  31  47  67  91 124 166 196 240 288
#     4   8  14  24  39  60  91 126 161 194 222 260
#     4  10  21  38  55  72  92 118 162 215 257 290
#     4  10  19  30  42  67 106 136 158 190 228 284
#     4  10  21  33  52  75  96 128 164 196 246 298
#     4   9  15  26  44  65  93 128 162 193 225 276
#     4   9  16  28  46  69  98 130 159 191 227 285
#
# _framework density 17.426020999999999
#
# number of rings (size 3 to 8) (size 9 to 14) (size 15 to 20)
#    0.000    2.750    0.000    3.000    1.750    2.000 
#    0.000    3.125    0.000    0.000    0.000    7.875 
#    0.000    3.500    0.000    0.000    0.000    0.000 
#
# Total GULP energy -793086.895624 kJ/mol
# GULP energy per Si atom -12391.982744 kJ/mol
# Density = 1.738636 g / cm^3
# Si number density = 17.426021 Si / 1000 Ang^3
#
#
#
# Elastic Constant Matrix: (Units=GPa)
#
#
# Indices 1 2 3 4 5 6 
#
# 1 38.8616 7.2538 14.1135 0.0000 0.0000 0.0000
# 2 7.2538 98.8119 42.8002 0.0000 0.0000 0.0000
# 3 14.1135 42.8002 69.2987 0.0000 0.0000 0.0000
# 4 0.0000 0.0000 0.0000 11.2736 0.0000 0.0000
# 5 0.0000 0.0000 0.0000 0.0000 15.5988 0.0000
# 6 0.0000 0.0000 0.0000 0.0000 0.0000 24.4611
#
#
#
# Elastic Compliance Matrix: (Units=1/GPa)
#
#
# Indices 1 2 3 4 5 6 
#
# 1 0.027810 0.000562 -0.006011 0.000000 0.000000 0.000000
# 2 0.000562 0.013828 -0.008655 0.000000 0.000000 0.000000
# 3 -0.006011 -0.008655 0.021000 0.000000 0.000000 0.000000
# 4 0.000000 0.000000 0.000000 0.088703 0.000000 0.000000
# 5 0.000000 0.000000 0.000000 0.000000 0.064107 0.000000
# 6 0.000000 0.000000 0.000000 0.000000 0.000000 0.040881
#
#
# Mechanical properties :
#
#
# Convention : Reuss Voigt Hill
#
# Bulk Modulus (GPa) = 29.04392 37.25634 33.15013
# Shear Modulus (GPa) = 16.89108 19.78701 18.33904
#
# Velocity S-wave (km/s) = 3.11674 3.37335 3.24758
# Velocity P-wave (km/s) = 5.44566 6.04970 5.75561
#
# Compressibility (1/GPa) = 0.03443062
#
# Stress axis : x y z
#
# Youngs Moduli (GPa) = 35.95765 72.31815 47.61929
#
# Poissons Ratio (x) = -0.04065 0.28625
# Poissons Ratio (y) = -0.02021 0.41214
# Poissons Ratio (z) = 0.21615 0.62590
#
# Static dielectric constant tensor:
#      x y z
#    x 3.338750 0.000000 0.000000 
#    y 0.000000 3.544500 0.000000 
#    z 0.000000 0.000000 2.721800 
# 
# 
# High freq. dielectric constant tensor:
#      x y z
#    x 1.679500 0.000000 0.000000 
#    y 0.000000 1.684730 0.000000 
#    z 0.000000 0.000000 1.602990 
# 
# From -- ./inp_files/13635.got.cif
#   From: 2010.03.12/outbox.cif.g09.slc.cpg/sg55_7_cif.got.tgz:13635.got - 2010.04.16 15:19:21.
