data_PCOD8224476
_publ_section_title
;
Structure prediction by ZEFSAII (Michael W. Deem and Ramdas Pophale) SiO2 
 PCOD8224476
Probable space group: P B A M
;
_chemical_formula_sum "Si O2"
_cell_formula_units_Z 64
_cell_length_a 22.936820
_cell_length_b 11.880595
_cell_length_c 13.288607
_cell_angle_alpha 90.000000
_cell_angle_beta 90.000000
_cell_angle_gamma 90.000000
_cell_volume 3621.186190
_symmetry_space_group_name_H-M "P B A M"
_symmetry_group_IT_number 55
_symmetry_cell_setting 'orthorhombic'
loop_
_space_group_symop_operation_xyz
x,y,z
-x,-y,z
1/2+x,1/2-y,-z
1/2-x,1/2+y,-z
-x,-y,-z
x,y,-z
1/2-x,1/2+y,z
1/2+x,1/2-y,z
loop_
_atom_site_type_symbol
_atom_site_label
_atom_site_fract_x
_atom_site_fract_y
_atom_site_fract_z
Si Si1 0.115706 0.072193 0.610058
Si Si2 0.896247 0.184385 0.616597
Si Si3 0.311224 0.633395 0.214494
Si Si4 0.590087 0.242235 0.884923
Si Si5 0.214589 0.907939 0.883429
Si Si6 0.179151 0.695510 0.225653
Si Si7 0.509459 0.376703 0.266034
Si Si8 0.843766 0.527433 0.116174
O O1 0.127068 0.119841 0.500000
O O2 0.155872 0.146719 0.680694
O O3 0.048818 0.094832 0.637530
O O4 0.130870 0.940028 0.615931
O O5 0.908831 0.222016 0.500000
O O6 0.850164 0.269914 0.668220
O O7 0.952969 0.185283 0.688969
O O8 0.345928 0.703543 0.130385
O O9 0.315680 0.505722 0.179038
O O10 0.246983 0.672388 0.239443
O O11 0.540063 0.293161 0.813659
O O12 0.600961 0.109168 0.863133
O O13 0.570506 0.261002 0.000000
O O14 0.178425 0.796496 0.854899
O O15 0.283570 0.907052 0.856259
O O16 0.205248 0.931451 0.000000
O O17 0.147306 0.585028 0.182088
O O18 0.500000 0.500000 0.213203
O O19 0.841272 0.490076 0.000000
#
# Coordination Sequence:
#
# PCOD8224476 Si02
#       8
#     8   8   8   8   8   8   8   8
#     4   9  17  32  55  78 102 133 173 222 275 324
#     4  10  20  36  56  78 104 136 178 227 276 316
#     4  10  19  31  50  80 112 138 172 217 267 314
#     4  10  19  34  55  79 111 145 176 216 270 320
#     4  10  18  30  49  76 108 141 175 211 254 314
#     4  11  20  32  53  77 111 144 179 214 259 317
#     4   9  19  35  56  80 105 134 180 229 275 312
#     4   9  19  33  51  76 107 145 179 206 250 315
#
# _framework density 17.673767999999999
#
# number of rings (size 3 to 8) (size 9 to 14) (size 15 to 20)
#    0.000    2.250    2.500    1.125    0.000    3.250 
#    0.000    1.875    0.000    6.000    0.000    0.000 
#    0.000    0.000    0.000    0.000    0.000    0.000 
#
# Total GULP energy -793137.560790 kJ/mol
# GULP energy per Si atom -12392.774387 kJ/mol
# Density = 1.763354 g / cm^3
# Si number density = 17.673768 Si / 1000 Ang^3
#
#
#
# Elastic Constant Matrix: (Units=GPa)
#
#
# Indices 1 2 3 4 5 6 
#
# 1 62.9791 29.2780 31.5545 0.0000 0.0000 0.0000
# 2 29.2780 69.5075 35.3799 0.0000 0.0000 0.0000
# 3 31.5545 35.3799 95.8611 0.0000 0.0000 0.0000
# 4 0.0000 0.0000 0.0000 21.5771 0.0000 0.0000
# 5 0.0000 0.0000 0.0000 0.0000 19.6486 0.0000
# 6 0.0000 0.0000 0.0000 0.0000 0.0000 21.0471
#
#
#
# Elastic Compliance Matrix: (Units=1/GPa)
#
#
# Indices 1 2 3 4 5 6 
#
# 1 0.021238 -0.006634 -0.004543 0.000000 0.000000 0.000000
# 2 -0.006634 0.019787 -0.005119 0.000000 0.000000 0.000000
# 3 -0.004543 -0.005119 0.013816 0.000000 0.000000 0.000000
# 4 0.000000 0.000000 0.000000 0.046346 0.000000 0.000000
# 5 0.000000 0.000000 0.000000 0.000000 0.050894 0.000000
# 6 0.000000 0.000000 0.000000 0.000000 0.000000 0.047513
#
#
# Mechanical properties :
#
#
# Convention : Reuss Voigt Hill
#
# Bulk Modulus (GPa) = 44.94303 46.75250 45.84777
# Shear Modulus (GPa) = 20.86796 21.26357 21.06576
#
# Velocity S-wave (km/s) = 3.43990 3.47236 3.45617
# Velocity P-wave (km/s) = 6.42353 6.52586 6.47489
#
# Compressibility (1/GPa) = 0.02225039
#
# Stress axis : x y z
#
# Youngs Moduli (GPa) = 47.08503 50.53845 72.37760
#
# Poissons Ratio (x) = 0.33526 0.32878
# Poissons Ratio (y) = 0.31235 0.37052
# Poissons Ratio (z) = 0.21389 0.25872
#
# Static dielectric constant tensor:
#      x y z
#    x 3.158190 0.000000 0.000000 
#    y 0.000000 3.285140 0.000000 
#    z 0.000000 0.000000 3.184360 
# 
# 
# High freq. dielectric constant tensor:
#      x y z
#    x 1.670080 0.000000 0.000000 
#    y 0.000000 1.676540 0.000000 
#    z 0.000000 0.000000 1.677500 
# 
# From -- ./inp_files/13573.got.cif
#   From: 2010.03.12/outbox.cif.g09.slc.cpg/sg55_7_cif.got.tgz:13573.got - 2010.04.16 15:19:21.
