data_PCOD8224348
_publ_section_title
;
Structure prediction by ZEFSAII (Michael W. Deem and Ramdas Pophale) SiO2 
 PCOD8224348
Probable space group: P B A M
;
_chemical_formula_sum "Si O2"
_cell_formula_units_Z 56
_cell_length_a 8.502409
_cell_length_b 28.192435
_cell_length_c 12.979160
_cell_angle_alpha 90.000000
_cell_angle_beta 90.000000
_cell_angle_gamma 90.000000
_cell_volume 3111.151547
_symmetry_space_group_name_H-M "P B A M"
_symmetry_group_IT_number 55
_symmetry_cell_setting 'orthorhombic'
loop_
_space_group_symop_operation_xyz
x,y,z
-x,-y,z
1/2+x,1/2-y,-z
1/2-x,1/2+y,-z
-x,-y,-z
x,y,-z
1/2-x,1/2+y,z
1/2+x,1/2-y,z
loop_
_atom_site_type_symbol
_atom_site_label
_atom_site_fract_x
_atom_site_fract_y
_atom_site_fract_z
Si Si1 0.368235 0.934692 0.883355
Si Si2 0.518593 0.782987 0.615405
Si Si3 0.040611 0.341200 0.803524
Si Si4 0.373229 0.684596 0.000000
Si Si5 0.126637 0.185320 0.615112
Si Si6 0.014425 0.715859 0.000000
Si Si7 0.227586 0.533803 0.883377
Si Si8 0.181135 0.127383 0.803960
O O1 0.345884 0.887445 0.813978
O O2 0.549000 0.949358 0.883008
O O3 0.264234 0.979315 0.841396
O O4 0.317618 0.922594 0.000000
O O5 0.458831 0.795660 0.500000
O O6 0.419971 0.814758 0.696399
O O7 0.702165 0.791975 0.628068
O O8 0.495831 0.727341 0.638135
O O9 0.069276 0.305924 0.899082
O O10 0.861773 0.357882 0.804576
O O11 0.405370 0.652609 0.899465
O O12 0.198368 0.705325 0.000000
O O13 0.495726 0.727642 0.000000
O O14 0.103759 0.164476 0.500000
O O15 0.099672 0.143109 0.696933
O O16 0.331625 0.570017 0.814654
O O17 0.291996 0.535582 0.000000
#
# Coordination Sequence:
#
# PCOD8224348 Si02
#       8
#     8   8   8   4   8   4   8   8
#     4   8  12  19  33  53  76 100 126 155 187 226
#     4   9  17  28  41  56  76 104 134 160 187 223
#     4   9  15  24  37  54  77 102 126 156 193 227
#     4  10  18  26  37  55  79 103 124 152 191 228
#     4   9  17  28  41  56  76 104 134 160 187 223
#     4  10  18  26  37  55  79 103 124 152 191 228
#     4   8  12  19  33  53  76 100 126 155 187 226
#     4   9  15  24  37  54  77 102 126 156 193 227
#
# _framework density 17.999765
#
# number of rings (size 3 to 8) (size 9 to 14) (size 15 to 20)
#    0.000    3.143    1.429    1.714    0.000    0.000 
#    0.000    0.000    0.000    0.857    0.000    6.000 
#    0.000    5.714    0.000    7.143    0.000    7.429 
#
# Total GULP energy -693926.524885 kJ/mol
# GULP energy per Si atom -12391.545087 kJ/mol
# Density = 1.795880 g / cm^3
# Si number density = 17.999765 Si / 1000 Ang^3
#
#
#
# Elastic Constant Matrix: (Units=GPa)
#
#
# Indices 1 2 3 4 5 6 
#
# 1 2.5901 -1.2698 4.1441 0.0000 0.0000 0.0000
# 2 -1.2698 17.1044 9.2713 0.0000 0.0000 0.0000
# 3 4.1441 9.2713 90.3195 0.0000 0.0000 0.0000
# 4 0.0000 0.0000 0.0000 28.4891 0.0000 0.0000
# 5 0.0000 0.0000 0.0000 0.0000 8.9392 0.0000
# 6 0.0000 0.0000 0.0000 0.0000 0.0000 14.8218
#
#
#
# Elastic Compliance Matrix: (Units=1/GPa)
#
#
# Indices 1 2 3 4 5 6 
#
# 1 0.450037 0.047231 -0.025497 0.000000 0.000000 0.000000
# 2 0.047231 0.066866 -0.009031 0.000000 0.000000 0.000000
# 3 -0.025497 -0.009031 0.013169 0.000000 0.000000 0.000000
# 4 0.000000 0.000000 0.000000 0.035101 0.000000 0.000000
# 5 0.000000 0.000000 0.000000 0.000000 0.111866 0.000000
# 6 0.000000 0.000000 0.000000 0.000000 0.000000 0.067468
#
#
# Mechanical properties :
#
#
# Convention : Reuss Voigt Hill
#
# Bulk Modulus (GPa) = 1.80025 14.92280 8.36152
# Shear Modulus (GPa) = 5.52938 16.97460 11.25199
#
# Velocity S-wave (km/s) = 1.75459 3.07424 2.50295
# Velocity P-wave (km/s) = 2.25989 4.57272 3.60672
#
# Compressibility (1/GPa) = 0.55547768
#
# Stress axis : x y z
#
# Youngs Moduli (GPa) = 2.22204 14.95530 75.93762
#
# Poissons Ratio (x) = -0.70635 1.93620
# Poissons Ratio (y) = -0.10495 0.68578
# Poissons Ratio (z) = 0.05666 0.13506
#
# Static dielectric constant tensor:
#      x y z
#    x 2.795040 0.000000 0.000000 
#    y 0.000000 3.701580 0.000000 
#    z 0.000000 0.000000 3.481600 
# 
# 
# High freq. dielectric constant tensor:
#      x y z
#    x 1.648230 0.000000 0.000000 
#    y 0.000000 1.696550 0.000000 
#    z 0.000000 0.000000 1.678830 
# 
# From -- ./inp_files/17912.got.cif
#   From: 2010.03.12/outbox.cif.g09.slc.cpg/sg55_9_cif.got.tgz:17912.got - 2010.04.16 15:19:21.
