data_PCOD8224769
_publ_section_title
;
Structure prediction by ZEFSAII (Michael W. Deem and Ramdas Pophale) SiO2 
 PCOD8224769
Probable space group: P B A M
;
_chemical_formula_sum "Si O2"
_cell_formula_units_Z 56
_cell_length_a 18.085979
_cell_length_b 20.703110
_cell_length_c 9.337257
_cell_angle_alpha 90.000000
_cell_angle_beta 90.000000
_cell_angle_gamma 90.000000
_cell_volume 3496.205281
_symmetry_space_group_name_H-M "P B A M"
_symmetry_group_IT_number 55
_symmetry_cell_setting 'orthorhombic'
loop_
_space_group_symop_operation_xyz
x,y,z
-x,-y,z
1/2+x,1/2-y,-z
1/2-x,1/2+y,-z
-x,-y,-z
x,y,-z
1/2-x,1/2+y,z
1/2+x,1/2-y,z
loop_
_atom_site_type_symbol
_atom_site_label
_atom_site_fract_x
_atom_site_fract_y
_atom_site_fract_z
Si Si1 0.929691 0.763015 0.665698
Si Si2 0.078865 0.748229 0.831372
Si Si3 0.159088 0.620730 0.170103
Si Si4 0.348006 0.871599 0.334878
Si Si5 0.806143 0.820115 0.840413
Si Si6 0.274719 0.316015 0.157628
Si Si7 0.413867 0.989755 0.165999
O O1 0.940447 0.779519 0.500000
O O2 0.896542 0.692093 0.688947
O O3 0.875159 0.816953 0.732748
O O4 0.007040 0.768681 0.745158
O O5 0.107425 0.678907 0.772129
O O6 0.140208 0.803295 0.799205
O O7 0.060579 0.744498 0.000000
O O8 0.244819 0.628999 0.218630
O O9 0.128794 0.552552 0.226563
O O10 0.155788 0.624499 0.000000
O O11 0.338958 0.889300 0.500000
O O12 0.265655 0.862698 0.270558
O O13 0.389749 0.928563 0.255806
O O14 0.765667 0.752072 0.848803
O O15 0.833938 0.839430 0.000000
O O16 0.270746 0.348422 0.000000
O O17 0.500000 0.000000 0.189444
O O18 0.395142 0.977440 0.000000
#
# Coordination Sequence:
#
# PCOD8224769 Si02
#       7
#     8   8   8   8   8   8   8
#     4  10  19  28  40  63  92 117 143 176 215 258
#     4   9  16  28  47  68  88 111 142 180 222 263
#     4   8  15  28  45  65  86 111 147 184 214 250
#     4  10  20  31  42  60  90 124 152 178 210 253
#     4   8  14  27  45  61  81 110 143 179 216 254
#     4   8  15  28  46  65  83 108 144 182 217 257
#     4  10  19  30  46  66  88 117 151 184 215 249
#
# _framework density 16.017365999999999
#
# number of rings (size 3 to 8) (size 9 to 14) (size 15 to 20)
#    0.000    3.000    0.000    3.429    0.000    3.714 
#    0.000    3.571    0.000    0.000    0.000    1.000 
#    0.000    8.000    0.000    0.000    0.000    0.000 
#
# Total GULP energy -694169.292427 kJ/mol
# GULP energy per Si atom -12395.880222 kJ/mol
# Density = 1.598091 g / cm^3
# Si number density = 16.017366 Si / 1000 Ang^3
#
#
#
# Elastic Constant Matrix: (Units=GPa)
#
#
# Indices 1 2 3 4 5 6 
#
# 1 115.1879 30.2396 67.1296 0.0000 0.0000 0.0000
# 2 30.2396 44.4113 35.9872 0.0000 0.0000 0.0000
# 3 67.1296 35.9872 89.7860 0.0000 0.0000 0.0000
# 4 0.0000 0.0000 0.0000 16.8359 0.0000 0.0000
# 5 0.0000 0.0000 0.0000 0.0000 13.1625 0.0000
# 6 0.0000 0.0000 0.0000 0.0000 0.0000 25.6810
#
#
#
# Elastic Compliance Matrix: (Units=1/GPa)
#
#
# Indices 1 2 3 4 5 6 
#
# 1 0.015473 -0.001720 -0.010879 0.000000 0.000000 0.000000
# 2 -0.001720 0.033539 -0.012157 0.000000 0.000000 0.000000
# 3 -0.010879 -0.012157 0.024144 0.000000 0.000000 0.000000
# 4 0.000000 0.000000 0.000000 0.059397 0.000000 0.000000
# 5 0.000000 0.000000 0.000000 0.000000 0.075973 0.000000
# 6 0.000000 0.000000 0.000000 0.000000 0.000000 0.038939
#
#
# Mechanical properties :
#
#
# Convention : Reuss Voigt Hill
#
# Bulk Modulus (GPa) = 42.29391 57.34423 49.81907
# Shear Modulus (GPa) = 16.40098 18.87113 17.63606
#
# Velocity S-wave (km/s) = 3.20339 3.43617 3.32182
# Velocity P-wave (km/s) = 6.33598 7.18485 6.77372
#
# Compressibility (1/GPa) = 0.02364407
#
# Stress axis : x y z
#
# Youngs Moduli (GPa) = 64.62707 29.81622 41.41757
#
# Poissons Ratio (x) = 0.05128 0.45060
# Poissons Ratio (y) = 0.11116 0.50350
# Poissons Ratio (z) = 0.70311 0.36247
#
# Static dielectric constant tensor:
#      x y z
#    x 3.160440 0.000000 0.000000 
#    y 0.000000 2.925340 0.000000 
#    z 0.000000 0.000000 2.994300 
# 
# 
# High freq. dielectric constant tensor:
#      x y z
#    x 1.619140 0.000000 0.000000 
#    y 0.000000 1.577320 0.000000 
#    z 0.000000 0.000000 1.603860 
# 
# From -- ./inp_files/7819.got.cif
#   From: 2010.03.12/outbox.cif.g09.slc.cpg/sg55_4_cif.got.tgz:7819.got - 2010.04.16 15:19:21.
