data_PCOD8224552
_publ_section_title
;
Structure prediction by ZEFSAII (Michael W. Deem and Ramdas Pophale) SiO2 
 PCOD8224552
Probable space group: P B A M
;
_chemical_formula_sum "Si O2"
_cell_formula_units_Z 56
_cell_length_a 22.658859
_cell_length_b 14.420792
_cell_length_c 9.105371
_cell_angle_alpha 90.000000
_cell_angle_beta 90.000000
_cell_angle_gamma 90.000000
_cell_volume 2975.259124
_symmetry_space_group_name_H-M "P B A M"
_symmetry_group_IT_number 55
_symmetry_cell_setting 'orthorhombic'
loop_
_space_group_symop_operation_xyz
x,y,z
-x,-y,z
1/2+x,1/2-y,-z
1/2-x,1/2+y,-z
-x,-y,-z
x,y,-z
1/2-x,1/2+y,z
1/2+x,1/2-y,z
loop_
_atom_site_type_symbol
_atom_site_label
_atom_site_fract_x
_atom_site_fract_y
_atom_site_fract_z
Si Si1 0.894781 0.789456 0.173925
Si Si2 0.348023 0.902194 0.172600
Si Si3 0.000574 0.893775 0.672734
Si Si4 0.783314 0.898115 0.830852
Si Si5 0.883772 0.218081 0.327249
Si Si6 0.650543 0.893463 0.174835
Si Si7 0.216561 0.890116 0.170116
O O1 0.893729 0.679523 0.213885
O O2 0.950025 0.835727 0.249660
O O3 0.834440 0.834208 0.239031
O O4 0.899724 0.805379 0.000000
O O5 0.282838 0.877265 0.231969
O O6 0.370139 0.003260 0.227227
O O7 0.338979 0.911211 0.000000
O O8 0.989371 0.889224 0.500000
O O9 0.062306 0.847898 0.718561
O O10 0.000000 0.000000 0.728244
O O11 0.717970 0.878644 0.767033
O O12 0.803026 0.003880 0.807958
O O13 0.778877 0.872389 0.000000
O O14 0.880272 0.231009 0.500000
O O15 0.891830 0.319101 0.253073
O O16 0.823848 0.174106 0.268950
O O17 0.645412 0.882292 0.000000
O O18 0.210403 0.859615 0.000000
#
# Coordination Sequence:
#
# PCOD8224552 Si02
#       7
#     8   8   8   8   8   8   8
#     4  10  18  31  53  79 103 126 164 213 249 285
#     4   8  16  31  53  81 107 130 160 203 250 299
#     4  10  23  41  54  67  96 136 171 205 250 300
#     4   8  15  28  51  82 107 128 158 200 246 295
#     4  11  22  34  49  72 101 132 171 215 251 286
#     4   9  17  33  55  76 103 137 166 195 246 308
#     4   9  16  30  53  78 105 135 163 193 244 307
#
# _framework density 18.82189
#
# number of rings (size 3 to 8) (size 9 to 14) (size 15 to 20)
#    0.000    2.714    0.000    3.857    0.000    3.714 
#    0.000    7.143    0.000    4.286    0.000    0.000 
#    0.000    0.000    0.000    0.000    0.000    0.000 
#
# Total GULP energy -694120.433126 kJ/mol
# GULP energy per Si atom -12395.007734 kJ/mol
# Density = 1.877905 g / cm^3
# Si number density = 18.821890 Si / 1000 Ang^3
#
#
#
# Elastic Constant Matrix: (Units=GPa)
#
#
# Indices 1 2 3 4 5 6 
#
# 1 73.8929 78.1076 33.0374 0.0000 0.0000 0.0000
# 2 78.1076 158.9172 43.5728 0.0000 0.0000 0.0000
# 3 33.0374 43.5728 35.3470 0.0000 0.0000 0.0000
# 4 0.0000 0.0000 0.0000 16.1796 0.0000 0.0000
# 5 0.0000 0.0000 0.0000 0.0000 10.6011 0.0000
# 6 0.0000 0.0000 0.0000 0.0000 0.0000 34.5608
#
#
#
# Elastic Compliance Matrix: (Units=1/GPa)
#
#
# Indices 1 2 3 4 5 6 
#
# 1 0.033635 -0.011951 -0.016704 0.000000 0.000000 0.000000
# 2 -0.011951 0.013752 -0.005782 0.000000 0.000000 0.000000
# 3 -0.016704 -0.005782 0.051031 0.000000 0.000000 0.000000
# 4 0.000000 0.000000 0.000000 0.061806 0.000000 0.000000
# 5 0.000000 0.000000 0.000000 0.000000 0.094329 0.000000
# 6 0.000000 0.000000 0.000000 0.000000 0.000000 0.028935
#
#
# Mechanical properties :
#
#
# Convention : Reuss Voigt Hill
#
# Bulk Modulus (GPa) = 33.84929 64.17698 49.01313
# Shear Modulus (GPa) = 13.80415 19.83094 16.81754
#
# Velocity S-wave (km/s) = 2.71109 3.24946 2.99241
# Velocity P-wave (km/s) = 5.27476 6.94620 6.16736
#
# Compressibility (1/GPa) = 0.02954272
#
# Stress axis : x y z
#
# Youngs Moduli (GPa) = 29.73136 72.71727 19.59588
#
# Poissons Ratio (x) = 0.86906 0.32734
# Poissons Ratio (y) = 0.35533 0.11330
# Poissons Ratio (z) = 0.49664 0.42044
#
# Static dielectric constant tensor:
#      x y z
#    x 3.435750 0.000000 0.000000 
#    y 0.000000 3.879530 0.000000 
#    z 0.000000 0.000000 3.038290 
# 
# 
# High freq. dielectric constant tensor:
#      x y z
#    x 1.713380 0.000000 0.000000 
#    y 0.000000 1.753970 0.000000 
#    z 0.000000 0.000000 1.686550 
# 
# From -- ./inp_files/8723.got.cif
#   From: 2010.03.12/outbox.cif.g09.slc.cpg/sg55_5_cif.got.tgz:8723.got - 2010.04.16 15:19:21.
