data_PCOD8224394
_publ_section_title
;
Structure prediction by ZEFSAII (Michael W. Deem and Ramdas Pophale) SiO2 
 PCOD8224394
Probable space group: P B A M
;
_chemical_formula_sum "Si O2"
_cell_formula_units_Z 40
_cell_length_a 9.139448
_cell_length_b 18.103046
_cell_length_c 13.373308
_cell_angle_alpha 90.000000
_cell_angle_beta 90.000000
_cell_angle_gamma 90.000000
_cell_volume 2212.638517
_symmetry_space_group_name_H-M "P B A M"
_symmetry_group_IT_number 55
_symmetry_cell_setting 'orthorhombic'
loop_
_space_group_symop_operation_xyz
x,y,z
-x,-y,z
1/2+x,1/2-y,-z
1/2-x,1/2+y,-z
-x,-y,-z
x,y,-z
1/2-x,1/2+y,z
1/2+x,1/2-y,z
loop_
_atom_site_type_symbol
_atom_site_label
_atom_site_fract_x
_atom_site_fract_y
_atom_site_fract_z
Si Si1 0.991165 0.341937 0.500000
Si Si2 0.974571 0.414771 0.706798
Si Si3 0.842806 0.807729 0.500000
Si Si4 0.342701 0.797927 0.179415
Si Si5 0.835076 0.846565 0.714669
Si Si6 0.472444 0.327120 0.890936
O O1 0.016021 0.394463 0.594111
O O2 0.832418 0.304677 0.500000
O O3 0.106803 0.276312 0.500000
O O4 0.805937 0.397062 0.730072
O O5 0.000000 0.500000 0.727348
O O6 0.080991 0.370634 0.779499
O O7 0.896544 0.851246 0.600391
O O8 0.293860 0.740209 0.267208
O O9 0.201326 0.823366 0.118790
O O10 0.458680 0.755516 0.108467
O O11 0.956178 0.872618 0.797273
O O12 0.507280 0.363146 0.000000
#
# Coordination Sequence:
#
# PCOD8224394 Si02
#       6
#     4   8   4   8   8   8
#     4  10  19  32  52  84 107 152 182 222 277 320
#     4  11  21  35  54  81 119 148 182 227 275 338
#     4  10  18  28  56  80 114 134 182 232 256 332
#     4  10  18  33  54  84 104 142 187 223 279 319
#     4   9  19  35  53  84 108 146 185 221 279 320
#     4  10  19  33  59  83 106 138 194 243 266 320
#
# _framework density 18.077963
#
# number of rings (size 3 to 8) (size 9 to 14) (size 15 to 20)
#    1.200    0.800    4.000    0.900    2.800    0.000 
#    0.000    1.000    0.000    6.600    0.000    8.400 
#    0.000    0.000    0.000    0.000    0.000    0.000 
#
# Total GULP energy -495631.749787 kJ/mol
# GULP energy per Si atom -12390.793745 kJ/mol
# Density = 1.803682 g / cm^3
# Si number density = 18.077963 Si / 1000 Ang^3
#
#
#
# Elastic Constant Matrix: (Units=GPa)
#
#
# Indices 1 2 3 4 5 6 
#
# 1 70.1184 12.9212 38.3161 0.0000 0.0000 0.0000
# 2 12.9212 42.7219 8.0390 0.0000 0.0000 0.0000
# 3 38.3161 8.0390 136.4904 0.0000 0.0000 0.0000
# 4 0.0000 0.0000 0.0000 -44.3673 0.0000 0.0000
# 5 0.0000 0.0000 0.0000 0.0000 20.2477 0.0000
# 6 0.0000 0.0000 0.0000 0.0000 0.0000 20.0579
#
#
#
# Elastic Compliance Matrix: (Units=1/GPa)
#
#
# Indices 1 2 3 4 5 6 
#
# 1 0.017646 -0.004454 -0.004691 0.000000 0.000000 0.000000
# 2 -0.004454 0.024794 -0.000210 0.000000 0.000000 0.000000
# 3 -0.004691 -0.000210 0.008656 0.000000 0.000000 0.000000
# 4 0.000000 0.000000 0.000000 -0.022539 0.000000 0.000000
# 5 0.000000 0.000000 0.000000 0.000000 0.049388 0.000000
# 6 0.000000 0.000000 0.000000 0.000000 0.000000 0.049856
#
#
# Mechanical properties :
#
#
# Convention : Reuss Voigt Hill
#
# Bulk Modulus (GPa) = 30.87868 40.87593 35.87730
# Shear Modulus (GPa) = 31.78508 11.85793 21.82150
#
# Velocity S-wave (km/s) = 4.19766 2.56390 3.47807
# Velocity P-wave (km/s) = 6.37274 5.60578 6.00152
#
# Compressibility (1/GPa) = 0.03238481
#
# Stress axis : x y z
#
# Youngs Moduli (GPa) = 56.67017 40.33250 115.52895
#
# Poissons Ratio (x) = 0.17965 0.54198
# Poissons Ratio (y) = 0.25242 0.02425
# Poissons Ratio (z) = 0.26586 0.00847
#
# Static dielectric constant tensor:
#      x y z
#    x 3.213290 0.000000 0.000000 
#    y 0.000000 2.829260 0.000000 
#    z 0.000000 0.000000 3.472360 
# 
# 
# High freq. dielectric constant tensor:
#      x y z
#    x 1.699150 0.000000 0.000000 
#    y 0.000000 1.648140 0.000000 
#    z 0.000000 0.000000 1.710480 
# 
# From -- ./inp_files/17218.got.cif
#   From: 2010.03.12/outbox.cif.g09.slc.cpg/sg55_9_cif.got.tgz:17218.got - 2010.04.16 15:19:21.
