data_PCOD8224891
_publ_section_title
;
Structure prediction by ZEFSAII (Michael W. Deem and Ramdas Pophale) SiO2 
 PCOD8224891
Probable space group: P B A M
;
_chemical_formula_sum "Si O2"
_cell_formula_units_Z 64
_cell_length_a 18.789818
_cell_length_b 23.134950
_cell_length_c 9.064968
_cell_angle_alpha 90.000000
_cell_angle_beta 90.000000
_cell_angle_gamma 90.000000
_cell_volume 3940.555186
_symmetry_space_group_name_H-M "P B A M"
_symmetry_group_IT_number 55
_symmetry_cell_setting 'orthorhombic'
loop_
_space_group_symop_operation_xyz
x,y,z
-x,-y,z
1/2+x,1/2-y,-z
1/2-x,1/2+y,-z
-x,-y,-z
x,y,-z
1/2-x,1/2+y,z
1/2+x,1/2-y,z
loop_
_atom_site_type_symbol
_atom_site_label
_atom_site_fract_x
_atom_site_fract_y
_atom_site_fract_z
Si Si1 0.498400 0.385355 0.827595
Si Si2 0.845807 0.059617 0.827561
Si Si3 0.148943 0.732698 0.331175
Si Si4 0.488722 0.255157 0.830103
Si Si5 0.239630 0.844071 0.673837
Si Si6 0.711094 0.326925 0.668801
Si Si7 0.856102 0.723112 0.171001
Si Si8 0.870104 0.941766 0.328636
O O1 0.422216 0.412925 0.795592
O O2 0.498330 0.319914 0.765580
O O3 0.554641 0.422229 0.736131
O O4 0.518828 0.388226 0.000000
O O5 0.784738 0.097560 0.751872
O O6 0.841045 0.996645 0.757688
O O7 0.829698 0.055556 0.000000
O O8 0.126494 0.734584 0.500000
O O9 0.076974 0.721577 0.242186
O O10 0.184913 0.793169 0.283940
O O11 0.204770 0.681056 0.298002
O O12 0.559236 0.217091 0.804175
O O13 0.469950 0.262309 0.000000
O O14 0.245055 0.853885 0.500000
O O15 0.317271 0.826525 0.735211
O O16 0.695920 0.306988 0.500000
O O17 0.665337 0.287170 0.777107
O O18 0.689718 0.392855 0.694881
O O19 0.835653 0.716524 0.000000
O O20 0.880744 0.956635 0.500000
#
# Coordination Sequence:
#
# PCOD8224891 Si02
#       8
#     8   8   8   8   8   8   8   8
#     4  10  20  34  47  67 100 135 170 205 238 283
#     4  11  22  35  51  69  97 134 172 208 245 288
#     4   9  18  31  49  70  95 125 159 199 243 290
#     4  10  19  31  48  73 101 130 163 197 241 292
#     4  10  20  34  50  71  98 127 164 205 246 291
#     4   9  19  34  48  69  97 128 164 205 246 288
#     4  10  19  31  50  72  97 127 161 200 243 292
#     4  11  22  34  50  70  98 133 172 210 246 288
#
# _framework density 16.241365999999999
#
# number of rings (size 3 to 8) (size 9 to 14) (size 15 to 20)
#    0.000    2.000    2.500    2.625    0.000    6.500 
#    0.000    0.000    0.000    0.000    0.000    0.875 
#    0.000    7.000    0.000    0.000    0.000    0.000 
#
# Total GULP energy -793743.112518 kJ/mol
# GULP energy per Si atom -12402.236133 kJ/mol
# Density = 1.620440 g / cm^3
# Si number density = 16.241366 Si / 1000 Ang^3
#
#
#
# Elastic Constant Matrix: (Units=GPa)
#
#
# Indices 1 2 3 4 5 6 
#
# 1 87.9271 36.3727 45.6653 0.0000 0.0000 0.0000
# 2 36.3727 68.5200 33.9457 0.0000 0.0000 0.0000
# 3 45.6653 33.9457 75.2687 0.0000 0.0000 0.0000
# 4 0.0000 0.0000 0.0000 26.9824 0.0000 0.0000
# 5 0.0000 0.0000 0.0000 0.0000 29.0404 0.0000
# 6 0.0000 0.0000 0.0000 0.0000 0.0000 23.2008
#
#
#
# Elastic Compliance Matrix: (Units=1/GPa)
#
#
# Indices 1 2 3 4 5 6 
#
# 1 0.018004 -0.005338 -0.008515 0.000000 0.000000 0.000000
# 2 -0.005338 0.020376 -0.005951 0.000000 0.000000 0.000000
# 3 -0.008515 -0.005951 0.021136 0.000000 0.000000 0.000000
# 4 0.000000 0.000000 0.000000 0.037061 0.000000 0.000000
# 5 0.000000 0.000000 0.000000 0.000000 0.034435 0.000000
# 6 0.000000 0.000000 0.000000 0.000000 0.000000 0.043102
#
#
# Mechanical properties :
#
#
# Convention : Reuss Voigt Hill
#
# Bulk Modulus (GPa) = 50.23405 51.52036 50.87720
# Shear Modulus (GPa) = 22.69033 23.56019 23.12526
#
# Velocity S-wave (km/s) = 3.74180 3.81284 3.77749
# Velocity P-wave (km/s) = 7.04733 7.15362 7.10067
#
# Compressibility (1/GPa) = 0.01990682
#
# Stress axis : x y z
#
# Youngs Moduli (GPa) = 55.54365 49.07694 47.31342
#
# Poissons Ratio (x) = 0.26200 0.40289
# Poissons Ratio (y) = 0.29652 0.28155
# Poissons Ratio (z) = 0.47297 0.29204
#
# Static dielectric constant tensor:
#      x y z
#    x 3.044830 0.000000 0.000000 
#    y 0.000000 2.940200 0.000000 
#    z 0.000000 0.000000 3.140090 
# 
# 
# High freq. dielectric constant tensor:
#      x y z
#    x 1.618100 0.000000 0.000000 
#    y 0.000000 1.598980 0.000000 
#    z 0.000000 0.000000 1.635990 
# 
# From -- ./inp_files/7972.got.cif
#   From: 2010.03.12/outbox.cif.g09.slc.cpg/sg55_4_cif.got.tgz:7972.got - 2010.04.16 15:19:21.
