data_PCOD8224442
_publ_section_title
;
Structure prediction by ZEFSAII (Michael W. Deem and Ramdas Pophale) SiO2 
 PCOD8224442
Probable space group: P B A M
;
_chemical_formula_sum "Si O2"
_cell_formula_units_Z 64
_cell_length_a 27.339424
_cell_length_b 10.159801
_cell_length_c 13.194544
_cell_angle_alpha 90.000000
_cell_angle_beta 90.000000
_cell_angle_gamma 90.000000
_cell_volume 3664.957541
_symmetry_space_group_name_H-M "P B A M"
_symmetry_group_IT_number 55
_symmetry_cell_setting 'orthorhombic'
loop_
_space_group_symop_operation_xyz
x,y,z
-x,-y,z
1/2+x,1/2-y,-z
1/2-x,1/2+y,-z
-x,-y,-z
x,y,-z
1/2-x,1/2+y,z
1/2+x,1/2-y,z
loop_
_atom_site_type_symbol
_atom_site_label
_atom_site_fract_x
_atom_site_fract_y
_atom_site_fract_z
Si Si1 0.602866 0.843655 0.199428
Si Si2 0.897134 0.656345 0.199428
Si Si3 0.250000 0.750000 0.266611
Si Si4 0.500000 0.844850 0.886362
Si Si5 0.676943 0.644886 0.113033
Si Si6 0.339637 0.848108 0.389516
Si Si7 0.160363 0.651892 0.389516
Si Si8 0.323057 0.644886 0.113033
O O1 0.547467 0.799900 0.176671
O O2 0.637728 0.761520 0.125362
O O3 0.616680 0.801445 0.314647
O O4 0.611413 1.000000 0.180856
O O5 0.952533 0.700100 0.176671
O O6 0.883320 0.698555 0.314647
O O7 0.862272 0.738480 0.125362
O O8 0.220715 0.849388 0.194175
O O9 0.287047 0.827322 0.338741
O O10 0.212954 0.672678 0.338741
O O11 0.279285 0.650612 0.194175
O O12 0.500000 0.000000 0.897367
O O13 0.500000 0.783154 0.000000
O O14 0.652399 0.500000 0.126382
O O15 0.698844 0.658875 0.000000
O O16 0.343360 0.776171 0.500000
O O17 0.346417 0.000000 0.409096
O O18 0.156640 0.723829 0.500000
O O19 0.301156 0.658875 0.000000
#
# Coordination Sequence:
#
# PCOD8224442 Si02
#       8
#     8   8   8   8   8   8   8   8
#     4   9  18  32  50  70  93 123 158 193 231 279
#     4   9  18  32  50  70  93 123 158 193 231 279
#     4  10  18  30  46  64  90 126 162 188 222 278
#     4   9  16  28  48  72  94 119 155 193 228 275
#     4  10  20  32  46  68  98 127 156 193 234 275
#     4   9  17  29  45  66  91 118 152 195 236 271
#     4   9  17  29  45  66  91 118 152 195 236 271
#     4  10  20  32  46  68  98 127 156 193 234 275
#
# _framework density 17.462683999999999
#
# number of rings (size 3 to 8) (size 9 to 14) (size 15 to 20)
#    0.000    2.625    0.000    2.250    0.000    2.500 
#    0.000    1.250    0.000   12.750    0.000    0.000 
#    0.000    8.000    0.000    0.000    0.000    0.000 
#
# Total GULP energy -792994.491845 kJ/mol
# GULP energy per Si atom -12390.538935 kJ/mol
# Density = 1.742294 g / cm^3
# Si number density = 17.462684 Si / 1000 Ang^3
#
#
#
# Elastic Constant Matrix: (Units=GPa)
#
#
# Indices 1 2 3 4 5 6 
#
# 1 127.6805 20.8902 72.4563 0.0000 0.0000 0.0000
# 2 20.8902 50.6522 23.5652 0.0000 0.0000 0.0000
# 3 72.4563 23.5652 151.1285 0.0000 0.0000 0.0000
# 4 0.0000 0.0000 0.0000 14.8458 0.0000 0.0000
# 5 0.0000 0.0000 0.0000 0.0000 22.4890 0.0000
# 6 0.0000 0.0000 0.0000 0.0000 0.0000 19.6554
#
#
#
# Elastic Compliance Matrix: (Units=1/GPa)
#
#
# Indices 1 2 3 4 5 6 
#
# 1 0.010991 -0.002244 -0.004920 0.000000 0.000000 0.000000
# 2 -0.002244 0.021745 -0.002315 0.000000 0.000000 0.000000
# 3 -0.004920 -0.002315 0.009336 0.000000 0.000000 0.000000
# 4 0.000000 0.000000 0.000000 0.067359 0.000000 0.000000
# 5 0.000000 0.000000 0.000000 0.000000 0.044466 0.000000
# 6 0.000000 0.000000 0.000000 0.000000 0.000000 0.050877
#
#
# Mechanical properties :
#
#
# Convention : Reuss Voigt Hill
#
# Bulk Modulus (GPa) = 43.26111 62.58718 52.92414
# Shear Modulus (GPa) = 21.60424 25.56801 23.58613
#
# Velocity S-wave (km/s) = 3.52115 3.83057 3.67912
# Velocity P-wave (km/s) = 6.43107 7.44867 6.95850
#
# Compressibility (1/GPa) = 0.02311545
#
# Stress axis : x y z
#
# Youngs Moduli (GPa) = 90.98381 45.98772 107.10760
#
# Poissons Ratio (x) = 0.10321 0.52692
# Poissons Ratio (y) = 0.20419 0.24792
# Poissons Ratio (z) = 0.44760 0.10645
#
# Static dielectric constant tensor:
#      x y z
#    x 3.258820 0.000000 0.000000 
#    y 0.000000 3.027420 0.000000 
#    z 0.000000 0.000000 3.846580 
# 
# 
# High freq. dielectric constant tensor:
#      x y z
#    x 1.659040 0.000000 0.000000 
#    y 0.000000 1.646640 0.000000 
#    z 0.000000 0.000000 1.689380 
# 
# From -- ./inp_files/13655.got.cif
#   From: 2010.03.12/outbox.cif.g09.slc.cpg/sg55_7_cif.got.tgz:13655.got - 2010.04.16 15:19:21.
