data_PCOD8224710
_publ_section_title
;
Structure prediction by ZEFSAII (Michael W. Deem and Ramdas Pophale) SiO2 
 PCOD8224710
Probable space group: P B A M
;
_chemical_formula_sum "Si O2"
_cell_formula_units_Z 64
_cell_length_a 24.661593
_cell_length_b 14.190362
_cell_length_c 8.993791
_cell_angle_alpha 90.000000
_cell_angle_beta 90.000000
_cell_angle_gamma 90.000000
_cell_volume 3147.439507
_symmetry_space_group_name_H-M "P B A M"
_symmetry_group_IT_number 55
_symmetry_cell_setting 'orthorhombic'
loop_
_space_group_symop_operation_xyz
x,y,z
-x,-y,z
1/2+x,1/2-y,-z
1/2-x,1/2+y,-z
-x,-y,-z
x,y,-z
1/2-x,1/2+y,z
1/2+x,1/2-y,z
loop_
_atom_site_type_symbol
_atom_site_label
_atom_site_fract_x
_atom_site_fract_y
_atom_site_fract_z
Si Si1 0.440847 0.974033 0.667315
Si Si2 0.201495 0.284503 0.322964
Si Si3 0.441182 0.463330 0.325287
Si Si4 0.392891 0.651662 0.324970
Si Si5 0.484385 0.778652 0.665628
Si Si6 0.331835 0.978567 0.173260
Si Si7 0.200146 0.684913 0.827517
Si Si8 0.584857 0.732424 0.174135
O O1 0.434029 0.016484 0.500000
O O2 0.439860 0.861161 0.662283
O O3 0.392110 0.006745 0.771950
O O4 0.500000 0.000000 0.732669
O O5 0.199787 0.292398 0.500000
O O6 0.157472 0.209874 0.256689
O O7 0.192921 0.389670 0.259685
O O8 0.258821 0.243216 0.273451
O O9 0.500000 0.500000 0.271453
O O10 0.443050 0.443122 0.500000
O O11 0.394307 0.540864 0.285736
O O12 0.422653 0.370146 0.243030
O O13 0.390724 0.668352 0.500000
O O14 0.451007 0.690720 0.267664
O O15 0.506097 0.757212 0.500000
O O16 0.536960 0.800569 0.765742
O O17 0.295455 0.072067 0.201199
O O18 0.334740 0.953589 0.000000
O O19 0.141259 0.721583 0.778654
O O20 0.211545 0.707369 0.000000
O O21 0.579535 0.723856 0.000000
#
# Coordination Sequence:
#
# PCOD8224710 Si02
#       8
#     8   8   8   8   8   8   8   8
#     4  10  20  34  57  90 124 158 203 258 306 355
#     4  11  23  42  68  94 121 155 208 266 306 355
#     4  10  19  35  59  84 118 163 200 238 301 370
#     4   9  18  35  58  85 117 151 192 245 299 355
#     4  10  18  34  57  82 119 158 192 240 302 362
#     4  11  23  41  65  90 125 167 202 245 308 380
#     4  10  25  46  62  85 125 167 205 250 307 366
#     4  11  23  38  57  86 123 158 202 256 300 355
#
# _framework density 20.333988000000002
#
# number of rings (size 3 to 8) (size 9 to 14) (size 15 to 20)
#    0.000    1.750    2.500    1.875    0.000    4.000 
#    0.000    3.750    0.000    0.000    0.000    0.000 
#    0.000    0.000    0.000    0.000    0.000    0.000 
#
# Total GULP energy -793316.223322 kJ/mol
# GULP energy per Si atom -12395.565989 kJ/mol
# Density = 2.028771 g / cm^3
# Si number density = 20.333988 Si / 1000 Ang^3
#
#
#
# Elastic Constant Matrix: (Units=GPa)
#
#
# Indices 1 2 3 4 5 6 
#
# 1 93.6218 42.6564 48.3907 0.0000 0.0000 0.0000
# 2 42.6564 80.9981 33.9499 0.0000 0.0000 0.0000
# 3 48.3907 33.9499 72.9055 0.0000 0.0000 0.0000
# 4 0.0000 0.0000 0.0000 29.8994 0.0000 0.0000
# 5 0.0000 0.0000 0.0000 0.0000 29.6429 0.0000
# 6 0.0000 0.0000 0.0000 0.0000 0.0000 34.2357
#
#
#
# Elastic Compliance Matrix: (Units=1/GPa)
#
#
# Indices 1 2 3 4 5 6 
#
# 1 0.018086 -0.005583 -0.009405 0.000000 0.000000 0.000000
# 2 -0.005583 0.017063 -0.004240 0.000000 0.000000 0.000000
# 3 -0.009405 -0.004240 0.021933 0.000000 0.000000 0.000000
# 4 0.000000 0.000000 0.000000 0.033445 0.000000 0.000000
# 5 0.000000 0.000000 0.000000 0.000000 0.033735 0.000000
# 6 0.000000 0.000000 0.000000 0.000000 0.000000 0.029209
#
#
# Mechanical properties :
#
#
# Convention : Reuss Voigt Hill
#
# Bulk Modulus (GPa) = 53.68567 55.27992 54.48279
# Shear Modulus (GPa) = 25.23506 26.92417 26.07961
#
# Velocity S-wave (km/s) = 3.52665 3.64276 3.58517
# Velocity P-wave (km/s) = 6.56066 6.70358 6.63250
#
# Compressibility (1/GPa) = 0.01862694
#
# Stress axis : x y z
#
# Youngs Moduli (GPa) = 55.29141 58.60512 45.59267
#
# Poissons Ratio (x) = 0.32718 0.42879
# Poissons Ratio (y) = 0.30868 0.19333
# Poissons Ratio (z) = 0.52000 0.24851
#
# Static dielectric constant tensor:
#      x y z
#    x 3.703100 0.000000 0.000000 
#    y 0.000000 3.911050 0.000000 
#    z 0.000000 0.000000 3.480180 
# 
# 
# High freq. dielectric constant tensor:
#      x y z
#    x 1.788340 0.000000 0.000000 
#    y 0.000000 1.814030 0.000000 
#    z 0.000000 0.000000 1.770370 
# 
# From -- ./inp_files/9723.got.cif
#   From: 2010.03.12/outbox.cif.g09.slc.cpg/sg55_5_cif.got.tgz:9723.got - 2010.04.16 15:19:21.
