data_PCOD8224170
_publ_section_title
;
Structure prediction by ZEFSAII (Michael W. Deem and Ramdas Pophale) SiO2 
 PCOD8224170
Probable space group: P C C A
;
_chemical_formula_sum "Si O2"
_cell_formula_units_Z 20
_cell_length_a 5.093834
_cell_length_b 4.968545
_cell_length_c 34.477340
_cell_angle_alpha 90.000000
_cell_angle_beta 90.000000
_cell_angle_gamma 90.000000
_cell_volume 872.585048
_symmetry_space_group_name_H-M "P C C A"
_symmetry_group_IT_number 54
_symmetry_cell_setting 'orthorhombic'
loop_
_space_group_symop_operation_xyz
x,y,z
1/2-x,-y,z
1/2+x,-y,1/2-z
-x,y,1/2-z
-x,-y,-z
1/2+x,y,-z
1/2-x,y,1/2+z
x,-y,1/2+z
loop_
_atom_site_type_symbol
_atom_site_label
_atom_site_fract_x
_atom_site_fract_y
_atom_site_fract_z
Si Si1 0.500000 0.189650 0.750000
Si Si2 0.750000 0.500000 0.185328
Si Si3 0.750000 0.500000 0.972926
Si Si4 0.250000 0.000000 0.366726
Si Si5 0.750000 0.000000 0.418251
O O1 0.482766 0.385453 0.787356
O O2 0.250000 0.000000 0.745478
O O3 0.846627 0.747446 0.158987
O O4 0.699600 0.750998 0.945655
O O5 0.500000 0.500000 0.000000
O O6 0.498531 0.923020 0.392586
#
# Coordination Sequence:
#
# PCOD8224170 Si02
#       5
#     4   4   4   4   4
#     4  12  28  50  76 108 146 190 268 318 372 440
#     4  12  28  49  73 106 142 198 248 308 376 424
#     4  12  24  45  77 104 142 184 234 288 348 416
#     4  12  28  45  73 100 152 190 234 296 372 438
#     4  12  26  47  69 110 144 184 238 284 356 442
#
# _framework density 22.920404999999999
#
# number of rings (size 3 to 8) (size 9 to 14) (size 15 to 20)
#    0.000    0.000    2.000    7.200    2.800    3.200 
#    0.000    0.000    0.000    0.000    0.000    0.000 
#    0.000    0.000    0.000    0.000    0.000    0.000 
#
# Total GULP energy -248035.769497 kJ/mol
# GULP energy per Si atom -12401.788475 kJ/mol
# Density = 2.286824 g / cm^3
# Si number density = 22.920405 Si / 1000 Ang^3
#
#
#
# Elastic Constant Matrix: (Units=GPa)
#
#
# Indices 1 2 3 4 5 6 
#
# 1 169.2454 45.3123 69.6955 0.0000 0.0000 0.0000
# 2 45.3123 184.6572 80.0043 0.0000 0.0000 0.0000
# 3 69.6955 80.0043 159.6587 0.0000 0.0000 0.0000
# 4 0.0000 0.0000 0.0000 25.9837 0.0000 0.0000
# 5 0.0000 0.0000 0.0000 0.0000 20.6123 0.0000
# 6 0.0000 0.0000 0.0000 0.0000 0.0000 32.3191
#
#
#
# Elastic Compliance Matrix: (Units=1/GPa)
#
#
# Indices 1 2 3 4 5 6 
#
# 1 0.007242 -0.000520 -0.002901 0.000000 0.000000 0.000000
# 2 -0.000520 0.006955 -0.003258 0.000000 0.000000 0.000000
# 3 -0.002901 -0.003258 0.009162 0.000000 0.000000 0.000000
# 4 0.000000 0.000000 0.000000 0.038486 0.000000 0.000000
# 5 0.000000 0.000000 0.000000 0.000000 0.048515 0.000000
# 6 0.000000 0.000000 0.000000 0.000000 0.000000 0.030941
#
#
# Mechanical properties :
#
#
# Convention : Reuss Voigt Hill
#
# Bulk Modulus (GPa) = 99.98723 100.39838 100.19281
# Shear Modulus (GPa) = 31.64705 37.01962 34.33333
#
# Velocity S-wave (km/s) = 3.71986 4.02324 3.87452
# Velocity P-wave (km/s) = 7.88468 8.09198 7.98900
#
# Compressibility (1/GPa) = 0.01000128
#
# Stress axis : x y z
#
# Youngs Moduli (GPa) = 138.07486 143.78998 109.14571
#
# Poissons Ratio (x) = 0.07483 0.31660
# Poissons Ratio (y) = 0.07186 0.35557
# Poissons Ratio (z) = 0.40052 0.46843
#
# Static dielectric constant tensor:
#      x y z
#    x 4.193750 0.000000 0.000000 
#    y 0.000000 4.530810 0.000000 
#    z 0.000000 0.000000 4.594690 
# 
# 
# High freq. dielectric constant tensor:
#      x y z
#    x 1.904080 0.000000 0.000000 
#    y 0.000000 1.932020 0.000000 
#    z 0.000000 0.000000 1.930090 
# 
# From -- ./inp_files/22486.got.cif
#   From: 2010.03.12/outbox.cif.g09.slc.cpg/sg54_12_cif.got.tgz:22486.got - 2010.04.16 15:00:50.
