data_PCOD8224313
_publ_section_title
;
Structure prediction by ZEFSAII (Michael W. Deem and Ramdas Pophale) SiO2 
 PCOD8224313
Probable space group: P B A M
;
_chemical_formula_sum "Si O2"
_cell_formula_units_Z 64
_cell_length_a 20.372925
_cell_length_b 12.624135
_cell_length_c 13.100267
_cell_angle_alpha 90.000000
_cell_angle_beta 90.000000
_cell_angle_gamma 90.000000
_cell_volume 3369.264948
_symmetry_space_group_name_H-M "P B A M"
_symmetry_group_IT_number 55
_symmetry_cell_setting 'orthorhombic'
loop_
_space_group_symop_operation_xyz
x,y,z
-x,-y,z
1/2+x,1/2-y,-z
1/2-x,1/2+y,-z
-x,-y,-z
x,y,-z
1/2-x,1/2+y,z
1/2+x,1/2-y,z
loop_
_atom_site_type_symbol
_atom_site_label
_atom_site_fract_x
_atom_site_fract_y
_atom_site_fract_z
Si Si1 0.900701 0.543200 0.386377
Si Si2 0.182837 0.189662 0.222914
Si Si3 0.412956 0.162938 0.260084
Si Si4 0.338106 0.447233 0.254238
Si Si5 0.689832 0.742574 0.881587
Si Si6 0.954656 0.739771 0.275629
Si Si7 0.942172 0.144430 0.380345
Si Si8 0.769829 0.657953 0.613339
O O1 0.922964 0.508178 0.500000
O O2 0.916941 0.454623 0.303499
O O3 0.938181 0.650100 0.358122
O O4 0.823653 0.565772 0.383685
O O5 0.232455 0.235462 0.137448
O O6 0.107433 0.228947 0.204654
O O7 0.206935 0.234776 0.331043
O O8 0.184663 0.063441 0.222668
O O9 0.353937 0.170823 0.178828
O O10 0.483764 0.194476 0.208042
O O11 0.401909 0.246390 0.353920
O O12 0.332644 0.375054 0.152562
O O13 0.409886 0.447240 0.308363
O O14 0.293207 0.394639 0.339195
O O15 0.675145 0.754940 0.000000
O O16 0.981914 0.839726 0.343146
O O17 0.938860 0.115388 0.500000
O O18 0.752816 0.694976 0.500000
#
# Coordination Sequence:
#
# PCOD8224313 Si02
#       8
#     8   8   8   8   8   8   8   8
#     4  10  17  29  54  84 119 160 197 223 263 325
#     4  10  21  38  57  79 115 145 184 229 286 329
#     4   9  19  33  55  83 112 151 183 240 280 327
#     4  10  20  36  57  79 108 148 187 231 276 337
#     4  10  22  42  63  83 105 136 185 244 295 344
#     4   9  20  33  51  82 120 151 183 230 267 324
#     4   9  18  31  49  78 114 152 188 219 260 322
#     4   9  19  32  49  80 115 149 188 230 269 320
#
# _framework density 18.995241
#
# number of rings (size 3 to 8) (size 9 to 14) (size 15 to 20)
#    0.750    1.750    0.000    2.250    0.000    3.000 
#    0.000    4.375    0.000    2.250    0.000    0.000 
#    0.000    0.000    0.000    0.000    0.000    0.000 
#
# Total GULP energy -792904.822868 kJ/mol
# GULP energy per Si atom -12389.137857 kJ/mol
# Density = 1.895201 g / cm^3
# Si number density = 18.995241 Si / 1000 Ang^3
#
#
#
# Elastic Constant Matrix: (Units=GPa)
#
#
# Indices 1 2 3 4 5 6 
#
# 1 110.2814 28.0883 40.5821 0.0000 0.0000 0.0000
# 2 28.0883 84.5820 19.5608 0.0000 0.0000 0.0000
# 3 40.5821 19.5608 79.8169 0.0000 0.0000 0.0000
# 4 0.0000 0.0000 0.0000 12.2911 0.0000 0.0000
# 5 0.0000 0.0000 0.0000 0.0000 16.0529 0.0000
# 6 0.0000 0.0000 0.0000 0.0000 0.0000 20.8281
#
#
#
# Elastic Compliance Matrix: (Units=1/GPa)
#
#
# Indices 1 2 3 4 5 6 
#
# 1 0.011693 -0.002659 -0.005294 0.000000 0.000000 0.000000
# 2 -0.002659 0.013138 -0.001868 0.000000 0.000000 0.000000
# 3 -0.005294 -0.001868 0.015678 0.000000 0.000000 0.000000
# 4 0.000000 0.000000 0.000000 0.081360 0.000000 0.000000
# 5 0.000000 0.000000 0.000000 0.000000 0.062294 0.000000
# 6 0.000000 0.000000 0.000000 0.000000 0.000000 0.048012
#
#
# Mechanical properties :
#
#
# Convention : Reuss Voigt Hill
#
# Bulk Modulus (GPa) = 47.91994 50.12698 49.02346
# Shear Modulus (GPa) = 19.32212 22.26434 20.79323
#
# Velocity S-wave (km/s) = 3.19283 3.42731 3.31215
# Velocity P-wave (km/s) = 6.23493 6.48910 6.36328
#
# Compressibility (1/GPa) = 0.02086814
#
# Stress axis : x y z
#
# Youngs Moduli (GPa) = 85.52237 76.11647 63.78418
#
# Poissons Ratio (x) = 0.20238 0.33764
# Poissons Ratio (y) = 0.22739 0.11914
# Poissons Ratio (z) = 0.45271 0.14217
#
# Static dielectric constant tensor:
#      x y z
#    x 3.819510 0.000000 0.000000 
#    y 0.000000 3.363290 0.000000 
#    z 0.000000 0.000000 3.025890 
# 
# 
# High freq. dielectric constant tensor:
#      x y z
#    x 1.756760 0.000000 0.000000 
#    y 0.000000 1.731260 0.000000 
#    z 0.000000 0.000000 1.689690 
# 
# From -- ./inp_files/15770.got.cif
#   From: 2010.03.12/outbox.cif.g09.slc.cpg/sg55_8_cif.got.tgz:15770.got - 2010.04.16 15:19:21.
