data_PCOD8224968
_publ_section_title
;
Structure prediction by ZEFSAII (Michael W. Deem and Ramdas Pophale) SiO2 
 PCOD8224968
Probable space group: P B A M
;
_chemical_formula_sum "Si O2"
_cell_formula_units_Z 64
_cell_length_a 20.652126
_cell_length_b 19.400073
_cell_length_c 9.048622
_cell_angle_alpha 90.000000
_cell_angle_beta 90.000000
_cell_angle_gamma 90.000000
_cell_volume 3625.355306
_symmetry_space_group_name_H-M "P B A M"
_symmetry_group_IT_number 55
_symmetry_cell_setting 'orthorhombic'
loop_
_space_group_symop_operation_xyz
x,y,z
-x,-y,z
1/2+x,1/2-y,-z
1/2-x,1/2+y,-z
-x,-y,-z
x,y,-z
1/2-x,1/2+y,z
1/2+x,1/2-y,z
loop_
_atom_site_type_symbol
_atom_site_label
_atom_site_fract_x
_atom_site_fract_y
_atom_site_fract_z
Si Si1 0.378142 0.429024 0.669288
Si Si2 0.240613 0.572896 0.170432
Si Si3 0.231142 0.439441 0.327884
Si Si4 0.375870 0.583765 0.672004
Si Si5 0.570094 0.288058 0.172710
Si Si6 0.301407 0.221280 0.829520
Si Si7 0.818573 0.708049 0.326832
Si Si8 0.074139 0.801641 0.828767
O O1 0.382008 0.407010 0.500000
O O2 0.304104 0.422578 0.724930
O O3 0.403838 0.506761 0.693528
O O4 0.423573 0.376991 0.756820
O O5 0.204849 0.504861 0.234744
O O6 0.303805 0.588831 0.265760
O O7 0.193588 0.638633 0.187536
O O8 0.259648 0.560609 0.000000
O O9 0.231165 0.459707 0.500000
O O10 0.186905 0.373405 0.294532
O O11 0.374141 0.604349 0.500000
O O12 0.420935 0.635910 0.760776
O O13 0.615337 0.232463 0.251699
O O14 0.495531 0.266788 0.202088
O O15 0.587317 0.289836 0.000000
O O16 0.242349 0.250936 0.735985
O O17 0.368873 0.252206 0.767785
O O18 0.289458 0.241434 0.000000
O O19 0.821739 0.723264 0.500000
O O20 0.084367 0.813970 0.000000
#
# Coordination Sequence:
#
# PCOD8224968 Si02
#       8
#     8   8   8   8   8   8   8   8
#     4   9  18  33  51  74 105 140 179 218 257 312
#     4  10  19  31  53  82 108 136 174 219 266 318
#     4   9  19  34  52  79 110 137 172 218 267 319
#     4  10  20  34  51  74 108 145 179 219 264 312
#     4  11  23  37  52  76 108 143 183 222 266 320
#     4  10  20  35  55  81 108 137 177 222 266 317
#     4  11  21  35  57  81 105 139 179 222 269 317
#     4  10  22  37  53  75 108 145 178 221 270 316
#
# _framework density 17.653441000000001
#
# number of rings (size 3 to 8) (size 9 to 14) (size 15 to 20)
#    0.000    2.000    2.500    2.250    0.000    5.500 
#    0.000    2.500    0.000    0.750    0.000    5.250 
#    0.000    0.000    0.000    0.000    0.000    0.000 
#
# Total GULP energy -793605.139737 kJ/mol
# GULP energy per Si atom -12400.080308 kJ/mol
# Density = 1.761326 g / cm^3
# Si number density = 17.653441 Si / 1000 Ang^3
#
#
#
# Elastic Constant Matrix: (Units=GPa)
#
#
# Indices 1 2 3 4 5 6 
#
# 1 78.2467 45.6313 36.2757 0.0000 0.0000 0.0000
# 2 45.6313 103.0608 46.4496 0.0000 0.0000 0.0000
# 3 36.2757 46.4496 75.5627 0.0000 0.0000 0.0000
# 4 0.0000 0.0000 0.0000 31.6654 0.0000 0.0000
# 5 0.0000 0.0000 0.0000 0.0000 16.5877 0.0000
# 6 0.0000 0.0000 0.0000 0.0000 0.0000 22.3133
#
#
#
# Elastic Compliance Matrix: (Units=1/GPa)
#
#
# Indices 1 2 3 4 5 6 
#
# 1 0.018683 -0.005851 -0.005373 0.000000 0.000000 0.000000
# 2 -0.005851 0.015254 -0.006568 0.000000 0.000000 0.000000
# 3 -0.005373 -0.006568 0.019851 0.000000 0.000000 0.000000
# 4 0.000000 0.000000 0.000000 0.031580 0.000000 0.000000
# 5 0.000000 0.000000 0.000000 0.000000 0.060286 0.000000
# 6 0.000000 0.000000 0.000000 0.000000 0.000000 0.044816
#
#
# Mechanical properties :
#
#
# Convention : Reuss Voigt Hill
#
# Bulk Modulus (GPa) = 54.93063 57.06482 55.99773
# Shear Modulus (GPa) = 21.54060 22.68085 22.11072
#
# Velocity S-wave (km/s) = 3.49691 3.58828 3.54289
# Velocity P-wave (km/s) = 6.89117 7.04009 6.96603
#
# Compressibility (1/GPa) = 0.01820478
#
# Stress axis : x y z
#
# Youngs Moduli (GPa) = 53.52519 65.55845 50.37589
#
# Poissons Ratio (x) = 0.38355 0.27066
# Poissons Ratio (y) = 0.31315 0.33086
# Poissons Ratio (z) = 0.28758 0.43058
#
# Static dielectric constant tensor:
#      x y z
#    x 3.130820 0.000000 0.000000 
#    y 0.000000 3.538010 0.000000 
#    z 0.000000 0.000000 3.372190 
# 
# 
# High freq. dielectric constant tensor:
#      x y z
#    x 1.653740 0.000000 0.000000 
#    y 0.000000 1.685680 0.000000 
#    z 0.000000 0.000000 1.691520 
# 
# From -- ./inp_files/9880.got.cif
#   From: 2010.03.12/outbox.cif.g09.slc.cpg/sg55_5_cif.got.tgz:9880.got - 2010.04.16 15:19:21.
