data_PCOD8224493
_publ_section_title
;
Structure prediction by ZEFSAII (Michael W. Deem and Ramdas Pophale) SiO2 
 PCOD8224493
Probable space group: P B A M
;
_chemical_formula_sum "Si O2"
_cell_formula_units_Z 56
_cell_length_a 22.905887
_cell_length_b 13.996663
_cell_length_c 9.165194
_cell_angle_alpha 90.000000
_cell_angle_beta 90.000000
_cell_angle_gamma 90.000000
_cell_volume 2938.416014
_symmetry_space_group_name_H-M "P B A M"
_symmetry_group_IT_number 55
_symmetry_cell_setting 'orthorhombic'
loop_
_space_group_symop_operation_xyz
x,y,z
-x,-y,z
1/2+x,1/2-y,-z
1/2-x,1/2+y,-z
-x,-y,-z
x,y,-z
1/2-x,1/2+y,z
1/2+x,1/2-y,z
loop_
_atom_site_type_symbol
_atom_site_label
_atom_site_fract_x
_atom_site_fract_y
_atom_site_fract_z
Si Si1 0.036580 0.220741 0.835291
Si Si2 0.155671 0.601993 0.332332
Si Si3 0.033446 0.596504 0.828594
Si Si4 0.167057 0.816324 0.666190
Si Si5 0.733418 0.501456 0.329403
Si Si6 0.070206 0.913809 0.834568
Si Si7 0.885709 0.909955 0.672883
O O1 0.005123 0.314708 0.769020
O O2 0.093203 0.191617 0.739436
O O3 0.994001 0.129912 0.831664
O O4 0.057293 0.242363 0.000000
O O5 0.140817 0.578071 0.500000
O O6 0.185495 0.706589 0.319390
O O7 0.204181 0.530381 0.262526
O O8 0.096435 0.593785 0.244031
O O9 0.000000 0.500000 0.788261
O O10 0.043391 0.608881 0.000000
O O11 0.147443 0.840962 0.500000
O O12 0.220516 0.887403 0.708755
O O13 0.113491 0.832474 0.774941
O O14 0.739369 0.484140 0.500000
O O15 0.680015 0.434743 0.273732
O O16 0.072459 0.006184 0.732050
O O17 0.087626 0.941718 0.000000
O O18 0.890914 0.905010 0.500000
#
# Coordination Sequence:
#
# PCOD8224493 Si02
#       7
#     8   8   8   8   8   8   8
#     4  10  20  34  52  76 106 143 180 220 272 323
#     4  10  19  35  60  82 105 140 184 231 273 322
#     4  10  22  41  60  78 108 147 185 228 279 331
#     4   9  17  31  53  77 104 140 180 222 271 327
#     4   8  17  34  51  77 111 141 175 219 274 325
#     4  10  18  30  51  77 106 140 177 218 266 322
#     4  10  20  33  51  79 114 144 174 216 268 329
#
# _framework density 19.057886
#
# number of rings (size 3 to 8) (size 9 to 14) (size 15 to 20)
#    0.000    2.429    1.429    2.143    0.000    3.714 
#    2.571    3.571    0.000    0.000    0.000    0.000 
#    0.000    0.000    0.000    0.000    0.000    0.000 
#
# Total GULP energy -694140.935256 kJ/mol
# GULP energy per Si atom -12395.373844 kJ/mol
# Density = 1.901451 g / cm^3
# Si number density = 19.057886 Si / 1000 Ang^3
#
#
#
# Elastic Constant Matrix: (Units=GPa)
#
#
# Indices 1 2 3 4 5 6 
#
# 1 87.9569 63.6721 29.7949 0.0000 0.0000 0.0000
# 2 63.6721 86.6126 28.3721 0.0000 0.0000 0.0000
# 3 29.7949 28.3721 56.0196 0.0000 0.0000 0.0000
# 4 0.0000 0.0000 0.0000 22.5495 0.0000 0.0000
# 5 0.0000 0.0000 0.0000 0.0000 11.0666 0.0000
# 6 0.0000 0.0000 0.0000 0.0000 0.0000 31.1755
#
#
#
# Elastic Compliance Matrix: (Units=1/GPa)
#
#
# Indices 1 2 3 4 5 6 
#
# 1 0.025355 -0.017051 -0.004850 0.000000 0.000000 0.000000
# 2 -0.017051 0.025309 -0.003749 0.000000 0.000000 0.000000
# 3 -0.004850 -0.003749 0.022329 0.000000 0.000000 0.000000
# 4 0.000000 0.000000 0.000000 0.044347 0.000000 0.000000
# 5 0.000000 0.000000 0.000000 0.000000 0.090362 0.000000
# 6 0.000000 0.000000 0.000000 0.000000 0.000000 0.032076
#
#
# Mechanical properties :
#
#
# Convention : Reuss Voigt Hill
#
# Bulk Modulus (GPa) = 46.09754 52.69639 49.39696
# Shear Modulus (GPa) = 16.76116 20.20833 18.48475
#
# Velocity S-wave (km/s) = 2.96883 3.25986 3.11774
# Velocity P-wave (km/s) = 5.99939 6.47145 6.23988
#
# Compressibility (1/GPa) = 0.02169313
#
# Stress axis : x y z
#
# Youngs Moduli (GPa) = 39.43963 39.51240 44.78444
#
# Poissons Ratio (x) = 0.67372 0.21720
# Poissons Ratio (y) = 0.67248 0.16790
# Poissons Ratio (z) = 0.19128 0.14814
#
# Static dielectric constant tensor:
#      x y z
#    x 3.454990 0.000000 0.000000 
#    y 0.000000 3.618620 0.000000 
#    z 0.000000 0.000000 3.402910 
# 
# 
# High freq. dielectric constant tensor:
#      x y z
#    x 1.727190 0.000000 0.000000 
#    y 0.000000 1.740880 0.000000 
#    z 0.000000 0.000000 1.722750 
# 
# From -- ./inp_files/8730.got.cif
#   From: 2010.03.12/outbox.cif.g09.slc.cpg/sg55_5_cif.got.tgz:8730.got - 2010.04.16 15:19:21.
