data_PCOD8224258
_publ_section_title
;
Structure prediction by ZEFSAII (Michael W. Deem and Ramdas Pophale) SiO2 
 PCOD8224258
Probable space group: P B A M
;
_chemical_formula_sum "Si O2"
_cell_formula_units_Z 56
_cell_length_a 22.207438
_cell_length_b 17.303001
_cell_length_c 9.568506
_cell_angle_alpha 90.000000
_cell_angle_beta 90.000000
_cell_angle_gamma 90.000000
_cell_volume 3676.749353
_symmetry_space_group_name_H-M "P B A M"
_symmetry_group_IT_number 55
_symmetry_cell_setting 'orthorhombic'
loop_
_space_group_symop_operation_xyz
x,y,z
-x,-y,z
1/2+x,1/2-y,-z
1/2-x,1/2+y,-z
-x,-y,-z
x,y,-z
1/2-x,1/2+y,z
1/2+x,1/2-y,z
loop_
_atom_site_type_symbol
_atom_site_label
_atom_site_fract_x
_atom_site_fract_y
_atom_site_fract_z
Si Si1 0.182612 0.260408 0.345753
Si Si2 0.930395 0.011413 0.836891
Si Si3 0.819799 0.292094 0.344792
Si Si4 0.653033 0.373310 0.159612
Si Si5 0.277477 0.925161 0.336146
Si Si6 0.788917 0.427201 0.161897
Si Si7 0.143896 0.874492 0.337223
O O1 0.154520 0.251267 0.500000
O O2 0.251110 0.233797 0.347927
O O3 0.144027 0.206836 0.242474
O O4 0.181603 0.350284 0.300494
O O5 0.907940 0.085923 0.753237
O O6 0.894944 0.935460 0.784452
O O7 0.917866 0.025859 0.000000
O O8 0.000000 0.000000 0.803663
O O9 0.837932 0.321803 0.500000
O O10 0.829412 0.359630 0.231309
O O11 0.859121 0.217105 0.303596
O O12 0.718900 0.408506 0.181741
O O13 0.640536 0.352514 0.000000
O O14 0.281889 0.946258 0.500000
O O15 0.208419 0.909432 0.294035
O O16 0.303690 0.993777 0.242081
O O17 0.806853 0.434899 0.000000
O O18 0.131704 0.889655 0.500000
#
# Coordination Sequence:
#
# PCOD8224258 Si02
#       7
#     8   8   8   8   8   8   8
#     4   8  15  26  40  57  76 104 138 166 201 248
#     4  10  20  32  44  59  83 114 145 178 215 249
#     4   8  15  27  40  56  79 107 136 168 208 249
#     4   9  17  28  39  55  79 107 139 172 206 240
#     4   9  16  26  40  59  83 110 137 166 205 249
#     4  10  17  24  38  61  84 109 140 169 199 242
#     4   9  17  29  44  59  78 107 143 179 211 244
#
# _framework density 15.230845
#
# number of rings (size 3 to 8) (size 9 to 14) (size 15 to 20)
#    0.000    3.000    1.429    2.143    0.000    2.571 
#    0.000    2.857    0.000    0.000    0.000    0.000 
#    0.000    1.143    0.000   12.857    0.000    5.714 
#
# Total GULP energy -694207.766367 kJ/mol
# GULP energy per Si atom -12396.567257 kJ/mol
# Density = 1.519618 g / cm^3
# Si number density = 15.230845 Si / 1000 Ang^3
#
#
#
# Elastic Constant Matrix: (Units=GPa)
#
#
# Indices 1 2 3 4 5 6 
#
# 1 35.9031 27.7171 22.4183 0.0000 0.0000 0.0000
# 2 27.7171 125.1289 71.4005 0.0000 0.0000 0.0000
# 3 22.4183 71.4005 81.0990 0.0000 0.0000 0.0000
# 4 0.0000 0.0000 0.0000 28.0144 0.0000 0.0000
# 5 0.0000 0.0000 0.0000 0.0000 14.0454 0.0000
# 6 0.0000 0.0000 0.0000 0.0000 0.0000 14.2539
#
#
#
# Elastic Compliance Matrix: (Units=1/GPa)
#
#
# Indices 1 2 3 4 5 6 
#
# 1 0.034863 -0.004468 -0.005704 0.000000 0.000000 0.000000
# 2 -0.004468 0.016632 -0.013408 0.000000 0.000000 0.000000
# 3 -0.005704 -0.013408 0.025712 0.000000 0.000000 0.000000
# 4 0.000000 0.000000 0.000000 0.035696 0.000000 0.000000
# 5 0.000000 0.000000 0.000000 0.000000 0.071197 0.000000
# 6 0.000000 0.000000 0.000000 0.000000 0.000000 0.070156
#
#
# Mechanical properties :
#
#
# Convention : Reuss Voigt Hill
#
# Bulk Modulus (GPa) = 33.27999 53.91140 43.59570
# Shear Modulus (GPa) = 16.05479 19.30243 17.67861
#
# Velocity S-wave (km/s) = 3.25021 3.56381 3.41062
# Velocity P-wave (km/s) = 5.99858 7.23929 6.64795
#
# Compressibility (1/GPa) = 0.03004808
#
# Stress axis : x y z
#
# Youngs Moduli (GPa) = 28.68332 60.12357 38.89214
#
# Poissons Ratio (x) = 0.26862 0.22183
# Poissons Ratio (y) = 0.12815 0.52148
# Poissons Ratio (z) = 0.16360 0.80616
#
# Static dielectric constant tensor:
#      x y z
#    x 2.436690 0.000000 0.000000 
#    y 0.000000 3.101470 0.000000 
#    z 0.000000 0.000000 3.010360 
# 
# 
# High freq. dielectric constant tensor:
#      x y z
#    x 1.515760 0.000000 0.000000 
#    y 0.000000 1.592570 0.000000 
#    z 0.000000 0.000000 1.588390 
# 
# From -- ./inp_files/7831.got.cif
#   From: 2010.03.12/outbox.cif.g09.slc.cpg/sg55_4_cif.got.tgz:7831.got - 2010.04.16 15:19:21.
