data_PCOD8224272
_publ_section_title
;
Structure prediction by ZEFSAII (Michael W. Deem and Ramdas Pophale) SiO2 
 PCOD8224272
Probable space group: P B A M
;
_chemical_formula_sum "Si O2"
_cell_formula_units_Z 64
_cell_length_a 22.174633
_cell_length_b 20.758873
_cell_length_c 8.984323
_cell_angle_alpha 90.000000
_cell_angle_beta 90.000000
_cell_angle_gamma 90.000000
_cell_volume 4135.667070
_symmetry_space_group_name_H-M "P B A M"
_symmetry_group_IT_number 55
_symmetry_cell_setting 'orthorhombic'
loop_
_space_group_symop_operation_xyz
x,y,z
-x,-y,z
1/2+x,1/2-y,-z
1/2-x,1/2+y,-z
-x,-y,-z
x,y,-z
1/2-x,1/2+y,z
1/2+x,1/2-y,z
loop_
_atom_site_type_symbol
_atom_site_label
_atom_site_fract_x
_atom_site_fract_y
_atom_site_fract_z
Si Si1 0.995643 0.345629 0.670383
Si Si2 0.894717 0.727350 0.330789
Si Si3 0.204317 0.181980 0.330305
Si Si4 0.261117 0.065698 0.176339
Si Si5 0.274820 0.935236 0.327555
Si Si6 0.602830 0.913026 0.174066
Si Si7 0.283161 0.808437 0.824372
Si Si8 0.085981 0.459925 0.330931
O O1 0.975520 0.347186 0.500000
O O2 0.033949 0.279928 0.708306
O O3 0.041419 0.402781 0.713285
O O4 0.934263 0.351192 0.764894
O O5 0.885653 0.698953 0.500000
O O6 0.868058 0.800546 0.326547
O O7 0.854532 0.685139 0.216042
O O8 0.226826 0.173043 0.500000
O O9 0.213470 0.117460 0.236723
O O10 0.240644 0.242102 0.253743
O O11 0.327639 0.089664 0.226364
O O12 0.244824 0.997457 0.250390
O O13 0.255529 0.059038 0.000000
O O14 0.256173 0.933465 0.500000
O O15 0.249849 0.870894 0.245445
O O16 0.346081 0.937820 0.302869
O O17 0.570717 0.977619 0.232783
O O18 0.598793 0.912142 0.000000
O O19 0.272067 0.805411 0.000000
O O20 0.076006 0.481736 0.500000
#
# Coordination Sequence:
#
# PCOD8224272 Si02
#       8
#     8   8   8   8   8   8   8   8
#     4  10  17  28  41  54  74 102 135 172 203 237
#     4   8  16  29  43  59  76  97 132 171 205 243
#     4   9  17  31  47  61  77 103 140 172 207 255
#     4  10  20  32  42  58  84 111 141 176 214 248
#     4  10  17  28  43  59  81 109 141 174 208 246
#     4  10  21  29  34  52  79 105 134 170 206 242
#     4  10  17  26  42  63  82 102 131 170 213 248
#     4   9  16  27  39  50  69 103 141 172 201 234
#
# _framework density 15.475133
#
# number of rings (size 3 to 8) (size 9 to 14) (size 15 to 20)
#    0.750    1.750    1.250    2.625    0.000    4.500 
#    0.000    0.000    0.000    0.000    0.000    0.000 
#    0.000    0.000    0.000    1.125    0.000   21.750 
#
# Total GULP energy -792840.499247 kJ/mol
# GULP energy per Si atom -12388.132801 kJ/mol
# Density = 1.543991 g / cm^3
# Si number density = 15.475133 Si / 1000 Ang^3
#
#
#
# Elastic Constant Matrix: (Units=GPa)
#
#
# Indices 1 2 3 4 5 6 
#
# 1 3.3825 -9.3114 -1.5000 0.0000 0.0000 0.0000
# 2 -9.3114 48.7885 17.6359 0.0000 0.0000 0.0000
# 3 -1.5000 17.6359 67.3791 0.0000 0.0000 0.0000
# 4 0.0000 0.0000 0.0000 22.8245 0.0000 0.0000
# 5 0.0000 0.0000 0.0000 0.0000 16.9700 0.0000
# 6 0.0000 0.0000 0.0000 0.0000 0.0000 16.3578
#
#
#
# Elastic Compliance Matrix: (Units=1/GPa)
#
#
# Indices 1 2 3 4 5 6 
#
# 1 0.645869 0.130406 -0.019754 0.000000 0.000000 0.000000
# 2 0.130406 0.048969 -0.009914 0.000000 0.000000 0.000000
# 3 -0.019754 -0.009914 0.016997 0.000000 0.000000 0.000000
# 4 0.000000 0.000000 0.000000 0.043813 0.000000 0.000000
# 5 0.000000 0.000000 0.000000 0.000000 0.058928 0.000000
# 6 0.000000 0.000000 0.000000 0.000000 0.000000 0.061133
#
#
# Mechanical properties :
#
#
# Convention : Reuss Voigt Hill
#
# Bulk Modulus (GPa) = 1.09492 14.79990 7.94741
# Shear Modulus (GPa) = 5.10898 18.74549 11.92724
#
# Velocity S-wave (km/s) = 1.81895 3.48419 2.77922
# Velocity P-wave (km/s) = 2.26286 5.07647 3.93008
#
# Compressibility (1/GPa) = 0.91331001
#
# Stress axis : x y z
#
# Youngs Moduli (GPa) = 1.54830 20.42128 58.83556
#
# Poissons Ratio (x) = -2.66306 1.16225
# Poissons Ratio (y) = -0.20191 0.58329
# Poissons Ratio (z) = 0.03059 0.20246
#
# Static dielectric constant tensor:
#      x y z
#    x 2.681620 0.000000 0.000000 
#    y 0.000000 2.856430 0.000000 
#    z 0.000000 0.000000 2.950120 
# 
# 
# High freq. dielectric constant tensor:
#      x y z
#    x 1.538660 0.000000 0.000000 
#    y 0.000000 1.572310 0.000000 
#    z 0.000000 0.000000 1.603000 
# 
# From -- ./inp_files/9884.got.cif
#   From: 2010.03.12/outbox.cif.g09.slc.cpg/sg55_5_cif.got.tgz:9884.got - 2010.04.16 15:19:21.
