data_PCOD8224289
_publ_section_title
;
Structure prediction by ZEFSAII (Michael W. Deem and Ramdas Pophale) SiO2 
 PCOD8224289
Probable space group: P B A M
;
_chemical_formula_sum "Si O2"
_cell_formula_units_Z 40
_cell_length_a 15.461076
_cell_length_b 17.508439
_cell_length_c 9.160272
_cell_angle_alpha 90.000000
_cell_angle_beta 90.000000
_cell_angle_gamma 90.000000
_cell_volume 2479.679273
_symmetry_space_group_name_H-M "P B A M"
_symmetry_group_IT_number 55
_symmetry_cell_setting 'orthorhombic'
loop_
_space_group_symop_operation_xyz
x,y,z
-x,-y,z
1/2+x,1/2-y,-z
1/2-x,1/2+y,-z
-x,-y,-z
x,y,-z
1/2-x,1/2+y,z
1/2+x,1/2-y,z
loop_
_atom_site_type_symbol
_atom_site_label
_atom_site_fract_x
_atom_site_fract_y
_atom_site_fract_z
Si Si1 0.778794 0.695875 0.669137
Si Si2 0.296582 0.428999 0.838741
Si Si3 0.949308 0.787549 0.670481
Si Si4 0.423362 0.555474 0.828870
Si Si5 0.618205 0.721852 0.162912
O O1 0.755392 0.697899 0.500000
O O2 0.773484 0.607387 0.726472
O O3 0.873407 0.727521 0.701487
O O4 0.706818 0.747460 0.754326
O O5 0.332759 0.511698 0.793279
O O6 0.379887 0.371082 0.845104
O O7 0.253939 0.432815 0.000000
O O8 0.968443 0.797209 0.500000
O O9 0.921621 0.868496 0.734692
O O10 0.033696 0.752601 0.748386
O O11 0.500000 0.500000 0.778227
O O12 0.430296 0.575745 0.000000
O O13 0.615817 0.757655 0.000000
#
# Coordination Sequence:
#
# PCOD8224289 Si02
#       5
#     8   8   8   8   8
#     4   9  18  31  44  63  92 121 153 188 222 269
#     4   8  16  29  44  62  87 119 151 183 221 260
#     4  11  21  29  44  71  97 124 153 183 227 277
#     4  10  17  28  44  65  93 121 150 185 224 270
#     4   9  17  30  46  63  88 120 153 188 222 259
#
# _framework density 16.131119999999999
#
# number of rings (size 3 to 8) (size 9 to 14) (size 15 to 20)
#    1.200    1.400    2.000    1.200    0.000    4.400 
#    0.000    0.000    0.000    0.000    0.000    1.400 
#    0.000   11.200    0.000    0.000    0.000    0.000 
#
# Total GULP energy -495537.734223 kJ/mol
# GULP energy per Si atom -12388.443356 kJ/mol
# Density = 1.609440 g / cm^3
# Si number density = 16.131120 Si / 1000 Ang^3
#
#
#
# Elastic Constant Matrix: (Units=GPa)
#
#
# Indices 1 2 3 4 5 6 
#
# 1 45.7791 -8.8966 26.8853 0.0000 0.0000 0.0000
# 2 -8.8966 4.0439 0.7556 0.0000 0.0000 0.0000
# 3 26.8853 0.7556 85.3395 0.0000 0.0000 0.0000
# 4 0.0000 0.0000 0.0000 22.4173 0.0000 0.0000
# 5 0.0000 0.0000 0.0000 0.0000 23.7188 0.0000
# 6 0.0000 0.0000 0.0000 0.0000 0.0000 17.8369
#
#
#
# Elastic Compliance Matrix: (Units=1/GPa)
#
#
# Indices 1 2 3 4 5 6 
#
# 1 0.060093 0.135966 -0.020135 0.000000 0.000000 0.000000
# 2 0.135966 0.555333 -0.047752 0.000000 0.000000 0.000000
# 3 -0.020135 -0.047752 0.018484 0.000000 0.000000 0.000000
# 4 0.000000 0.000000 0.000000 0.044608 0.000000 0.000000
# 5 0.000000 0.000000 0.000000 0.000000 0.042161 0.000000
# 6 0.000000 0.000000 0.000000 0.000000 0.000000 0.056064
#
#
# Mechanical properties :
#
#
# Convention : Reuss Voigt Hill
#
# Bulk Modulus (GPa) = 1.29859 19.18345 10.24102
# Shear Modulus (GPa) = 5.57244 20.55582 13.06413
#
# Velocity S-wave (km/s) = 1.86064 3.57360 2.84891
# Velocity P-wave (km/s) = 2.32867 5.38010 4.14537
#
# Compressibility (1/GPa) = 0.77006828
#
# Stress axis : x y z
#
# Youngs Moduli (GPa) = 16.64092 1.80072 54.10043
#
# Poissons Ratio (x) = -0.24484 1.08934
# Poissons Ratio (y) = -2.26261 2.58338
# Poissons Ratio (z) = 0.33507 0.08599
#
# Static dielectric constant tensor:
#      x y z
#    x 2.834840 0.000000 0.000000 
#    y 0.000000 2.697070 0.000000 
#    z 0.000000 0.000000 3.091890 
# 
# 
# High freq. dielectric constant tensor:
#      x y z
#    x 1.600970 0.000000 0.000000 
#    y 0.000000 1.574670 0.000000 
#    z 0.000000 0.000000 1.631300 
# 
# From -- ./inp_files/5365.got.cif
#   From: 2010.03.12/outbox.cif.g09.slc.cpg/sg55_3_cif.got.tgz:5365.got - 2010.04.16 15:19:21.
