data_PCOD8224825
_publ_section_title
;
Structure prediction by ZEFSAII (Michael W. Deem and Ramdas Pophale) SiO2 
 PCOD8224825
Probable space group: P B A M
;
_chemical_formula_sum "Si O2"
_cell_formula_units_Z 64
_cell_length_a 19.978305
_cell_length_b 19.962136
_cell_length_c 9.734555
_cell_angle_alpha 90.000000
_cell_angle_beta 90.000000
_cell_angle_gamma 90.000000
_cell_volume 3882.234389
_symmetry_space_group_name_H-M "P B A M"
_symmetry_group_IT_number 55
_symmetry_cell_setting 'orthorhombic'
loop_
_space_group_symop_operation_xyz
x,y,z
-x,-y,z
1/2+x,1/2-y,-z
1/2-x,1/2+y,-z
-x,-y,-z
x,y,-z
1/2-x,1/2+y,z
1/2+x,1/2-y,z
loop_
_atom_site_type_symbol
_atom_site_label
_atom_site_fract_x
_atom_site_fract_y
_atom_site_fract_z
Si Si1 0.058547 0.955260 0.839103
Si Si2 0.195709 0.427365 0.662658
Si Si3 0.489268 0.679196 0.157528
Si Si4 0.044461 0.440411 0.336609
Si Si5 0.300740 0.508255 0.161881
Si Si6 0.335694 0.658796 0.842074
Si Si7 0.681340 0.222662 0.652138
Si Si8 0.476741 0.795730 0.347472
O O1 0.130814 0.975210 0.780734
O O2 0.042944 0.878036 0.807767
O O3 0.059432 0.971277 0.000000
O O4 0.000000 0.000000 0.770301
O O5 0.204921 0.440247 0.500000
O O6 0.120906 0.445718 0.712975
O O7 0.242202 0.475813 0.750209
O O8 0.211943 0.349264 0.697589
O O9 0.414631 0.653329 0.192853
O O10 0.511411 0.742742 0.247138
O O11 0.493393 0.701123 0.000000
O O12 0.044239 0.442349 0.500000
O O13 0.010304 0.370503 0.289899
O O14 0.000000 0.500000 0.272573
O O15 0.301988 0.587683 0.191541
O O16 0.290147 0.493952 0.000000
O O17 0.298972 0.717209 0.755015
O O18 0.325443 0.678306 0.000000
O O19 0.707688 0.241512 0.500000
O O20 0.602153 0.215052 0.648174
O O21 0.507066 0.786288 0.500000
#
# Coordination Sequence:
#
# PCOD8224825 Si02
#       8
#     8   8   8   8   8   8   8   8
#     4   9  15  27  46  66  90 124 162 191 217 262
#     4   9  18  32  49  70  94 120 153 193 233 277
#     4   9  15  25  44  66  89 117 153 191 221 259
#     4   8  14  28  52  74  89 114 154 190 225 279
#     4  10  19  30  47  70  95 124 157 191 230 275
#     4   9  16  26  44  70  91 113 152 196 228 261
#     4   8  15  28  45  64  88 116 148 187 229 271
#     4   8  14  25  43  68  92 112 140 185 231 266
#
# _framework density 16.485351999999999
#
# number of rings (size 3 to 8) (size 9 to 14) (size 15 to 20)
#    0.000    3.250    1.250    1.500    0.000    1.000 
#    0.000    2.500    2.750    2.250    0.000    0.000 
#    0.000    0.000    0.000    0.000    0.000    0.000 
#
# Total GULP energy -793189.940335 kJ/mol
# GULP energy per Si atom -12393.592818 kJ/mol
# Density = 1.644783 g / cm^3
# Si number density = 16.485352 Si / 1000 Ang^3
#
#
#
# Elastic Constant Matrix: (Units=GPa)
#
#
# Indices 1 2 3 4 5 6 
#
# 1 60.3107 52.6276 30.3305 0.0000 0.0000 0.0000
# 2 52.6276 137.8799 64.5070 0.0000 0.0000 0.0000
# 3 30.3305 64.5070 59.5874 0.0000 0.0000 0.0000
# 4 0.0000 0.0000 0.0000 29.9136 0.0000 0.0000
# 5 0.0000 0.0000 0.0000 0.0000 13.4174 0.0000
# 6 0.0000 0.0000 0.0000 0.0000 0.0000 23.5094
#
#
#
# Elastic Compliance Matrix: (Units=1/GPa)
#
#
# Indices 1 2 3 4 5 6 
#
# 1 0.025566 -0.007436 -0.004963 0.000000 0.000000 0.000000
# 2 -0.007436 0.016859 -0.014465 0.000000 0.000000 0.000000
# 3 -0.004963 -0.014465 0.034968 0.000000 0.000000 0.000000
# 4 0.000000 0.000000 0.000000 0.033430 0.000000 0.000000
# 5 0.000000 0.000000 0.000000 0.000000 0.074530 0.000000
# 6 0.000000 0.000000 0.000000 0.000000 0.000000 0.042536
#
#
# Mechanical properties :
#
#
# Convention : Reuss Voigt Hill
#
# Bulk Modulus (GPa) = 42.25995 61.41202 51.83599
# Shear Modulus (GPa) = 17.27085 20.72226 18.99656
#
# Velocity S-wave (km/s) = 3.24025 3.54928 3.39828
# Velocity P-wave (km/s) = 6.29996 7.35730 6.84906
#
# Compressibility (1/GPa) = 0.02366307
#
# Stress axis : x y z
#
# Youngs Moduli (GPa) = 39.11499 59.31644 28.59759
#
# Poissons Ratio (x) = 0.44110 0.14193
# Poissons Ratio (y) = 0.29087 0.41368
# Poissons Ratio (z) = 0.19412 0.85804
#
# Static dielectric constant tensor:
#      x y z
#    x 2.845220 0.000000 0.000000 
#    y 0.000000 3.404230 0.000000 
#    z 0.000000 0.000000 2.969520 
# 
# 
# High freq. dielectric constant tensor:
#      x y z
#    x 1.596330 0.000000 0.000000 
#    y 0.000000 1.646980 0.000000 
#    z 0.000000 0.000000 1.608270 
# 
# From -- ./inp_files/15062.got.cif
#   From: 2010.03.12/outbox.cif.g09.slc.cpg/sg55_8_cif.got.tgz:15062.got - 2010.04.16 15:19:21.
