data_PCOD8224940
_publ_section_title
;
Structure prediction by ZEFSAII (Michael W. Deem and Ramdas Pophale) SiO2 
 PCOD8224940
Probable space group: P B A M
;
_chemical_formula_sum "Si O2"
_cell_formula_units_Z 60
_cell_length_a 12.706522
_cell_length_b 21.752926
_cell_length_c 12.356792
_cell_angle_alpha 90.000000
_cell_angle_beta 90.000000
_cell_angle_gamma 90.000000
_cell_volume 3415.467141
_symmetry_space_group_name_H-M "P B A M"
_symmetry_group_IT_number 55
_symmetry_cell_setting 'orthorhombic'
loop_
_space_group_symop_operation_xyz
x,y,z
-x,-y,z
1/2+x,1/2-y,-z
1/2-x,1/2+y,-z
-x,-y,-z
x,y,-z
1/2-x,1/2+y,z
1/2+x,1/2-y,z
loop_
_atom_site_type_symbol
_atom_site_label
_atom_site_fract_x
_atom_site_fract_y
_atom_site_fract_z
Si Si1 0.500000 0.500000 0.259590
Si Si2 0.037088 0.877117 0.124333
Si Si3 0.190089 0.066915 0.374179
Si Si4 0.682436 0.720888 0.765425
Si Si5 0.999782 0.260060 0.622572
Si Si6 0.149808 0.181370 0.762110
Si Si7 0.387712 0.984596 0.374442
Si Si8 0.830342 0.643029 0.378238
O O1 0.457270 0.441580 0.190090
O O2 0.404226 0.522716 0.334633
O O3 0.128035 0.826537 0.151108
O O4 0.924689 0.844070 0.142659
O O5 0.049184 0.895157 0.000000
O O6 0.169778 0.083318 0.500000
O O7 0.206292 0.125803 0.298757
O O8 0.303593 0.037262 0.358013
O O9 0.599923 0.762808 0.700981
O O10 0.767198 0.769715 0.815099
O O11 0.739624 0.679451 0.679171
O O12 0.966988 0.242791 0.500000
O O13 0.080496 0.209600 0.666032
O O14 0.055021 0.325987 0.626752
O O15 0.408011 0.969386 0.500000
O O16 0.342477 0.922725 0.320026
O O17 0.500000 0.000000 0.319349
O O18 0.789308 0.636519 0.500000
#
# Coordination Sequence:
#
# PCOD8224940 Si02
#       8
#     4   8   8   8   8   8   8   8
#     4  10  20  36  56  82 106 128 176 224 270 328
#     4  10  21  37  56  75  98 129 170 228 284 321
#     4  10  19  31  51  76 109 145 171 204 251 306
#     4  10  19  32  50  73  98 130 171 209 254 312
#     4   9  17  28  45  69 100 135 163 199 245 295
#     4   9  20  33  47  74 104 129 172 212 253 311
#     4   9  18  29  41  64  96 136 175 195 222 278
#     4   9  17  29  44  67 100 132 164 200 237 287
#
# _framework density 17.567143000000002
#
# number of rings (size 3 to 8) (size 9 to 14) (size 15 to 20)
#    0.000    2.533    0.000    2.000    1.867    2.133 
#    0.000    4.000    0.000    0.000    0.000    0.000 
#    0.000    4.800    0.000    0.000    0.000    0.000 
#
# Total GULP energy -743507.574391 kJ/mol
# GULP energy per Si atom -12391.792907 kJ/mol
# Density = 1.752716 g / cm^3
# Si number density = 17.567143 Si / 1000 Ang^3
#
#
#
# Elastic Constant Matrix: (Units=GPa)
#
#
# Indices 1 2 3 4 5 6 
#
# 1 87.6122 30.7579 21.2060 0.0000 0.0000 0.0000
# 2 30.7579 90.3604 18.1181 0.0000 0.0000 0.0000
# 3 21.2060 18.1181 55.2711 0.0000 0.0000 0.0000
# 4 0.0000 0.0000 0.0000 -4.6695 0.0000 0.0000
# 5 0.0000 0.0000 0.0000 0.0000 9.5699 0.0000
# 6 0.0000 0.0000 0.0000 0.0000 0.0000 25.5862
#
#
#
# Elastic Compliance Matrix: (Units=1/GPa)
#
#
# Indices 1 2 3 4 5 6 
#
# 1 0.013743 -0.003876 -0.004002 0.000000 0.000000 0.000000
# 2 -0.003876 0.012938 -0.002754 0.000000 0.000000 0.000000
# 3 -0.004002 -0.002754 0.020531 0.000000 0.000000 0.000000
# 4 0.000000 0.000000 0.000000 -0.214155 0.000000 0.000000
# 5 0.000000 0.000000 0.000000 0.000000 0.104495 0.000000
# 6 0.000000 0.000000 0.000000 0.000000 0.000000 0.039084
#
#
# Mechanical properties :
#
#
# Convention : Reuss Voigt Hill
#
# Bulk Modulus (GPa) = 38.53855 41.48975 40.01415
# Shear Modulus (GPa) = 763.36080 16.97476 390.16778
#
# Velocity S-wave (km/s) = 20.86821 3.11188 14.91922
# Velocity P-wave (km/s) = 24.54849 6.04820 17.87749
#
# Compressibility (1/GPa) = 0.02594805
#
# Stress axis : x y z
#
# Youngs Moduli (GPa) = 72.76273 77.29014 48.70652
#
# Poissons Ratio (x) = 0.29954 0.19495
# Poissons Ratio (y) = 0.28200 0.13415
# Poissons Ratio (z) = 0.29123 0.21288
#
# Static dielectric constant tensor:
#      x y z
#    x 3.391310 0.000000 0.000000 
#    y 0.000000 3.513330 0.000000 
#    z 0.000000 0.000000 2.880590 
# 
# 
# High freq. dielectric constant tensor:
#      x y z
#    x 1.687180 0.000000 0.000000 
#    y 0.000000 1.695330 0.000000 
#    z 0.000000 0.000000 1.633300 
# 
# From -- ./inp_files/13603.got.cif
#   From: 2010.03.12/outbox.cif.g09.slc.cpg/sg55_7_cif.got.tgz:13603.got - 2010.04.16 15:19:21.
