data_PCOD8224699
_publ_section_title
;
Structure prediction by ZEFSAII (Michael W. Deem and Ramdas Pophale) SiO2 
 PCOD8224699
Probable space group: P B A M
;
_chemical_formula_sum "Si O2"
_cell_formula_units_Z 48
_cell_length_a 29.876203
_cell_length_b 5.188870
_cell_length_c 14.533622
_cell_angle_alpha 90.000000
_cell_angle_beta 90.000000
_cell_angle_gamma 90.000000
_cell_volume 2253.056343
_symmetry_space_group_name_H-M "P B A M"
_symmetry_group_IT_number 55
_symmetry_cell_setting 'orthorhombic'
loop_
_space_group_symop_operation_xyz
x,y,z
-x,-y,z
1/2+x,1/2-y,-z
1/2-x,1/2+y,-z
-x,-y,-z
x,y,-z
1/2-x,1/2+y,z
1/2+x,1/2-y,z
loop_
_atom_site_type_symbol
_atom_site_label
_atom_site_fract_x
_atom_site_fract_y
_atom_site_fract_z
Si Si1 0.074162 0.078736 0.772336
Si Si2 0.635390 0.148186 0.102423
Si Si3 0.723434 0.007865 0.794961
Si Si4 0.453710 0.070606 0.147902
Si Si5 0.814936 0.546018 0.603709
Si Si6 0.372312 0.454347 0.602244
O O1 0.119168 0.106435 0.836626
O O2 0.086583 0.994483 0.670148
O O3 0.048645 0.353971 0.770033
O O4 0.042456 0.858985 0.814292
O O5 0.674673 0.004532 0.158055
O O6 0.591930 0.959842 0.089024
O O7 0.651516 0.230373 0.000000
O O8 0.750495 0.256552 0.829556
O O9 0.721654 0.003933 0.683180
O O10 0.500000 0.000000 0.093164
O O11 0.794049 0.522020 0.500000
O O12 0.834727 0.829703 0.619637
O O13 0.852758 0.329950 0.617761
O O14 0.391817 0.482826 0.500000
#
# Coordination Sequence:
#
# PCOD8224699 Si02
#       6
#     8   8   8   8   8   8
#     4  10  20  38  63  90 127 158 202 247 313 370
#     4  10  25  43  66  92 122 163 211 261 313 375
#     4  12  26  41  62  88 127 169 208 254 302 363
#     4  10  22  40  67  95 124 161 199 260 324 376
#     4  10  20  36  59  90 123 159 207 259 307 359
#     4  10  18  33  62  91 121 164 208 249 305 368
#
# _framework density 21.304395
#
# number of rings (size 3 to 8) (size 9 to 14) (size 15 to 20)
#    1.000    0.667    1.667    3.500    2.333    2.333 
#    0.000    0.833    0.000    3.000    0.000    0.000 
#    0.000    0.000    0.000    0.000    0.000    0.000 
#
# Total GULP energy -594706.527065 kJ/mol
# GULP energy per Si atom -12389.719314 kJ/mol
# Density = 2.125591 g / cm^3
# Si number density = 21.304395 Si / 1000 Ang^3
#
#
#
# Elastic Constant Matrix: (Units=GPa)
#
#
# Indices 1 2 3 4 5 6 
#
# 1 100.2567 22.0169 26.4845 0.0000 0.0000 0.0000
# 2 22.0169 108.9276 15.7469 0.0000 0.0000 0.0000
# 3 26.4845 15.7469 94.0183 0.0000 0.0000 0.0000
# 4 0.0000 0.0000 0.0000 12.1357 0.0000 0.0000
# 5 0.0000 0.0000 0.0000 0.0000 -4.4152 0.0000
# 6 0.0000 0.0000 0.0000 0.0000 0.0000 32.9099
#
#
#
# Elastic Compliance Matrix: (Units=1/GPa)
#
#
# Indices 1 2 3 4 5 6 
#
# 1 0.011125 -0.001840 -0.002826 0.000000 0.000000 0.000000
# 2 -0.001840 0.009713 -0.001108 0.000000 0.000000 0.000000
# 3 -0.002826 -0.001108 0.011618 0.000000 0.000000 0.000000
# 4 0.000000 0.000000 0.000000 0.082402 0.000000 0.000000
# 5 0.000000 0.000000 0.000000 0.000000 -0.226493 0.000000
# 6 0.000000 0.000000 0.000000 0.000000 0.000000 0.030386
#
#
# Mechanical properties :
#
#
# Convention : Reuss Voigt Hill
#
# Bulk Modulus (GPa) = 47.83079 47.96659 47.89869
# Shear Modulus (GPa) = -79.70385 24.05635 -27.82375
#
# Velocity S-wave (km/s) = -6.12316 3.36396 -3.61780
# Velocity P-wave (km/s) = 5.24318 6.13613 2.25401
#
# Compressibility (1/GPa) = 0.02090704
#
# Stress axis : x y z
#
# Youngs Moduli (GPa) = 89.88806 102.95924 86.07451
#
# Poissons Ratio (x) = 0.18946 0.24322
# Poissons Ratio (y) = 0.16541 0.09540
# Poissons Ratio (z) = 0.25399 0.11412
#
# Static dielectric constant tensor:
#      x y z
#    x 3.548770 0.000000 0.000000 
#    y 0.000000 3.876390 0.000000 
#    z 0.000000 0.000000 3.727910 
# 
# 
# High freq. dielectric constant tensor:
#      x y z
#    x 1.812280 0.000000 0.000000 
#    y 0.000000 1.845980 0.000000 
#    z 0.000000 0.000000 1.818170 
# 
# From -- ./inp_files/20055.got.cif
#   From: 2010.03.12/outbox.cif.g09.slc.cpg/sg55_11_cif.got.tgz:20055.got - 2010.04.16 15:19:21.
