data_PCOD8224712
_publ_section_title
;
Structure prediction by ZEFSAII (Michael W. Deem and Ramdas Pophale) SiO2 
 PCOD8224712
Probable space group: P B A M
;
_chemical_formula_sum "Si O2"
_cell_formula_units_Z 48
_cell_length_a 16.630359
_cell_length_b 18.028393
_cell_length_c 8.534194
_cell_angle_alpha 90.000000
_cell_angle_beta 90.000000
_cell_angle_gamma 90.000000
_cell_volume 2558.710505
_symmetry_space_group_name_H-M "P B A M"
_symmetry_group_IT_number 55
_symmetry_cell_setting 'orthorhombic'
loop_
_space_group_symop_operation_xyz
x,y,z
-x,-y,z
1/2+x,1/2-y,-z
1/2-x,1/2+y,-z
-x,-y,-z
x,y,-z
1/2-x,1/2+y,z
1/2+x,1/2-y,z
loop_
_atom_site_type_symbol
_atom_site_label
_atom_site_fract_x
_atom_site_fract_y
_atom_site_fract_z
Si Si1 0.683452 0.903023 0.317746
Si Si2 0.505202 0.917969 0.315429
Si Si3 0.668444 0.327563 0.817357
Si Si4 0.648192 0.169047 0.316252
Si Si5 0.914550 0.976331 0.184946
Si Si6 0.248044 0.952387 0.183935
O O1 0.702341 0.889927 0.500000
O O2 0.591622 0.881928 0.275956
O O3 0.739375 0.850236 0.213674
O O4 0.696682 0.989506 0.277633
O O5 0.494043 0.925129 0.500000
O O6 0.434354 0.866113 0.248420
O O7 0.500000 0.000000 0.239540
O O8 0.645829 0.255604 0.719697
O O9 0.611151 0.394363 0.756974
O O10 0.657018 0.311292 0.000000
O O11 0.657633 0.156611 0.500000
O O12 0.724148 0.130111 0.231069
O O13 0.845500 0.035604 0.232155
O O14 0.923707 0.973467 0.000000
O O15 0.000000 0.000000 0.261800
O O16 0.258765 0.966681 0.000000
#
# Coordination Sequence:
#
# PCOD8224712 Si02
#       6
#     8   8   8   8   8   8
#     4  10  18  34  58  79 105 143 183 216 264 325
#     4   9  17  32  55  82 108 140 180 223 264 320
#     4  10  21  37  55  79 111 141 180 228 279 327
#     4  11  21  36  56  78 110 147 183 222 276 329
#     4   8  16  34  58  78 102 139 179 220 270 322
#     4  10  19  32  54  82 110 138 177 224 269 322
#
# _framework density 18.759450000000001
#
# number of rings (size 3 to 8) (size 9 to 14) (size 15 to 20)
#    0.000    2.333    1.667    3.000    0.000    0.000 
#    3.000    4.167    0.000   17.000    0.000    0.000 
#    0.000    0.000    0.000    0.000    0.000    0.000 
#
# Total GULP energy -595139.172826 kJ/mol
# GULP energy per Si atom -12398.732767 kJ/mol
# Density = 1.871675 g / cm^3
# Si number density = 18.759450 Si / 1000 Ang^3
#
#
#
# Elastic Constant Matrix: (Units=GPa)
#
#
# Indices 1 2 3 4 5 6 
#
# 1 147.8133 73.4019 25.0145 0.0000 0.0000 0.0000
# 2 73.4019 115.9208 6.9023 0.0000 0.0000 0.0000
# 3 25.0145 6.9023 31.9629 0.0000 0.0000 0.0000
# 4 0.0000 0.0000 0.0000 29.9233 0.0000 0.0000
# 5 0.0000 0.0000 0.0000 0.0000 21.5139 0.0000
# 6 0.0000 0.0000 0.0000 0.0000 0.0000 22.8826
#
#
#
# Elastic Compliance Matrix: (Units=1/GPa)
#
#
# Indices 1 2 3 4 5 6 
#
# 1 0.011386 -0.006766 -0.007450 0.000000 0.000000 0.000000
# 2 -0.006766 0.012760 0.002540 0.000000 0.000000 0.000000
# 3 -0.007450 0.002540 0.036568 0.000000 0.000000 0.000000
# 4 0.000000 0.000000 0.000000 0.033419 0.000000 0.000000
# 5 0.000000 0.000000 0.000000 0.000000 0.046482 0.000000
# 6 0.000000 0.000000 0.000000 0.000000 0.000000 0.043701
#
#
# Mechanical properties :
#
#
# Convention : Reuss Voigt Hill
#
# Bulk Modulus (GPa) = 26.76539 56.25939 41.51239
# Shear Modulus (GPa) = 22.71479 27.55586 25.13532
#
# Velocity S-wave (km/s) = 3.48350 3.83679 3.66440
# Velocity P-wave (km/s) = 5.52072 7.04861 6.33093
#
# Compressibility (1/GPa) = 0.03736168
#
# Stress axis : x y z
#
# Youngs Moduli (GPa) = 87.82771 78.37188 27.34638
#
# Poissons Ratio (x) = 0.53027 0.20372
# Poissons Ratio (y) = 0.59425 -0.06945
# Poissons Ratio (z) = 0.65428 -0.19905
#
# Static dielectric constant tensor:
#      x y z
#    x 3.763360 0.000000 0.000000 
#    y 0.000000 3.341440 0.000000 
#    z 0.000000 0.000000 3.158510 
# 
# 
# High freq. dielectric constant tensor:
#      x y z
#    x 1.735030 0.000000 0.000000 
#    y 0.000000 1.714240 0.000000 
#    z 0.000000 0.000000 1.708750 
# 
# From -- ./inp_files/7538.got.cif
#   From: 2010.03.12/outbox.cif.g09.slc.cpg/sg55_4_cif.got.tgz:7538.got - 2010.04.16 15:19:21.
