data_PCOD8224669
_publ_section_title
;
Structure prediction by ZEFSAII (Michael W. Deem and Ramdas Pophale) SiO2 
 PCOD8224669
Probable space group: P B A M
;
_chemical_formula_sum "Si O2"
_cell_formula_units_Z 56
_cell_length_a 15.107214
_cell_length_b 21.011792
_cell_length_c 8.769403
_cell_angle_alpha 90.000000
_cell_angle_beta 90.000000
_cell_angle_gamma 90.000000
_cell_volume 2783.668422
_symmetry_space_group_name_H-M "P B A M"
_symmetry_group_IT_number 55
_symmetry_cell_setting 'orthorhombic'
loop_
_space_group_symop_operation_xyz
x,y,z
-x,-y,z
1/2+x,1/2-y,-z
1/2-x,1/2+y,-z
-x,-y,-z
x,y,-z
1/2-x,1/2+y,z
1/2+x,1/2-y,z
loop_
_atom_site_type_symbol
_atom_site_label
_atom_site_fract_x
_atom_site_fract_y
_atom_site_fract_z
Si Si1 0.753130 0.597460 0.319674
Si Si2 0.175596 0.770801 0.318725
Si Si3 0.687419 0.329890 0.821851
Si Si4 0.941771 0.630025 0.670784
Si Si5 0.755851 0.958074 0.322757
Si Si6 0.474741 0.728356 0.329578
Si Si7 0.574134 0.947240 0.827256
O O1 0.759686 0.604743 0.500000
O O2 0.701107 0.658783 0.255472
O O3 0.853759 0.598336 0.256264
O O4 0.707802 0.529262 0.277739
O O5 0.183071 0.765669 0.500000
O O6 0.238777 0.715364 0.254402
O O7 0.074046 0.762184 0.264559
O O8 0.699882 0.403639 0.777832
O O9 0.586244 0.315693 0.775689
O O10 0.698954 0.321436 0.000000
O O11 0.961289 0.604113 0.500000
O O12 0.924137 0.704905 0.664890
O O13 0.025909 0.618054 0.779310
O O14 0.772974 0.943496 0.500000
O O15 0.651636 0.959939 0.291142
O O16 0.479545 0.698588 0.500000
O O17 0.500000 0.000000 0.806001
O O18 0.610215 0.942361 0.000000
#
# Coordination Sequence:
#
# PCOD8224669 Si02
#       7
#     8   8   8   8   8   8   8
#     4   9  18  34  59  87 115 147 198 252 289 343
#     4  10  20  40  67  94 120 154 204 252 298 355
#     4  12  25  40  60  89 126 160 196 248 304 365
#     4  10  18  33  56  83 114 152 198 241 288 356
#     4  11  22  38  59  81 114 161 205 250 299 350
#     4  10  21  38  64  90 116 152 196 248 299 355
#     4  11  22  33  49  81 122 154 188 237 298 367
#
# _framework density 20.117339999999999
#
# number of rings (size 3 to 8) (size 9 to 14) (size 15 to 20)
#    0.000    1.571    2.857    3.000    0.000    2.857 
#    0.000    2.143    0.000    4.286    0.000    0.000 
#    0.000    0.000    0.000    0.000    0.000    0.000 
#
# Total GULP energy -694120.159571 kJ/mol
# GULP energy per Si atom -12395.002849 kJ/mol
# Density = 2.007155 g / cm^3
# Si number density = 20.117340 Si / 1000 Ang^3
#
#
#
# Elastic Constant Matrix: (Units=GPa)
#
#
# Indices 1 2 3 4 5 6 
#
# 1 75.8809 30.8151 19.7843 0.0000 0.0000 0.0000
# 2 30.8151 115.9380 22.9724 0.0000 0.0000 0.0000
# 3 19.7843 22.9724 55.8386 0.0000 0.0000 0.0000
# 4 0.0000 0.0000 0.0000 12.2142 0.0000 0.0000
# 5 0.0000 0.0000 0.0000 0.0000 17.4747 0.0000
# 6 0.0000 0.0000 0.0000 0.0000 0.0000 31.2532
#
#
#
# Elastic Compliance Matrix: (Units=1/GPa)
#
#
# Indices 1 2 3 4 5 6 
#
# 1 0.015615 -0.003325 -0.004165 0.000000 0.000000 0.000000
# 2 -0.003325 0.010099 -0.002977 0.000000 0.000000 0.000000
# 3 -0.004165 -0.002977 0.020609 0.000000 0.000000 0.000000
# 4 0.000000 0.000000 0.000000 0.081872 0.000000 0.000000
# 5 0.000000 0.000000 0.000000 0.000000 0.057226 0.000000
# 6 0.000000 0.000000 0.000000 0.000000 0.000000 0.031997
#
#
# Mechanical properties :
#
#
# Convention : Reuss Voigt Hill
#
# Bulk Modulus (GPa) = 39.38552 43.86677 41.62614
# Shear Modulus (GPa) = 20.25829 23.79413 22.02621
#
# Velocity S-wave (km/s) = 3.17678 3.44287 3.31250
# Velocity P-wave (km/s) = 5.75120 6.13655 5.94700
#
# Compressibility (1/GPa) = 0.02539004
#
# Stress axis : x y z
#
# Youngs Moduli (GPa) = 64.04249 99.02112 48.52271
#
# Poissons Ratio (x) = 0.32925 0.20207
# Poissons Ratio (y) = 0.21294 0.14443
# Poissons Ratio (z) = 0.26671 0.29475
#
# Static dielectric constant tensor:
#      x y z
#    x 3.599710 0.000000 0.000000 
#    y 0.000000 3.896440 0.000000 
#    z 0.000000 0.000000 3.432140 
# 
# 
# High freq. dielectric constant tensor:
#      x y z
#    x 1.770910 0.000000 0.000000 
#    y 0.000000 1.794420 0.000000 
#    z 0.000000 0.000000 1.759510 
# 
# From -- ./inp_files/6073.got.cif
#   From: 2010.03.12/outbox.cif.g09.slc.cpg/sg55_4_cif.got.tgz:6073.got - 2010.04.16 15:19:21.
