data_PCOD8224938
_publ_section_title
;
Structure prediction by ZEFSAII (Michael W. Deem and Ramdas Pophale) SiO2 
 PCOD8224938
Probable space group: P B A M
;
_chemical_formula_sum "Si O2"
_cell_formula_units_Z 48
_cell_length_a 15.440090
_cell_length_b 18.862248
_cell_length_c 9.068451
_cell_angle_alpha 90.000000
_cell_angle_beta 90.000000
_cell_angle_gamma 90.000000
_cell_volume 2641.048574
_symmetry_space_group_name_H-M "P B A M"
_symmetry_group_IT_number 55
_symmetry_cell_setting 'orthorhombic'
loop_
_space_group_symop_operation_xyz
x,y,z
-x,-y,z
1/2+x,1/2-y,-z
1/2-x,1/2+y,-z
-x,-y,-z
x,y,-z
1/2-x,1/2+y,z
1/2+x,1/2-y,z
loop_
_atom_site_type_symbol
_atom_site_label
_atom_site_fract_x
_atom_site_fract_y
_atom_site_fract_z
Si Si1 0.577212 0.554709 0.669948
Si Si2 0.084417 0.459623 0.670035
Si Si3 0.935665 0.202114 0.174324
Si Si4 0.244734 0.290912 0.163189
Si Si5 0.922080 0.707244 0.669399
Si Si6 0.253452 0.459207 0.164687
O O1 0.500000 0.500000 0.688063
O O2 0.598117 0.571313 0.500000
O O3 0.548887 0.626968 0.748540
O O4 0.661881 0.518922 0.742892
O O5 0.100785 0.477955 0.500000
O O6 0.070616 0.376365 0.693482
O O7 0.166895 0.489310 0.759045
O O8 0.000000 0.500000 0.730590
O O9 0.840500 0.234264 0.212697
O O10 0.004527 0.258154 0.231556
O O11 0.945126 0.190756 0.000000
O O12 0.172047 0.264460 0.277552
O O13 0.247835 0.375196 0.159496
O O14 0.221698 0.261807 0.000000
O O15 0.934206 0.729340 0.500000
O O16 0.260579 0.491004 0.000000
#
# Coordination Sequence:
#
# PCOD8224938 Si02
#       6
#     8   8   8   8   8   8
#     4  10  20  34  53  76 101 130 165 205 247 293
#     4   9  18  33  52  74 101 134 170 207 248 294
#     4  10  20  34  53  75 101 132 165 205 249 295
#     4   8  16  31  49  69  94 128 167 202 241 292
#     4  10  19  31  51  76 100 130 167 207 249 294
#     4   9  17  30  50  74  99 131 168 203 244 296
#
# _framework density 18.174599000000001
#
# number of rings (size 3 to 8) (size 9 to 14) (size 15 to 20)
#    0.000    2.667    0.000    3.000    0.000    7.000 
#    0.000    1.667    0.000    6.000    0.000    0.000 
#    0.000    0.000    0.000    0.000    0.000    0.000 
#
# Total GULP energy -595139.570289 kJ/mol
# GULP energy per Si atom -12398.741048 kJ/mol
# Density = 1.813323 g / cm^3
# Si number density = 18.174599 Si / 1000 Ang^3
#
#
#
# Elastic Constant Matrix: (Units=GPa)
#
#
# Indices 1 2 3 4 5 6 
#
# 1 156.9238 34.4207 82.2589 0.0000 0.0000 0.0000
# 2 34.4207 26.9620 31.9533 0.0000 0.0000 0.0000
# 3 82.2589 31.9533 127.6170 0.0000 0.0000 0.0000
# 4 0.0000 0.0000 0.0000 21.1676 0.0000 0.0000
# 5 0.0000 0.0000 0.0000 0.0000 36.6979 0.0000
# 6 0.0000 0.0000 0.0000 0.0000 0.0000 25.3673
#
#
#
# Elastic Compliance Matrix: (Units=1/GPa)
#
#
# Indices 1 2 3 4 5 6 
#
# 1 0.010658 -0.007771 -0.004924 0.000000 0.000000 0.000000
# 2 -0.007771 0.058404 -0.009615 0.000000 0.000000 0.000000
# 3 -0.004924 -0.009615 0.013417 0.000000 0.000000 0.000000
# 4 0.000000 0.000000 0.000000 0.047242 0.000000 0.000000
# 5 0.000000 0.000000 0.000000 0.000000 0.027250 0.000000
# 6 0.000000 0.000000 0.000000 0.000000 0.000000 0.039421
#
#
# Mechanical properties :
#
#
# Convention : Reuss Voigt Hill
#
# Bulk Modulus (GPa) = 26.41286 67.64094 47.02690
# Shear Modulus (GPa) = 19.71356 27.50454 23.60905
#
# Velocity S-wave (km/s) = 3.29702 3.89440 3.60809
# Velocity P-wave (km/s) = 5.39056 7.58419 6.57944
#
# Compressibility (1/GPa) = 0.03786035
#
# Stress axis : x y z
#
# Youngs Moduli (GPa) = 93.82263 17.12205 74.52954
#
# Poissons Ratio (x) = 0.13305 0.36702
# Poissons Ratio (y) = 0.72908 0.71657
# Poissons Ratio (z) = 0.46203 0.16462
#
# Static dielectric constant tensor:
#      x y z
#    x 3.728880 0.000000 0.000000 
#    y 0.000000 2.916300 0.000000 
#    z 0.000000 0.000000 3.580320 
# 
# 
# High freq. dielectric constant tensor:
#      x y z
#    x 1.721090 0.000000 0.000000 
#    y 0.000000 1.656830 0.000000 
#    z 0.000000 0.000000 1.717060 
# 
# From -- ./inp_files/5565.got.cif
#   From: 2010.03.12/outbox.cif.g09.slc.cpg/sg55_3_cif.got.tgz:5565.got - 2010.04.16 15:19:21.
