data_PCOD8224823
_publ_section_title
;
Structure prediction by ZEFSAII (Michael W. Deem and Ramdas Pophale) SiO2 
 PCOD8224823
Probable space group: P B A M
;
_chemical_formula_sum "Si O2"
_cell_formula_units_Z 64
_cell_length_a 22.395303
_cell_length_b 15.070711
_cell_length_c 9.976906
_cell_angle_alpha 90.000000
_cell_angle_beta 90.000000
_cell_angle_gamma 90.000000
_cell_volume 3367.336864
_symmetry_space_group_name_H-M "P B A M"
_symmetry_group_IT_number 55
_symmetry_cell_setting 'orthorhombic'
loop_
_space_group_symop_operation_xyz
x,y,z
-x,-y,z
1/2+x,1/2-y,-z
1/2-x,1/2+y,-z
-x,-y,-z
x,y,-z
1/2-x,1/2+y,z
1/2+x,1/2-y,z
loop_
_atom_site_type_symbol
_atom_site_label
_atom_site_fract_x
_atom_site_fract_y
_atom_site_fract_z
Si Si1 0.524935 0.594270 0.149488
Si Si2 0.379881 0.205618 0.350551
Si Si3 0.191853 0.077760 0.349551
Si Si4 0.859815 0.731588 0.348346
Si Si5 0.267988 0.827381 0.146446
Si Si6 0.212642 0.634744 0.152384
Si Si7 0.349022 0.396916 0.259231
Si Si8 0.491540 0.741381 0.348571
O O1 0.500000 0.500000 0.191383
O O2 0.596734 0.596618 0.154836
O O3 0.492772 0.659814 0.249380
O O4 0.505279 0.620296 0.000000
O O5 0.363671 0.170440 0.500000
O O6 0.348987 0.147039 0.234911
O O7 0.359425 0.309084 0.348831
O O8 0.450998 0.195826 0.324311
O O9 0.218635 0.086751 0.500000
O O10 0.150870 0.163808 0.318158
O O11 0.244959 0.070359 0.239598
O O12 0.152381 0.988009 0.344611
O O13 0.840537 0.709294 0.500000
O O14 0.821406 0.666747 0.253661
O O15 0.929331 0.707161 0.324043
O O16 0.244343 0.728216 0.142584
O O17 0.213799 0.892077 0.182548
O O18 0.292789 0.854496 0.000000
O O19 0.201006 0.598222 0.000000
O O20 0.493133 0.703772 0.500000
#
# Coordination Sequence:
#
# PCOD8224823 Si02
#       8
#     8   8   8   8   8   8   8   8
#     4  10  20  31  44  65  95 131 164 193 227 273
#     4   9  17  30  48  68  92 121 155 191 227 274
#     4  10  19  30  47  69  94 125 160 194 230 276
#     4   9  18  32  48  68  94 122 155 196 237 277
#     4   9  18  31  46  64  89 123 158 194 234 275
#     4   9  18  31  46  65  91 122 155 192 235 275
#     4  10  19  30  47  70  97 126 160 197 234 272
#     4   9  18  31  47  67  90 119 154 193 235 276
#
# _framework density 19.006118000000001
#
# number of rings (size 3 to 8) (size 9 to 14) (size 15 to 20)
#    0.000    2.625    0.000    1.875    0.000    8.750 
#    0.000    2.500    0.000    0.000    0.000    0.875 
#    0.000    6.000    0.000    0.000    0.000    0.000 
#
# Total GULP energy -793178.775690 kJ/mol
# GULP energy per Si atom -12393.418370 kJ/mol
# Density = 1.896286 g / cm^3
# Si number density = 19.006118 Si / 1000 Ang^3
#
#
#
# Elastic Constant Matrix: (Units=GPa)
#
#
# Indices 1 2 3 4 5 6 
#
# 1 114.1041 8.9116 48.1103 0.0000 0.0000 0.0000
# 2 8.9116 18.2814 0.8160 0.0000 0.0000 0.0000
# 3 48.1103 0.8160 110.2733 0.0000 0.0000 0.0000
# 4 0.0000 0.0000 0.0000 3.9706 0.0000 0.0000
# 5 0.0000 0.0000 0.0000 0.0000 36.9200 0.0000
# 6 0.0000 0.0000 0.0000 0.0000 0.0000 22.4811
#
#
#
# Elastic Compliance Matrix: (Units=1/GPa)
#
#
# Indices 1 2 3 4 5 6 
#
# 1 0.011222 -0.005254 -0.004857 0.000000 0.000000 0.000000
# 2 -0.005254 0.057178 0.001869 0.000000 0.000000 0.000000
# 3 -0.004857 0.001869 0.011174 0.000000 0.000000 0.000000
# 4 0.000000 0.000000 0.000000 0.251852 0.000000 0.000000
# 5 0.000000 0.000000 0.000000 0.000000 0.027086 0.000000
# 6 0.000000 0.000000 0.000000 0.000000 0.000000 0.044482
#
#
# Mechanical properties :
#
#
# Convention : Reuss Voigt Hill
#
# Bulk Modulus (GPa) = 15.85038 39.81495 27.83267
# Shear Modulus (GPa) = 11.35056 24.99574 18.17315
#
# Velocity S-wave (km/s) = 2.44643 3.63042 3.09556
# Velocity P-wave (km/s) = 4.04200 6.21025 5.23951
#
# Compressibility (1/GPa) = 0.06308999
#
# Stress axis : x y z
#
# Youngs Moduli (GPa) = 89.10922 17.48930 89.49634
#
# Poissons Ratio (x) = 0.09188 0.43470
# Poissons Ratio (y) = 0.46815 -0.16726
# Poissons Ratio (z) = 0.43282 -0.03269
#
# Static dielectric constant tensor:
#      x y z
#    x 3.562980 0.000000 0.000000 
#    y 0.000000 3.024620 0.000000 
#    z 0.000000 0.000000 3.687190 
# 
# 
# High freq. dielectric constant tensor:
#      x y z
#    x 1.735640 0.000000 0.000000 
#    y 0.000000 1.688570 0.000000 
#    z 0.000000 0.000000 1.748170 
# 
# From -- ./inp_files/9812.got.cif
#   From: 2010.03.12/outbox.cif.g09.slc.cpg/sg55_5_cif.got.tgz:9812.got - 2010.04.16 15:19:21.
