data_PCOD8224966
_publ_section_title
;
Structure prediction by ZEFSAII (Michael W. Deem and Ramdas Pophale) SiO2 
 PCOD8224966
Probable space group: P B A M
;
_chemical_formula_sum "Si O2"
_cell_formula_units_Z 44
_cell_length_a 15.059959
_cell_length_b 10.960089
_cell_length_c 13.881676
_cell_angle_alpha 90.000000
_cell_angle_beta 90.000000
_cell_angle_gamma 90.000000
_cell_volume 2291.288493
_symmetry_space_group_name_H-M "P B A M"
_symmetry_group_IT_number 55
_symmetry_cell_setting 'orthorhombic'
loop_
_space_group_symop_operation_xyz
x,y,z
-x,-y,z
1/2+x,1/2-y,-z
1/2-x,1/2+y,-z
-x,-y,-z
x,y,-z
1/2-x,1/2+y,z
1/2+x,1/2-y,z
loop_
_atom_site_type_symbol
_atom_site_label
_atom_site_fract_x
_atom_site_fract_y
_atom_site_fract_z
Si Si1 0.083734 0.858707 0.108563
Si Si2 0.919778 0.095159 0.391918
Si Si3 0.000000 0.500000 0.810007
Si Si4 0.466744 0.748655 0.739674
Si Si5 0.672817 0.885965 0.891900
Si Si6 0.667212 0.449487 0.760288
O O1 0.164931 0.761021 0.115210
O O2 0.998082 0.797246 0.155935
O O3 0.105510 0.985983 0.160158
O O4 0.059153 0.890299 0.000000
O O5 0.888510 0.126818 0.500000
O O6 0.958408 0.215829 0.340394
O O7 0.835327 0.039106 0.333560
O O8 0.000000 0.000000 0.390834
O O9 0.041522 0.394910 0.741029
O O10 0.077296 0.552015 0.877716
O O11 0.372007 0.681534 0.725414
O O12 0.736199 0.932519 0.806231
O O13 0.707182 0.921010 0.000000
#
# Coordination Sequence:
#
# PCOD8224966 Si02
#       6
#     8   8   4   8   8   8
#     4   9  18  32  47  72 106 139 182 225 268 323
#     4   8  15  32  58  84 108 138 181 231 283 335
#     4  10  21  38  53  74 116 160 183 220 283 344
#     4   9  19  33  53  79 106 145 183 225 277 335
#     4  10  21  34  50  75 110 152 191 226 272 330
#     4  10  19  31  53  81 105 138 188 234 275 322
#
# _framework density 19.203168999999999
#
# number of rings (size 3 to 8) (size 9 to 14) (size 15 to 20)
#    0.000    2.727    0.000    2.455    2.545    2.909 
#    0.000    0.455    0.000   10.909    0.000    0.000 
#    0.000    0.000    0.000    0.000    0.000    0.000 
#
# Total GULP energy -545223.623343 kJ/mol
# GULP energy per Si atom -12391.445985 kJ/mol
# Density = 1.915946 g / cm^3
# Si number density = 19.203169 Si / 1000 Ang^3
#
#
#
# Elastic Constant Matrix: (Units=GPa)
#
#
# Indices 1 2 3 4 5 6 
#
# 1 66.0032 14.3525 23.1594 0.0000 0.0000 0.0000
# 2 14.3525 105.1350 28.0175 0.0000 0.0000 0.0000
# 3 23.1594 28.0175 134.1809 0.0000 0.0000 0.0000
# 4 0.0000 0.0000 0.0000 12.6552 0.0000 0.0000
# 5 0.0000 0.0000 0.0000 0.0000 24.2764 0.0000
# 6 0.0000 0.0000 0.0000 0.0000 0.0000 21.5251
#
#
#
# Elastic Compliance Matrix: (Units=1/GPa)
#
#
# Indices 1 2 3 4 5 6 
#
# 1 0.016368 -0.001569 -0.002498 0.000000 0.000000 0.000000
# 2 -0.001569 0.010222 -0.001864 0.000000 0.000000 0.000000
# 3 -0.002498 -0.001864 0.008273 0.000000 0.000000 0.000000
# 4 0.000000 0.000000 0.000000 0.079019 0.000000 0.000000
# 5 0.000000 0.000000 0.000000 0.000000 0.041192 0.000000
# 6 0.000000 0.000000 0.000000 0.000000 0.000000 0.046457
#
#
# Mechanical properties :
#
#
# Convention : Reuss Voigt Hill
#
# Bulk Modulus (GPa) = 43.47216 48.48643 45.97929
# Shear Modulus (GPa) = 22.61828 27.67732 25.14780
#
# Velocity S-wave (km/s) = 3.43569 3.80055 3.62272
# Velocity P-wave (km/s) = 6.19885 6.67555 6.44161
#
# Compressibility (1/GPa) = 0.02300323
#
# Stress axis : x y z
#
# Youngs Moduli (GPa) = 61.09373 97.82418 120.87746
#
# Poissons Ratio (x) = 0.15348 0.30190
# Poissons Ratio (y) = 0.09585 0.22528
# Poissons Ratio (z) = 0.15258 0.18231
#
# Static dielectric constant tensor:
#      x y z
#    x 3.118780 0.000000 0.000000 
#    y 0.000000 3.721070 0.000000 
#    z 0.000000 0.000000 3.596310 
# 
# 
# High freq. dielectric constant tensor:
#      x y z
#    x 1.712000 0.000000 0.000000 
#    y 0.000000 1.748920 0.000000 
#    z 0.000000 0.000000 1.732190 
# 
# From -- ./inp_files/18835.got.cif
#   From: 2010.03.12/outbox.cif.g09.slc.cpg/sg55_10_cif.got.tgz:18835.got - 2010.04.16 15:19:21.
