data_PCOD8224848
_publ_section_title
;
Structure prediction by ZEFSAII (Michael W. Deem and Ramdas Pophale) SiO2 
 PCOD8224848
Probable space group: P B A M
;
_chemical_formula_sum "Si O2"
_cell_formula_units_Z 64
_cell_length_a 11.570984
_cell_length_b 16.194820
_cell_length_c 17.650571
_cell_angle_alpha 90.000000
_cell_angle_beta 90.000000
_cell_angle_gamma 90.000000
_cell_volume 3307.540554
_symmetry_space_group_name_H-M "P B A M"
_symmetry_group_IT_number 55
_symmetry_cell_setting 'orthorhombic'
loop_
_space_group_symop_operation_xyz
x,y,z
-x,-y,z
1/2+x,1/2-y,-z
1/2-x,1/2+y,-z
-x,-y,-z
x,y,-z
1/2-x,1/2+y,z
1/2+x,1/2-y,z
loop_
_atom_site_type_symbol
_atom_site_label
_atom_site_fract_x
_atom_site_fract_y
_atom_site_fract_z
Si Si1 0.281044 0.360095 0.324638
Si Si2 0.739844 0.875864 0.795733
Si Si3 0.934897 0.583439 0.589534
Si Si4 0.121800 0.960743 0.202526
Si Si5 0.616559 0.219211 0.798880
Si Si6 0.395000 0.049758 0.916888
Si Si7 0.233249 0.386669 0.083668
Si Si8 0.917851 0.295425 0.684745
O O1 0.200252 0.408243 0.385576
O O2 0.375354 0.420649 0.286345
O O3 0.197302 0.327367 0.259996
O O4 0.357760 0.283640 0.356313
O O5 0.840682 0.811784 0.815926
O O6 0.644757 0.874589 0.863630
O O7 0.683200 0.855351 0.714582
O O8 0.783025 0.968444 0.791844
O O9 0.938236 0.587481 0.500000
O O10 0.000000 0.500000 0.618304
O O11 0.004760 0.661454 0.621484
O O12 0.154094 0.891006 0.138911
O O13 0.000000 0.000000 0.182376
O O14 0.628072 0.166063 0.876960
O O15 0.490111 0.227463 0.761168
O O16 0.500000 0.000000 0.877640
O O17 0.295657 0.982319 0.928200
O O18 0.431814 0.085083 0.000000
O O19 0.260806 0.348466 0.000000
#
# Coordination Sequence:
#
# PCOD8224848 Si02
#       8
#     8   8   8   8   8   8   8   8
#     4   9  19  34  53  78 106 138 177 221 267 323
#     4  10  19  30  50  74  97 131 173 216 261 313
#     4  10  21  37  58  84 113 143 176 217 268 329
#     4  10  19  32  51  73 101 137 180 227 272 318
#     4   9  18  31  48  73 102 133 173 219 265 314
#     4   9  17  29  45  67  95 128 169 215 259 304
#     4   9  18  31  46  67  99 137 175 218 267 318
#     4  10  19  34  55  78 106 137 174 217 264 320
#
# _framework density 19.349724999999999
#
# number of rings (size 3 to 8) (size 9 to 14) (size 15 to 20)
#    0.000    2.500    0.000    2.250    0.000    3.750 
#    0.000    0.000    0.000    9.375    0.000    0.000 
#    0.000    0.000    0.000    0.000    0.000    0.000 
#
# Total GULP energy -792904.320357 kJ/mol
# GULP energy per Si atom -12389.130006 kJ/mol
# Density = 1.930568 g / cm^3
# Si number density = 19.349725 Si / 1000 Ang^3
#
#
#
# Elastic Constant Matrix: (Units=GPa)
#
#
# Indices 1 2 3 4 5 6 
#
# 1 80.3055 17.5351 28.9780 0.0000 0.0000 0.0000
# 2 17.5351 65.1469 33.5326 0.0000 0.0000 0.0000
# 3 28.9780 33.5326 81.2307 0.0000 0.0000 0.0000
# 4 0.0000 0.0000 0.0000 17.5107 0.0000 0.0000
# 5 0.0000 0.0000 0.0000 0.0000 22.3718 0.0000
# 6 0.0000 0.0000 0.0000 0.0000 0.0000 40.5739
#
#
#
# Elastic Compliance Matrix: (Units=1/GPa)
#
#
# Indices 1 2 3 4 5 6 
#
# 1 0.014417 -0.001566 -0.004497 0.000000 0.000000 0.000000
# 2 -0.001566 0.019662 -0.007558 0.000000 0.000000 0.000000
# 3 -0.004497 -0.007558 0.017035 0.000000 0.000000 0.000000
# 4 0.000000 0.000000 0.000000 0.057108 0.000000 0.000000
# 5 0.000000 0.000000 0.000000 0.000000 0.044699 0.000000
# 6 0.000000 0.000000 0.000000 0.000000 0.000000 0.024646
#
#
# Mechanical properties :
#
#
# Convention : Reuss Voigt Hill
#
# Bulk Modulus (GPa) = 41.88940 42.97496 42.43218
# Shear Modulus (GPa) = 23.50009 25.86710 24.68359
#
# Velocity S-wave (km/s) = 3.48874 3.66022 3.57551
# Velocity P-wave (km/s) = 6.15824 6.33410 6.24679
#
# Compressibility (1/GPa) = 0.02387239
#
# Stress axis : x y z
#
# Youngs Moduli (GPa) = 69.36259 50.86058 58.70391
#
# Poissons Ratio (x) = 0.07965 0.26397
# Poissons Ratio (y) = 0.10862 0.44367
# Poissons Ratio (z) = 0.31190 0.38439
#
# Static dielectric constant tensor:
#      x y z
#    x 3.543850 0.000000 0.000000 
#    y 0.000000 3.538640 0.000000 
#    z 0.000000 0.000000 3.473640 
# 
# 
# High freq. dielectric constant tensor:
#      x y z
#    x 1.746340 0.000000 0.000000 
#    y 0.000000 1.747840 0.000000 
#    z 0.000000 0.000000 1.727690 
# 
# From -- ./inp_files/21322.got.cif
#   From: 2010.03.12/outbox.cif.g09.slc.cpg/sg55_11_cif.got.tgz:21322.got - 2010.04.16 15:19:21.
