data_PCOD8224960
_publ_section_title
;
Structure prediction by ZEFSAII (Michael W. Deem and Ramdas Pophale) SiO2 
 PCOD8224960
Probable space group: P B A M
;
_chemical_formula_sum "Si O2"
_cell_formula_units_Z 56
_cell_length_a 14.873539
_cell_length_b 20.849746
_cell_length_c 8.946544
_cell_angle_alpha 90.000000
_cell_angle_beta 90.000000
_cell_angle_gamma 90.000000
_cell_volume 2774.408378
_symmetry_space_group_name_H-M "P B A M"
_symmetry_group_IT_number 55
_symmetry_cell_setting 'orthorhombic'
loop_
_space_group_symop_operation_xyz
x,y,z
-x,-y,z
1/2+x,1/2-y,-z
1/2-x,1/2+y,-z
-x,-y,-z
x,y,-z
1/2-x,1/2+y,z
1/2+x,1/2-y,z
loop_
_atom_site_type_symbol
_atom_site_label
_atom_site_fract_x
_atom_site_fract_y
_atom_site_fract_z
Si Si1 0.940411 0.631548 0.334969
Si Si2 0.256577 0.398809 0.322458
Si Si3 0.931272 0.447616 0.175767
Si Si4 0.234030 0.027956 0.823898
Si Si5 0.318203 0.267453 0.821702
Si Si6 0.836675 0.833269 0.824682
Si Si7 0.505633 0.268879 0.331762
O O1 0.962044 0.605157 0.500000
O O2 0.848481 0.599697 0.275496
O O3 0.928428 0.707742 0.337074
O O4 0.025884 0.618933 0.228865
O O5 0.269913 0.392784 0.500000
O O6 0.302759 0.464539 0.261468
O O7 0.298829 0.337798 0.242120
O O8 0.833231 0.458655 0.241528
O O9 0.000000 0.500000 0.240142
O O10 0.924806 0.447669 0.000000
O O11 0.179923 0.092210 0.785384
O O12 0.233252 0.013454 0.000000
O O13 0.244858 0.213599 0.769502
O O14 0.416053 0.250085 0.758188
O O15 0.321923 0.270093 0.000000
O O16 0.932893 0.821825 0.747980
O O17 0.847736 0.822677 0.000000
O O18 0.480299 0.291349 0.500000
#
# Coordination Sequence:
#
# PCOD8224960 Si02
#       7
#     8   8   8   8   8   8   8
#     4  10  21  35  54  82 118 156 193 239 296 359
#     4  11  22  38  59  87 122 160 201 244 297 362
#     4  10  19  31  52  81 115 153 194 240 292 354
#     4  10  21  38  57  85 122 160 201 250 304 357
#     4  11  23  41  66  93 121 160 207 254 305 361
#     4  10  22  40  63  90 123 160 204 254 303 363
#     4  11  23  40  62  89 122 157 200 254 307 362
#
# _framework density 20.184483
#
# number of rings (size 3 to 8) (size 9 to 14) (size 15 to 20)
#    0.000    1.571    2.857    2.143    0.000    4.857 
#    0.000    0.714    0.000    4.286    0.000    0.000 
#    0.000    0.000    0.000    0.000    0.000    0.000 
#
# Total GULP energy -694132.129071 kJ/mol
# GULP energy per Si atom -12395.216591 kJ/mol
# Density = 2.013854 g / cm^3
# Si number density = 20.184483 Si / 1000 Ang^3
#
#
#
# Elastic Constant Matrix: (Units=GPa)
#
#
# Indices 1 2 3 4 5 6 
#
# 1 60.0383 18.2315 22.2852 0.0000 0.0000 0.0000
# 2 18.2315 113.6003 34.3672 0.0000 0.0000 0.0000
# 3 22.2852 34.3672 52.7118 0.0000 0.0000 0.0000
# 4 0.0000 0.0000 0.0000 28.4116 0.0000 0.0000
# 5 0.0000 0.0000 0.0000 0.0000 26.3291 0.0000
# 6 0.0000 0.0000 0.0000 0.0000 0.0000 28.1007
#
#
#
# Elastic Compliance Matrix: (Units=1/GPa)
#
#
# Indices 1 2 3 4 5 6 
#
# 1 0.019815 -0.000804 -0.007853 0.000000 0.000000 0.000000
# 2 -0.000804 0.010998 -0.006831 0.000000 0.000000 0.000000
# 3 -0.007853 -0.006831 0.026745 0.000000 0.000000 0.000000
# 4 0.000000 0.000000 0.000000 0.035197 0.000000 0.000000
# 5 0.000000 0.000000 0.000000 0.000000 0.037981 0.000000
# 6 0.000000 0.000000 0.000000 0.000000 0.000000 0.035586
#
#
# Mechanical properties :
#
#
# Convention : Reuss Voigt Hill
#
# Bulk Modulus (GPa) = 37.61920 41.79092 39.70506
# Shear Modulus (GPa) = 24.25314 26.66603 25.45958
#
# Velocity S-wave (km/s) = 3.47013 3.63866 3.55539
# Velocity P-wave (km/s) = 5.89355 6.19698 6.04717
#
# Compressibility (1/GPa) = 0.02658217
#
# Stress axis : x y z
#
# Youngs Moduli (GPa) = 50.46639 90.92270 37.39073
#
# Poissons Ratio (x) = 0.07314 0.29363
# Poissons Ratio (y) = 0.04059 0.25540
# Poissons Ratio (z) = 0.39631 0.62106
#
# Static dielectric constant tensor:
#      x y z
#    x 3.569640 0.000000 0.000000 
#    y 0.000000 3.767690 0.000000 
#    z 0.000000 0.000000 3.558510 
# 
# 
# High freq. dielectric constant tensor:
#      x y z
#    x 1.773370 0.000000 0.000000 
#    y 0.000000 1.795140 0.000000 
#    z 0.000000 0.000000 1.783230 
# 
# From -- ./inp_files/6035.got.cif
#   From: 2010.03.12/outbox.cif.g09.slc.cpg/sg55_4_cif.got.tgz:6035.got - 2010.04.16 15:19:21.
