data_PCOD8224771
_publ_section_title
;
Structure prediction by ZEFSAII (Michael W. Deem and Ramdas Pophale) SiO2 
 PCOD8224771
Probable space group: P B A M
;
_chemical_formula_sum "Si O2"
_cell_formula_units_Z 48
_cell_length_a 44.461561
_cell_length_b 5.159368
_cell_length_c 15.225529
_cell_angle_alpha 90.000000
_cell_angle_beta 90.000000
_cell_angle_gamma 90.000000
_cell_volume 3492.638225
_symmetry_space_group_name_H-M "P B A M"
_symmetry_group_IT_number 55
_symmetry_cell_setting 'orthorhombic'
loop_
_space_group_symop_operation_xyz
x,y,z
-x,-y,z
1/2+x,1/2-y,-z
1/2-x,1/2+y,-z
-x,-y,-z
x,y,-z
1/2-x,1/2+y,z
1/2+x,1/2-y,z
loop_
_atom_site_type_symbol
_atom_site_label
_atom_site_fract_x
_atom_site_fract_y
_atom_site_fract_z
Si Si1 0.568946 0.000430 0.895206
Si Si2 0.269254 0.444349 0.593721
Si Si3 0.636606 0.998253 0.895678
Si Si4 0.172385 0.002255 0.104305
Si Si5 0.533924 0.500463 0.104715
Si Si6 0.770152 0.965238 0.781130
O O1 0.551359 0.750753 0.859249
O O2 0.602809 0.000037 0.857429
O O3 0.551467 0.250670 0.859284
O O4 0.569579 0.000102 0.000000
O O5 0.287054 0.487271 0.500000
O O6 0.241475 0.646702 0.595299
O O7 0.286777 0.502242 0.685112
O O8 0.654463 0.247837 0.861124
O O9 0.653878 0.745109 0.861910
O O10 0.635021 0.000989 0.000000
O O11 0.205598 0.996924 0.143350
O O12 0.175904 0.002631 0.000000
O O13 0.500000 0.500000 0.141676
O O14 0.533372 0.500398 0.000000
O O15 0.744258 0.181306 0.791426
#
# Coordination Sequence:
#
# PCOD8224771 Si02
#       6
#     8   8   8   8   8   8
#     4   9  15  23  34  45  59  81 108 136 168 205
#     4   8  14  25  40  56  72  88 106 129 161 206
#     4   9  17  28  39  49  62  86 119 149 175 201
#     4  10  19  29  39  51  68  89 116 149 179 208
#     4   9  15  21  30  46  65  81  99 130 174 214
#     4  10  19  29  41  56  72  90 111 138 179 222
#
# _framework density 13.743193
#
# number of rings (size 3 to 8) (size 9 to 14) (size 15 to 20)
#    0.000    2.833    0.000    2.500    0.000    6.667 
#    0.000    0.000    0.000    0.000    0.000    0.000 
#    0.000    0.000    0.000    0.000    0.000    0.000 
#
# Total GULP energy -594760.958672 kJ/mol
# GULP energy per Si atom -12390.853306 kJ/mol
# Density = 1.371191 g / cm^3
# Si number density = 13.743193 Si / 1000 Ang^3
#
#
#
# Elastic Constant Matrix: (Units=GPa)
#
#
# Indices 1 2 3 4 5 6 
#
# 1 84.9986 39.3651 23.7565 0.0000 0.0000 0.0000
# 2 39.3651 112.5011 15.1025 0.0000 0.0000 0.0000
# 3 23.7565 15.1025 28.2449 0.0000 0.0000 0.0000
# 4 0.0000 0.0000 0.0000 7.7662 0.0000 0.0000
# 5 0.0000 0.0000 0.0000 0.0000 0.4450 0.0000
# 6 0.0000 0.0000 0.0000 0.0000 0.0000 24.6420
#
#
#
# Elastic Compliance Matrix: (Units=1/GPa)
#
#
# Indices 1 2 3 4 5 6 
#
# 1 0.017179 -0.004386 -0.012104 0.000000 0.000000 0.000000
# 2 -0.004386 0.010696 -0.002030 0.000000 0.000000 0.000000
# 3 -0.012104 -0.002030 0.046671 0.000000 0.000000 0.000000
# 4 0.000000 0.000000 0.000000 0.128764 0.000000 0.000000
# 5 0.000000 0.000000 0.000000 0.000000 2.247241 0.000000
# 6 0.000000 0.000000 0.000000 0.000000 0.000000 0.040581
#
#
# Mechanical properties :
#
#
# Convention : Reuss Voigt Hill
#
# Bulk Modulus (GPa) = 26.66276 42.46590 34.56433
# Shear Modulus (GPa) = 1.96798 16.40532 9.18665
#
# Velocity S-wave (km/s) = 1.19795 3.45875 2.58825
# Velocity P-wave (km/s) = 4.62128 6.84962 5.84267
#
# Compressibility (1/GPa) = 0.03750549
#
# Stress axis : x y z
#
# Youngs Moduli (GPa) = 58.20958 93.49194 21.42681
#
# Poissons Ratio (x) = 0.41008 0.25935
# Poissons Ratio (y) = 0.25533 0.04349
# Poissons Ratio (z) = 0.70457 0.18978
#
# Static dielectric constant tensor:
#      x y z
#    x 2.643190 0.000000 0.000000 
#    y 0.000000 3.020830 0.000000 
#    z 0.000000 0.000000 2.449180 
# 
# 
# High freq. dielectric constant tensor:
#      x y z
#    x 1.504830 0.000000 0.000000 
#    y 0.000000 1.552650 0.000000 
#    z 0.000000 0.000000 1.458810 
# 
# From -- ./inp_files/22121.got.cif
#   From: 2010.03.12/outbox.cif.g09.slc.cpg/sg55_12_cif.got.tgz:22121.got - 2010.04.16 15:19:21.
