data_PCOD8224948
_publ_section_title
;
Structure prediction by ZEFSAII (Michael W. Deem and Ramdas Pophale) SiO2 
 PCOD8224948
Probable space group: P B A M
;
_chemical_formula_sum "Si O2"
_cell_formula_units_Z 56
_cell_length_a 14.812891
_cell_length_b 20.840985
_cell_length_c 9.377718
_cell_angle_alpha 90.000000
_cell_angle_beta 90.000000
_cell_angle_gamma 90.000000
_cell_volume 2895.044455
_symmetry_space_group_name_H-M "P B A M"
_symmetry_group_IT_number 55
_symmetry_cell_setting 'orthorhombic'
loop_
_space_group_symop_operation_xyz
x,y,z
-x,-y,z
1/2+x,1/2-y,-z
1/2-x,1/2+y,-z
-x,-y,-z
x,y,-z
1/2-x,1/2+y,z
1/2+x,1/2-y,z
loop_
_atom_site_type_symbol
_atom_site_label
_atom_site_fract_x
_atom_site_fract_y
_atom_site_fract_z
Si Si1 0.194396 0.229347 0.668964
Si Si2 0.249486 0.102318 0.835324
Si Si3 0.768466 0.020811 0.666707
Si Si4 0.514348 0.743444 0.663346
Si Si5 0.446910 0.139857 0.838667
Si Si6 0.932073 0.557552 0.654991
Si Si7 0.825924 0.157154 0.664785
O O1 0.208188 0.217390 0.500000
O O2 0.223128 0.166921 0.755017
O O3 0.252987 0.290630 0.723860
O O4 0.089495 0.239199 0.708429
O O5 0.358236 0.095574 0.826469
O O6 0.202005 0.041528 0.757972
O O7 0.217659 0.105113 0.000000
O O8 0.790522 0.007955 0.500000
O O9 0.663558 0.029818 0.696959
O O10 0.816026 0.085341 0.728929
O O11 0.523731 0.764355 0.500000
O O12 0.569771 0.794596 0.754933
O O13 0.570015 0.677625 0.690222
O O14 0.535327 0.106708 0.773886
O O15 0.470093 0.156872 0.000000
O O16 0.926677 0.592824 0.500000
O O17 0.000000 0.500000 0.643319
O O18 0.801459 0.150152 0.500000
#
# Coordination Sequence:
#
# PCOD8224948 Si02
#       7
#     8   8   8   8   8   8   8
#     4  10  20  37  62  86 109 145 189 234 284 333
#     4  11  23  37  54  81 116 152 189 228 276 337
#     4  10  20  36  57  81 112 150 189 233 286 337
#     4  10  20  36  60  85 109 140 186 237 284 332
#     4  11  22  34  52  79 114 150 182 223 281 343
#     4  10  19  31  51  78 107 142 184 228 275 331
#     4   9  18  34  57  85 112 138 180 237 283 330
#
# _framework density 19.343398000000001
#
# number of rings (size 3 to 8) (size 9 to 14) (size 15 to 20)
#    0.000    1.857    2.857    1.714    0.000    4.857 
#    0.000    2.143    0.000    4.286    0.000    0.000 
#    0.000    0.000    0.000    0.000    0.000    0.000 
#
# Total GULP energy -694141.558494 kJ/mol
# GULP energy per Si atom -12395.384973 kJ/mol
# Density = 1.929937 g / cm^3
# Si number density = 19.343398 Si / 1000 Ang^3
#
#
#
# Elastic Constant Matrix: (Units=GPa)
#
#
# Indices 1 2 3 4 5 6 
#
# 1 55.2567 7.2932 16.2847 0.0000 0.0000 0.0000
# 2 7.2932 120.0614 50.1064 0.0000 0.0000 0.0000
# 3 16.2847 50.1064 82.1447 0.0000 0.0000 0.0000
# 4 0.0000 0.0000 0.0000 113.2239 0.0000 0.0000
# 5 0.0000 0.0000 0.0000 0.0000 32.9362 0.0000
# 6 0.0000 0.0000 0.0000 0.0000 0.0000 27.6925
#
#
#
# Elastic Compliance Matrix: (Units=1/GPa)
#
#
# Indices 1 2 3 4 5 6 
#
# 1 0.019249 0.000568 -0.004162 0.000000 0.000000 0.000000
# 2 0.000568 0.011190 -0.006938 0.000000 0.000000 0.000000
# 3 -0.004162 -0.006938 0.017231 0.000000 0.000000 0.000000
# 4 0.000000 0.000000 0.000000 0.008832 0.000000 0.000000
# 5 0.000000 0.000000 0.000000 0.000000 0.030362 0.000000
# 6 0.000000 0.000000 0.000000 0.000000 0.000000 0.036111
#
#
# Mechanical properties :
#
#
# Convention : Reuss Voigt Hill
#
# Bulk Modulus (GPa) = 37.58756 44.98128 41.28442
# Shear Modulus (GPa) = 32.69920 47.02243 39.86081
#
# Velocity S-wave (km/s) = 4.11598 4.93579 4.54441
# Velocity P-wave (km/s) = 6.48554 7.46909 6.99463
#
# Compressibility (1/GPa) = 0.02660455
#
# Stress axis : x y z
#
# Youngs Moduli (GPa) = 51.95052 89.36378 58.03488
#
# Poissons Ratio (x) = -0.05074 0.24156
# Poissons Ratio (y) = -0.02950 0.40267
# Poissons Ratio (z) = 0.21624 0.62004
#
# Static dielectric constant tensor:
#      x y z
#    x 3.404260 0.000000 0.000000 
#    y 0.000000 3.687900 0.000000 
#    z 0.000000 0.000000 3.403070 
# 
# 
# High freq. dielectric constant tensor:
#      x y z
#    x 1.739690 0.000000 0.000000 
#    y 0.000000 1.756380 0.000000 
#    z 0.000000 0.000000 1.730140 
# 
# From -- ./inp_files/6099.got.cif
#   From: 2010.03.12/outbox.cif.g09.slc.cpg/sg55_4_cif.got.tgz:6099.got - 2010.04.16 15:19:21.
