data_PCOD8224702
_publ_section_title
;
Structure prediction by ZEFSAII (Michael W. Deem and Ramdas Pophale) SiO2 
 PCOD8224702
Probable space group: P B A M
;
_chemical_formula_sum "Si O2"
_cell_formula_units_Z 64
_cell_length_a 12.919523
_cell_length_b 28.366535
_cell_length_c 8.954008
_cell_angle_alpha 90.000000
_cell_angle_beta 90.000000
_cell_angle_gamma 90.000000
_cell_volume 3281.483667
_symmetry_space_group_name_H-M "P B A M"
_symmetry_group_IT_number 55
_symmetry_cell_setting 'orthorhombic'
loop_
_space_group_symop_operation_xyz
x,y,z
-x,-y,z
1/2+x,1/2-y,-z
1/2-x,1/2+y,-z
-x,-y,-z
x,y,-z
1/2-x,1/2+y,z
1/2+x,1/2-y,z
loop_
_atom_site_type_symbol
_atom_site_label
_atom_site_fract_x
_atom_site_fract_y
_atom_site_fract_z
Si Si1 0.739555 0.955441 0.175911
Si Si2 0.740467 0.698428 0.678796
Si Si3 0.026432 0.846441 0.676951
Si Si4 0.395537 0.973583 0.323724
Si Si5 0.455990 0.550947 0.676240
Si Si6 0.815940 0.799227 0.677066
Si Si7 0.414959 0.868701 0.674384
Si Si8 0.357109 0.128505 0.674412
O O1 0.847905 0.940024 0.244777
O O2 0.652660 0.918598 0.228935
O O3 0.704330 0.005743 0.239637
O O4 0.748926 0.957264 0.000000
O O5 0.737852 0.699359 0.500000
O O6 0.629470 0.679575 0.739675
O O7 0.775484 0.749395 0.741485
O O8 0.828266 0.664305 0.746849
O O9 0.024785 0.842854 0.500000
O O10 0.024991 0.902682 0.720060
O O11 0.926757 0.817447 0.740669
O O12 0.375760 0.976448 0.500000
O O13 0.404917 0.920969 0.261322
O O14 0.500000 0.000000 0.277995
O O15 0.500000 0.500000 0.731087
O O16 0.437930 0.549490 0.500000
O O17 0.822924 0.796098 0.500000
O O18 0.729351 0.835696 0.729170
O O19 0.392892 0.870506 0.500000
O O20 0.530209 0.848764 0.705676
O O21 0.346033 0.114916 0.500000
#
# Coordination Sequence:
#
# PCOD8224702 Si02
#       8
#     8   8   8   8   8   8   8   8
#     4  12  24  36  53  80 113 146 181 229 279 331
#     4   9  18  28  44  79 115 141 174 223 287 330
#     4   9  17  30  47  75 111 142 178 221 269 328
#     4  10  19  34  55  78 107 146 186 225 269 327
#     4  10  21  37  59  81 107 146 189 231 273 327
#     4   9  17  28  48  74 109 145 173 223 279 332
#     4   9  18  30  49  75 108 144 180 227 274 325
#     4  10  18  34  55  78 107 143 187 226 270 331
#
# _framework density 19.503373
#
# number of rings (size 3 to 8) (size 9 to 14) (size 15 to 20)
#    0.000    2.250    2.500    1.125    3.500    0.500 
#    0.000    0.000    0.000    0.000    0.000    4.375 
#    0.000    0.000    0.000    0.000    0.000    0.000 
#
# Total GULP energy -793201.330333 kJ/mol
# GULP energy per Si atom -12393.770786 kJ/mol
# Density = 1.945898 g / cm^3
# Si number density = 19.503373 Si / 1000 Ang^3
#
#
#
# Elastic Constant Matrix: (Units=GPa)
#
#
# Indices 1 2 3 4 5 6 
#
# 1 143.2608 73.6716 11.3708 0.0000 0.0000 0.0000
# 2 73.6716 145.1329 10.6698 0.0000 0.0000 0.0000
# 3 11.3708 10.6698 15.7324 0.0000 0.0000 0.0000
# 4 0.0000 0.0000 0.0000 2.2600 0.0000 0.0000
# 5 0.0000 0.0000 0.0000 0.0000 3.9231 0.0000
# 6 0.0000 0.0000 0.0000 0.0000 0.0000 39.7388
#
#
#
# Elastic Compliance Matrix: (Units=1/GPa)
#
#
# Indices 1 2 3 4 5 6 
#
# 1 0.009663 -0.004622 -0.003849 0.000000 0.000000 0.000000
# 2 -0.004622 0.009463 -0.003077 0.000000 0.000000 0.000000
# 3 -0.003849 -0.003077 0.068432 0.000000 0.000000 0.000000
# 4 0.000000 0.000000 0.000000 0.442483 0.000000 0.000000
# 5 0.000000 0.000000 0.000000 0.000000 0.254902 0.000000
# 6 0.000000 0.000000 0.000000 0.000000 0.000000 0.025164
#
#
# Mechanical properties :
#
#
# Convention : Reuss Voigt Hill
#
# Bulk Modulus (GPa) = 15.51325 55.06116 35.28721
# Shear Modulus (GPa) = 5.85008 23.07864 14.46436
#
# Velocity S-wave (km/s) = 1.73379 3.44367 2.72625
# Velocity P-wave (km/s) = 3.46113 6.64114 5.29548
#
# Compressibility (1/GPa) = 0.06446101
#
# Stress axis : x y z
#
# Youngs Moduli (GPa) = 103.49195 105.67931 14.61304
#
# Poissons Ratio (x) = 0.48844 0.05625
# Poissons Ratio (y) = 0.47833 0.04496
# Poissons Ratio (z) = 0.39836 0.32518
#
# Static dielectric constant tensor:
#      x y z
#    x 3.781120 0.000000 0.000000 
#    y 0.000000 3.916160 0.000000 
#    z 0.000000 0.000000 2.833750 
# 
# 
# High freq. dielectric constant tensor:
#      x y z
#    x 1.772510 0.000000 0.000000 
#    y 0.000000 1.771200 0.000000 
#    z 0.000000 0.000000 1.680770 
# 
# From -- ./inp_files/4713.got.cif
#   From: 2010.03.12/outbox.cif.g09.slc.cpg/sg55_3_cif.got.tgz:4713.got - 2010.04.16 15:19:21.
