data_PCOD8224916
_publ_section_title
;
Structure prediction by ZEFSAII (Michael W. Deem and Ramdas Pophale) SiO2 
 PCOD8224916
Probable space group: P B A M
;
_chemical_formula_sum "Si O2"
_cell_formula_units_Z 48
_cell_length_a 16.924892
_cell_length_b 19.527086
_cell_length_c 8.937072
_cell_angle_alpha 90.000000
_cell_angle_beta 90.000000
_cell_angle_gamma 90.000000
_cell_volume 2953.647079
_symmetry_space_group_name_H-M "P B A M"
_symmetry_group_IT_number 55
_symmetry_cell_setting 'orthorhombic'
loop_
_space_group_symop_operation_xyz
x,y,z
-x,-y,z
1/2+x,1/2-y,-z
1/2-x,1/2+y,-z
-x,-y,-z
x,y,-z
1/2-x,1/2+y,z
1/2+x,1/2-y,z
loop_
_atom_site_type_symbol
_atom_site_label
_atom_site_fract_x
_atom_site_fract_y
_atom_site_fract_z
Si Si1 0.808103 0.116461 0.669701
Si Si2 0.952902 0.200307 0.330075
Si Si3 0.415457 0.035374 0.668769
Si Si4 0.513696 0.841794 0.824618
Si Si5 0.049005 0.933688 0.822898
Si Si6 0.348711 0.910744 0.175327
O O1 0.792920 0.091906 0.500000
O O2 0.857440 0.188199 0.671763
O O3 0.861700 0.059558 0.756473
O O4 0.725587 0.128151 0.753114
O O5 0.984057 0.207508 0.500000
O O6 0.992667 0.133506 0.251073
O O7 0.975911 0.266193 0.236680
O O8 0.385242 0.046162 0.500000
O O9 0.421486 0.108870 0.748684
O O10 0.500000 0.000000 0.672601
O O11 0.354149 0.987079 0.756337
O O12 0.425554 0.866317 0.784700
O O13 0.529317 0.843084 0.000000
O O14 0.052698 0.924622 0.000000
O O15 0.000000 0.000000 0.774678
O O16 0.336591 0.918057 0.000000
#
# Coordination Sequence:
#
# PCOD8224916 Si02
#       6
#     8   8   8   8   8   8
#     4   9  19  32  50  73  98 128 163 204 250 295
#     4   9  19  32  50  74  99 132 168 203 247 297
#     4   9  17  29  47  71  99 130 164 202 243 292
#     4  10  19  31  50  74 101 132 167 206 246 297
#     4   9  17  31  53  75  96 125 162 204 245 291
#     4  10  19  31  50  75 101 131 167 206 250 297
#
# _framework density 16.251094999999999
#
# number of rings (size 3 to 8) (size 9 to 14) (size 15 to 20)
#    1.000    1.667    0.000    2.500    0.000    5.333 
#    0.000    0.000    3.667    0.000    0.000    0.000 
#    0.000    0.000    0.000    0.000    0.000    0.000 
#
# Total GULP energy -594867.098560 kJ/mol
# GULP energy per Si atom -12393.064553 kJ/mol
# Density = 1.621411 g / cm^3
# Si number density = 16.251095 Si / 1000 Ang^3
#
#
#
# Elastic Constant Matrix: (Units=GPa)
#
#
# Indices 1 2 3 4 5 6 
#
# 1 61.5157 33.0250 40.8568 0.0000 0.0000 0.0000
# 2 33.0250 113.8286 47.4087 0.0000 0.0000 0.0000
# 3 40.8568 47.4087 100.0369 0.0000 0.0000 0.0000
# 4 0.0000 0.0000 0.0000 30.2714 0.0000 0.0000
# 5 0.0000 0.0000 0.0000 0.0000 27.4890 0.0000
# 6 0.0000 0.0000 0.0000 0.0000 0.0000 16.7701
#
#
#
# Elastic Compliance Matrix: (Units=1/GPa)
#
#
# Indices 1 2 3 4 5 6 
#
# 1 0.023372 -0.003495 -0.007889 0.000000 0.000000 0.000000
# 2 -0.003495 0.011468 -0.004007 0.000000 0.000000 0.000000
# 3 -0.007889 -0.004007 0.015118 0.000000 0.000000 0.000000
# 4 0.000000 0.000000 0.000000 0.033035 0.000000 0.000000
# 5 0.000000 0.000000 0.000000 0.000000 0.036378 0.000000
# 6 0.000000 0.000000 0.000000 0.000000 0.000000 0.059630
#
#
# Mechanical properties :
#
#
# Convention : Reuss Voigt Hill
#
# Bulk Modulus (GPa) = 52.15299 57.55137 54.85218
# Shear Modulus (GPa) = 23.12932 25.17880 24.15406
#
# Velocity S-wave (km/s) = 3.77669 3.94046 3.85944
# Velocity P-wave (km/s) = 7.15398 7.49625 7.32711
#
# Compressibility (1/GPa) = 0.01917436
#
# Stress axis : x y z
#
# Youngs Moduli (GPa) = 42.78590 87.19718 66.14813
#
# Poissons Ratio (x) = 0.30477 0.52186
# Poissons Ratio (y) = 0.14954 0.26509
# Poissons Ratio (z) = 0.33755 0.34944
#
# Static dielectric constant tensor:
#      x y z
#    x 2.842550 0.000000 0.000000 
#    y 0.000000 2.929530 0.000000 
#    z 0.000000 0.000000 3.215140 
# 
# 
# High freq. dielectric constant tensor:
#      x y z
#    x 1.594080 0.000000 0.000000 
#    y 0.000000 1.609280 0.000000 
#    z 0.000000 0.000000 1.649000 
# 
# From -- ./inp_files/8860.got.cif
#   From: 2010.03.12/outbox.cif.g09.slc.cpg/sg55_5_cif.got.tgz:8860.got - 2010.04.16 15:19:21.
