data_PCOD8224118
_publ_section_title
;
Structure prediction by ZEFSAII (Michael W. Deem and Ramdas Pophale) SiO2 
 PCOD8224118
Probable space group: P C C A
;
_chemical_formula_sum "Si O2"
_cell_formula_units_Z 40
_cell_length_a 18.021606
_cell_length_b 8.411489
_cell_length_c 11.812826
_cell_angle_alpha 90.000000
_cell_angle_beta 90.000000
_cell_angle_gamma 90.000000
_cell_volume 1790.689054
_symmetry_space_group_name_H-M "P C C A"
_symmetry_group_IT_number 54
_symmetry_cell_setting 'orthorhombic'
loop_
_space_group_symop_operation_xyz
x,y,z
1/2-x,-y,z
1/2+x,-y,1/2-z
-x,y,1/2-z
-x,-y,-z
1/2+x,y,-z
1/2-x,y,1/2+z
x,-y,1/2+z
loop_
_atom_site_type_symbol
_atom_site_label
_atom_site_fract_x
_atom_site_fract_y
_atom_site_fract_z
Si Si1 0.030707 0.677842 0.498931
Si Si2 0.348434 0.355123 0.317172
Si Si3 0.813212 0.717853 0.632502
Si Si4 0.078325 0.879163 0.699762
Si Si5 0.884141 0.802374 0.410150
O O1 0.092178 0.711662 0.404887
O O2 0.064451 0.725476 0.620509
O O3 0.000000 0.500000 0.500000
O O4 0.962547 0.792445 0.473110
O O5 0.272024 0.258062 0.332432
O O6 0.338376 0.539725 0.341356
O O7 0.378346 0.325828 0.190895
O O8 0.866319 0.835172 0.700001
O O9 0.819442 0.759124 0.499329
O O10 0.000000 0.940595 0.750000
O O11 0.121328 0.017911 0.633302
#
# Coordination Sequence:
#
# PCOD8224118 Si02
#       5
#     8   8   8   8   8
#     4  12  23  45  77 103 138 190 246 297 353 425
#     4  11  26  46  73 102 142 186 241 294 363 423
#     4  11  27  47  69 106 143 187 238 297 356 435
#     4  12  25  45  72 105 146 186 237 300 359 428
#     4  12  26  46  72 103 144 188 239 298 362 426
#
# _framework density 22.337769000000002
#
# number of rings (size 3 to 8) (size 9 to 14) (size 15 to 20)
#    0.000    0.400    4.000    3.600    5.600    2.400 
#    0.000    0.000    0.000    0.000    0.000    0.000 
#    0.000    0.000    0.000    0.000    0.000    0.000 
#
# Total GULP energy -496249.634033 kJ/mol
# GULP energy per Si atom -12406.240851 kJ/mol
# Density = 2.228693 g / cm^3
# Si number density = 22.337769 Si / 1000 Ang^3
#
#
#
# Elastic Constant Matrix: (Units=GPa)
#
#
# Indices 1 2 3 4 5 6 
#
# 1 98.4132 12.1708 24.2608 0.0000 0.0000 0.0000
# 2 12.1708 103.8124 39.1705 0.0000 0.0000 0.0000
# 3 24.2608 39.1705 138.5249 0.0000 0.0000 0.0000
# 4 0.0000 0.0000 0.0000 36.8870 0.0000 0.0000
# 5 0.0000 0.0000 0.0000 0.0000 30.5342 0.0000
# 6 0.0000 0.0000 0.0000 0.0000 0.0000 13.5047
#
#
#
# Elastic Compliance Matrix: (Units=1/GPa)
#
#
# Indices 1 2 3 4 5 6 
#
# 1 0.010654 -0.000610 -0.001693 0.000000 0.000000 0.000000
# 2 -0.000610 0.010818 -0.002952 0.000000 0.000000 0.000000
# 3 -0.001693 -0.002952 0.008350 0.000000 0.000000 0.000000
# 4 0.000000 0.000000 0.000000 0.027110 0.000000 0.000000
# 5 0.000000 0.000000 0.000000 0.000000 0.032750 0.000000
# 6 0.000000 0.000000 0.000000 0.000000 0.000000 0.074048
#
#
# Mechanical properties :
#
#
# Convention : Reuss Voigt Hill
#
# Bulk Modulus (GPa) = 51.78344 54.66164 53.22254
# Shear Modulus (GPa) = 27.67331 33.86173 30.76752
#
# Velocity S-wave (km/s) = 3.52356 3.89767 3.71533
# Velocity P-wave (km/s) = 6.30764 6.69174 6.50253
#
# Compressibility (1/GPa) = 0.01931119
#
# Stress axis : x y z
#
# Youngs Moduli (GPa) = 93.86010 92.43669 119.75633
#
# Poissons Ratio (x) = 0.05640 0.20280
# Poissons Ratio (y) = 0.05727 0.35354
# Poissons Ratio (z) = 0.15894 0.27289
#
# Static dielectric constant tensor:
#      x y z
#    x 4.297590 0.000000 0.000000 
#    y 0.000000 3.849270 0.000000 
#    z 0.000000 0.000000 4.437830 
# 
# 
# High freq. dielectric constant tensor:
#      x y z
#    x 1.886860 0.000000 0.000000 
#    y 0.000000 1.877000 0.000000 
#    z 0.000000 0.000000 1.895430 
# 
# From -- ./inp_files/8721.got.cif
#   From: 2010.03.12/outbox.cif.g09.slc.cpg/sg54_5_cif.got.tgz:8721.got - 2010.04.16 15:00:50.
