data_PCOD8224502
_publ_section_title
;
Structure prediction by ZEFSAII (Michael W. Deem and Ramdas Pophale) SiO2 
 PCOD8224502
Probable space group: P B A M
;
_chemical_formula_sum "Si O2"
_cell_formula_units_Z 64
_cell_length_a 30.814568
_cell_length_b 9.933493
_cell_length_c 11.244586
_cell_angle_alpha 90.000000
_cell_angle_beta 90.000000
_cell_angle_gamma 90.000000
_cell_volume 3441.926119
_symmetry_space_group_name_H-M "P B A M"
_symmetry_group_IT_number 55
_symmetry_cell_setting 'orthorhombic'
loop_
_space_group_symop_operation_xyz
x,y,z
-x,-y,z
1/2+x,1/2-y,-z
1/2-x,1/2+y,-z
-x,-y,-z
x,y,-z
1/2-x,1/2+y,z
1/2+x,1/2-y,z
loop_
_atom_site_type_symbol
_atom_site_label
_atom_site_fract_x
_atom_site_fract_y
_atom_site_fract_z
Si Si1 0.625644 0.962655 0.714558
Si Si2 0.160221 0.065264 0.862414
Si Si3 0.217975 0.467113 0.367795
Si Si4 0.000861 0.660686 0.131686
Si Si5 0.243722 0.202757 0.231429
Si Si6 0.165067 0.766697 0.137173
Si Si7 0.097550 0.287241 0.862983
Si Si8 0.535849 0.883920 0.629673
O O1 0.667052 0.998238 0.635129
O O2 0.632789 0.826600 0.788709
O O3 0.583996 0.945696 0.630164
O O4 0.617436 0.081339 0.805858
O O5 0.205141 0.142982 0.846232
O O6 0.120617 0.153972 0.808027
O O7 0.160841 0.916283 0.805152
O O8 0.152312 0.041500 0.000000
O O9 0.230473 0.421770 0.500000
O O10 0.229769 0.347732 0.279090
O O11 0.245579 0.600190 0.337935
O O12 0.953753 0.723129 0.155732
O O13 0.000000 0.500000 0.125705
O O14 0.029358 0.705435 0.248286
O O15 0.017998 0.711226 0.000000
O O16 0.285408 0.216759 0.147086
O O17 0.151156 0.760685 0.000000
O O18 0.110216 0.298510 0.000000
O O19 0.530620 0.808647 0.500000
O O20 0.500000 0.000000 0.635357
#
# Coordination Sequence:
#
# PCOD8224502 Si02
#       8
#     8   8   8   8   8   8   8   8
#     4  11  20  34  54  82 110 141 185 230 274 333
#     4  10  20  35  54  79 112 144 177 225 278 338
#     4  11  23  36  53  75 105 144 188 235 275 327
#     4   9  16  28  49  80 112 139 173 225 278 330
#     4  11  20  37  55  75 105 140 187 229 281 331
#     4  10  22  36  53  79 112 147 180 224 283 340
#     4  10  18  30  52  82 109 138 176 222 277 329
#     4  10  19  32  53  84 117 146 178 231 288 333
#
# _framework density 18.594239999999999
#
# number of rings (size 3 to 8) (size 9 to 14) (size 15 to 20)
#    0.000    1.750    5.000    1.500    0.000    0.500 
#    0.000    0.000    0.000    0.750    0.000    4.375 
#    0.000    0.000    0.000    0.000    0.000    0.000 
#
# Total GULP energy -793111.566975 kJ/mol
# GULP energy per Si atom -12392.368234 kJ/mol
# Density = 1.855192 g / cm^3
# Si number density = 18.594240 Si / 1000 Ang^3
#
#
#
# Elastic Constant Matrix: (Units=GPa)
#
#
# Indices 1 2 3 4 5 6 
#
# 1 69.5371 18.8008 17.9463 0.0000 0.0000 0.0000
# 2 18.8008 89.0497 23.6304 0.0000 0.0000 0.0000
# 3 17.9463 23.6304 94.3401 0.0000 0.0000 0.0000
# 4 0.0000 0.0000 0.0000 6.2664 0.0000 0.0000
# 5 0.0000 0.0000 0.0000 0.0000 16.5052 0.0000
# 6 0.0000 0.0000 0.0000 0.0000 0.0000 15.9295
#
#
#
# Elastic Compliance Matrix: (Units=1/GPa)
#
#
# Indices 1 2 3 4 5 6 
#
# 1 0.015708 -0.002703 -0.002311 0.000000 0.000000 0.000000
# 2 -0.002703 0.012494 -0.002615 0.000000 0.000000 0.000000
# 3 -0.002311 -0.002615 0.011695 0.000000 0.000000 0.000000
# 4 0.000000 0.000000 0.000000 0.159580 0.000000 0.000000
# 5 0.000000 0.000000 0.000000 0.000000 0.060587 0.000000
# 6 0.000000 0.000000 0.000000 0.000000 0.000000 0.062776
#
#
# Mechanical properties :
#
#
# Convention : Reuss Voigt Hill
#
# Bulk Modulus (GPa) = 40.58769 41.52021 41.05395
# Shear Modulus (GPa) = 14.43781 20.57687 17.50734
#
# Velocity S-wave (km/s) = 2.78954 3.33021 3.07179
# Velocity P-wave (km/s) = 5.67898 6.09632 5.89135
#
# Compressibility (1/GPa) = 0.02463801
#
# Stress axis : x y z
#
# Youngs Moduli (GPa) = 63.66142 80.03578 85.50894
#
# Poissons Ratio (x) = 0.21635 0.19762
# Poissons Ratio (y) = 0.17209 0.22364
# Poissons Ratio (z) = 0.14713 0.20933
#
# Static dielectric constant tensor:
#      x y z
#    x 3.554040 0.000000 0.000000 
#    y 0.000000 3.405040 0.000000 
#    z 0.000000 0.000000 3.638200 
# 
# 
# High freq. dielectric constant tensor:
#      x y z
#    x 1.727860 0.000000 0.000000 
#    y 0.000000 1.694450 0.000000 
#    z 0.000000 0.000000 1.716480 
# 
# From -- ./inp_files/12623.got.cif
#   From: 2010.03.12/outbox.cif.g09.slc.cpg/sg55_7_cif.got.tgz:12623.got - 2010.04.16 15:19:21.
