data_PCOD8224136
_publ_section_title
;
Structure prediction by ZEFSAII (Michael W. Deem and Ramdas Pophale) SiO2 
 PCOD8224136
Probable space group: P C C A
;
_chemical_formula_sum "Si O2"
_cell_formula_units_Z 48
_cell_length_a 9.650750
_cell_length_b 16.287473
_cell_length_c 14.094811
_cell_angle_alpha 90.000000
_cell_angle_beta 90.000000
_cell_angle_gamma 90.000000
_cell_volume 2215.511614
_symmetry_space_group_name_H-M "P C C A"
_symmetry_group_IT_number 54
_symmetry_cell_setting 'orthorhombic'
loop_
_space_group_symop_operation_xyz
x,y,z
1/2-x,-y,z
1/2+x,-y,1/2-z
-x,y,1/2-z
-x,-y,-z
1/2+x,y,-z
1/2-x,y,1/2+z
x,-y,1/2+z
loop_
_atom_site_type_symbol
_atom_site_label
_atom_site_fract_x
_atom_site_fract_y
_atom_site_fract_z
Si Si1 0.768604 0.696933 0.119525
Si Si2 0.457476 0.798094 0.651235
Si Si3 0.804714 0.284258 0.404314
Si Si4 0.656416 0.574712 0.265832
Si Si5 0.450982 0.825641 0.350770
Si Si6 0.876424 0.940436 0.492647
O O1 0.740539 0.610872 0.173624
O O2 0.656166 0.753868 0.171436
O O3 0.922061 0.734848 0.122581
O O4 0.740655 0.691192 0.006543
O O5 0.500000 0.840415 0.750000
O O6 0.321567 0.742744 0.663488
O O7 0.413190 0.870710 0.582084
O O8 0.868090 0.362564 0.352632
O O9 0.919015 0.210548 0.411630
O O10 0.750000 0.500000 0.302575
O O11 0.500000 0.542846 0.250000
O O12 0.500000 0.862299 0.250000
O O13 0.363148 0.895073 0.406225
O O14 0.750000 0.000000 0.465350
O O15 0.000000 0.000000 0.500000
#
# Coordination Sequence:
#
# PCOD8224136 Si02
#       6
#     8   8   8   8   8   8
#     4  12  22  43  73 104 134 188 244 284 347 431
#     4  12  24  41  73 106 135 186 245 289 342 430
#     4  12  22  43  73 104 135 187 245 284 344 432
#     4  12  28  48  70 107 150 183 233 307 361 415
#     4  12  22  45  73  99 136 192 244 286 343 433
#     4  12  26  44  68 106 150 179 228 308 366 409
#
# _framework density 21.665424000000002
#
# number of rings (size 3 to 8) (size 9 to 14) (size 15 to 20)
#    0.000    0.000    8.333    2.000    2.333    1.333 
#    0.000    3.333    0.000    0.000    0.000    0.000 
#    0.000    0.000    0.000    0.000    0.000    0.000 
#
# Total GULP energy -594921.976704 kJ/mol
# GULP energy per Si atom -12394.207848 kJ/mol
# Density = 2.161611 g / cm^3
# Si number density = 21.665424 Si / 1000 Ang^3
#
#
#
# Elastic Constant Matrix: (Units=GPa)
#
#
# Indices 1 2 3 4 5 6 
#
# 1 143.3298 37.3250 9.1627 0.0000 0.0000 0.0000
# 2 37.3250 83.0393 23.1651 0.0000 0.0000 0.0000
# 3 9.1627 23.1651 97.6330 0.0000 0.0000 0.0000
# 4 0.0000 0.0000 0.0000 17.3474 0.0000 0.0000
# 5 0.0000 0.0000 0.0000 0.0000 31.2792 0.0000
# 6 0.0000 0.0000 0.0000 0.0000 0.0000 49.0885
#
#
#
# Elastic Compliance Matrix: (Units=1/GPa)
#
#
# Indices 1 2 3 4 5 6 
#
# 1 0.007903 -0.003582 0.000108 0.000000 0.000000 0.000000
# 2 -0.003582 0.014520 -0.003109 0.000000 0.000000 0.000000
# 3 0.000108 -0.003109 0.010970 0.000000 0.000000 0.000000
# 4 0.000000 0.000000 0.000000 0.057646 0.000000 0.000000
# 5 0.000000 0.000000 0.000000 0.000000 0.031970 0.000000
# 6 0.000000 0.000000 0.000000 0.000000 0.000000 0.020371
#
#
# Mechanical properties :
#
#
# Convention : Reuss Voigt Hill
#
# Bulk Modulus (GPa) = 49.43949 51.47864 50.45906
# Shear Modulus (GPa) = 30.62068 36.49962 33.56015
#
# Velocity S-wave (km/s) = 3.76352 4.10896 3.94003
# Velocity P-wave (km/s) = 6.46178 6.80615 6.63620
#
# Compressibility (1/GPa) = 0.02022675
#
# Stress axis : x y z
#
# Youngs Moduli (GPa) = 126.53558 68.87032 91.15839
#
# Poissons Ratio (x) = 0.24673 -0.00987
# Poissons Ratio (y) = 0.45331 0.28340
# Poissons Ratio (z) = -0.01371 0.21411
#
# Static dielectric constant tensor:
#      x y z
#    x 4.063180 0.000000 0.000000 
#    y 0.000000 3.835520 0.000000 
#    z 0.000000 0.000000 3.956070 
# 
# 
# High freq. dielectric constant tensor:
#      x y z
#    x 1.872450 0.000000 0.000000 
#    y 0.000000 1.831490 0.000000 
#    z 0.000000 0.000000 1.859650 
# 
# From -- ./inp_files/11694.got.cif
#   From: 2010.03.12/outbox.cif.g09.slc.cpg/sg54_6_cif.got.tgz:11694.got - 2010.04.16 15:00:50.
