data_PCOD8224629
_publ_section_title
;
Structure prediction by ZEFSAII (Michael W. Deem and Ramdas Pophale) SiO2 
 PCOD8224629
Probable space group: P B A M
;
_chemical_formula_sum "Si O2"
_cell_formula_units_Z 48
_cell_length_a 10.149313
_cell_length_b 29.608113
_cell_length_c 9.103123
_cell_angle_alpha 90.000000
_cell_angle_beta 90.000000
_cell_angle_gamma 90.000000
_cell_volume 2735.506724
_symmetry_space_group_name_H-M "P B A M"
_symmetry_group_IT_number 55
_symmetry_cell_setting 'orthorhombic'
loop_
_space_group_symop_operation_xyz
x,y,z
-x,-y,z
1/2+x,1/2-y,-z
1/2-x,1/2+y,-z
-x,-y,-z
x,y,-z
1/2-x,1/2+y,z
1/2+x,1/2-y,z
loop_
_atom_site_type_symbol
_atom_site_label
_atom_site_fract_x
_atom_site_fract_y
_atom_site_fract_z
Si Si1 0.368097 0.474376 0.672718
Si Si2 0.285209 0.287239 0.173839
Si Si3 0.010114 0.715102 0.824689
Si Si4 0.137317 0.525393 0.168758
Si Si5 0.013487 0.615475 0.826051
Si Si6 0.717223 0.611135 0.826899
O O1 0.500000 0.500000 0.719529
O O2 0.355558 0.468821 0.500000
O O3 0.244883 0.502866 0.729323
O O4 0.374573 0.424689 0.744184
O O5 0.390580 0.252269 0.243027
O O6 0.138452 0.276143 0.233914
O O7 0.328531 0.338155 0.215007
O O8 0.282496 0.282044 0.000000
O O9 0.057702 0.665257 0.771473
O O10 0.010675 0.717453 0.000000
O O11 0.116560 0.577143 0.224592
O O12 0.000000 0.500000 0.185354
O O13 0.185573 0.523708 0.000000
O O14 0.866599 0.603973 0.769740
O O15 0.003788 0.615642 0.000000
O O16 0.705165 0.602504 0.000000
#
# Coordination Sequence:
#
# PCOD8224629 Si02
#       6
#     8   8   8   8   8   8
#     4  11  24  38  49  68 101 136 168 206 253 300
#     4   8  14  24  42  66  95 126 153 190 239 290
#     4   8  13  23  38  62  98 128 150 183 234 288
#     4  10  18  32  55  78  99 125 163 208 249 292
#     4   8  14  26  46  71 100 128 153 195 248 290
#     4   9  16  31  52  72  96 129 165 200 244 294
#
# _framework density 17.547022999999999
#
# number of rings (size 3 to 8) (size 9 to 14) (size 15 to 20)
#    0.000    3.000    1.667    2.500    0.000    1.667 
#    3.000    0.000    0.000    0.000    0.000    5.833 
#    0.000    0.000    0.000    0.000    0.000    0.000 
#
# Total GULP energy -594874.154082 kJ/mol
# GULP energy per Si atom -12393.211543 kJ/mol
# Density = 1.750709 g / cm^3
# Si number density = 17.547023 Si / 1000 Ang^3
#
#
#
# Elastic Constant Matrix: (Units=GPa)
#
#
# Indices 1 2 3 4 5 6 
#
# 1 74.9761 72.1304 18.5526 0.0000 0.0000 0.0000
# 2 72.1304 164.6236 26.3274 0.0000 0.0000 0.0000
# 3 18.5526 26.3274 23.2320 0.0000 0.0000 0.0000
# 4 0.0000 0.0000 0.0000 -3.2289 0.0000 0.0000
# 5 0.0000 0.0000 0.0000 0.0000 15.8440 0.0000
# 6 0.0000 0.0000 0.0000 0.0000 0.0000 33.6951
#
#
#
# Elastic Compliance Matrix: (Units=1/GPa)
#
#
# Indices 1 2 3 4 5 6 
#
# 1 0.024520 -0.009297 -0.009046 0.000000 0.000000 0.000000
# 2 -0.009297 0.010944 -0.004978 0.000000 0.000000 0.000000
# 3 -0.009046 -0.004978 0.055909 0.000000 0.000000 0.000000
# 4 0.000000 0.000000 0.000000 -0.309699 0.000000 0.000000
# 5 0.000000 0.000000 0.000000 0.000000 0.063116 0.000000
# 6 0.000000 0.000000 0.000000 0.000000 0.000000 0.029678
#
#
# Mechanical properties :
#
#
# Convention : Reuss Voigt Hill
#
# Bulk Modulus (GPa) = 22.35530 55.20582 38.78056
# Shear Modulus (GPa) = -78.14779 18.98345 -29.58217
#
# Velocity S-wave (km/s) = -6.68079 3.29273 -4.11040
# Velocity P-wave (km/s) = 6.83686 6.78130 0.61505
#
# Compressibility (1/GPa) = 0.04473211
#
# Stress axis : x y z
#
# Youngs Moduli (GPa) = 40.78321 91.37424 17.88629
#
# Poissons Ratio (x) = 0.84950 0.16179
# Poissons Ratio (y) = 0.37916 0.08904
# Poissons Ratio (z) = 0.36891 0.45485
#
# Static dielectric constant tensor:
#      x y z
#    x 3.450030 0.000000 0.000000 
#    y 0.000000 3.907520 0.000000 
#    z 0.000000 0.000000 2.707280 
# 
# 
# High freq. dielectric constant tensor:
#      x y z
#    x 1.662980 0.000000 0.000000 
#    y 0.000000 1.698550 0.000000 
#    z 0.000000 0.000000 1.617790 
# 
# From -- ./inp_files/2905.got.cif
#   From: 2010.03.12/outbox.cif.g09.slc.cpg/sg55_2_cif.got.tgz:2905.got - 2010.04.16 15:19:21.
