data_PCOD8224000
_publ_section_title
;
Structure prediction by ZEFSAII (Michael W. Deem and Ramdas Pophale) SiO2 
 PCOD8224000
Probable space group: P C C A
;
_chemical_formula_sum "Si O2"
_cell_formula_units_Z 64
_cell_length_a 9.437289
_cell_length_b 11.477068
_cell_length_c 26.902875
_cell_angle_alpha 90.000000
_cell_angle_beta 90.000000
_cell_angle_gamma 90.000000
_cell_volume 2913.915162
_symmetry_space_group_name_H-M "P C C A"
_symmetry_group_IT_number 54
_symmetry_cell_setting 'orthorhombic'
loop_
_space_group_symop_operation_xyz
x,y,z
1/2-x,-y,z
1/2+x,-y,1/2-z
-x,y,1/2-z
-x,-y,-z
1/2+x,y,-z
1/2-x,y,1/2+z
x,-y,1/2+z
loop_
_atom_site_type_symbol
_atom_site_label
_atom_site_fract_x
_atom_site_fract_y
_atom_site_fract_z
Si Si1 0.530150 0.263842 0.807395
Si Si2 0.480277 0.248500 0.307071
Si Si3 0.876083 0.201386 0.453800
Si Si4 0.721204 0.132459 0.650075
Si Si5 0.231903 0.131629 0.646802
Si Si6 0.309612 0.876611 0.463400
Si Si7 0.594233 0.466154 0.953698
Si Si8 0.582721 0.511105 0.844553
O O1 0.500000 0.255874 0.750000
O O2 0.438839 0.169573 0.838079
O O3 0.690286 0.222824 0.816797
O O4 0.503959 0.394467 0.826495
O O5 0.500000 0.211251 0.250000
O O6 0.317866 0.224195 0.320607
O O7 0.568630 0.168101 0.345877
O O8 0.516015 0.384132 0.313433
O O9 0.787683 0.142355 0.409428
O O10 0.768994 0.214542 0.500392
O O11 0.922082 0.331013 0.438863
O O12 0.019270 0.129392 0.466670
O O13 0.746850 0.146220 0.591646
O O14 0.750000 0.000000 0.667507
O O15 0.250000 0.000000 0.665245
O O16 0.250000 0.000000 0.482830
O O17 0.750000 0.500000 0.970642
O O18 0.553213 0.534820 0.903166
O O19 0.500000 0.500000 0.000000
O O20 0.750000 0.500000 0.834414
#
# Coordination Sequence:
#
# PCOD8224000 Si02
#       8
#     8   8   8   8   8   8   8   8
#     4  12  24  46  72  96 137 186 229 298 355 415
#     4  12  27  45  71 104 135 185 240 289 356 427
#     4  12  24  45  68 104 138 186 235 284 363 426
#     4  11  26  45  66 103 146 175 229 299 350 418
#     4  12  25  44  72 100 139 189 237 287 362 430
#     4  11  25  42  68  99 140 181 229 286 347 422
#     4  11  23  41  68  97 133 176 226 288 352 412
#     4  11  23  47  70  99 139 179 233 295 353 426
#
# _framework density 21.963576
#
# number of rings (size 3 to 8) (size 9 to 14) (size 15 to 20)
#    0.000    0.500    3.750    4.125    5.250    3.500 
#    0.000    0.000    0.000    0.000    0.000    0.000 
#    0.000    0.000    0.000    0.000    0.000    0.000 
#
# Total GULP energy -793939.057643 kJ/mol
# GULP energy per Si atom -12405.297776 kJ/mol
# Density = 2.191359 g / cm^3
# Si number density = 21.963576 Si / 1000 Ang^3
#
#
#
# Elastic Constant Matrix: (Units=GPa)
#
#
# Indices 1 2 3 4 5 6 
#
# 1 73.9540 15.9685 27.4988 0.0000 0.0000 0.0000
# 2 15.9685 112.4577 12.1379 0.0000 0.0000 0.0000
# 3 27.4988 12.1379 109.2191 0.0000 0.0000 0.0000
# 4 0.0000 0.0000 0.0000 27.7990 0.0000 0.0000
# 5 0.0000 0.0000 0.0000 0.0000 32.0735 0.0000
# 6 0.0000 0.0000 0.0000 0.0000 0.0000 38.5502
#
#
#
# Elastic Compliance Matrix: (Units=1/GPa)
#
#
# Indices 1 2 3 4 5 6 
#
# 1 0.015260 -0.001773 -0.003645 0.000000 0.000000 0.000000
# 2 -0.001773 0.009206 -0.000577 0.000000 0.000000 0.000000
# 3 -0.003645 -0.000577 0.010138 0.000000 0.000000 0.000000
# 4 0.000000 0.000000 0.000000 0.035973 0.000000 0.000000
# 5 0.000000 0.000000 0.000000 0.000000 0.031178 0.000000
# 6 0.000000 0.000000 0.000000 0.000000 0.000000 0.025940
#
#
# Mechanical properties :
#
#
# Convention : Reuss Voigt Hill
#
# Bulk Modulus (GPa) = 44.22050 45.20459 44.71254
# Shear Modulus (GPa) = 33.96195 35.68626 34.82410
#
# Velocity S-wave (km/s) = 3.93655 4.03524 3.98620
# Velocity P-wave (km/s) = 6.39055 6.50671 6.44889
#
# Compressibility (1/GPa) = 0.02261395
#
# Stress axis : x y z
#
# Youngs Moduli (GPa) = 65.52989 108.62140 98.64139
#
# Poissons Ratio (x) = 0.19264 0.35955
# Poissons Ratio (y) = 0.11621 0.05688
# Poissons Ratio (z) = 0.23886 0.06263
#
# Static dielectric constant tensor:
#      x y z
#    x 3.935820 0.000000 0.000000 
#    y 0.000000 3.917610 0.000000 
#    z 0.000000 0.000000 3.918030 
# 
# 
# High freq. dielectric constant tensor:
#      x y z
#    x 1.865460 0.000000 0.000000 
#    y 0.000000 1.867750 0.000000 
#    z 0.000000 0.000000 1.872660 
# 
# From -- ./inp_files/27939.got.cif
#   From: 2010.03.12/outbox.cif.g09.slc.cpg/sg54_14_cif.got.tgz:27939.got - 2010.04.16 15:00:50.
