data_PCOD8224495
_publ_section_title
;
Structure prediction by ZEFSAII (Michael W. Deem and Ramdas Pophale) SiO2 
 PCOD8224495
Probable space group: P B A M
;
_chemical_formula_sum "Si O2"
_cell_formula_units_Z 64
_cell_length_a 15.209861
_cell_length_b 24.567594
_cell_length_c 9.437220
_cell_angle_alpha 90.000000
_cell_angle_beta 90.000000
_cell_angle_gamma 90.000000
_cell_volume 3526.403070
_symmetry_space_group_name_H-M "P B A M"
_symmetry_group_IT_number 55
_symmetry_cell_setting 'orthorhombic'
loop_
_space_group_symop_operation_xyz
x,y,z
-x,-y,z
1/2+x,1/2-y,-z
1/2-x,1/2+y,-z
-x,-y,-z
x,y,-z
1/2-x,1/2+y,z
1/2+x,1/2-y,z
loop_
_atom_site_type_symbol
_atom_site_label
_atom_site_fract_x
_atom_site_fract_y
_atom_site_fract_z
Si Si1 0.321496 0.632833 0.660705
Si Si2 0.545823 0.771927 0.836130
Si Si3 0.496699 0.107868 0.836833
Si Si4 0.701946 0.640728 0.337845
Si Si5 0.686415 0.936099 0.166109
Si Si6 0.284430 0.237319 0.661004
Si Si7 0.322374 0.937844 0.833757
Si Si8 0.006068 0.829636 0.663432
O O1 0.302201 0.614334 0.500000
O O2 0.268810 0.593400 0.763031
O O3 0.296562 0.696457 0.681658
O O4 0.425562 0.629231 0.695867
O O5 0.491457 0.827572 0.817616
O O6 0.640811 0.782030 0.768180
O O7 0.493755 0.723990 0.758523
O O8 0.558367 0.756710 0.000000
O O9 0.405552 0.086181 0.768023
O O10 0.582360 0.079030 0.769492
O O11 0.492025 0.090401 0.000000
O O12 0.718004 0.623748 0.500000
O O13 0.743304 0.700410 0.305960
O O14 0.745814 0.596445 0.238428
O O15 0.597963 0.640994 0.301546
O O16 0.694588 0.999494 0.200055
O O17 0.691620 0.923428 0.000000
O O18 0.321602 0.235080 0.500000
O O19 0.319128 0.925163 0.000000
O O20 0.003714 0.810913 0.500000
#
# Coordination Sequence:
#
# PCOD8224495 Si02
#       8
#     8   8   8   8   8   8   8   8
#     4  10  20  35  57  81 106 141 183 222 268 322
#     4  10  18  30  51  80 110 139 174 215 260 314
#     4   9  18  33  52  78 109 142 176 211 262 323
#     4   9  19  36  54  76 107 139 177 223 269 315
#     4  10  20  37  57  78 108 142 179 225 270 316
#     4   9  18  33  52  76 107 141 173 213 267 320
#     4  10  21  36  56  78 104 144 185 220 266 323
#     4   9  20  37  55  76 109 147 179 216 269 325
#
# _framework density 18.148804999999999
#
# number of rings (size 3 to 8) (size 9 to 14) (size 15 to 20)
#    0.000    2.500    1.250    1.500    1.750    4.500 
#    0.000    1.875    0.000    5.250    0.000    0.000 
#    0.000    0.000    0.000    0.000    0.000    0.000 
#
# Total GULP energy -793503.290581 kJ/mol
# GULP energy per Si atom -12398.488915 kJ/mol
# Density = 1.810750 g / cm^3
# Si number density = 18.148805 Si / 1000 Ang^3
#
#
#
# Elastic Constant Matrix: (Units=GPa)
#
#
# Indices 1 2 3 4 5 6 
#
# 1 114.9300 68.8698 46.3016 0.0000 0.0000 0.0000
# 2 68.8698 105.6966 53.7438 0.0000 0.0000 0.0000
# 3 46.3016 53.7438 66.6671 0.0000 0.0000 0.0000
# 4 0.0000 0.0000 0.0000 26.8807 0.0000 0.0000
# 5 0.0000 0.0000 0.0000 0.0000 26.6271 0.0000
# 6 0.0000 0.0000 0.0000 0.0000 0.0000 28.0183
#
#
#
# Elastic Compliance Matrix: (Units=1/GPa)
#
#
# Indices 1 2 3 4 5 6 
#
# 1 0.014966 -0.007569 -0.004292 0.000000 0.000000 0.000000
# 2 -0.007569 0.019861 -0.010754 0.000000 0.000000 0.000000
# 3 -0.004292 -0.010754 0.026651 0.000000 0.000000 0.000000
# 4 0.000000 0.000000 0.000000 0.037201 0.000000 0.000000
# 5 0.000000 0.000000 0.000000 0.000000 0.037556 0.000000
# 6 0.000000 0.000000 0.000000 0.000000 0.000000 0.035691
#
#
# Mechanical properties :
#
#
# Convention : Reuss Voigt Hill
#
# Bulk Modulus (GPa) = 61.55214 69.45823 65.50519
# Shear Modulus (GPa) = 22.46470 24.19714 23.33092
#
# Velocity S-wave (km/s) = 3.52206 3.65535 3.58933
# Velocity P-wave (km/s) = 7.10836 7.49467 7.30407
#
# Compressibility (1/GPa) = 0.01624639
#
# Stress axis : x y z
#
# Youngs Moduli (GPa) = 66.81963 50.35005 37.52267
#
# Poissons Ratio (x) = 0.38109 0.16106
# Poissons Ratio (y) = 0.50574 0.40353
# Poissons Ratio (z) = 0.28681 0.54148
#
# Static dielectric constant tensor:
#      x y z
#    x 3.381750 0.000000 0.000000 
#    y 0.000000 3.226900 0.000000 
#    z 0.000000 0.000000 3.214830 
# 
# 
# High freq. dielectric constant tensor:
#      x y z
#    x 1.702740 0.000000 0.000000 
#    y 0.000000 1.694820 0.000000 
#    z 0.000000 0.000000 1.688120 
# 
# From -- ./inp_files/6537.got.cif
#   From: 2010.03.12/outbox.cif.g09.slc.cpg/sg55_4_cif.got.tgz:6537.got - 2010.04.16 15:19:21.
