data_PCOD8224813
_publ_section_title
;
Structure prediction by ZEFSAII (Michael W. Deem and Ramdas Pophale) SiO2 
 PCOD8224813
Probable space group: P B A M
;
_chemical_formula_sum "Si O2"
_cell_formula_units_Z 64
_cell_length_a 20.130087
_cell_length_b 20.118245
_cell_length_c 9.198956
_cell_angle_alpha 90.000000
_cell_angle_beta 90.000000
_cell_angle_gamma 90.000000
_cell_volume 3725.411802
_symmetry_space_group_name_H-M "P B A M"
_symmetry_group_IT_number 55
_symmetry_cell_setting 'orthorhombic'
loop_
_space_group_symop_operation_xyz
x,y,z
-x,-y,z
1/2+x,1/2-y,-z
1/2-x,1/2+y,-z
-x,-y,-z
x,y,-z
1/2-x,1/2+y,z
1/2+x,1/2-y,z
loop_
_atom_site_type_symbol
_atom_site_label
_atom_site_fract_x
_atom_site_fract_y
_atom_site_fract_z
Si Si1 0.554119 0.549632 0.666575
Si Si2 0.350847 0.836449 0.329465
Si Si3 0.075790 0.814357 0.830912
Si Si4 0.516862 0.192682 0.828451
Si Si5 0.661296 0.008047 0.336434
Si Si6 0.549413 0.943225 0.171236
Si Si7 0.699628 0.543650 0.336647
Si Si8 0.277751 0.327644 0.168235
O O1 0.500000 0.500000 0.737417
O O2 0.535126 0.563803 0.500000
O O3 0.554353 0.620253 0.744885
O O4 0.626063 0.512691 0.678727
O O5 0.353378 0.822686 0.500000
O O6 0.413583 0.801921 0.254307
O O7 0.350379 0.914927 0.291884
O O8 0.284133 0.801625 0.264583
O O9 0.152016 0.790551 0.798752
O O10 0.027353 0.755355 0.783068
O O11 0.068424 0.831243 0.000000
O O12 0.477412 0.127470 0.775072
O O13 0.530616 0.189490 0.000000
O O14 0.636434 0.996516 0.500000
O O15 0.740171 0.990799 0.319758
O O16 0.622136 0.957255 0.234818
O O17 0.500000 0.000000 0.229730
O O18 0.556182 0.945696 0.000000
O O19 0.706968 0.576290 0.500000
O O20 0.707832 0.596391 0.208925
O O21 0.257582 0.322032 0.000000
#
# Coordination Sequence:
#
# PCOD8224813 Si02
#       8
#     8   8   8   8   8   8   8   8
#     4   9  17  31  54  79 101 129 161 200 249 297
#     4  10  19  30  47  73  98 125 162 204 245 287
#     4   9  19  34  52  74  99 130 164 204 251 297
#     4  10  20  34  50  70  99 132 165 205 249 292
#     4   9  17  28  44  66  95 126 158 200 241 281
#     4  10  19  30  46  69  95 127 166 203 239 283
#     4   8  15  28  45  70  98 124 156 196 239 285
#     4   9  16  28  48  71  93 122 160 200 242 290
#
# _framework density 17.179309
#
# number of rings (size 3 to 8) (size 9 to 14) (size 15 to 20)
#    0.000    2.750    1.250    1.500    0.000    4.000 
#    0.000    0.000    2.750    0.000    0.000    0.000 
#    0.000    0.000    0.000    0.000    0.000    0.000 
#
# Total GULP energy -793147.592424 kJ/mol
# GULP energy per Si atom -12392.931132 kJ/mol
# Density = 1.714021 g / cm^3
# Si number density = 17.179309 Si / 1000 Ang^3
#
#
#
# Elastic Constant Matrix: (Units=GPa)
#
#
# Indices 1 2 3 4 5 6 
#
# 1 166.6561 62.5197 54.7069 0.0000 0.0000 0.0000
# 2 62.5197 70.5167 31.7250 0.0000 0.0000 0.0000
# 3 54.7069 31.7250 53.8753 0.0000 0.0000 0.0000
# 4 0.0000 0.0000 0.0000 17.1434 0.0000 0.0000
# 5 0.0000 0.0000 0.0000 0.0000 28.9061 0.0000
# 6 0.0000 0.0000 0.0000 0.0000 0.0000 25.8645
#
#
#
# Elastic Compliance Matrix: (Units=1/GPa)
#
#
# Indices 1 2 3 4 5 6 
#
# 1 0.010708 -0.006260 -0.007187 0.000000 0.000000 0.000000
# 2 -0.006260 0.022952 -0.007158 0.000000 0.000000 0.000000
# 3 -0.007187 -0.007158 0.030074 0.000000 0.000000 0.000000
# 4 0.000000 0.000000 0.000000 0.058331 0.000000 0.000000
# 5 0.000000 0.000000 0.000000 0.000000 0.034595 0.000000
# 6 0.000000 0.000000 0.000000 0.000000 0.000000 0.038663
#
#
# Mechanical properties :
#
#
# Convention : Reuss Voigt Hill
#
# Bulk Modulus (GPa) = 44.39884 65.43903 54.91893
# Shear Modulus (GPa) = 20.48819 23.85592 22.17206
#
# Velocity S-wave (km/s) = 3.45716 3.73049 3.59643
# Velocity P-wave (km/s) = 6.46811 7.53192 7.02020
#
# Compressibility (1/GPa) = 0.02252311
#
# Stress axis : x y z
#
# Youngs Moduli (GPa) = 93.38722 43.56912 33.25076
#
# Poissons Ratio (x) = 0.27276 0.23897
# Poissons Ratio (y) = 0.58464 0.23802
# Poissons Ratio (z) = 0.67116 0.31189
#
# Static dielectric constant tensor:
#      x y z
#    x 3.594490 0.000000 0.000000 
#    y 0.000000 2.806830 0.000000 
#    z 0.000000 0.000000 3.162580 
# 
# 
# High freq. dielectric constant tensor:
#      x y z
#    x 1.683710 0.000000 0.000000 
#    y 0.000000 1.606870 0.000000 
#    z 0.000000 0.000000 1.664360 
# 
# From -- ./inp_files/8047.got.cif
#   From: 2010.03.12/outbox.cif.g09.slc.cpg/sg55_5_cif.got.tgz:8047.got - 2010.04.16 15:19:21.
