data_PCOD8224692
_publ_section_title
;
Structure prediction by ZEFSAII (Michael W. Deem and Ramdas Pophale) SiO2 
 PCOD8224692
Probable space group: P B A M
;
_chemical_formula_sum "Si O2"
_cell_formula_units_Z 64
_cell_length_a 15.296446
_cell_length_b 23.980897
_cell_length_c 9.054047
_cell_angle_alpha 90.000000
_cell_angle_beta 90.000000
_cell_angle_gamma 90.000000
_cell_volume 3321.228119
_symmetry_space_group_name_H-M "P B A M"
_symmetry_group_IT_number 55
_symmetry_cell_setting 'orthorhombic'
loop_
_space_group_symop_operation_xyz
x,y,z
-x,-y,z
1/2+x,1/2-y,-z
1/2-x,1/2+y,-z
-x,-y,-z
x,y,-z
1/2-x,1/2+y,z
1/2+x,1/2-y,z
loop_
_atom_site_type_symbol
_atom_site_label
_atom_site_fract_x
_atom_site_fract_y
_atom_site_fract_z
Si Si1 0.758539 0.426296 0.675473
Si Si2 0.100852 0.871737 0.675648
Si Si3 0.107071 0.368722 0.169623
Si Si4 0.092819 0.642814 0.170088
Si Si5 0.853154 0.250468 0.668501
Si Si6 0.909399 0.861882 0.325153
Si Si7 0.848811 0.743404 0.667868
Si Si8 0.241574 0.445947 0.674997
O O1 0.763760 0.420048 0.500000
O O2 0.843613 0.397869 0.742171
O O3 0.670693 0.397622 0.741033
O O4 0.756766 0.490287 0.725895
O O5 0.103842 0.871547 0.500000
O O6 0.128660 0.810849 0.733652
O O7 0.169637 0.917064 0.736205
O O8 0.002576 0.886031 0.731576
O O9 0.131860 0.307654 0.226259
O O10 0.156966 0.416462 0.258401
O O11 0.004627 0.380691 0.189429
O O12 0.135451 0.371853 0.000000
O O13 0.094537 0.705152 0.234483
O O14 0.121322 0.644705 0.000000
O O15 0.886674 0.255307 0.500000
O O16 0.750882 0.263454 0.678433
O O17 0.903516 0.866485 0.500000
O O18 0.905093 0.796725 0.279843
O O19 0.871137 0.725514 0.500000
O O20 0.235765 0.439937 0.500000
#
# Coordination Sequence:
#
# PCOD8224692 Si02
#       8
#     8   8   8   8   8   8   8   8
#     4  10  21  38  59  82 109 144 189 237 280 326
#     4   9  17  31  54  85 116 144 176 220 277 332
#     4  11  24  39  56  81 114 150 186 228 280 335
#     4  11  24  39  56  81 114 150 186 228 280 335
#     4  10  18  33  59  86 114 146 181 225 274 328
#     4   9  17  31  54  85 116 144 176 220 277 332
#     4  10  18  33  59  86 114 146 181 225 274 328
#     4  10  21  38  59  82 109 144 189 237 280 326
#
# _framework density 19.269978999999999
#
# number of rings (size 3 to 8) (size 9 to 14) (size 15 to 20)
#    0.000    2.000    2.500    1.500    0.000    5.000 
#    0.000    5.000    0.000    0.750    0.000    1.750 
#    0.000    0.000    0.000    0.000    0.000    0.000 
#
# Total GULP energy -793656.768915 kJ/mol
# GULP energy per Si atom -12400.887014 kJ/mol
# Density = 1.922612 g / cm^3
# Si number density = 19.269979 Si / 1000 Ang^3
#
#
#
# Elastic Constant Matrix: (Units=GPa)
#
#
# Indices 1 2 3 4 5 6 
#
# 1 100.2081 48.9037 21.8990 0.0000 0.0000 0.0000
# 2 48.9037 127.4266 35.5261 0.0000 0.0000 0.0000
# 3 21.8990 35.5261 29.9561 0.0000 0.0000 0.0000
# 4 0.0000 0.0000 0.0000 5.3402 0.0000 0.0000
# 5 0.0000 0.0000 0.0000 0.0000 16.6665 0.0000
# 6 0.0000 0.0000 0.0000 0.0000 0.0000 17.5839
#
#
#
# Elastic Compliance Matrix: (Units=1/GPa)
#
#
# Indices 1 2 3 4 5 6 
#
# 1 0.012815 -0.003446 -0.005282 0.000000 0.000000 0.000000
# 2 -0.003446 0.012650 -0.012484 0.000000 0.000000 0.000000
# 3 -0.005282 -0.012484 0.052049 0.000000 0.000000 0.000000
# 4 0.000000 0.000000 0.000000 0.187260 0.000000 0.000000
# 5 0.000000 0.000000 0.000000 0.000000 0.060001 0.000000
# 6 0.000000 0.000000 0.000000 0.000000 0.000000 0.056870
#
#
# Mechanical properties :
#
#
# Convention : Reuss Voigt Hill
#
# Bulk Modulus (GPa) = 28.49712 52.24981 40.37346
# Shear Modulus (GPa) = 11.47406 18.00223 14.73815
#
# Velocity S-wave (km/s) = 2.44281 3.05980 2.76855
# Velocity P-wave (km/s) = 4.77251 6.29735 5.58720
#
# Compressibility (1/GPa) = 0.03509127
#
# Stress axis : x y z
#
# Youngs Moduli (GPa) = 78.03329 79.04879 19.21279
#
# Poissons Ratio (x) = 0.27236 0.10148
# Poissons Ratio (y) = 0.26887 0.23985
# Poissons Ratio (z) = 0.41218 0.98683
#
# Static dielectric constant tensor:
#      x y z
#    x 3.772960 0.000000 0.000000 
#    y 0.000000 3.552090 0.000000 
#    z 0.000000 0.000000 3.208460 
# 
# 
# High freq. dielectric constant tensor:
#      x y z
#    x 1.766530 0.000000 0.000000 
#    y 0.000000 1.749920 0.000000 
#    z 0.000000 0.000000 1.710400 
# 
# From -- ./inp_files/6721.got.cif
#   From: 2010.03.12/outbox.cif.g09.slc.cpg/sg55_4_cif.got.tgz:6721.got - 2010.04.16 15:19:21.
