data_PCOD8224814
_publ_section_title
;
Structure prediction by ZEFSAII (Michael W. Deem and Ramdas Pophale) SiO2 
 PCOD8224814
Probable space group: P B A M
;
_chemical_formula_sum "Si O2"
_cell_formula_units_Z 64
_cell_length_a 30.021835
_cell_length_b 14.583509
_cell_length_c 8.748512
_cell_angle_alpha 90.000000
_cell_angle_beta 90.000000
_cell_angle_gamma 90.000000
_cell_volume 3830.305901
_symmetry_space_group_name_H-M "P B A M"
_symmetry_group_IT_number 55
_symmetry_cell_setting 'orthorhombic'
loop_
_space_group_symop_operation_xyz
x,y,z
-x,-y,z
1/2+x,1/2-y,-z
1/2-x,1/2+y,-z
-x,-y,-z
x,y,-z
1/2-x,1/2+y,z
1/2+x,1/2-y,z
loop_
_atom_site_type_symbol
_atom_site_label
_atom_site_fract_x
_atom_site_fract_y
_atom_site_fract_z
Si Si1 0.286052 0.782410 0.319948
Si Si2 0.225575 0.483681 0.678172
Si Si3 0.128043 0.807804 0.179984
Si Si4 0.953037 0.904826 0.181296
Si Si5 0.137628 0.172204 0.829583
Si Si6 0.315913 0.482888 0.170719
Si Si7 0.453887 0.397321 0.681553
Si Si8 0.302556 0.178148 0.317598
O O1 0.281439 0.787489 0.500000
O O2 0.332084 0.732047 0.281659
O O3 0.242330 0.729485 0.255796
O O4 0.288494 0.885598 0.248717
O O5 0.218082 0.477907 0.500000
O O6 0.277106 0.503044 0.710340
O O7 0.198412 0.571993 0.739051
O O8 0.080833 0.819829 0.263957
O O9 0.153010 0.717972 0.241714
O O10 0.158633 0.893108 0.226338
O O11 0.119889 0.800308 0.000000
O O12 0.914377 0.830071 0.219422
O O13 0.997851 0.866239 0.257239
O O14 0.940796 0.004135 0.249668
O O15 0.958880 0.916517 0.000000
O O16 0.150270 0.066136 0.825630
O O17 0.143584 0.212481 0.000000
O O18 0.296307 0.468963 0.000000
O O19 0.454646 0.403960 0.500000
O O20 0.305270 0.186406 0.500000
#
# Coordination Sequence:
#
# PCOD8224814 Si02
#       8
#     8   8   8   8   8   8   8   8
#     4  10  20  32  49  72  98 132 169 206 249 293
#     4  10  20  34  48  68 100 133 166 208 254 289
#     4  11  21  34  50  71  99 135 170 205 248 296
#     4  10  19  34  51  71 102 135 166 204 249 296
#     4  10  20  33  49  71  99 133 169 203 244 290
#     4  10  19  30  46  69  97 130 169 205 243 287
#     4  11  21  32  49  75 102 131 166 204 247 299
#     4  10  20  33  49  71  98 130 169 209 246 292
#
# _framework density 16.708849000000001
#
# number of rings (size 3 to 8) (size 9 to 14) (size 15 to 20)
#    0.000    1.750    3.750    2.625    0.000    3.000 
#    0.000    0.000    0.000    0.000    0.000    0.875 
#    0.000    7.000    0.000    0.000    0.000    0.000 
#
# Total GULP energy -793419.930011 kJ/mol
# GULP energy per Si atom -12397.186406 kJ/mol
# Density = 1.667082 g / cm^3
# Si number density = 16.708849 Si / 1000 Ang^3
#
#
#
# Elastic Constant Matrix: (Units=GPa)
#
#
# Indices 1 2 3 4 5 6 
#
# 1 95.9819 32.2456 25.9937 0.0000 0.0000 0.0000
# 2 32.2456 72.8014 24.2130 0.0000 0.0000 0.0000
# 3 25.9937 24.2130 48.8973 0.0000 0.0000 0.0000
# 4 0.0000 0.0000 0.0000 17.7994 0.0000 0.0000
# 5 0.0000 0.0000 0.0000 0.0000 27.2950 0.0000
# 6 0.0000 0.0000 0.0000 0.0000 0.0000 23.8310
#
#
#
# Elastic Compliance Matrix: (Units=1/GPa)
#
#
# Indices 1 2 3 4 5 6 
#
# 1 0.013159 -0.004192 -0.004919 0.000000 0.000000 0.000000
# 2 -0.004192 0.017780 -0.006576 0.000000 0.000000 0.000000
# 3 -0.004919 -0.006576 0.026322 0.000000 0.000000 0.000000
# 4 0.000000 0.000000 0.000000 0.056182 0.000000 0.000000
# 5 0.000000 0.000000 0.000000 0.000000 0.036637 0.000000
# 6 0.000000 0.000000 0.000000 0.000000 0.000000 0.041962
#
#
# Mechanical properties :
#
#
# Convention : Reuss Voigt Hill
#
# Bulk Modulus (GPa) = 38.63003 42.50946 40.56975
# Shear Modulus (GPa) = 21.54745 22.80031 22.17388
#
# Velocity S-wave (km/s) = 3.59497 3.69801 3.64685
# Velocity P-wave (km/s) = 6.35621 6.61288 6.48582
#
# Compressibility (1/GPa) = 0.02588659
#
# Stress axis : x y z
#
# Youngs Moduli (GPa) = 75.99133 56.24322 37.99063
#
# Poissons Ratio (x) = 0.23580 0.18689
# Poissons Ratio (y) = 0.31859 0.24981
# Poissons Ratio (z) = 0.37384 0.36983
#
# Static dielectric constant tensor:
#      x y z
#    x 3.128510 0.000000 0.000000 
#    y 0.000000 3.200840 0.000000 
#    z 0.000000 0.000000 3.077080 
# 
# 
# High freq. dielectric constant tensor:
#      x y z
#    x 1.635210 0.000000 0.000000 
#    y 0.000000 1.620250 0.000000 
#    z 0.000000 0.000000 1.643350 
# 
# From -- ./inp_files/10898.got.cif
#   From: 2010.03.12/outbox.cif.g09.slc.cpg/sg55_6_cif.got.tgz:10898.got - 2010.04.16 15:19:21.
