data_PCOD8224832
_publ_section_title
;
Structure prediction by ZEFSAII (Michael W. Deem and Ramdas Pophale) SiO2 
 PCOD8224832
Probable space group: P B A M
;
_chemical_formula_sum "Si O2"
_cell_formula_units_Z 64
_cell_length_a 24.634070
_cell_length_b 14.448884
_cell_length_c 9.116266
_cell_angle_alpha 90.000000
_cell_angle_beta 90.000000
_cell_angle_gamma 90.000000
_cell_volume 3244.796497
_symmetry_space_group_name_H-M "P B A M"
_symmetry_group_IT_number 55
_symmetry_cell_setting 'orthorhombic'
loop_
_space_group_symop_operation_xyz
x,y,z
-x,-y,z
1/2+x,1/2-y,-z
1/2-x,1/2+y,-z
-x,-y,-z
x,y,-z
1/2-x,1/2+y,z
1/2+x,1/2-y,z
loop_
_atom_site_type_symbol
_atom_site_label
_atom_site_fract_x
_atom_site_fract_y
_atom_site_fract_z
Si Si1 0.050820 0.559786 0.828026
Si Si2 0.133659 0.445706 0.335569
Si Si3 0.303400 0.689523 0.170298
Si Si4 0.254967 0.854933 0.674458
Si Si5 0.554589 0.542558 0.167315
Si Si6 0.326203 0.484979 0.828623
Si Si7 0.091574 0.247957 0.333850
Si Si8 0.484952 0.260640 0.166915
O O1 0.107936 0.526599 0.761472
O O2 0.044538 0.666793 0.782638
O O3 0.000000 0.500000 0.766766
O O4 0.055489 0.545743 0.000000
O O5 0.139725 0.483786 0.500000
O O6 0.192516 0.414411 0.275543
O O7 0.092984 0.358954 0.329845
O O8 0.259862 0.751179 0.259301
O O9 0.292780 0.580163 0.194712
O O10 0.363543 0.707028 0.227528
O O11 0.299987 0.716448 0.000000
O O12 0.252071 0.845707 0.500000
O O13 0.201811 0.903643 0.736943
O O14 0.500000 0.500000 0.244627
O O15 0.611742 0.505528 0.232997
O O16 0.556417 0.654017 0.179907
O O17 0.552725 0.508517 0.000000
O O18 0.327216 0.457022 0.000000
O O19 0.100509 0.211999 0.500000
O O20 0.034217 0.214621 0.273546
O O21 0.506477 0.249057 0.000000
#
# Coordination Sequence:
#
# PCOD8224832 Si02
#       8
#     8   8   8   8   8   8   8   8
#     4  10  19  30  47  77 112 145 184 232 285 340
#     4   9  19  34  51  73 104 147 189 228 277 336
#     4  10  20  36  61  87 110 144 193 244 291 343
#     4  10  22  40  60  85 117 151 190 240 297 351
#     4   9  18  35  59  85 113 145 187 239 293 347
#     4  10  21  39  63  90 116 151 197 245 298 353
#     4  10  19  31  51  80 112 146 189 234 280 339
#     4  10  19  32  51  77 110 149 186 228 285 344
#
# _framework density 19.723887999999999
#
# number of rings (size 3 to 8) (size 9 to 14) (size 15 to 20)
#    0.000    2.250    1.250    2.625    0.000    6.250 
#    2.250    0.625    0.000    1.500    0.000    0.000 
#    0.000    0.000    0.000    0.000    0.000    0.000 
#
# Total GULP energy -793472.299560 kJ/mol
# GULP energy per Si atom -12398.004681 kJ/mol
# Density = 1.967900 g / cm^3
# Si number density = 19.723888 Si / 1000 Ang^3
#
#
#
# Elastic Constant Matrix: (Units=GPa)
#
#
# Indices 1 2 3 4 5 6 
#
# 1 95.7333 39.9550 31.4589 0.0000 0.0000 0.0000
# 2 39.9550 101.5882 34.1002 0.0000 0.0000 0.0000
# 3 31.4589 34.1002 66.6508 0.0000 0.0000 0.0000
# 4 0.0000 0.0000 0.0000 14.0750 0.0000 0.0000
# 5 0.0000 0.0000 0.0000 0.0000 25.1314 0.0000
# 6 0.0000 0.0000 0.0000 0.0000 0.0000 29.6231
#
#
#
# Elastic Compliance Matrix: (Units=1/GPa)
#
#
# Indices 1 2 3 4 5 6 
#
# 1 0.013492 -0.003826 -0.004411 0.000000 0.000000 0.000000
# 2 -0.003826 0.012970 -0.004830 0.000000 0.000000 0.000000
# 3 -0.004411 -0.004830 0.019556 0.000000 0.000000 0.000000
# 4 0.000000 0.000000 0.000000 0.071048 0.000000 0.000000
# 5 0.000000 0.000000 0.000000 0.000000 0.039791 0.000000
# 6 0.000000 0.000000 0.000000 0.000000 0.000000 0.033757
#
#
# Mechanical properties :
#
#
# Convention : Reuss Voigt Hill
#
# Bulk Modulus (GPa) = 50.28860 52.77784 51.53322
# Shear Modulus (GPa) = 22.38388 24.32978 23.35683
#
# Velocity S-wave (km/s) = 3.37243 3.51596 3.44494
# Velocity P-wave (km/s) = 6.38091 6.58020 6.48132
#
# Compressibility (1/GPa) = 0.01988522
#
# Stress axis : x y z
#
# Youngs Moduli (GPa) = 74.11892 77.10336 51.13403
#
# Poissons Ratio (x) = 0.29499 0.22554
# Poissons Ratio (y) = 0.28357 0.24697
# Poissons Ratio (z) = 0.32692 0.37239
#
# Static dielectric constant tensor:
#      x y z
#    x 3.468480 0.000000 0.000000 
#    y 0.000000 3.625310 0.000000 
#    z 0.000000 0.000000 3.406620 
# 
# 
# High freq. dielectric constant tensor:
#      x y z
#    x 1.752830 0.000000 0.000000 
#    y 0.000000 1.769370 0.000000 
#    z 0.000000 0.000000 1.750670 
# 
# From -- ./inp_files/6542.got.cif
#   From: 2010.03.12/outbox.cif.g09.slc.cpg/sg55_4_cif.got.tgz:6542.got - 2010.04.16 15:19:21.
