data_PCOD8224885
_publ_section_title
;
Structure prediction by ZEFSAII (Michael W. Deem and Ramdas Pophale) SiO2 
 PCOD8224885
Probable space group: P B A M
;
_chemical_formula_sum "Si O2"
_cell_formula_units_Z 64
_cell_length_a 12.208874
_cell_length_b 25.482195
_cell_length_c 10.987734
_cell_angle_alpha 90.000000
_cell_angle_beta 90.000000
_cell_angle_gamma 90.000000
_cell_volume 3418.381926
_symmetry_space_group_name_H-M "P B A M"
_symmetry_group_IT_number 55
_symmetry_cell_setting 'orthorhombic'
loop_
_space_group_symop_operation_xyz
x,y,z
-x,-y,z
1/2+x,1/2-y,-z
1/2-x,1/2+y,-z
-x,-y,-z
x,y,-z
1/2-x,1/2+y,z
1/2+x,1/2-y,z
loop_
_atom_site_type_symbol
_atom_site_label
_atom_site_fract_x
_atom_site_fract_y
_atom_site_fract_z
Si Si1 0.044190 0.293166 0.287519
Si Si2 0.632692 0.853075 0.140083
Si Si3 0.722654 0.133449 0.629846
Si Si4 0.911804 0.197551 0.287340
Si Si5 0.512193 0.390000 0.860847
Si Si6 0.274867 0.552614 0.856527
Si Si7 0.226315 0.934295 0.859397
Si Si8 0.268254 0.746370 0.862438
O O1 0.123362 0.324576 0.377431
O O2 0.115532 0.258768 0.195547
O O3 0.970008 0.336115 0.219984
O O4 0.968318 0.248386 0.352364
O O5 0.673743 0.910356 0.184370
O O6 0.736543 0.814408 0.157245
O O7 0.594735 0.853960 0.000000
O O8 0.714857 0.101664 0.500000
O O9 0.838935 0.163771 0.619629
O O10 0.712790 0.100779 0.756095
O O11 0.002846 0.161464 0.222556
O O12 0.828855 0.216662 0.183472
O O13 0.610008 0.425377 0.805176
O O14 0.402650 0.424661 0.854464
O O15 0.536553 0.372598 0.000000
O O16 0.250972 0.493472 0.814357
O O17 0.286642 0.552970 0.000000
O O18 0.268774 0.924032 0.000000
O O19 0.282289 0.761977 0.000000
#
# Coordination Sequence:
#
# PCOD8224885 Si02
#       8
#     8   8   8   8   8   8   8   8
#     4  10  19  31  48  69  96 133 171 201 237 292
#     4   9  17  27  43  72 106 135 164 203 250 294
#     4  10  22  38  55  74  97 129 166 203 247 299
#     4   9  18  30  47  72 100 130 164 201 242 295
#     4   9  15  25  46  76 106 134 164 201 249 301
#     4   9  16  27  46  73 103 133 167 209 253 293
#     4   9  18  33  53  76 101 131 169 211 251 292
#     4   9  16  26  42  70 108 141 166 198 243 293
#
# _framework density 18.722308000000002
#
# number of rings (size 3 to 8) (size 9 to 14) (size 15 to 20)
#    0.000    2.750    0.000    1.875    0.000    8.000 
#    0.000    0.625    0.000    9.750    0.000    0.000 
#    0.000    0.000    0.000    0.000    0.000    0.000 
#
# Total GULP energy -792932.606912 kJ/mol
# GULP energy per Si atom -12389.571983 kJ/mol
# Density = 1.867970 g / cm^3
# Si number density = 18.722308 Si / 1000 Ang^3
#
#
#
# Elastic Constant Matrix: (Units=GPa)
#
#
# Indices 1 2 3 4 5 6 
#
# 1 65.3213 31.4175 17.8134 0.0000 0.0000 0.0000
# 2 31.4175 105.7973 35.3482 0.0000 0.0000 0.0000
# 3 17.8134 35.3482 77.8990 0.0000 0.0000 0.0000
# 4 0.0000 0.0000 0.0000 8.8627 0.0000 0.0000
# 5 0.0000 0.0000 0.0000 0.0000 -6.1652 0.0000
# 6 0.0000 0.0000 0.0000 0.0000 0.0000 24.5850
#
#
#
# Elastic Compliance Matrix: (Units=1/GPa)
#
#
# Indices 1 2 3 4 5 6 
#
# 1 0.018122 -0.004711 -0.002006 0.000000 0.000000 0.000000
# 2 -0.004711 0.012366 -0.004534 0.000000 0.000000 0.000000
# 3 -0.002006 -0.004534 0.015353 0.000000 0.000000 0.000000
# 4 0.000000 0.000000 0.000000 0.112833 0.000000 0.000000
# 5 0.000000 0.000000 0.000000 0.000000 -0.162201 0.000000
# 6 0.000000 0.000000 0.000000 0.000000 0.000000 0.040675
#
#
# Mechanical properties :
#
#
# Convention : Reuss Voigt Hill
#
# Bulk Modulus (GPa) = 42.84772 46.46396 44.65584
# Shear Modulus (GPa) = 74.15010 16.41907 45.28458
#
# Velocity S-wave (km/s) = 6.30009 2.96460 4.92341
# Velocity P-wave (km/s) = 8.70960 6.04895 7.49823
#
# Compressibility (1/GPa) = 0.02333847
#
# Stress axis : x y z
#
# Youngs Moduli (GPa) = 55.18161 80.86737 65.13269
#
# Poissons Ratio (x) = 0.38098 0.13067
# Poissons Ratio (y) = 0.25997 0.29531
# Poissons Ratio (z) = 0.11071 0.36665
#
# Static dielectric constant tensor:
#      x y z
#    x 3.377960 0.000000 0.000000 
#    y 0.000000 3.766740 0.000000 
#    z 0.000000 0.000000 3.019620 
# 
# 
# High freq. dielectric constant tensor:
#      x y z
#    x 1.725820 0.000000 0.000000 
#    y 0.000000 1.726230 0.000000 
#    z 0.000000 0.000000 1.681410 
# 
# From -- ./inp_files/13632.got.cif
#   From: 2010.03.12/outbox.cif.g09.slc.cpg/sg55_7_cif.got.tgz:13632.got - 2010.04.16 15:19:21.
