data_PCOD8224202
_publ_section_title
;
Structure prediction by ZEFSAII (Michael W. Deem and Ramdas Pophale) SiO2 
 PCOD8224202
Probable space group: P C C A
;
_chemical_formula_sum "Si O2"
_cell_formula_units_Z 32
_cell_length_a 18.152550
_cell_length_b 6.673785
_cell_length_c 12.121703
_cell_angle_alpha 90.000000
_cell_angle_beta 90.000000
_cell_angle_gamma 90.000000
_cell_volume 1468.498449
_symmetry_space_group_name_H-M "P C C A"
_symmetry_group_IT_number 54
_symmetry_cell_setting 'orthorhombic'
loop_
_space_group_symop_operation_xyz
x,y,z
1/2-x,-y,z
1/2+x,-y,1/2-z
-x,y,1/2-z
-x,-y,-z
1/2+x,y,-z
1/2-x,y,1/2+z
x,-y,1/2+z
loop_
_atom_site_type_symbol
_atom_site_label
_atom_site_fract_x
_atom_site_fract_y
_atom_site_fract_z
Si Si1 0.000000 0.153233 0.250000
Si Si2 0.884521 0.829733 0.245929
Si Si3 0.250000 0.000000 0.896804
Si Si4 0.441609 0.509937 0.404446
Si Si5 0.812634 0.648471 0.457815
O O1 0.964653 0.288277 0.156416
O O2 0.932717 0.014610 0.291796
O O3 0.937985 0.686930 0.172569
O O4 0.859878 0.705177 0.351533
O O5 0.813811 0.908894 0.179632
O O6 0.218971 0.838077 0.980166
O O7 0.500000 0.500000 0.500000
O O8 0.360702 0.527780 0.454331
O O9 0.750000 0.500000 0.414224
#
# Coordination Sequence:
#
# PCOD8224202 Si02
#       5
#     4   8   4   8   8
#     4  12  26  48  74 106 152 194 244 306 358 444
#     4  12  28  46  76 114 143 198 253 298 369 448
#     4  12  26  48  74 110 148 192 246 308 372 438
#     4  12  27  47  73 109 150 195 242 304 369 435
#     4  12  27  47  76 105 149 191 243 310 371 436
#
# _framework density 21.790965
#
# number of rings (size 3 to 8) (size 9 to 14) (size 15 to 20)
#    0.000    0.000    5.000    4.500    7.000    6.000 
#    0.000    0.000    0.000    0.000    0.000    0.000 
#    0.000    0.000    0.000    0.000    0.000    0.000 
#
# Total GULP energy -396870.901090 kJ/mol
# GULP energy per Si atom -12402.215659 kJ/mol
# Density = 2.174137 g / cm^3
# Si number density = 21.790965 Si / 1000 Ang^3
#
#
#
# Elastic Constant Matrix: (Units=GPa)
#
#
# Indices 1 2 3 4 5 6 
#
# 1 107.3612 48.8042 38.3316 0.0000 0.0000 0.0000
# 2 48.8042 119.6800 42.8826 0.0000 0.0000 0.0000
# 3 38.3316 42.8826 96.3049 0.0000 0.0000 0.0000
# 4 0.0000 0.0000 0.0000 44.2347 0.0000 0.0000
# 5 0.0000 0.0000 0.0000 0.0000 54.5770 0.0000
# 6 0.0000 0.0000 0.0000 0.0000 0.0000 63.3677
#
#
#
# Elastic Compliance Matrix: (Units=1/GPa)
#
#
# Indices 1 2 3 4 5 6 
#
# 1 0.012182 -0.003843 -0.003137 0.000000 0.000000 0.000000
# 2 -0.003843 0.011154 -0.003437 0.000000 0.000000 0.000000
# 3 -0.003137 -0.003437 0.013163 0.000000 0.000000 0.000000
# 4 0.000000 0.000000 0.000000 0.022607 0.000000 0.000000
# 5 0.000000 0.000000 0.000000 0.000000 0.018323 0.000000
# 6 0.000000 0.000000 0.000000 0.000000 0.000000 0.015781
#
#
# Mechanical properties :
#
#
# Convention : Reuss Voigt Hill
#
# Bulk Modulus (GPa) = 63.84261 64.82031 64.33146
# Shear Modulus (GPa) = 41.92321 45.32439 43.62380
#
# Velocity S-wave (km/s) = 4.39096 4.56561 4.47914
# Velocity P-wave (km/s) = 7.42083 7.58973 7.50576
#
# Compressibility (1/GPa) = 0.01566352
#
# Stress axis : x y z
#
# Youngs Moduli (GPa) = 82.09121 89.65017 75.97159
#
# Poissons Ratio (x) = 0.34456 0.23833
# Poissons Ratio (y) = 0.31551 0.26112
# Poissons Ratio (z) = 0.25753 0.30813
#
# Static dielectric constant tensor:
#      x y z
#    x 4.147470 0.000000 0.000000 
#    y 0.000000 4.669930 0.000000 
#    z 0.000000 0.000000 3.891560 
# 
# 
# High freq. dielectric constant tensor:
#      x y z
#    x 1.882680 0.000000 0.000000 
#    y 0.000000 1.875040 0.000000 
#    z 0.000000 0.000000 1.862010 
# 
# From -- ./inp_files/9259.got.cif
#   From: 2010.03.12/outbox.cif.g09.slc.cpg/sg54_5_cif.got.tgz:9259.got - 2010.04.16 15:00:50.
