data_PCOD8224564
_publ_section_title
;
Structure prediction by ZEFSAII (Michael W. Deem and Ramdas Pophale) SiO2 
 PCOD8224564
Probable space group: P B A M
;
_chemical_formula_sum "Si O2"
_cell_formula_units_Z 64
_cell_length_a 19.044603
_cell_length_b 20.816177
_cell_length_c 8.980997
_cell_angle_alpha 90.000000
_cell_angle_beta 90.000000
_cell_angle_gamma 90.000000
_cell_volume 3560.388972
_symmetry_space_group_name_H-M "P B A M"
_symmetry_group_IT_number 55
_symmetry_cell_setting 'orthorhombic'
loop_
_space_group_symop_operation_xyz
x,y,z
-x,-y,z
1/2+x,1/2-y,-z
1/2-x,1/2+y,-z
-x,-y,-z
x,y,-z
1/2-x,1/2+y,z
1/2+x,1/2-y,z
loop_
_atom_site_type_symbol
_atom_site_label
_atom_site_fract_x
_atom_site_fract_y
_atom_site_fract_z
Si Si1 0.671526 0.136778 0.172335
Si Si2 0.961902 0.938541 0.672795
Si Si3 0.545903 0.938294 0.326115
Si Si4 0.330769 0.367328 0.824449
Si Si5 0.681299 0.497962 0.673398
Si Si6 0.322942 0.010199 0.824579
Si Si7 0.039652 0.314529 0.675489
Si Si8 0.538742 0.686973 0.677365
O O1 0.751600 0.157073 0.208697
O O2 0.618356 0.182740 0.260087
O O3 0.659666 0.062952 0.222171
O O4 0.654601 0.144733 0.000000
O O5 0.981803 0.938149 0.500000
O O6 0.991428 0.872033 0.738966
O O7 0.878509 0.944108 0.697544
O O8 0.000000 0.000000 0.748251
O O9 0.564147 0.934568 0.500000
O O10 0.617692 0.941940 0.234109
O O11 0.504736 0.875781 0.269732
O O12 0.500000 0.000000 0.287075
O O13 0.343784 0.436181 0.749270
O O14 0.384694 0.316307 0.753716
O O15 0.342944 0.374595 0.000000
O O16 0.694506 0.511950 0.500000
O O17 0.750399 0.468828 0.748417
O O18 0.314053 0.016874 0.000000
O O19 0.047478 0.314374 0.500000
O O20 0.999942 0.251250 0.732572
O O21 0.548300 0.687078 0.500000
#
# Coordination Sequence:
#
# PCOD8224564 Si02
#       8
#     8   8   8   8   8   8   8   8
#     4   9  19  34  52  74 104 137 172 212 257 313
#     4   9  16  30  53  79 102 131 172 212 257 310
#     4  10  19  33  53  78 105 133 173 220 265 316
#     4  10  20  34  52  79 109 139 177 218 260 315
#     4  10  18  31  54  79 106 140 175 220 271 313
#     4  10  20  33  51  79 109 138 176 221 267 319
#     4  10  21  35  54  80 106 135 175 222 264 310
#     4  10  20  36  55  78 107 138 176 219 263 316
#
# _framework density 17.975563999999999
#
# number of rings (size 3 to 8) (size 9 to 14) (size 15 to 20)
#    0.000    2.250    2.500    1.875    0.000    3.750 
#    0.000    3.125    0.000    6.000    0.000    0.000 
#    0.000    0.000    0.000    0.000    0.000    0.000 
#
# Total GULP energy -793634.830951 kJ/mol
# GULP energy per Si atom -12400.544234 kJ/mol
# Density = 1.793465 g / cm^3
# Si number density = 17.975564 Si / 1000 Ang^3
#
#
#
# Elastic Constant Matrix: (Units=GPa)
#
#
# Indices 1 2 3 4 5 6 
#
# 1 141.1977 68.1867 49.8830 0.0000 0.0000 0.0000
# 2 68.1867 111.4877 30.6791 0.0000 0.0000 0.0000
# 3 49.8830 30.6791 56.5769 0.0000 0.0000 0.0000
# 4 0.0000 0.0000 0.0000 14.1682 0.0000 0.0000
# 5 0.0000 0.0000 0.0000 0.0000 25.3908 0.0000
# 6 0.0000 0.0000 0.0000 0.0000 0.0000 28.9111
#
#
#
# Elastic Compliance Matrix: (Units=1/GPa)
#
#
# Indices 1 2 3 4 5 6 
#
# 1 0.012598 -0.005464 -0.008145 0.000000 0.000000 0.000000
# 2 -0.005464 0.012912 -0.002184 0.000000 0.000000 0.000000
# 3 -0.008145 -0.002184 0.026041 0.000000 0.000000 0.000000
# 4 0.000000 0.000000 0.000000 0.070580 0.000000 0.000000
# 5 0.000000 0.000000 0.000000 0.000000 0.039384 0.000000
# 6 0.000000 0.000000 0.000000 0.000000 0.000000 0.034589
#
#
# Mechanical properties :
#
#
# Convention : Reuss Voigt Hill
#
# Bulk Modulus (GPa) = 50.08728 67.41777 58.75252
# Shear Modulus (GPa) = 21.33591 24.39495 22.86543
#
# Velocity S-wave (km/s) = 3.44894 3.68790 3.57042
# Velocity P-wave (km/s) = 6.61701 7.46464 7.05357
#
# Compressibility (1/GPa) = 0.01996515
#
# Stress axis : x y z
#
# Youngs Moduli (GPa) = 79.37527 77.44446 38.40124
#
# Poissons Ratio (x) = 0.42315 0.31278
# Poissons Ratio (y) = 0.43370 0.08388
# Poissons Ratio (z) = 0.64651 0.16917
#
# Static dielectric constant tensor:
#      x y z
#    x 3.431810 0.000000 0.000000 
#    y 0.000000 3.233350 0.000000 
#    z 0.000000 0.000000 3.156570 
# 
# 
# High freq. dielectric constant tensor:
#      x y z
#    x 1.709620 0.000000 0.000000 
#    y 0.000000 1.667490 0.000000 
#    z 0.000000 0.000000 1.684740 
# 
# From -- ./inp_files/8154.got.cif
#   From: 2010.03.12/outbox.cif.g09.slc.cpg/sg55_5_cif.got.tgz:8154.got - 2010.04.16 15:19:21.
