data_PCOD8224086
_publ_section_title
;
Structure prediction by ZEFSAII (Michael W. Deem and Ramdas Pophale) SiO2 
 PCOD8224086
Probable space group: P C C A
;
_chemical_formula_sum "Si O2"
_cell_formula_units_Z 48
_cell_length_a 8.628470
_cell_length_b 9.094534
_cell_length_c 27.202079
_cell_angle_alpha 90.000000
_cell_angle_beta 90.000000
_cell_angle_gamma 90.000000
_cell_volume 2134.599198
_symmetry_space_group_name_H-M "P C C A"
_symmetry_group_IT_number 54
_symmetry_cell_setting 'orthorhombic'
loop_
_space_group_symop_operation_xyz
x,y,z
1/2-x,-y,z
1/2+x,-y,1/2-z
-x,y,1/2-z
-x,-y,-z
1/2+x,y,-z
1/2-x,y,1/2+z
x,-y,1/2+z
loop_
_atom_site_type_symbol
_atom_site_label
_atom_site_fract_x
_atom_site_fract_y
_atom_site_fract_z
Si Si1 0.580038 0.060917 0.548467
Si Si2 0.620030 0.097266 0.368920
Si Si3 0.180672 0.353366 0.128924
Si Si4 0.317472 0.839938 0.825419
Si Si5 0.818191 0.347503 0.257279
Si Si6 0.340621 0.650307 0.406630
O O1 0.604259 0.240012 0.548930
O O2 0.750000 0.000000 0.554000
O O3 0.500000 0.000000 0.500000
O O4 0.475054 0.005129 0.593404
O O5 0.721896 0.222709 0.397658
O O6 0.504533 0.157007 0.327050
O O7 0.750000 0.000000 0.341349
O O8 0.250000 0.500000 0.106250
O O9 0.223716 0.328872 0.185928
O O10 0.997615 0.374001 0.123616
O O11 0.261244 0.783643 0.772883
O O12 0.273944 0.732932 0.870090
O O13 0.250000 0.000000 0.835842
O O14 0.750000 0.500000 0.236373
O O15 0.000000 0.342432 0.250000
O O16 0.250000 0.500000 0.424257
#
# Coordination Sequence:
#
# PCOD8224086 Si02
#       6
#     8   8   8   8   8   8
#     4  12  26  49  77 107 141 183 226 295 371 444
#     4  12  23  44  71 101 138 183 242 284 362 433
#     4  11  25  41  68 102 141 189 243 296 344 417
#     4  12  23  44  69  98 143 192 239 298 352 421
#     4  11  26  43  63  98 142 193 240 293 354 404
#     4  12  23  46  75 105 139 191 237 289 359 434
#
# _framework density 22.486657000000001
#
# number of rings (size 3 to 8) (size 9 to 14) (size 15 to 20)
#    0.000    0.333    6.667    2.000    4.667    0.667 
#    0.000    1.667    0.000    0.000    0.000    0.000 
#    0.000    0.000    0.000    0.000    0.000    0.000 
#
# Total GULP energy -594764.215821 kJ/mol
# GULP energy per Si atom -12390.921163 kJ/mol
# Density = 2.243548 g / cm^3
# Si number density = 22.486657 Si / 1000 Ang^3
#
#
#
# Elastic Constant Matrix: (Units=GPa)
#
#
# Indices 1 2 3 4 5 6 
#
# 1 195.1551 74.7070 33.2200 0.0000 0.0000 0.0000
# 2 74.7070 170.4264 30.0566 0.0000 0.0000 0.0000
# 3 33.2200 30.0566 66.6607 0.0000 0.0000 0.0000
# 4 0.0000 0.0000 0.0000 22.2057 0.0000 0.0000
# 5 0.0000 0.0000 0.0000 0.0000 41.8481 0.0000
# 6 0.0000 0.0000 0.0000 0.0000 0.0000 58.2195
#
#
#
# Elastic Compliance Matrix: (Units=1/GPa)
#
#
# Indices 1 2 3 4 5 6 
#
# 1 0.006416 -0.002443 -0.002096 0.000000 0.000000 0.000000
# 2 -0.002443 0.007305 -0.002076 0.000000 0.000000 0.000000
# 3 -0.002096 -0.002076 0.016982 0.000000 0.000000 0.000000
# 4 0.000000 0.000000 0.000000 0.045033 0.000000 0.000000
# 5 0.000000 0.000000 0.000000 0.000000 0.023896 0.000000
# 6 0.000000 0.000000 0.000000 0.000000 0.000000 0.017176
#
#
# Mechanical properties :
#
#
# Convention : Reuss Voigt Hill
#
# Bulk Modulus (GPa) = 57.23224 78.68994 67.96109
# Shear Modulus (GPa) = 36.80186 44.07189 40.43688
#
# Velocity S-wave (km/s) = 4.04989 4.43189 4.24519
# Velocity P-wave (km/s) = 6.88300 7.82681 7.37003
#
# Compressibility (1/GPa) = 0.01747267
#
# Stress axis : x y z
#
# Youngs Moduli (GPa) = 155.85903 136.89944 58.88588
#
# Poissons Ratio (x) = 0.33443 0.12342
# Poissons Ratio (y) = 0.38074 0.12226
# Poissons Ratio (z) = 0.32667 0.28423
#
# Static dielectric constant tensor:
#      x y z
#    x 4.498180 0.000000 0.000000 
#    y 0.000000 4.635700 0.000000 
#    z 0.000000 0.000000 3.577510 
# 
# 
# High freq. dielectric constant tensor:
#      x y z
#    x 1.919310 0.000000 0.000000 
#    y 0.000000 1.903430 0.000000 
#    z 0.000000 0.000000 1.838800 
# 
# From -- ./inp_files/27724.got.cif
#   From: 2010.03.12/outbox.cif.g09.slc.cpg/sg54_14_cif.got.tgz:27724.got - 2010.04.16 15:00:50.
