data_PCOD8224448
_publ_section_title
;
Structure prediction by ZEFSAII (Michael W. Deem and Ramdas Pophale) SiO2 
 PCOD8224448
Probable space group: P B A M
;
_chemical_formula_sum "Si O2"
_cell_formula_units_Z 64
_cell_length_a 19.433589
_cell_length_b 23.352680
_cell_length_c 8.879282
_cell_angle_alpha 90.000000
_cell_angle_beta 90.000000
_cell_angle_gamma 90.000000
_cell_volume 4029.652453
_symmetry_space_group_name_H-M "P B A M"
_symmetry_group_IT_number 55
_symmetry_cell_setting 'orthorhombic'
loop_
_space_group_symop_operation_xyz
x,y,z
-x,-y,z
1/2+x,1/2-y,-z
1/2-x,1/2+y,-z
-x,-y,-z
x,y,-z
1/2-x,1/2+y,z
1/2+x,1/2-y,z
loop_
_atom_site_type_symbol
_atom_site_label
_atom_site_fract_x
_atom_site_fract_y
_atom_site_fract_z
Si Si1 0.002724 0.615402 0.323577
Si Si2 0.637207 0.935985 0.822587
Si Si3 0.358552 0.943408 0.323050
Si Si4 0.002132 0.254182 0.679464
Si Si5 0.648919 0.272288 0.321252
Si Si6 0.644178 0.726861 0.321943
Si Si7 0.276387 0.158945 0.322923
Si Si8 0.272096 0.837707 0.679312
O O1 0.018906 0.614333 0.500000
O O2 0.064495 0.583498 0.242286
O O3 0.932973 0.582313 0.285098
O O4 0.996638 0.680279 0.264045
O O5 0.699897 0.896530 0.767160
O O6 0.654241 0.999683 0.769908
O O7 0.633243 0.933780 0.000000
O O8 0.351907 0.956248 0.500000
O O9 0.299870 0.898955 0.265927
O O10 0.001260 0.254235 0.500000
O O11 0.070425 0.221006 0.738957
O O12 0.933639 0.222368 0.743395
O O13 0.648988 0.267837 0.500000
O O14 0.697688 0.325521 0.274270
O O15 0.679119 0.212718 0.256940
O O16 0.641538 0.723244 0.500000
O O17 0.674873 0.788312 0.276085
O O18 0.693789 0.675408 0.263003
O O19 0.281805 0.146296 0.500000
O O20 0.275017 0.835778 0.500000
#
# Coordination Sequence:
#
# PCOD8224448 Si02
#       8
#     8   8   8   8   8   8   8   8
#     4  10  18  30  47  67  89 119 155 183 211 258
#     4  12  24  33  42  59  89 124 157 189 222 256
#     4  10  19  31  48  65  86 117 157 191 216 257
#     4   9  13  21  41  72  99 116 136 172 219 265
#     4   8  13  22  42  70  94 111 138 180 221 261
#     4   8  13  21  41  69  94 112 136 177 223 264
#     4   9  16  29  47  66  87 115 149 183 218 259
#     4   8  13  23  39  65  91 113 141 180 221 258
#
# _framework density 15.882263
#
# number of rings (size 3 to 8) (size 9 to 14) (size 15 to 20)
#    0.000    2.750    2.500    3.000    0.000    2.000 
#    0.000    0.000    0.000    3.750    0.000    0.875 
#    0.000    7.000    0.000    0.000    0.000    0.000 
#
# Total GULP energy -793032.259499 kJ/mol
# GULP energy per Si atom -12391.129055 kJ/mol
# Density = 1.584611 g / cm^3
# Si number density = 15.882263 Si / 1000 Ang^3
#
#
#
# Elastic Constant Matrix: (Units=GPa)
#
#
# Indices 1 2 3 4 5 6 
#
# 1 157.7768 77.2700 25.9570 0.0000 0.0000 0.0000
# 2 77.2700 98.5219 30.4618 0.0000 0.0000 0.0000
# 3 25.9570 30.4618 27.8413 0.0000 0.0000 0.0000
# 4 0.0000 0.0000 0.0000 -2.6034 0.0000 0.0000
# 5 0.0000 0.0000 0.0000 0.0000 1.6939 0.0000
# 6 0.0000 0.0000 0.0000 0.0000 0.0000 25.1956
#
#
#
# Elastic Compliance Matrix: (Units=1/GPa)
#
#
# Indices 1 2 3 4 5 6 
#
# 1 0.010315 -0.007733 -0.001157 0.000000 0.000000 0.000000
# 2 -0.007733 0.021136 -0.015916 0.000000 0.000000 0.000000
# 3 -0.001157 -0.015916 0.054410 0.000000 0.000000 0.000000
# 4 0.000000 0.000000 0.000000 -0.384116 0.000000 0.000000
# 5 0.000000 0.000000 0.000000 0.000000 0.590369 0.000000
# 6 0.000000 0.000000 0.000000 0.000000 0.000000 0.039689
#
#
# Mechanical properties :
#
#
# Convention : Reuss Voigt Hill
#
# Bulk Modulus (GPa) = 27.58553 61.27973 44.43263
# Shear Modulus (GPa) = 12.70655 14.88729 13.79692
#
# Velocity S-wave (km/s) = 2.83158 3.06494 2.95057
# Velocity P-wave (km/s) = 5.30065 7.15491 6.29641
#
# Compressibility (1/GPa) = 0.03625089
#
# Stress axis : x y z
#
# Youngs Moduli (GPa) = 96.94271 47.31360 18.37894
#
# Poissons Ratio (x) = 0.36586 0.02126
# Poissons Ratio (y) = 0.74962 0.29251
# Poissons Ratio (z) = 0.11215 0.75303
#
# Static dielectric constant tensor:
#      x y z
#    x 3.580060 0.000000 0.000000 
#    y 0.000000 2.988820 0.000000 
#    z 0.000000 0.000000 2.521210 
# 
# 
# High freq. dielectric constant tensor:
#      x y z
#    x 1.617610 0.000000 0.000000 
#    y 0.000000 1.586640 0.000000 
#    z 0.000000 0.000000 1.558830 
# 
# From -- ./inp_files/9145.got.cif
#   From: 2010.03.12/outbox.cif.g09.slc.cpg/sg55_5_cif.got.tgz:9145.got - 2010.04.16 15:19:21.
