data_PCOD8224604
_publ_section_title
;
Structure prediction by ZEFSAII (Michael W. Deem and Ramdas Pophale) SiO2 
 PCOD8224604
Probable space group: P B A M
;
_chemical_formula_sum "Si O2"
_cell_formula_units_Z 56
_cell_length_a 17.693420
_cell_length_b 19.223475
_cell_length_c 8.813287
_cell_angle_alpha 90.000000
_cell_angle_beta 90.000000
_cell_angle_gamma 90.000000
_cell_volume 2997.654644
_symmetry_space_group_name_H-M "P B A M"
_symmetry_group_IT_number 55
_symmetry_cell_setting 'orthorhombic'
loop_
_space_group_symop_operation_xyz
x,y,z
-x,-y,z
1/2+x,1/2-y,-z
1/2-x,1/2+y,-z
-x,-y,-z
x,y,-z
1/2-x,1/2+y,z
1/2+x,1/2-y,z
loop_
_atom_site_type_symbol
_atom_site_label
_atom_site_fract_x
_atom_site_fract_y
_atom_site_fract_z
Si Si1 0.092742 0.558031 0.676683
Si Si2 0.340209 0.660199 0.673952
Si Si3 0.579469 0.226550 0.168402
Si Si4 0.565693 0.072557 0.173402
Si Si5 0.073959 0.797673 0.829209
Si Si6 0.817420 0.319965 0.822126
Si Si7 0.986774 0.921619 0.320988
O O1 0.102584 0.544440 0.500000
O O2 0.121262 0.488637 0.767168
O O3 0.140738 0.623629 0.722923
O O4 0.006367 0.571971 0.717853
O O5 0.314623 0.649763 0.500000
O O6 0.382446 0.733313 0.693149
O O7 0.269958 0.666282 0.786398
O O8 0.401158 0.601204 0.725338
O O9 0.604943 0.147039 0.188673
O O10 0.489364 0.237207 0.181517
O O11 0.605548 0.252632 0.000000
O O12 0.541198 0.058973 0.000000
O O13 0.151242 0.757669 0.775390
O O14 0.050356 0.866983 0.737064
O O15 0.084483 0.824405 0.000000
O O16 0.832595 0.331480 0.000000
O O17 0.994998 0.921085 0.500000
O O18 0.000000 0.000000 0.256996
#
# Coordination Sequence:
#
# PCOD8224604 Si02
#       7
#     8   8   8   8   8   8   8
#     4  11  21  31  48  77 109 140 177 220 266 316
#     4  10  21  35  54  81 109 140 179 226 279 329
#     4   9  17  33  54  76 102 136 176 217 261 316
#     4  10  18  32  52  75 105 140 178 216 261 316
#     4   9  18  33  55  81 104 134 180 224 265 318
#     4  11  21  37  55  76 108 147 183 224 276 333
#     4   9  19  37  59  83 111 143 180 226 281 334
#
# _framework density 18.681270000000001
#
# number of rings (size 3 to 8) (size 9 to 14) (size 15 to 20)
#    0.000    2.143    1.429    3.429    0.000    3.143 
#    0.000    1.429    0.000    3.429    0.000    0.000 
#    0.000    0.000    0.000    0.000    0.000    0.000 
#
# Total GULP energy -693818.920989 kJ/mol
# GULP energy per Si atom -12389.623589 kJ/mol
# Density = 1.863875 g / cm^3
# Si number density = 18.681270 Si / 1000 Ang^3
#
#
#
# Elastic Constant Matrix: (Units=GPa)
#
#
# Indices 1 2 3 4 5 6 
#
# 1 71.4341 41.0070 23.8865 0.0000 0.0000 0.0000
# 2 41.0070 140.5941 41.4118 0.0000 0.0000 0.0000
# 3 23.8865 41.4118 64.5756 0.0000 0.0000 0.0000
# 4 0.0000 0.0000 0.0000 28.8097 0.0000 0.0000
# 5 0.0000 0.0000 0.0000 0.0000 66.5077 0.0000
# 6 0.0000 0.0000 0.0000 0.0000 0.0000 17.5256
#
#
#
# Elastic Compliance Matrix: (Units=1/GPa)
#
#
# Indices 1 2 3 4 5 6 
#
# 1 0.017602 -0.003965 -0.003968 0.000000 0.000000 0.000000
# 2 -0.003965 0.009662 -0.004730 0.000000 0.000000 0.000000
# 3 -0.003968 -0.004730 0.019987 0.000000 0.000000 0.000000
# 4 0.000000 0.000000 0.000000 0.034711 0.000000 0.000000
# 5 0.000000 0.000000 0.000000 0.000000 0.015036 0.000000
# 6 0.000000 0.000000 0.000000 0.000000 0.000000 0.057060
#
#
# Mechanical properties :
#
#
# Convention : Reuss Voigt Hill
#
# Bulk Modulus (GPa) = 45.60999 54.35717 49.98358
# Shear Modulus (GPa) = 26.78219 33.92181 30.35200
#
# Velocity S-wave (km/s) = 3.79045 4.26587 4.03517
# Velocity P-wave (km/s) = 6.60488 7.30916 6.96593
#
# Compressibility (1/GPa) = 0.02192502
#
# Stress axis : x y z
#
# Youngs Moduli (GPa) = 56.81157 103.49498 50.03342
#
# Poissons Ratio (x) = 0.41037 0.19854
# Poissons Ratio (y) = 0.22527 0.23664
# Poissons Ratio (z) = 0.22544 0.48949
#
# Static dielectric constant tensor:
#      x y z
#    x 3.479990 0.000000 0.000000 
#    y 0.000000 3.860300 0.000000 
#    z 0.000000 0.000000 3.378430 
# 
# 
# High freq. dielectric constant tensor:
#      x y z
#    x 1.692170 0.000000 0.000000 
#    y 0.000000 1.730340 0.000000 
#    z 0.000000 0.000000 1.727290 
# 
# From -- ./inp_files/7840.got.cif
#   From: 2010.03.12/outbox.cif.g09.slc.cpg/sg55_4_cif.got.tgz:7840.got - 2010.04.16 15:19:21.
