data_PCOD8224641
_publ_section_title
;
Structure prediction by ZEFSAII (Michael W. Deem and Ramdas Pophale) SiO2 
 PCOD8224641
Probable space group: P B A M
;
_chemical_formula_sum "Si O2"
_cell_formula_units_Z 32
_cell_length_a 9.198786
_cell_length_b 18.545365
_cell_length_c 10.574582
_cell_angle_alpha 90.000000
_cell_angle_beta 90.000000
_cell_angle_gamma 90.000000
_cell_volume 1803.969166
_symmetry_space_group_name_H-M "P B A M"
_symmetry_group_IT_number 55
_symmetry_cell_setting 'orthorhombic'
loop_
_space_group_symop_operation_xyz
x,y,z
-x,-y,z
1/2+x,1/2-y,-z
1/2-x,1/2+y,-z
-x,-y,-z
x,y,-z
1/2-x,1/2+y,z
1/2+x,1/2-y,z
loop_
_atom_site_type_symbol
_atom_site_label
_atom_site_fract_x
_atom_site_fract_y
_atom_site_fract_z
Si Si1 0.188577 0.343839 0.643231
Si Si2 0.508142 0.821081 0.138851
Si Si3 0.009202 0.918884 0.352672
Si Si4 0.177777 0.200898 0.231537
O O1 0.135151 0.359847 0.500000
O O2 0.332199 0.387943 0.676480
O O3 0.221146 0.257881 0.656806
O O4 0.065416 0.367354 0.746352
O O5 0.680675 0.819180 0.152126
O O6 0.442574 0.739699 0.142994
O O7 0.472418 0.854126 0.000000
O O8 0.974063 0.916934 0.500000
O O9 0.885682 0.872667 0.285411
O O10 0.000000 0.000000 0.299568
#
# Coordination Sequence:
#
# PCOD8224641 Si02
#       4
#     8   8   8   8
#     4   9  18  34  56  82 107 141 184 228 269 318
#     4  10  20  33  56  83 109 143 187 231 271 318
#     4  10  20  35  55  83 117 146 178 226 282 330
#     4  10  18  32  56  80 109 142 181 228 266 322
#
# _framework density 17.738662999999999
#
# number of rings (size 3 to 8) (size 9 to 14) (size 15 to 20)
#    1.500    0.750    2.500    1.500    0.000    2.000 
#    0.000    1.250    0.000   12.750    0.000    0.000 
#    0.000    0.000    0.000    0.000    0.000    0.000 
#
# Total GULP energy -396473.736939 kJ/mol
# GULP energy per Si atom -12389.804279 kJ/mol
# Density = 1.769829 g / cm^3
# Si number density = 17.738663 Si / 1000 Ang^3
#
#
#
# Elastic Constant Matrix: (Units=GPa)
#
#
# Indices 1 2 3 4 5 6 
#
# 1 111.3060 44.1492 58.8569 0.0000 0.0000 0.0000
# 2 44.1492 82.0391 23.7720 0.0000 0.0000 0.0000
# 3 58.8569 23.7720 109.6762 0.0000 0.0000 0.0000
# 4 0.0000 0.0000 0.0000 8.3908 0.0000 0.0000
# 5 0.0000 0.0000 0.0000 0.0000 25.6860 0.0000
# 6 0.0000 0.0000 0.0000 0.0000 0.0000 24.2576
#
#
#
# Elastic Compliance Matrix: (Units=1/GPa)
#
#
# Indices 1 2 3 4 5 6 
#
# 1 0.014947 -0.006103 -0.006698 0.000000 0.000000 0.000000
# 2 -0.006103 0.015498 -0.000084 0.000000 0.000000 0.000000
# 3 -0.006698 -0.000084 0.012731 0.000000 0.000000 0.000000
# 4 0.000000 0.000000 0.000000 0.119178 0.000000 0.000000
# 5 0.000000 0.000000 0.000000 0.000000 0.038932 0.000000
# 6 0.000000 0.000000 0.000000 0.000000 0.000000 0.041224
#
#
# Mechanical properties :
#
#
# Convention : Reuss Voigt Hill
#
# Bulk Modulus (GPa) = 57.45510 61.84195 59.64853
# Shear Modulus (GPa) = 18.24277 23.41643 20.82960
#
# Velocity S-wave (km/s) = 3.21038 3.63723 3.43045
# Velocity P-wave (km/s) = 6.79721 7.25105 7.02780
#
# Compressibility (1/GPa) = 0.01740489
#
# Stress axis : x y z
#
# Youngs Moduli (GPa) = 66.90376 64.52506 78.55079
#
# Poissons Ratio (x) = 0.39378 0.52616
# Poissons Ratio (y) = 0.40829 0.00661
# Poissons Ratio (z) = 0.44815 0.00543
#
# Static dielectric constant tensor:
#      x y z
#    x 3.160580 0.000000 0.000000 
#    y 0.000000 3.044710 0.000000 
#    z 0.000000 0.000000 3.156010 
# 
# 
# High freq. dielectric constant tensor:
#      x y z
#    x 1.689700 0.000000 0.000000 
#    y 0.000000 1.645900 0.000000 
#    z 0.000000 0.000000 1.679740 
# 
# From -- ./inp_files/2006.got.cif
#   From: 2010.03.12/outbox.cif.g09.slc.cpg/sg55_2_cif.got.tgz:2006.got - 2010.04.16 15:19:21.
