data_PCOD8224614
_publ_section_title
;
Structure prediction by ZEFSAII (Michael W. Deem and Ramdas Pophale) SiO2 
 PCOD8224614
Probable space group: P B A M
;
_chemical_formula_sum "Si O2"
_cell_formula_units_Z 64
_cell_length_a 19.561932
_cell_length_b 20.781739
_cell_length_c 9.030034
_cell_angle_alpha 90.000000
_cell_angle_beta 90.000000
_cell_angle_gamma 90.000000
_cell_volume 3670.988437
_symmetry_space_group_name_H-M "P B A M"
_symmetry_group_IT_number 55
_symmetry_cell_setting 'orthorhombic'
loop_
_space_group_symop_operation_xyz
x,y,z
-x,-y,z
1/2+x,1/2-y,-z
1/2-x,1/2+y,-z
-x,-y,-z
x,y,-z
1/2-x,1/2+y,z
1/2+x,1/2-y,z
loop_
_atom_site_type_symbol
_atom_site_label
_atom_site_fract_x
_atom_site_fract_y
_atom_site_fract_z
Si Si1 0.703943 0.687948 0.325807
Si Si2 0.198490 0.427998 0.328371
Si Si3 0.929191 0.226194 0.825261
Si Si4 0.577267 0.133298 0.828502
Si Si5 0.299810 0.071952 0.327805
Si Si6 0.712461 0.311181 0.324775
Si Si7 0.567245 0.267670 0.675123
Si Si8 0.575831 0.874392 0.831496
O O1 0.690256 0.693845 0.500000
O O2 0.742890 0.622323 0.285014
O O3 0.631782 0.684136 0.242067
O O4 0.747924 0.748166 0.263995
O O5 0.177455 0.419924 0.500000
O O6 0.132062 0.418308 0.226808
O O7 0.226491 0.499779 0.295427
O O8 0.917307 0.300322 0.780627
O O9 0.000901 0.202799 0.755214
O O10 0.933504 0.216444 0.000000
O O11 0.584412 0.196084 0.728142
O O12 0.502118 0.102406 0.809424
O O13 0.589491 0.151881 0.000000
O O14 0.305470 0.085386 0.500000
O O15 0.247096 0.124102 0.258359
O O16 0.375707 0.080711 0.264826
O O17 0.717708 0.309291 0.500000
O O18 0.632820 0.310732 0.279010
O O19 0.554966 0.266804 0.500000
O O20 0.599362 0.881420 0.000000
#
# Coordination Sequence:
#
# PCOD8224614 Si02
#       8
#     8   8   8   8   8   8   8   8
#     4  10  18  33  54  76 100 132 171 211 253 298
#     4  10  21  35  51  74 103 133 171 213 255 302
#     4  10  20  33  50  79 108 132 168 212 255 303
#     4  10  20  33  49  72 105 140 174 209 249 299
#     4  10  20  34  52  74 100 132 169 212 254 300
#     4   9  17  31  53  78 100 127 169 212 252 298
#     4  10  18  32  54  78 104 134 168 212 260 304
#     4   9  19  33  47  69 102 136 168 203 244 297
#
# _framework density 17.433997000000002
#
# number of rings (size 3 to 8) (size 9 to 14) (size 15 to 20)
#    0.000    2.250    2.500    1.875    0.000    4.000 
#    0.000    3.750    0.000    0.750    0.000    5.250 
#    0.000    0.000    0.000    0.000    0.000    0.000 
#
# Total GULP energy -793581.443739 kJ/mol
# GULP energy per Si atom -12399.710058 kJ/mol
# Density = 1.739432 g / cm^3
# Si number density = 17.433997 Si / 1000 Ang^3
#
#
#
# Elastic Constant Matrix: (Units=GPa)
#
#
# Indices 1 2 3 4 5 6 
#
# 1 138.7273 67.8499 47.5264 0.0000 0.0000 0.0000
# 2 67.8499 101.9091 33.4646 0.0000 0.0000 0.0000
# 3 47.5264 33.4646 56.5808 0.0000 0.0000 0.0000
# 4 0.0000 0.0000 0.0000 14.3432 0.0000 0.0000
# 5 0.0000 0.0000 0.0000 0.0000 18.8755 0.0000
# 6 0.0000 0.0000 0.0000 0.0000 0.0000 23.4212
#
#
#
# Elastic Compliance Matrix: (Units=1/GPa)
#
#
# Indices 1 2 3 4 5 6 
#
# 1 0.012567 -0.006082 -0.006959 0.000000 0.000000 0.000000
# 2 -0.006082 0.015121 -0.003835 0.000000 0.000000 0.000000
# 3 -0.006959 -0.003835 0.025787 0.000000 0.000000 0.000000
# 4 0.000000 0.000000 0.000000 0.069720 0.000000 0.000000
# 5 0.000000 0.000000 0.000000 0.000000 0.052979 0.000000
# 6 0.000000 0.000000 0.000000 0.000000 0.000000 0.042696
#
#
# Mechanical properties :
#
#
# Convention : Reuss Voigt Hill
#
# Bulk Modulus (GPa) = 50.69876 66.09989 58.39933
# Shear Modulus (GPa) = 19.29047 21.21974 20.25510
#
# Velocity S-wave (km/s) = 3.33000 3.49255 3.41224
# Velocity P-wave (km/s) = 6.62787 7.36617 7.00675
#
# Compressibility (1/GPa) = 0.01972435
#
# Stress axis : x y z
#
# Youngs Moduli (GPa) = 79.57389 66.13260 38.77900
#
# Poissons Ratio (x) = 0.40221 0.26986
# Poissons Ratio (y) = 0.48395 0.14871
# Poissons Ratio (z) = 0.55374 0.25361
#
# Static dielectric constant tensor:
#      x y z
#    x 3.378010 0.000000 0.000000 
#    y 0.000000 3.142770 0.000000 
#    z 0.000000 0.000000 3.111750 
# 
# 
# High freq. dielectric constant tensor:
#      x y z
#    x 1.677390 0.000000 0.000000 
#    y 0.000000 1.646330 0.000000 
#    z 0.000000 0.000000 1.665740 
# 
# From -- ./inp_files/8212.got.cif
#   From: 2010.03.12/outbox.cif.g09.slc.cpg/sg55_5_cif.got.tgz:8212.got - 2010.04.16 15:19:21.
