data_PCOD8224758
_publ_section_title
;
Structure prediction by ZEFSAII (Michael W. Deem and Ramdas Pophale) SiO2 
 PCOD8224758
Probable space group: P B A M
;
_chemical_formula_sum "Si O2"
_cell_formula_units_Z 64
_cell_length_a 16.873133
_cell_length_b 13.507275
_cell_length_c 14.454523
_cell_angle_alpha 90.000000
_cell_angle_beta 90.000000
_cell_angle_gamma 90.000000
_cell_volume 3294.331024
_symmetry_space_group_name_H-M "P B A M"
_symmetry_group_IT_number 55
_symmetry_cell_setting 'orthorhombic'
loop_
_space_group_symop_operation_xyz
x,y,z
-x,-y,z
1/2+x,1/2-y,-z
1/2-x,1/2+y,-z
-x,-y,-z
x,y,-z
1/2-x,1/2+y,z
1/2+x,1/2-y,z
loop_
_atom_site_type_symbol
_atom_site_label
_atom_site_fract_x
_atom_site_fract_y
_atom_site_fract_z
Si Si1 0.364462 0.263912 0.892755
Si Si2 0.800964 0.627628 0.104937
Si Si3 0.357761 0.713484 0.231798
Si Si4 0.020777 0.894119 0.773441
Si Si5 0.226467 0.288838 0.599994
Si Si6 0.864474 0.063051 0.395221
Si Si7 0.795924 0.419551 0.796413
Si Si8 0.769120 0.426648 0.400537
O O1 0.285129 0.326137 0.882088
O O2 0.432195 0.329785 0.847135
O O3 0.357727 0.159729 0.838247
O O4 0.384773 0.243124 0.000000
O O5 0.863323 0.702151 0.152732
O O6 0.797911 0.516168 0.141402
O O7 0.828303 0.621353 0.000000
O O8 0.440862 0.662638 0.249060
O O9 0.340619 0.776762 0.323842
O O10 0.291354 0.630799 0.207131
O O11 0.065909 0.915696 0.676651
O O12 0.000000 0.000000 0.819487
O O13 0.188397 0.314781 0.500000
O O14 0.287446 0.372699 0.631919
O O15 0.278299 0.190236 0.592217
O O16 0.895425 0.084546 0.500000
O O17 0.825662 0.953006 0.387801
O O18 0.819242 0.455292 0.691438
O O19 0.799110 0.473286 0.500000
#
# Coordination Sequence:
#
# PCOD8224758 Si02
#       8
#     8   8   8   8   8   8   8   8
#     4  10  22  38  56  80 108 142 189 236 280 336
#     4  10  20  36  58  80 102 135 185 240 283 320
#     4  10  21  33  53  83 112 140 181 231 273 328
#     4  12  23  36  54  79 115 152 178 219 285 343
#     4   9  17  32  53  76 106 144 183 221 259 304
#     4  10  20  34  54  82 116 151 185 220 265 326
#     4  10  18  36  60  79 106 143 186 229 274 326
#     4   9  16  27  49  80 108 135 172 216 257 307
#
# _framework density 19.427312000000001
#
# number of rings (size 3 to 8) (size 9 to 14) (size 15 to 20)
#    0.000    2.000    0.000    6.375    0.000    2.000 
#    0.000    0.625    0.000    1.500    0.000    0.000 
#    0.000   20.000    0.000    0.000    0.000    0.000 
#
# Total GULP energy -792955.593238 kJ/mol
# GULP energy per Si atom -12389.931144 kJ/mol
# Density = 1.938309 g / cm^3
# Si number density = 19.427312 Si / 1000 Ang^3
#
#
#
# Elastic Constant Matrix: (Units=GPa)
#
#
# Indices 1 2 3 4 5 6 
#
# 1 53.3439 21.8808 37.2979 0.0000 0.0000 0.0000
# 2 21.8808 95.5888 53.9508 0.0000 0.0000 0.0000
# 3 37.2979 53.9508 134.3439 0.0000 0.0000 0.0000
# 4 0.0000 0.0000 0.0000 6.4838 0.0000 0.0000
# 5 0.0000 0.0000 0.0000 0.0000 22.3272 0.0000
# 6 0.0000 0.0000 0.0000 0.0000 0.0000 27.7444
#
#
#
# Elastic Compliance Matrix: (Units=1/GPa)
#
#
# Indices 1 2 3 4 5 6 
#
# 1 0.023616 -0.002205 -0.005671 0.000000 0.000000 0.000000
# 2 -0.002205 0.013733 -0.004903 0.000000 0.000000 0.000000
# 3 -0.005671 -0.004903 0.010987 0.000000 0.000000 0.000000
# 4 0.000000 0.000000 0.000000 0.154231 0.000000 0.000000
# 5 0.000000 0.000000 0.000000 0.000000 0.044788 0.000000
# 6 0.000000 0.000000 0.000000 0.000000 0.000000 0.036043
#
#
# Mechanical properties :
#
#
# Convention : Reuss Voigt Hill
#
# Bulk Modulus (GPa) = 43.90140 56.61504 50.25822
# Shear Modulus (GPa) = 15.79530 22.65423 19.22477
#
# Velocity S-wave (km/s) = 2.85449 3.41853 3.14916
# Velocity P-wave (km/s) = 5.78887 6.69231 6.25692
#
# Compressibility (1/GPa) = 0.02277832
#
# Stress axis : x y z
#
# Youngs Moduli (GPa) = 42.34441 72.81466 91.01685
#
# Poissons Ratio (x) = 0.16056 0.51615
# Poissons Ratio (y) = 0.09337 0.44626
# Poissons Ratio (z) = 0.24013 0.35701
#
# Static dielectric constant tensor:
#      x y z
#    x 3.150580 0.000000 0.000000 
#    y 0.000000 3.775550 0.000000 
#    z 0.000000 0.000000 4.039830 
# 
# 
# High freq. dielectric constant tensor:
#      x y z
#    x 1.696870 0.000000 0.000000 
#    y 0.000000 1.776100 0.000000 
#    z 0.000000 0.000000 1.779000 
# 
# From -- ./inp_files/19580.got.cif
#   From: 2010.03.12/outbox.cif.g09.slc.cpg/sg55_10_cif.got.tgz:19580.got - 2010.04.16 15:19:21.
