data_PCOD8224190
_publ_section_title
;
Structure prediction by ZEFSAII (Michael W. Deem and Ramdas Pophale) SiO2 
 PCOD8224190
Probable space group: P C C A
;
_chemical_formula_sum "Si O2"
_cell_formula_units_Z 32
_cell_length_a 14.464376
_cell_length_b 10.734032
_cell_length_c 7.467082
_cell_angle_alpha 90.000000
_cell_angle_beta 90.000000
_cell_angle_gamma 90.000000
_cell_volume 1159.347177
_symmetry_space_group_name_H-M "P C C A"
_symmetry_group_IT_number 54
_symmetry_cell_setting 'orthorhombic'
loop_
_space_group_symop_operation_xyz
x,y,z
1/2-x,-y,z
1/2+x,-y,1/2-z
-x,y,1/2-z
-x,-y,-z
1/2+x,y,-z
1/2-x,y,1/2+z
x,-y,1/2+z
loop_
_atom_site_type_symbol
_atom_site_label
_atom_site_fract_x
_atom_site_fract_y
_atom_site_fract_z
Si Si1 0.382845 0.261612 0.002583
Si Si2 0.089206 0.706323 0.500262
Si Si3 0.855735 0.516684 0.706844
Si Si4 0.232396 0.854974 0.315466
O O1 0.364103 0.412598 0.992826
O O2 0.332443 0.214602 0.817007
O O3 0.490546 0.224971 0.003445
O O4 0.330523 0.179720 0.148337
O O5 0.089169 0.609385 0.663617
O O6 0.098955 0.620904 0.316434
O O7 0.172441 0.807557 0.491045
O O8 0.750000 0.500000 0.762298
O O9 0.250000 0.000000 0.330511
#
# Coordination Sequence:
#
# PCOD8224190 Si02
#       4
#     8   8   8   8
#     4  12  27  50  81 116 160 211 267 329 406 474
#     4  12  27  50  81 122 160 212 265 330 405 484
#     4  12  25  48  84 120 167 205 257 332 415 483
#     4  12  28  53  80 112 159 216 274 333 390 468
#
# _framework density 27.601738999999998
#
# number of rings (size 3 to 8) (size 9 to 14) (size 15 to 20)
#    0.000    0.000    2.500    6.750    0.000    3.000 
#    0.000    6.250    0.000    0.000    0.000    0.000 
#    0.000    0.000    0.000    0.000    0.000    0.000 
#
# Total GULP energy -396794.259410 kJ/mol
# GULP energy per Si atom -12399.820607 kJ/mol
# Density = 2.753892 g / cm^3
# Si number density = 27.601739 Si / 1000 Ang^3
#
#
#
# Elastic Constant Matrix: (Units=GPa)
#
#
# Indices 1 2 3 4 5 6 
#
# 1 233.5707 77.5440 29.6082 0.0000 0.0000 0.0000
# 2 77.5440 194.3345 19.6029 0.0000 0.0000 0.0000
# 3 29.6082 19.6029 71.3242 0.0000 0.0000 0.0000
# 4 0.0000 0.0000 0.0000 25.7005 0.0000 0.0000
# 5 0.0000 0.0000 0.0000 0.0000 40.8844 0.0000
# 6 0.0000 0.0000 0.0000 0.0000 0.0000 27.3324
#
#
#
# Elastic Compliance Matrix: (Units=1/GPa)
#
#
# Indices 1 2 3 4 5 6 
#
# 1 0.005108 -0.001876 -0.001605 0.000000 0.000000 0.000000
# 2 -0.001876 0.005982 -0.000865 0.000000 0.000000 0.000000
# 3 -0.001605 -0.000865 0.014924 0.000000 0.000000 0.000000
# 4 0.000000 0.000000 0.000000 0.038910 0.000000 0.000000
# 5 0.000000 0.000000 0.000000 0.000000 0.024459 0.000000
# 6 0.000000 0.000000 0.000000 0.000000 0.000000 0.036587
#
#
# Mechanical properties :
#
#
# Convention : Reuss Voigt Hill
#
# Bulk Modulus (GPa) = 57.73099 83.63772 70.68435
# Shear Modulus (GPa) = 35.60357 43.61507 39.60932
#
# Velocity S-wave (km/s) = 3.59542 3.97943 3.79229
# Velocity P-wave (km/s) = 6.18039 7.17509 6.69623
#
# Compressibility (1/GPa) = 0.01732172
#
# Stress axis : x y z
#
# Youngs Moduli (GPa) = 195.78451 167.17683 67.00438
#
# Poissons Ratio (x) = 0.31366 0.10752
# Poissons Ratio (y) = 0.36733 0.05797
# Poissons Ratio (z) = 0.31416 0.14464
#
# Static dielectric constant tensor:
#      x y z
#    x 5.102970 0.000000 0.000000 
#    y 0.000000 4.886280 0.000000 
#    z 0.000000 0.000000 6.163780 
# 
# 
# High freq. dielectric constant tensor:
#      x y z
#    x 2.116040 0.000000 0.000000 
#    y 0.000000 2.089340 0.000000 
#    z 0.000000 0.000000 2.168080 
# 
# From -- ./inp_files/3246.got.cif
#   From: 2010.03.12/outbox.cif.g09.slc.cpg/sg54_2_cif.got.tgz:3246.got - 2010.04.16 15:00:50.
