data_PCOD8224277
_publ_section_title
;
Structure prediction by ZEFSAII (Michael W. Deem and Ramdas Pophale) SiO2 
 PCOD8224277
Probable space group: P B A M
;
_chemical_formula_sum "Si O2"
_cell_formula_units_Z 28
_cell_length_a 17.374161
_cell_length_b 14.116802
_cell_length_c 7.273915
_cell_angle_alpha 90.000000
_cell_angle_beta 90.000000
_cell_angle_gamma 90.000000
_cell_volume 1784.055607
_symmetry_space_group_name_H-M "P B A M"
_symmetry_group_IT_number 55
_symmetry_cell_setting 'orthorhombic'
loop_
_space_group_symop_operation_xyz
x,y,z
-x,-y,z
1/2+x,1/2-y,-z
1/2-x,1/2+y,-z
-x,-y,-z
x,y,-z
1/2-x,1/2+y,z
1/2+x,1/2-y,z
loop_
_atom_site_type_symbol
_atom_site_label
_atom_site_fract_x
_atom_site_fract_y
_atom_site_fract_z
Si Si1 0.209699 0.074264 0.000000
Si Si2 0.713937 0.216333 0.000000
Si Si3 0.435951 0.684551 0.000000
Si Si4 0.786861 0.081770 0.285644
Si Si5 0.533197 0.600455 0.708947
O O1 0.251009 0.177429 0.000000
O O2 0.233100 0.016969 0.815756
O O3 0.117639 0.090258 0.000000
O O4 0.739149 0.164635 0.186872
O O5 0.620067 0.223450 0.000000
O O6 0.491261 0.683385 0.822509
O O7 0.763866 0.074435 0.500000
O O8 0.876063 0.105834 0.258544
O O9 0.500000 0.500000 0.774867
O O10 0.510726 0.619154 0.500000
#
# Coordination Sequence:
#
# PCOD8224277 Si02
#       5
#     4   4   4   8   8
#     4   9  18  30  45  66  94 128 154 182 228 275
#     4   9  20  31  43  67  98 130 158 183 229 276
#     4  10  17  28  44  63  96 124 148 182 218 278
#     4  10  19  31  47  70  99 125 155 191 230 279
#     4  10  17  26  45  71  93 119 148 184 237 286
#
# _framework density 15.694578999999999
#
# number of rings (size 3 to 8) (size 9 to 14) (size 15 to 20)
#    0.857    1.429    2.857    2.143    0.000    2.286 
#    0.000    0.000    0.000    0.000    0.000   16.000 
#    0.000   27.429    0.000    0.000    0.000    0.000 
#
# Total GULP energy -346970.313422 kJ/mol
# GULP energy per Si atom -12391.796908 kJ/mol
# Density = 1.565886 g / cm^3
# Si number density = 15.694579 Si / 1000 Ang^3
#
#
#
# Elastic Constant Matrix: (Units=GPa)
#
#
# Indices 1 2 3 4 5 6 
#
# 1 2.2912 -8.6165 -3.4388 0.0000 0.0000 0.0000
# 2 -8.6165 58.8086 23.6569 0.0000 0.0000 0.0000
# 3 -3.4388 23.6569 103.9597 0.0000 0.0000 0.0000
# 4 0.0000 0.0000 0.0000 15.5338 0.0000 0.0000
# 5 0.0000 0.0000 0.0000 0.0000 22.7476 0.0000
# 6 0.0000 0.0000 0.0000 0.0000 0.0000 30.7485
#
#
#
# Elastic Compliance Matrix: (Units=1/GPa)
#
#
# Indices 1 2 3 4 5 6 
#
# 1 0.972092 0.142542 -0.000282 0.000000 0.000000 0.000000
# 2 0.142542 0.039619 -0.004301 0.000000 0.000000 0.000000
# 3 -0.000282 -0.004301 0.010588 0.000000 0.000000 0.000000
# 4 0.000000 0.000000 0.000000 0.064376 0.000000 0.000000
# 5 0.000000 0.000000 0.000000 0.000000 0.043961 0.000000
# 6 0.000000 0.000000 0.000000 0.000000 0.000000 0.032522
#
#
# Mechanical properties :
#
#
# Convention : Reuss Voigt Hill
#
# Bulk Modulus (GPa) = 0.77029 20.91809 10.84419
# Shear Modulus (GPa) = 3.78794 24.03651 13.91222
#
# Velocity S-wave (km/s) = 1.55524 3.91771 2.98054
# Velocity P-wave (km/s) = 1.92792 5.81564 4.33236
#
# Compressibility (1/GPa) = 1.29821862
#
# Stress axis : x y z
#
# Youngs Moduli (GPa) = 1.02871 25.24029 94.44247
#
# Poissons Ratio (x) = -3.59780 0.02661
# Poissons Ratio (y) = -0.14663 0.40617
# Poissons Ratio (z) = 0.00029 0.10855
#
# Static dielectric constant tensor:
#      x y z
#    x 2.793620 0.000000 0.000000 
#    y 0.000000 2.703750 0.000000 
#    z 0.000000 0.000000 3.094230 
# 
# 
# High freq. dielectric constant tensor:
#      x y z
#    x 1.582440 0.000000 0.000000 
#    y 0.000000 1.567900 0.000000 
#    z 0.000000 0.000000 1.618320 
# 
# From -- ./inp_files/4988.got.cif
#   From: 2010.03.12/outbox.cif.g09.slc.cpg/sg55_3_cif.got.tgz:4988.got - 2010.04.16 15:19:21.
