data_PCOD8224876
_publ_section_title
;
Structure prediction by ZEFSAII (Michael W. Deem and Ramdas Pophale) SiO2 
 PCOD8224876
Probable space group: P B A M
;
_chemical_formula_sum "Si O2"
_cell_formula_units_Z 64
_cell_length_a 18.807322
_cell_length_b 13.837878
_cell_length_c 13.713710
_cell_angle_alpha 90.000000
_cell_angle_beta 90.000000
_cell_angle_gamma 90.000000
_cell_volume 3569.040029
_symmetry_space_group_name_H-M "P B A M"
_symmetry_group_IT_number 55
_symmetry_cell_setting 'orthorhombic'
loop_
_space_group_symop_operation_xyz
x,y,z
-x,-y,z
1/2+x,1/2-y,-z
1/2-x,1/2+y,-z
-x,-y,-z
x,y,-z
1/2-x,1/2+y,z
1/2+x,1/2-y,z
loop_
_atom_site_type_symbol
_atom_site_label
_atom_site_fract_x
_atom_site_fract_y
_atom_site_fract_z
Si Si1 0.164792 0.507025 0.608179
Si Si2 0.074269 0.697812 0.606276
Si Si3 0.746197 0.130145 0.887999
Si Si4 0.364565 0.248624 0.799480
Si Si5 0.514766 0.213544 0.111473
Si Si6 0.955653 0.596667 0.293721
Si Si7 0.764364 0.432007 0.209905
Si Si8 0.152874 0.186553 0.890057
O O1 0.191099 0.474411 0.500000
O O2 0.110826 0.594430 0.596570
O O3 0.123692 0.419427 0.663719
O O4 0.231478 0.539815 0.675285
O O5 0.074052 0.749352 0.500000
O O6 0.116313 0.762373 0.685155
O O7 0.993424 0.680660 0.642397
O O8 0.816690 0.160617 0.828543
O O9 0.684007 0.206930 0.869679
O O10 0.718773 0.026214 0.853676
O O11 0.768388 0.125005 0.000000
O O12 0.435478 0.247587 0.864073
O O13 0.323971 0.147217 0.817948
O O14 0.543077 0.127704 0.180645
O O15 0.567975 0.305564 0.124796
O O16 0.518489 0.176206 0.000000
O O17 0.000000 0.500000 0.302792
O O18 0.686135 0.390434 0.185466
O O19 0.172118 0.152966 0.000000
#
# Coordination Sequence:
#
# PCOD8224876 Si02
#       8
#     8   8   8   8   8   8   8   8
#     4   9  16  27  45  68  93 122 157 197 239 283
#     4   8  14  26  45  67  95 129 157 190 239 289
#     4  10  19  32  50  71  97 130 165 199 241 295
#     4   9  19  33  50  72  97 126 168 213 245 287
#     4  10  19  31  47  68  99 133 163 203 248 286
#     4   9  16  26  42  70 102 129 157 192 242 302
#     4  10  19  33  51  69  94 130 166 197 244 303
#     4   9  19  33  48  69  97 127 158 198 246 294
#
# _framework density 17.931992999999999
#
# number of rings (size 3 to 8) (size 9 to 14) (size 15 to 20)
#    0.000    2.750    0.000    2.625    0.000    3.250 
#    0.000    3.125    0.000   11.250    0.000    0.000 
#    0.000    5.000    0.000    0.000    0.000    0.000 
#
# Total GULP energy -793194.591135 kJ/mol
# GULP energy per Si atom -12393.665486 kJ/mol
# Density = 1.789118 g / cm^3
# Si number density = 17.931993 Si / 1000 Ang^3
#
#
#
# Elastic Constant Matrix: (Units=GPa)
#
#
# Indices 1 2 3 4 5 6 
#
# 1 81.5144 20.0967 44.0482 0.0000 0.0000 0.0000
# 2 20.0967 42.3964 26.7350 0.0000 0.0000 0.0000
# 3 44.0482 26.7350 134.0328 0.0000 0.0000 0.0000
# 4 0.0000 0.0000 0.0000 17.4906 0.0000 0.0000
# 5 0.0000 0.0000 0.0000 0.0000 21.7739 0.0000
# 6 0.0000 0.0000 0.0000 0.0000 0.0000 19.9831
#
#
#
# Elastic Compliance Matrix: (Units=1/GPa)
#
#
# Indices 1 2 3 4 5 6 
#
# 1 0.015727 -0.004799 -0.004211 0.000000 0.000000 0.000000
# 2 -0.004799 0.028445 -0.004097 0.000000 0.000000 0.000000
# 3 -0.004211 -0.004097 0.009662 0.000000 0.000000 0.000000
# 4 0.000000 0.000000 0.000000 0.057173 0.000000 0.000000
# 5 0.000000 0.000000 0.000000 0.000000 0.045926 0.000000
# 6 0.000000 0.000000 0.000000 0.000000 0.000000 0.050042
#
#
# Mechanical properties :
#
#
# Convention : Reuss Voigt Hill
#
# Bulk Modulus (GPa) = 36.20592 48.85594 42.53093
# Shear Modulus (GPa) = 20.62739 22.98711 21.80725
#
# Velocity S-wave (km/s) = 3.39530 3.58425 3.49106
# Velocity P-wave (km/s) = 5.96702 6.66584 6.32609
#
# Compressibility (1/GPa) = 0.02761979
#
# Stress axis : x y z
#
# Youngs Moduli (GPa) = 63.58688 35.15536 103.49914
#
# Poissons Ratio (x) = 0.16872 0.43584
# Poissons Ratio (y) = 0.30517 0.42400
# Poissons Ratio (z) = 0.26777 0.14402
#
# Static dielectric constant tensor:
#      x y z
#    x 3.277930 0.000000 0.000000 
#    y 0.000000 2.947090 0.000000 
#    z 0.000000 0.000000 3.630910 
# 
# 
# High freq. dielectric constant tensor:
#      x y z
#    x 1.681580 0.000000 0.000000 
#    y 0.000000 1.647540 0.000000 
#    z 0.000000 0.000000 1.703430 
# 
# From -- ./inp_files/19569.got.cif
#   From: 2010.03.12/outbox.cif.g09.slc.cpg/sg55_10_cif.got.tgz:19569.got - 2010.04.16 15:19:21.
