data_PCOD8224167
_publ_section_title
;
Structure prediction by ZEFSAII (Michael W. Deem and Ramdas Pophale) SiO2 
 PCOD8224167
Probable space group: P C C A
;
_chemical_formula_sum "Si O2"
_cell_formula_units_Z 32
_cell_length_a 14.396534
_cell_length_b 10.751021
_cell_length_c 7.067835
_cell_angle_alpha 90.000000
_cell_angle_beta 90.000000
_cell_angle_gamma 90.000000
_cell_volume 1093.941403
_symmetry_space_group_name_H-M "P C C A"
_symmetry_group_IT_number 54
_symmetry_cell_setting 'orthorhombic'
loop_
_space_group_symop_operation_xyz
x,y,z
1/2-x,-y,z
1/2+x,-y,1/2-z
-x,y,1/2-z
-x,-y,-z
1/2+x,y,-z
1/2-x,y,1/2+z
x,-y,1/2+z
loop_
_atom_site_type_symbol
_atom_site_label
_atom_site_fract_x
_atom_site_fract_y
_atom_site_fract_z
Si Si1 0.643869 0.508549 0.037299
Si Si2 0.401223 0.717194 0.742464
Si Si3 0.891307 0.731449 0.751142
Si Si4 0.759321 0.146045 0.547400
O O1 0.750000 0.500000 0.978568
O O2 0.604331 0.367522 0.059625
O O3 0.633781 0.581567 0.248090
O O4 0.588372 0.608398 0.912854
O O5 0.500000 0.790114 0.750000
O O6 0.310658 0.809381 0.750556
O O7 0.842232 0.783469 0.550237
O O8 0.000000 0.762546 0.750000
O O9 0.838722 0.817920 0.899808
O O10 0.750000 0.000000 0.555214
#
# Coordination Sequence:
#
# PCOD8224167 Si02
#       4
#     8   8   8   8
#     4  12  24  44  77 114 156 200 250 333 408 474
#     4  12  25  45  77 117 160 204 261 328 408 481
#     4  12  27  50  80 114 156 205 264 325 401 468
#     4  12  28  50  76 112 158 214 265 327 382 467
#
# _framework density 29.252026000000001
#
# number of rings (size 3 to 8) (size 9 to 14) (size 15 to 20)
#    0.000    0.000    2.500    7.500    0.000    2.000 
#    0.000    1.250    0.000    0.000    0.000    0.000 
#    0.000    0.000    0.000    0.000    0.000    0.000 
#
# Total GULP energy -396664.816414 kJ/mol
# GULP energy per Si atom -12395.775513 kJ/mol
# Density = 2.918545 g / cm^3
# Si number density = 29.252026 Si / 1000 Ang^3
#
#
#
# Elastic Constant Matrix: (Units=GPa)
#
#
# Indices 1 2 3 4 5 6 
#
# 1 304.8228 84.7564 21.6209 0.0000 0.0000 0.0000
# 2 84.7564 232.3485 14.8104 0.0000 0.0000 0.0000
# 3 21.6209 14.8104 64.1611 0.0000 0.0000 0.0000
# 4 0.0000 0.0000 0.0000 7.8326 0.0000 0.0000
# 5 0.0000 0.0000 0.0000 0.0000 36.5778 0.0000
# 6 0.0000 0.0000 0.0000 0.0000 0.0000 28.0393
#
#
#
# Elastic Compliance Matrix: (Units=1/GPa)
#
#
# Indices 1 2 3 4 5 6 
#
# 1 0.003707 -0.001292 -0.000951 0.000000 0.000000 0.000000
# 2 -0.001292 0.004818 -0.000677 0.000000 0.000000 0.000000
# 3 -0.000951 -0.000677 0.016063 0.000000 0.000000 0.000000
# 4 0.000000 0.000000 0.000000 0.127672 0.000000 0.000000
# 5 0.000000 0.000000 0.000000 0.000000 0.027339 0.000000
# 6 0.000000 0.000000 0.000000 0.000000 0.000000 0.035664
#
#
# Mechanical properties :
#
#
# Convention : Reuss Voigt Hill
#
# Bulk Modulus (GPa) = 53.33751 93.74531 73.54141
# Shear Modulus (GPa) = 21.99232 46.49958 34.24595
#
# Velocity S-wave (km/s) = 2.74491 3.99133 3.42529
# Velocity P-wave (km/s) = 5.32160 7.30465 6.39052
#
# Compressibility (1/GPa) = 0.01874853
#
# Stress axis : x y z
#
# Youngs Moduli (GPa) = 269.74442 207.54577 62.25677
#
# Poissons Ratio (x) = 0.26809 0.05921
# Poissons Ratio (y) = 0.34843 0.04214
# Poissons Ratio (z) = 0.25655 0.14049
#
# Static dielectric constant tensor:
#      x y z
#    x 5.306890 0.000000 0.000000 
#    y 0.000000 5.158970 0.000000 
#    z 0.000000 0.000000 9.375260 
# 
# 
# High freq. dielectric constant tensor:
#      x y z
#    x 2.189700 0.000000 0.000000 
#    y 0.000000 2.159140 0.000000 
#    z 0.000000 0.000000 2.310640 
# 
# From -- ./inp_files/3315.got.cif
#   From: 2010.03.12/outbox.cif.g09.slc.cpg/sg54_2_cif.got.tgz:3315.got - 2010.04.16 15:00:50.
