data_PCOD8224440
_publ_section_title
;
Structure prediction by ZEFSAII (Michael W. Deem and Ramdas Pophale) SiO2 
 PCOD8224440
Probable space group: P B A M
;
_chemical_formula_sum "Si O2"
_cell_formula_units_Z 64
_cell_length_a 26.542357
_cell_length_b 18.529933
_cell_length_c 8.604346
_cell_angle_alpha 90.000000
_cell_angle_beta 90.000000
_cell_angle_gamma 90.000000
_cell_volume 4231.859118
_symmetry_space_group_name_H-M "P B A M"
_symmetry_group_IT_number 55
_symmetry_cell_setting 'orthorhombic'
loop_
_space_group_symop_operation_xyz
x,y,z
-x,-y,z
1/2+x,1/2-y,-z
1/2-x,1/2+y,-z
-x,-y,-z
x,y,-z
1/2-x,1/2+y,z
1/2+x,1/2-y,z
loop_
_atom_site_type_symbol
_atom_site_label
_atom_site_fract_x
_atom_site_fract_y
_atom_site_fract_z
Si Si1 0.848423 0.661013 0.682154
Si Si2 0.053351 0.423293 0.683059
Si Si3 0.264343 0.085057 0.177990
Si Si4 0.641336 0.836517 0.684337
Si Si5 0.947432 0.422468 0.818106
Si Si6 0.803709 0.201184 0.320563
Si Si7 0.711551 0.274487 0.822510
Si Si8 0.248412 0.432274 0.316180
O O1 0.848202 0.675818 0.500000
O O2 0.901444 0.628286 0.736846
O O3 0.841485 0.738245 0.771163
O O4 0.804714 0.604368 0.729683
O O5 0.043924 0.419296 0.500000
O O6 0.067483 0.505111 0.726821
O O7 0.003403 0.397102 0.771843
O O8 0.312392 0.110129 0.277738
O O9 0.216186 0.138934 0.197997
O O10 0.245044 0.007473 0.230317
O O11 0.282184 0.082481 0.000000
O O12 0.632741 0.837955 0.500000
O O13 0.590996 0.859728 0.771678
O O14 0.653341 0.754618 0.748943
O O15 0.945043 0.438171 0.000000
O O16 0.815352 0.195399 0.500000
O O17 0.750785 0.240377 0.296940
O O18 0.795390 0.119256 0.257730
O O19 0.724161 0.253207 0.000000
O O20 0.250919 0.444604 0.500000
#
# Coordination Sequence:
#
# PCOD8224440 Si02
#       8
#     8   8   8   8   8   8   8   8
#     4   9  18  30  44  60  79 106 142 174 203 240
#     4  10  19  32  47  62  82 110 142 175 207 242
#     4  10  19  28  39  61  87 111 139 170 203 244
#     4  10  18  30  46  60  78 110 144 174 207 243
#     4  11  21  31  43  62  86 110 138 174 209 244
#     4   8  16  29  43  58  78 104 138 173 204 240
#     4   9  17  27  40  58  82 108 135 167 204 242
#     4   9  16  27  42  61  83 109 138 169 204 243
#
# _framework density 15.123374999999999
#
# number of rings (size 3 to 8) (size 9 to 14) (size 15 to 20)
#    0.000    2.500    0.000    4.875    0.000    6.000 
#    0.000    0.000    0.000    0.000    0.000    0.000 
#    0.000    1.000    0.000   11.250    0.000    5.625 
#
# Total GULP energy -792947.057718 kJ/mol
# GULP energy per Si atom -12389.797777 kJ/mol
# Density = 1.508895 g / cm^3
# Si number density = 15.123375 Si / 1000 Ang^3
#
#
#
# Elastic Constant Matrix: (Units=GPa)
#
#
# Indices 1 2 3 4 5 6 
#
# 1 79.4184 52.9260 18.5338 0.0000 0.0000 0.0000
# 2 52.9260 103.2781 23.8598 0.0000 0.0000 0.0000
# 3 18.5338 23.8598 27.7600 0.0000 0.0000 0.0000
# 4 0.0000 0.0000 0.0000 20.7514 0.0000 0.0000
# 5 0.0000 0.0000 0.0000 0.0000 16.8851 0.0000
# 6 0.0000 0.0000 0.0000 0.0000 0.0000 28.1716
#
#
#
# Elastic Compliance Matrix: (Units=1/GPa)
#
#
# Indices 1 2 3 4 5 6 
#
# 1 0.019799 -0.008849 -0.005612 0.000000 0.000000 0.000000
# 2 -0.008849 0.016037 -0.007876 0.000000 0.000000 0.000000
# 3 -0.005612 -0.007876 0.046539 0.000000 0.000000 0.000000
# 4 0.000000 0.000000 0.000000 0.048189 0.000000 0.000000
# 5 0.000000 0.000000 0.000000 0.000000 0.059224 0.000000
# 6 0.000000 0.000000 0.000000 0.000000 0.000000 0.035497
#
#
# Mechanical properties :
#
#
# Convention : Reuss Voigt Hill
#
# Bulk Modulus (GPa) = 26.52513 44.56621 35.54567
# Shear Modulus (GPa) = 17.69744 20.83742 19.26743
#
# Velocity S-wave (km/s) = 3.42454 3.71594 3.57321
# Velocity P-wave (km/s) = 5.76314 6.92411 6.37013
#
# Compressibility (1/GPa) = 0.03770010
#
# Stress axis : x y z
#
# Youngs Moduli (GPa) = 50.50821 62.35551 21.48726
#
# Poissons Ratio (x) = 0.55181 0.12059
# Poissons Ratio (y) = 0.44697 0.16923
# Poissons Ratio (z) = 0.28347 0.49109
#
# Static dielectric constant tensor:
#      x y z
#    x 2.846150 0.000000 0.000000 
#    y 0.000000 3.145270 0.000000 
#    z 0.000000 0.000000 2.934700 
# 
# 
# High freq. dielectric constant tensor:
#      x y z
#    x 1.544200 0.000000 0.000000 
#    y 0.000000 1.571080 0.000000 
#    z 0.000000 0.000000 1.587760 
# 
# From -- ./inp_files/10303.got.cif
#   From: 2010.03.12/outbox.cif.g09.slc.cpg/sg55_6_cif.got.tgz:10303.got - 2010.04.16 15:19:21.
