data_PCOD8224422
_publ_section_title
;
Structure prediction by ZEFSAII (Michael W. Deem and Ramdas Pophale) SiO2 
 PCOD8224422
Probable space group: P B A M
;
_chemical_formula_sum "Si O2"
_cell_formula_units_Z 56
_cell_length_a 18.506955
_cell_length_b 18.952932
_cell_length_c 8.592405
_cell_angle_alpha 90.000000
_cell_angle_beta 90.000000
_cell_angle_gamma 90.000000
_cell_volume 3013.881083
_symmetry_space_group_name_H-M "P B A M"
_symmetry_group_IT_number 55
_symmetry_cell_setting 'orthorhombic'
loop_
_space_group_symop_operation_xyz
x,y,z
-x,-y,z
1/2+x,1/2-y,-z
1/2-x,1/2+y,-z
-x,-y,-z
x,y,-z
1/2-x,1/2+y,z
1/2+x,1/2-y,z
loop_
_atom_site_type_symbol
_atom_site_label
_atom_site_fract_x
_atom_site_fract_y
_atom_site_fract_z
Si Si1 0.357658 0.244999 0.680336
Si Si2 0.309106 0.391830 0.680605
Si Si3 0.164276 0.460283 0.315226
Si Si4 0.031897 0.926140 0.315184
Si Si5 0.883371 0.392861 0.182779
Si Si6 0.962568 0.644686 0.317134
Si Si7 0.006984 0.214739 0.180812
O O1 0.382262 0.243835 0.500000
O O2 0.298898 0.306998 0.706637
O O3 0.332646 0.167295 0.735024
O O4 0.424894 0.263169 0.789506
O O5 0.309693 0.409688 0.500000
O O6 0.240760 0.432164 0.753284
O O7 0.385999 0.418098 0.750268
O O8 0.165444 0.471510 0.500000
O O9 0.148822 0.532853 0.230715
O O10 0.104040 0.403786 0.267007
O O11 0.031274 0.921053 0.500000
O O12 0.980622 0.863389 0.251185
O O13 0.000000 0.000000 0.255013
O O14 0.966180 0.386544 0.236251
O O15 0.878637 0.383246 0.000000
O O16 0.975868 0.643135 0.500000
O O17 0.944251 0.724804 0.262833
O O18 0.025476 0.213332 0.000000
#
# Coordination Sequence:
#
# PCOD8224422 Si02
#       7
#     8   8   8   8   8   8   8
#     4   9  16  31  54  73  92 122 162 203 240 286
#     4   8  16  32  53  75  96 123 163 206 246 288
#     4  10  20  34  51  72 100 132 166 205 248 293
#     4   9  17  32  55  78  99 127 166 210 250 291
#     4  11  21  32  49  74 102 131 165 204 246 292
#     4  10  19  32  51  72  96 130 170 207 243 289
#     4  10  18  29  48  73 100 126 155 197 246 294
#
# _framework density 18.580694000000001
#
# number of rings (size 3 to 8) (size 9 to 14) (size 15 to 20)
#    0.000    2.429    0.000    6.429    0.000    3.143 
#    0.000    5.000    0.000    8.571    0.000    0.000 
#    0.000    0.000    0.000    0.000    0.000    0.000 
#
# Total GULP energy -694017.820581 kJ/mol
# GULP energy per Si atom -12393.175368 kJ/mol
# Density = 1.853840 g / cm^3
# Si number density = 18.580694 Si / 1000 Ang^3
#
#
#
# Elastic Constant Matrix: (Units=GPa)
#
#
# Indices 1 2 3 4 5 6 
#
# 1 78.3722 66.5003 24.7427 0.0000 0.0000 0.0000
# 2 66.5003 185.6163 42.8543 0.0000 0.0000 0.0000
# 3 24.7427 42.8543 53.4357 0.0000 0.0000 0.0000
# 4 0.0000 0.0000 0.0000 18.5845 0.0000 0.0000
# 5 0.0000 0.0000 0.0000 0.0000 1.7233 0.0000
# 6 0.0000 0.0000 0.0000 0.0000 0.0000 19.8795
#
#
#
# Elastic Compliance Matrix: (Units=1/GPa)
#
#
# Indices 1 2 3 4 5 6 
#
# 1 0.019039 -0.005873 -0.004106 0.000000 0.000000 0.000000
# 2 -0.005873 0.008423 -0.004036 0.000000 0.000000 0.000000
# 3 -0.004106 -0.004036 0.023852 0.000000 0.000000 0.000000
# 4 0.000000 0.000000 0.000000 0.053808 0.000000 0.000000
# 5 0.000000 0.000000 0.000000 0.000000 0.580267 0.000000
# 6 0.000000 0.000000 0.000000 0.000000 0.000000 0.050303
#
#
# Mechanical properties :
#
#
# Convention : Reuss Voigt Hill
#
# Bulk Modulus (GPa) = 42.94612 65.06876 54.00744
# Shear Modulus (GPa) = 6.48101 20.25925 13.37013
#
# Velocity S-wave (km/s) = 1.86965 3.30561 2.68539
# Velocity P-wave (km/s) = 5.27487 7.04734 6.22452
#
# Compressibility (1/GPa) = 0.02328499
#
# Stress axis : x y z
#
# Youngs Moduli (GPa) = 52.52255 118.71606 41.92548
#
# Poissons Ratio (x) = 0.69726 0.17213
# Poissons Ratio (y) = 0.30848 0.16921
# Poissons Ratio (z) = 0.21564 0.47912
#
# Static dielectric constant tensor:
#      x y z
#    x 3.327500 0.000000 0.000000 
#    y 0.000000 3.957290 0.000000 
#    z 0.000000 0.000000 3.222310 
# 
# 
# High freq. dielectric constant tensor:
#      x y z
#    x 1.678200 0.000000 0.000000 
#    y 0.000000 1.742710 0.000000 
#    z 0.000000 0.000000 1.709190 
# 
# From -- ./inp_files/7805.got.cif
#   From: 2010.03.12/outbox.cif.g09.slc.cpg/sg55_4_cif.got.tgz:7805.got - 2010.04.16 15:19:21.
