data_PCOD8224316
_publ_section_title
;
Structure prediction by ZEFSAII (Michael W. Deem and Ramdas Pophale) SiO2 
 PCOD8224316
Probable space group: P B A M
;
_chemical_formula_sum "Si O2"
_cell_formula_units_Z 64
_cell_length_a 14.384711
_cell_length_b 30.460135
_cell_length_c 9.175489
_cell_angle_alpha 90.000000
_cell_angle_beta 90.000000
_cell_angle_gamma 90.000000
_cell_volume 4020.334453
_symmetry_space_group_name_H-M "P B A M"
_symmetry_group_IT_number 55
_symmetry_cell_setting 'orthorhombic'
loop_
_space_group_symop_operation_xyz
x,y,z
-x,-y,z
1/2+x,1/2-y,-z
1/2-x,1/2+y,-z
-x,-y,-z
x,y,-z
1/2-x,1/2+y,z
1/2+x,1/2-y,z
loop_
_atom_site_type_symbol
_atom_site_label
_atom_site_fract_x
_atom_site_fract_y
_atom_site_fract_z
Si Si1 0.492778 0.233268 0.833441
Si Si2 0.498943 0.321218 0.666806
Si Si3 0.106846 0.948534 0.827293
Si Si4 0.307741 0.368367 0.332085
Si Si5 0.339567 0.635972 0.171814
Si Si6 0.287946 0.212553 0.171396
Si Si7 0.397577 0.545126 0.170822
Si Si8 0.190572 0.301456 0.167476
O O1 0.512550 0.272552 0.725006
O O2 0.396470 0.210035 0.786191
O O3 0.578756 0.200012 0.818831
O O4 0.485013 0.250783 0.000000
O O5 0.531104 0.323002 0.500000
O O6 0.393256 0.335379 0.687305
O O7 0.561029 0.353446 0.761106
O O8 0.173527 0.914517 0.745797
O O9 0.000910 0.943731 0.768831
O O10 0.140311 0.997657 0.778350
O O11 0.116306 0.940583 0.000000
O O12 0.284909 0.377740 0.500000
O O13 0.220763 0.343884 0.258684
O O14 0.260506 0.668429 0.236918
O O15 0.324344 0.584201 0.211372
O O16 0.347179 0.642348 0.000000
O O17 0.237935 0.256701 0.231151
O O18 0.273269 0.211948 0.000000
O O19 0.412688 0.541736 0.000000
O O20 0.221467 0.307715 0.000000
#
# Coordination Sequence:
#
# PCOD8224316 Si02
#       8
#     8   8   8   8   8   8   8   8
#     4  10  19  33  48  65  90 119 156 192 223 265
#     4  11  21  29  41  65  95 124 154 187 225 262
#     4   9  16  29  47  68  91 120 154 190 228 276
#     4  11  22  32  43  66  96 127 157 189 229 270
#     4  10  17  30  49  69  92 124 156 185 222 273
#     4   9  17  28  47  71  90 114 152 189 223 264
#     4   8  15  26  46  71  93 117 151 190 230 272
#     4  10  19  31  49  68  87 120 157 189 226 267
#
# _framework density 15.919074
#
# number of rings (size 3 to 8) (size 9 to 14) (size 15 to 20)
#    0.000    2.250    3.750    1.500    0.000    1.500 
#    0.000    2.500    0.000    0.000    0.000    0.875 
#    0.000    7.000    0.000    0.000    0.000    0.000 
#
# Total GULP energy -793192.696880 kJ/mol
# GULP energy per Si atom -12393.635889 kJ/mol
# Density = 1.588284 g / cm^3
# Si number density = 15.919074 Si / 1000 Ang^3
#
#
#
# Elastic Constant Matrix: (Units=GPa)
#
#
# Indices 1 2 3 4 5 6 
#
# 1 70.8547 37.2951 22.0223 0.0000 0.0000 0.0000
# 2 37.2951 119.6796 39.9559 0.0000 0.0000 0.0000
# 3 22.0223 39.9559 35.3953 0.0000 0.0000 0.0000
# 4 0.0000 0.0000 0.0000 7.1555 0.0000 0.0000
# 5 0.0000 0.0000 0.0000 0.0000 11.7198 0.0000
# 6 0.0000 0.0000 0.0000 0.0000 0.0000 26.4648
#
#
#
# Elastic Compliance Matrix: (Units=1/GPa)
#
#
# Indices 1 2 3 4 5 6 
#
# 1 0.018156 -0.003027 -0.007879 0.000000 0.000000 0.000000
# 2 -0.003027 0.013914 -0.013823 0.000000 0.000000 0.000000
# 3 -0.007879 -0.013823 0.048759 0.000000 0.000000 0.000000
# 4 0.000000 0.000000 0.000000 0.139754 0.000000 0.000000
# 5 0.000000 0.000000 0.000000 0.000000 0.085326 0.000000
# 6 0.000000 0.000000 0.000000 0.000000 0.000000 0.037786
#
#
# Mechanical properties :
#
#
# Convention : Reuss Voigt Hill
#
# Bulk Modulus (GPa) = 31.87783 47.16402 39.52093
# Shear Modulus (GPa) = 12.38823 17.51176 14.95000
#
# Velocity S-wave (km/s) = 2.79265 3.32030 3.06784
# Velocity P-wave (km/s) = 5.51969 6.66265 6.11792
#
# Compressibility (1/GPa) = 0.03136976
#
# Stress axis : x y z
#
# Youngs Moduli (GPa) = 55.07933 71.86980 20.50919
#
# Poissons Ratio (x) = 0.21758 0.16158
# Poissons Ratio (y) = 0.16675 0.28350
# Poissons Ratio (z) = 0.43395 0.99347
#
# Static dielectric constant tensor:
#      x y z
#    x 2.989860 0.000000 0.000000 
#    y 0.000000 3.306090 0.000000 
#    z 0.000000 0.000000 2.817520 
# 
# 
# High freq. dielectric constant tensor:
#      x y z
#    x 1.583810 0.000000 0.000000 
#    y 0.000000 1.609200 0.000000 
#    z 0.000000 0.000000 1.589060 
# 
# From -- ./inp_files/6909.got.cif
#   From: 2010.03.12/outbox.cif.g09.slc.cpg/sg55_4_cif.got.tgz:6909.got - 2010.04.16 15:19:21.
