data_PCOD8224433
_publ_section_title
;
Structure prediction by ZEFSAII (Michael W. Deem and Ramdas Pophale) SiO2 
 PCOD8224433
Probable space group: P B A M
;
_chemical_formula_sum "Si O2"
_cell_formula_units_Z 64
_cell_length_a 14.619743
_cell_length_b 24.500976
_cell_length_c 9.472422
_cell_angle_alpha 90.000000
_cell_angle_beta 90.000000
_cell_angle_gamma 90.000000
_cell_volume 3393.002354
_symmetry_space_group_name_H-M "P B A M"
_symmetry_group_IT_number 55
_symmetry_cell_setting 'orthorhombic'
loop_
_space_group_symop_operation_xyz
x,y,z
-x,-y,z
1/2+x,1/2-y,-z
1/2-x,1/2+y,-z
-x,-y,-z
x,y,-z
1/2-x,1/2+y,z
1/2+x,1/2-y,z
loop_
_atom_site_type_symbol
_atom_site_label
_atom_site_fract_x
_atom_site_fract_y
_atom_site_fract_z
Si Si1 0.269787 0.905260 0.340273
Si Si2 0.073756 0.544068 0.161871
Si Si3 0.952913 0.943639 0.666226
Si Si4 0.359826 0.756231 0.164752
Si Si5 0.929882 0.628819 0.837759
Si Si6 0.682841 0.685366 0.161045
Si Si7 0.751607 0.971551 0.657837
Si Si8 0.983145 0.837564 0.836963
O O1 0.286170 0.884723 0.500000
O O2 0.365468 0.909243 0.257667
O O3 0.200477 0.865457 0.261993
O O4 0.224870 0.964547 0.338469
O O5 0.168971 0.544965 0.242150
O O6 0.000000 0.500000 0.220818
O O7 0.032184 0.605244 0.178233
O O8 0.095185 0.529588 0.000000
O O9 0.969947 0.935671 0.500000
O O10 0.845238 0.942526 0.704454
O O11 0.996076 0.892671 0.748661
O O12 0.000000 0.000000 0.717212
O O13 0.418762 0.808883 0.216054
O O14 0.252055 0.764770 0.203674
O O15 0.402083 0.700468 0.229555
O O16 0.375226 0.749210 0.000000
O O17 0.897188 0.624159 0.000000
O O18 0.575858 0.699412 0.175504
O O19 0.706944 0.668725 0.000000
O O20 0.723378 0.953912 0.500000
O O21 0.965484 0.853702 0.000000
#
# Coordination Sequence:
#
# PCOD8224433 Si02
#       8
#     8   8   8   8   8   8   8   8
#     4  10  18  29  50  77 102 135 182 222 254 308
#     4  10  19  31  50  79 112 145 181 222 269 322
#     4  10  22  41  60  78 108 147 183 225 282 340
#     4   8  16  33  54  77 105 136 173 216 264 319
#     4   9  17  32  51  74 107 144 178 217 266 312
#     4   9  18  33  54  77 104 138 172 218 272 317
#     4  10  21  34  50  75 107 145 180 216 271 328
#     4  10  20  36  58  84 107 136 183 229 272 324
#
# _framework density 18.862351
#
# number of rings (size 3 to 8) (size 9 to 14) (size 15 to 20)
#    0.000    2.500    1.250    1.875    0.000    3.500 
#    2.250    2.500    0.000    0.000    0.000    0.000 
#    0.000    0.000    0.000    0.000    0.000    0.000 
#
# Total GULP energy -793145.680868 kJ/mol
# GULP energy per Si atom -12392.901264 kJ/mol
# Density = 1.881942 g / cm^3
# Si number density = 18.862351 Si / 1000 Ang^3
#
#
#
# Elastic Constant Matrix: (Units=GPa)
#
#
# Indices 1 2 3 4 5 6 
#
# 1 108.8143 42.4802 37.3667 0.0000 0.0000 0.0000
# 2 42.4802 88.0043 24.4203 0.0000 0.0000 0.0000
# 3 37.3667 24.4203 62.3096 0.0000 0.0000 0.0000
# 4 0.0000 0.0000 0.0000 16.7921 0.0000 0.0000
# 5 0.0000 0.0000 0.0000 0.0000 24.5268 0.0000
# 6 0.0000 0.0000 0.0000 0.0000 0.0000 29.9174
#
#
#
# Elastic Compliance Matrix: (Units=1/GPa)
#
#
# Indices 1 2 3 4 5 6 
#
# 1 0.013067 -0.004637 -0.006019 0.000000 0.000000 0.000000
# 2 -0.004637 0.014395 -0.002861 0.000000 0.000000 0.000000
# 3 -0.006019 -0.002861 0.020780 0.000000 0.000000 0.000000
# 4 0.000000 0.000000 0.000000 0.059552 0.000000 0.000000
# 5 0.000000 0.000000 0.000000 0.000000 0.040772 0.000000
# 6 0.000000 0.000000 0.000000 0.000000 0.000000 0.033425
#
#
# Mechanical properties :
#
#
# Convention : Reuss Voigt Hill
#
# Bulk Modulus (GPa) = 47.15187 51.96252 49.55719
# Shear Modulus (GPa) = 23.13799 24.57131 23.85465
#
# Velocity S-wave (km/s) = 3.50619 3.61316 3.56008
# Velocity P-wave (km/s) = 6.43765 6.70930 6.57488
#
# Compressibility (1/GPa) = 0.02120807
#
# Stress axis : x y z
#
# Youngs Moduli (GPa) = 76.52699 69.46635 48.12417
#
# Poissons Ratio (x) = 0.32215 0.28965
# Poissons Ratio (y) = 0.35489 0.13767
# Poissons Ratio (z) = 0.46061 0.19873
#
# Static dielectric constant tensor:
#      x y z
#    x 3.491420 0.000000 0.000000 
#    y 0.000000 3.375820 0.000000 
#    z 0.000000 0.000000 3.295040 
# 
# 
# High freq. dielectric constant tensor:
#      x y z
#    x 1.736130 0.000000 0.000000 
#    y 0.000000 1.715970 0.000000 
#    z 0.000000 0.000000 1.712600 
# 
# From -- ./inp_files/6497.got.cif
#   From: 2010.03.12/outbox.cif.g09.slc.cpg/sg55_4_cif.got.tgz:6497.got - 2010.04.16 15:19:21.
