data_PCOD8224487
_publ_section_title
;
Structure prediction by ZEFSAII (Michael W. Deem and Ramdas Pophale) SiO2 
 PCOD8224487
Probable space group: P B A M
;
_chemical_formula_sum "Si O2"
_cell_formula_units_Z 48
_cell_length_a 8.242037
_cell_length_b 29.908079
_cell_length_c 10.392758
_cell_angle_alpha 90.000000
_cell_angle_beta 90.000000
_cell_angle_gamma 90.000000
_cell_volume 2561.851156
_symmetry_space_group_name_H-M "P B A M"
_symmetry_group_IT_number 55
_symmetry_cell_setting 'orthorhombic'
loop_
_space_group_symop_operation_xyz
x,y,z
-x,-y,z
1/2+x,1/2-y,-z
1/2-x,1/2+y,-z
-x,-y,-z
x,y,-z
1/2-x,1/2+y,z
1/2+x,1/2-y,z
loop_
_atom_site_type_symbol
_atom_site_label
_atom_site_fract_x
_atom_site_fract_y
_atom_site_fract_z
Si Si1 0.851327 0.767031 0.644368
Si Si2 0.677929 0.130137 0.140509
Si Si3 0.050897 0.686835 0.721721
Si Si4 0.049139 0.549788 0.854430
Si Si5 0.226058 0.601877 0.358270
Si Si6 0.559373 0.649958 0.354416
O O1 0.781055 0.774312 0.500000
O O2 0.707919 0.781170 0.744178
O O3 0.905648 0.715774 0.658498
O O4 0.008145 0.798399 0.666084
O O5 0.526541 0.165316 0.149409
O O6 0.611752 0.079918 0.153944
O O7 0.802916 0.137734 0.254171
O O8 0.758849 0.136866 0.000000
O O9 0.105688 0.644659 0.635665
O O10 0.000000 0.500000 0.815744
O O11 0.182196 0.566377 0.751942
O O12 0.121491 0.551652 0.000000
O O13 0.217424 0.579348 0.500000
O O14 0.406778 0.618166 0.327249
O O15 0.623908 0.642913 0.500000
#
# Coordination Sequence:
#
# PCOD8224487 Si02
#       6
#     8   8   8   8   8   8
#     4  10  18  30  50  76 103 134 173 209 244 292
#     4  10  21  36  53  74 100 131 169 209 255 304
#     4  10  19  31  48  72 102 135 169 208 247 289
#     4   9  19  36  56  76  99 131 171 210 249 303
#     4   9  18  33  53  79 107 132 164 208 257 302
#     4   9  19  34  53  78 106 136 170 208 249 298
#
# _framework density 18.736452
#
# number of rings (size 3 to 8) (size 9 to 14) (size 15 to 20)
#    0.000    2.500    0.000    3.500    0.000    6.333 
#    0.000    6.667    0.000    5.000    0.000    0.000 
#    0.000    0.000    0.000    0.000    0.000    0.000 
#
# Total GULP energy -594806.490380 kJ/mol
# GULP energy per Si atom -12391.801883 kJ/mol
# Density = 1.869381 g / cm^3
# Si number density = 18.736452 Si / 1000 Ang^3
#
#
#
# Elastic Constant Matrix: (Units=GPa)
#
#
# Indices 1 2 3 4 5 6 
#
# 1 79.0851 41.4145 57.6928 0.0000 0.0000 0.0000
# 2 41.4145 106.1148 50.0087 0.0000 0.0000 0.0000
# 3 57.6928 50.0087 120.0776 0.0000 0.0000 0.0000
# 4 0.0000 0.0000 0.0000 18.0035 0.0000 0.0000
# 5 0.0000 0.0000 0.0000 0.0000 23.9835 0.0000
# 6 0.0000 0.0000 0.0000 0.0000 0.0000 19.2750
#
#
#
# Elastic Compliance Matrix: (Units=1/GPa)
#
#
# Indices 1 2 3 4 5 6 
#
# 1 0.020911 -0.004263 -0.008272 0.000000 0.000000 0.000000
# 2 -0.004263 0.012594 -0.003197 0.000000 0.000000 0.000000
# 3 -0.008272 -0.003197 0.013634 0.000000 0.000000 0.000000
# 4 0.000000 0.000000 0.000000 0.055545 0.000000 0.000000
# 5 0.000000 0.000000 0.000000 0.000000 0.041695 0.000000
# 6 0.000000 0.000000 0.000000 0.000000 0.000000 0.051881
#
#
# Mechanical properties :
#
#
# Convention : Reuss Voigt Hill
#
# Bulk Modulus (GPa) = 63.79239 67.05658 65.42448
# Shear Modulus (GPa) = 21.46403 22.66318 22.06361
#
# Velocity S-wave (km/s) = 3.38831 3.48167 3.43531
# Velocity P-wave (km/s) = 7.03055 7.21317 7.12244
#
# Compressibility (1/GPa) = 0.01567585
#
# Stress axis : x y z
#
# Youngs Moduli (GPa) = 47.82121 79.40219 73.34858
#
# Poissons Ratio (x) = 0.33850 0.60671
# Poissons Ratio (y) = 0.20386 0.23448
# Poissons Ratio (z) = 0.39556 0.25383
#
# Static dielectric constant tensor:
#      x y z
#    x 3.373140 0.000000 0.000000 
#    y 0.000000 3.444680 0.000000 
#    z 0.000000 0.000000 3.422520 
# 
# 
# High freq. dielectric constant tensor:
#      x y z
#    x 1.720960 0.000000 0.000000 
#    y 0.000000 1.720600 0.000000 
#    z 0.000000 0.000000 1.711410 
# 
# From -- ./inp_files/2752.got.cif
#   From: 2010.03.12/outbox.cif.g09.slc.cpg/sg55_2_cif.got.tgz:2752.got - 2010.04.16 15:19:21.
