data_PCOD8224563
_publ_section_title
;
Structure prediction by ZEFSAII (Michael W. Deem and Ramdas Pophale) SiO2 
 PCOD8224563
Probable space group: P B A M
;
_chemical_formula_sum "Si O2"
_cell_formula_units_Z 64
_cell_length_a 28.636520
_cell_length_b 12.878210
_cell_length_c 9.326498
_cell_angle_alpha 90.000000
_cell_angle_beta 90.000000
_cell_angle_gamma 90.000000
_cell_volume 3439.492321
_symmetry_space_group_name_H-M "P B A M"
_symmetry_group_IT_number 55
_symmetry_cell_setting 'orthorhombic'
loop_
_space_group_symop_operation_xyz
x,y,z
-x,-y,z
1/2+x,1/2-y,-z
1/2-x,1/2+y,-z
-x,-y,-z
x,y,-z
1/2-x,1/2+y,z
1/2+x,1/2-y,z
loop_
_atom_site_type_symbol
_atom_site_label
_atom_site_fract_x
_atom_site_fract_y
_atom_site_fract_z
Si Si1 0.295087 0.529657 0.664365
Si Si2 0.425069 0.408007 0.835756
Si Si3 0.066193 0.322158 0.334052
Si Si4 0.540074 0.782224 0.333127
Si Si5 0.800593 0.361807 0.664052
Si Si6 0.602620 0.396366 0.668846
Si Si7 0.680978 0.659562 0.838560
Si Si8 0.394535 0.034309 0.333375
O O1 0.295014 0.494225 0.500000
O O2 0.251000 0.600271 0.700847
O O3 0.342304 0.591854 0.701591
O O4 0.289083 0.426720 0.757312
O O5 0.457415 0.324382 0.755932
O O6 0.427752 0.517857 0.753490
O O7 0.372990 0.366331 0.828175
O O8 0.441811 0.422364 0.000000
O O9 0.079712 0.320326 0.500000
O O10 0.087324 0.215787 0.269018
O O11 0.089567 0.424825 0.261951
O O12 0.011017 0.329652 0.310315
O O13 0.549983 0.756258 0.500000
O O14 0.576719 0.867055 0.270991
O O15 0.804336 0.323581 0.500000
O O16 0.811196 0.269283 0.768555
O O17 0.839198 0.451313 0.692513
O O18 0.591663 0.408768 0.500000
O O19 0.699213 0.663549 0.000000
O O20 0.407747 0.029587 0.500000
#
# Coordination Sequence:
#
# PCOD8224563 Si02
#       8
#     8   8   8   8   8   8   8   8
#     4   9  19  33  52  77 103 134 172 215 264 311
#     4  10  20  34  53  75 102 136 175 218 259 305
#     4   9  18  31  50  77 106 136 172 213 263 315
#     4  10  18  31  54  79 102 134 174 216 260 313
#     4  10  19  32  54  82 105 132 172 217 263 311
#     4   9  18  34  53  74 104 139 173 215 261 310
#     4  10  20  34  52  73 102 138 172 212 258 309
#     4   9  17  30  51  79 108 133 166 216 264 310
#
# _framework density 18.607396000000001
#
# number of rings (size 3 to 8) (size 9 to 14) (size 15 to 20)
#    0.000    2.500    1.250    1.125    0.000    4.500 
#    0.000    6.875    0.000    3.750    0.000    0.000 
#    0.000    0.000    0.000    0.000    0.000    0.000 
#
# Total GULP energy -793553.362730 kJ/mol
# GULP energy per Si atom -12399.271293 kJ/mol
# Density = 1.856504 g / cm^3
# Si number density = 18.607396 Si / 1000 Ang^3
#
#
#
# Elastic Constant Matrix: (Units=GPa)
#
#
# Indices 1 2 3 4 5 6 
#
# 1 46.8365 29.6234 14.2560 0.0000 0.0000 0.0000
# 2 29.6234 130.1149 40.8724 0.0000 0.0000 0.0000
# 3 14.2560 40.8724 58.3840 0.0000 0.0000 0.0000
# 4 0.0000 0.0000 0.0000 -4.0447 0.0000 0.0000
# 5 0.0000 0.0000 0.0000 0.0000 12.3211 0.0000
# 6 0.0000 0.0000 0.0000 0.0000 0.0000 15.5033
#
#
#
# Elastic Compliance Matrix: (Units=1/GPa)
#
#
# Indices 1 2 3 4 5 6 
#
# 1 0.025282 -0.004893 -0.002748 0.000000 0.000000 0.000000
# 2 -0.004893 0.010799 -0.006365 0.000000 0.000000 0.000000
# 3 -0.002748 -0.006365 0.022255 0.000000 0.000000 0.000000
# 4 0.000000 0.000000 0.000000 -0.247239 0.000000 0.000000
# 5 0.000000 0.000000 0.000000 0.000000 0.081162 0.000000
# 6 0.000000 0.000000 0.000000 0.000000 0.000000 0.064502
#
#
# Mechanical properties :
#
#
# Convention : Reuss Voigt Hill
#
# Bulk Modulus (GPa) = 32.97729 44.98210 38.97970
# Shear Modulus (GPa) = -976.66489 14.79485 -480.93502
#
# Velocity S-wave (km/s) = -22.93511 2.82282 -16.09427
# Velocity P-wave (km/s) = 26.14571 5.90349 18.01037
#
# Compressibility (1/GPa) = 0.03032390
#
# Stress axis : x y z
#
# Youngs Moduli (GPa) = 39.55405 92.60180 44.93366
#
# Poissons Ratio (x) = 0.45308 0.12348
# Poissons Ratio (y) = 0.19353 0.28601
# Poissons Ratio (z) = 0.10869 0.58943
#
# Static dielectric constant tensor:
#      x y z
#    x 3.744630 0.000000 0.000000 
#    y 0.000000 3.613110 0.000000 
#    z 0.000000 0.000000 3.232710 
# 
# 
# High freq. dielectric constant tensor:
#      x y z
#    x 1.720650 0.000000 0.000000 
#    y 0.000000 1.729510 0.000000 
#    z 0.000000 0.000000 1.687050 
# 
# From -- ./inp_files/10835.got.cif
#   From: 2010.03.12/outbox.cif.g09.slc.cpg/sg55_6_cif.got.tgz:10835.got - 2010.04.16 15:19:21.
