data_PCOD8224986
_publ_section_title
;
Structure prediction by ZEFSAII (Michael W. Deem and Ramdas Pophale) SiO2 
 PCOD8224986
Probable space group: P B A M
;
_chemical_formula_sum "Si O2"
_cell_formula_units_Z 48
_cell_length_a 16.786754
_cell_length_b 18.526569
_cell_length_c 8.623424
_cell_angle_alpha 90.000000
_cell_angle_beta 90.000000
_cell_angle_gamma 90.000000
_cell_volume 2681.893110
_symmetry_space_group_name_H-M "P B A M"
_symmetry_group_IT_number 55
_symmetry_cell_setting 'orthorhombic'
loop_
_space_group_symop_operation_xyz
x,y,z
-x,-y,z
1/2+x,1/2-y,-z
1/2-x,1/2+y,-z
-x,-y,-z
x,y,-z
1/2-x,1/2+y,z
1/2+x,1/2-y,z
loop_
_atom_site_type_symbol
_atom_site_label
_atom_site_fract_x
_atom_site_fract_y
_atom_site_fract_z
Si Si1 0.506598 0.082303 0.317313
Si Si2 0.156874 0.337251 0.181895
Si Si3 0.577301 0.288125 0.320888
Si Si4 0.165206 0.841365 0.179130
Si Si5 0.982747 0.078823 0.683611
Si Si6 0.433999 0.209334 0.820880
O O1 0.495258 0.088890 0.500000
O O2 0.593444 0.112996 0.270508
O O3 0.433494 0.125274 0.231435
O O4 0.500000 0.000000 0.261520
O O5 0.145456 0.251742 0.221081
O O6 0.245740 0.357750 0.238879
O O7 0.147034 0.349218 0.000000
O O8 0.602744 0.287773 0.500000
O O9 0.555611 0.368992 0.261734
O O10 0.497431 0.242444 0.297577
O O11 0.103375 0.892772 0.265623
O O12 0.146817 0.755285 0.203674
O O13 0.157596 0.860864 0.000000
O O14 0.981649 0.076199 0.500000
O O15 0.000000 0.000000 0.755043
O O16 0.462343 0.214901 0.000000
#
# Coordination Sequence:
#
# PCOD8224986 Si02
#       6
#     8   8   8   8   8   8
#     4  10  20  33  49  71  98 126 159 197 236 282
#     4  10  19  32  50  71  96 124 158 199 240 283
#     4   9  16  28  47  69  92 120 156 192 228 275
#     4   9  19  33  49  72  97 123 158 199 240 281
#     4   9  18  32  50  72  98 128 160 194 234 283
#     4   9  16  29  49  69  91 120 155 192 230 276
#
# _framework density 17.897805999999999
#
# number of rings (size 3 to 8) (size 9 to 14) (size 15 to 20)
#    0.000    2.667    0.000    4.000    0.000    4.333 
#    0.000    1.667    0.000    8.000    0.000    0.000 
#    0.000    0.000    0.000    0.000    0.000    0.000 
#
# Total GULP energy -594631.769240 kJ/mol
# GULP energy per Si atom -12388.161859 kJ/mol
# Density = 1.785707 g / cm^3
# Si number density = 17.897806 Si / 1000 Ang^3
#
#
#
# Elastic Constant Matrix: (Units=GPa)
#
#
# Indices 1 2 3 4 5 6 
#
# 1 81.3442 45.7530 14.6301 0.0000 0.0000 0.0000
# 2 45.7530 143.8591 24.1649 0.0000 0.0000 0.0000
# 3 14.6301 24.1649 30.3257 0.0000 0.0000 0.0000
# 4 0.0000 0.0000 0.0000 20.7739 0.0000 0.0000
# 5 0.0000 0.0000 0.0000 0.0000 18.3032 0.0000
# 6 0.0000 0.0000 0.0000 0.0000 0.0000 19.7479
#
#
#
# Elastic Compliance Matrix: (Units=1/GPa)
#
#
# Indices 1 2 3 4 5 6 
#
# 1 0.015395 -0.004212 -0.004070 0.000000 0.000000 0.000000
# 2 -0.004212 0.009178 -0.005281 0.000000 0.000000 0.000000
# 3 -0.004070 -0.005281 0.039147 0.000000 0.000000 0.000000
# 4 0.000000 0.000000 0.000000 0.048137 0.000000 0.000000
# 5 0.000000 0.000000 0.000000 0.000000 0.054635 0.000000
# 6 0.000000 0.000000 0.000000 0.000000 0.000000 0.050638
#
#
# Mechanical properties :
#
#
# Convention : Reuss Voigt Hill
#
# Bulk Modulus (GPa) = 27.32825 47.18055 37.25440
# Shear Modulus (GPa) = 19.49645 23.16371 21.33008
#
# Velocity S-wave (km/s) = 3.30407 3.60143 3.45595
# Velocity P-wave (km/s) = 5.46425 6.61151 6.06507
#
# Compressibility (1/GPa) = 0.03659217
#
# Stress axis : x y z
#
# Youngs Moduli (GPa) = 64.95674 108.95477 25.54454
#
# Poissons Ratio (x) = 0.45897 0.10397
# Poissons Ratio (y) = 0.27363 0.13491
# Poissons Ratio (z) = 0.26439 0.57542
#
# Static dielectric constant tensor:
#      x y z
#    x 3.267310 0.000000 0.000000 
#    y 0.000000 3.858160 0.000000 
#    z 0.000000 0.000000 3.237390 
# 
# 
# High freq. dielectric constant tensor:
#      x y z
#    x 1.665140 0.000000 0.000000 
#    y 0.000000 1.690910 0.000000 
#    z 0.000000 0.000000 1.696140 
# 
# From -- ./inp_files/7542.got.cif
#   From: 2010.03.12/outbox.cif.g09.slc.cpg/sg55_4_cif.got.tgz:7542.got - 2010.04.16 15:19:21.
