data_PCOD8224747
_publ_section_title
;
Structure prediction by ZEFSAII (Michael W. Deem and Ramdas Pophale) SiO2 
 PCOD8224747
Probable space group: P B A M
;
_chemical_formula_sum "Si O2"
_cell_formula_units_Z 64
_cell_length_a 24.183767
_cell_length_b 15.450535
_cell_length_c 8.871351
_cell_angle_alpha 90.000000
_cell_angle_beta 90.000000
_cell_angle_gamma 90.000000
_cell_volume 3314.799272
_symmetry_space_group_name_H-M "P B A M"
_symmetry_group_IT_number 55
_symmetry_cell_setting 'orthorhombic'
loop_
_space_group_symop_operation_xyz
x,y,z
-x,-y,z
1/2+x,1/2-y,-z
1/2-x,1/2+y,-z
-x,-y,-z
x,y,-z
1/2-x,1/2+y,z
1/2+x,1/2-y,z
loop_
_atom_site_type_symbol
_atom_site_label
_atom_site_fract_x
_atom_site_fract_y
_atom_site_fract_z
Si Si1 0.628693 0.851435 0.822506
Si Si2 0.506494 0.903735 0.821525
Si Si3 0.121223 0.837178 0.172175
Si Si4 0.571396 0.249417 0.179337
Si Si5 0.235759 0.919842 0.172902
Si Si6 0.234726 0.593099 0.676023
Si Si7 0.302105 0.749120 0.178571
Si Si8 0.993182 0.096774 0.180110
O O1 0.566905 0.873349 0.773307
O O2 0.640731 0.754639 0.762830
O O3 0.671790 0.910204 0.733644
O O4 0.638498 0.865048 0.000000
O O5 0.461087 0.835513 0.757631
O O6 0.500000 0.000000 0.752694
O O7 0.499966 0.907137 0.000000
O O8 0.170529 0.904202 0.187616
O O9 0.065336 0.871660 0.249318
O O10 0.105181 0.818489 0.000000
O O11 0.634578 0.248179 0.237987
O O12 0.541332 0.337627 0.235991
O O13 0.570329 0.246890 0.000000
O O14 0.271491 0.837449 0.227758
O O15 0.243439 0.998590 0.285048
O O16 0.251331 0.943149 0.000000
O O17 0.237526 0.609515 0.500000
O O18 0.271183 0.666588 0.754683
O O19 0.299603 0.738857 0.000000
O O20 0.992599 0.093967 0.000000
O O21 0.000000 0.000000 0.245045
#
# Coordination Sequence:
#
# PCOD8224747 Si02
#       8
#     8   8   8   8   8   8   8   8
#     4  10  18  35  60  83 111 146 192 239 279 331
#     4   9  17  28  50  84 117 144 174 226 289 338
#     4   9  16  30  52  79 109 141 180 229 277 322
#     4   9  17  29  47  81 119 142 172 222 281 340
#     4  10  21  37  59  85 110 143 193 241 286 337
#     4  12  26  40  56  81 116 155 195 236 289 344
#     4  10  21  38  61  87 115 149 191 238 285 337
#     4   9  16  25  42  75 114 144 167 210 278 336
#
# _framework density 19.307352999999999
#
# number of rings (size 3 to 8) (size 9 to 14) (size 15 to 20)
#    0.000    2.250    2.500    1.125    3.500    0.500 
#    0.000    0.000    0.000    1.125    0.000    0.875 
#    0.000    0.000    0.000    0.000    0.000    0.000 
#
# Total GULP energy -793334.611415 kJ/mol
# GULP energy per Si atom -12395.853303 kJ/mol
# Density = 1.926341 g / cm^3
# Si number density = 19.307353 Si / 1000 Ang^3
#
#
#
# Elastic Constant Matrix: (Units=GPa)
#
#
# Indices 1 2 3 4 5 6 
#
# 1 129.3557 49.7981 24.5174 0.0000 0.0000 0.0000
# 2 49.7981 130.9628 25.1890 0.0000 0.0000 0.0000
# 3 24.5174 25.1890 29.4258 0.0000 0.0000 0.0000
# 4 0.0000 0.0000 0.0000 4.7425 0.0000 0.0000
# 5 0.0000 0.0000 0.0000 0.0000 1.4724 0.0000
# 6 0.0000 0.0000 0.0000 0.0000 0.0000 29.3236
#
#
#
# Elastic Compliance Matrix: (Units=1/GPa)
#
#
# Indices 1 2 3 4 5 6 
#
# 1 0.009868 -0.002599 -0.005997 0.000000 0.000000 0.000000
# 2 -0.002599 0.009825 -0.006245 0.000000 0.000000 0.000000
# 3 -0.005997 -0.006245 0.044327 0.000000 0.000000 0.000000
# 4 0.000000 0.000000 0.000000 0.210861 0.000000 0.000000
# 5 0.000000 0.000000 0.000000 0.000000 0.679154 0.000000
# 6 0.000000 0.000000 0.000000 0.000000 0.000000 0.034102
#
#
# Mechanical properties :
#
#
# Convention : Reuss Voigt Hill
#
# Bulk Modulus (GPa) = 29.12293 54.30592 41.71442
# Shear Modulus (GPa) = 4.85784 19.79036 12.32410
#
# Velocity S-wave (km/s) = 1.58793 3.20506 2.52922
# Velocity P-wave (km/s) = 4.29868 6.47184 5.49378
#
# Compressibility (1/GPa) = 0.03433721
#
# Stress axis : x y z
#
# Youngs Moduli (GPa) = 101.34059 101.78029 22.55981
#
# Poissons Ratio (x) = 0.26449 0.13530
# Poissons Ratio (y) = 0.26335 0.14089
# Poissons Ratio (z) = 0.60776 0.63564
#
# Static dielectric constant tensor:
#      x y z
#    x 3.745680 0.000000 0.000000 
#    y 0.000000 3.745480 0.000000 
#    z 0.000000 0.000000 2.855550 
# 
# 
# High freq. dielectric constant tensor:
#      x y z
#    x 1.769270 0.000000 0.000000 
#    y 0.000000 1.766150 0.000000 
#    z 0.000000 0.000000 1.675830 
# 
# From -- ./inp_files/9818.got.cif
#   From: 2010.03.12/outbox.cif.g09.slc.cpg/sg55_5_cif.got.tgz:9818.got - 2010.04.16 15:19:21.
