data_PCOD8224992
_publ_section_title
;
Structure prediction by ZEFSAII (Michael W. Deem and Ramdas Pophale) SiO2 
 PCOD8224992
Probable space group: P B A M
;
_chemical_formula_sum "Si O2"
_cell_formula_units_Z 40
_cell_length_a 25.542976
_cell_length_b 9.529538
_cell_length_c 9.344583
_cell_angle_alpha 90.000000
_cell_angle_beta 90.000000
_cell_angle_gamma 90.000000
_cell_volume 2274.590743
_symmetry_space_group_name_H-M "P B A M"
_symmetry_group_IT_number 55
_symmetry_cell_setting 'orthorhombic'
loop_
_space_group_symop_operation_xyz
x,y,z
-x,-y,z
1/2+x,1/2-y,-z
1/2-x,1/2+y,-z
-x,-y,-z
x,y,-z
1/2-x,1/2+y,z
1/2+x,1/2-y,z
loop_
_atom_site_type_symbol
_atom_site_label
_atom_site_fract_x
_atom_site_fract_y
_atom_site_fract_z
Si Si1 0.284276 0.001225 0.165163
Si Si2 0.558157 0.971180 0.333691
Si Si3 0.870833 0.274077 0.835335
Si Si4 0.144416 0.301110 0.667418
Si Si5 0.664321 0.466957 0.832646
O O1 0.305312 0.874420 0.261580
O O2 0.225173 0.032466 0.210028
O O3 0.317249 0.141814 0.194376
O O4 0.287719 0.952814 0.000000
O O5 0.557248 0.933788 0.500000
O O6 0.592737 0.108113 0.301504
O O7 0.500000 0.000000 0.275259
O O8 0.581291 0.835556 0.254981
O O9 0.861710 0.114166 0.789826
O O10 0.886812 0.286394 0.000000
O O11 0.155148 0.282856 0.500000
O O12 0.135001 0.150698 0.740075
O O13 0.657162 0.434601 0.000000
#
# Coordination Sequence:
#
# PCOD8224992 Si02
#       5
#     8   8   8   8   8
#     4   9  17  32  52  71  97 135 169 193 227 283
#     4   9  19  37  56  70  90 125 165 203 248 300
#     4   9  18  31  50  76  99 124 164 205 238 279
#     4  10  20  32  49  75 101 126 162 205 244 283
#     4  10  19  32  50  73 104 137 163 192 237 292
#
# _framework density 17.585581000000001
#
# number of rings (size 3 to 8) (size 9 to 14) (size 15 to 20)
#    0.000    2.600    0.000    1.800    0.000    6.000 
#    0.000    5.000    0.000    6.000    0.000    0.000 
#    0.000    0.000    0.000    0.000    0.000    0.000 
#
# Total GULP energy -496137.879664 kJ/mol
# GULP energy per Si atom -12403.446992 kJ/mol
# Density = 1.754556 g / cm^3
# Si number density = 17.585581 Si / 1000 Ang^3
#
#
#
# Elastic Constant Matrix: (Units=GPa)
#
#
# Indices 1 2 3 4 5 6 
#
# 1 95.9387 44.3337 42.5576 0.0000 0.0000 0.0000
# 2 44.3337 135.4482 62.6423 0.0000 0.0000 0.0000
# 3 42.5576 62.6423 70.2212 0.0000 0.0000 0.0000
# 4 0.0000 0.0000 0.0000 30.5649 0.0000 0.0000
# 5 0.0000 0.0000 0.0000 0.0000 25.1646 0.0000
# 6 0.0000 0.0000 0.0000 0.0000 0.0000 11.8228
#
#
#
# Elastic Compliance Matrix: (Units=1/GPa)
#
#
# Indices 1 2 3 4 5 6 
#
# 1 0.014360 -0.001150 -0.007678 0.000000 0.000000 0.000000
# 2 -0.001150 0.012660 -0.010597 0.000000 0.000000 0.000000
# 3 -0.007678 -0.010597 0.028347 0.000000 0.000000 0.000000
# 4 0.000000 0.000000 0.000000 0.032717 0.000000 0.000000
# 5 0.000000 0.000000 0.000000 0.000000 0.039738 0.000000
# 6 0.000000 0.000000 0.000000 0.000000 0.000000 0.084582
#
#
# Mechanical properties :
#
#
# Convention : Reuss Voigt Hill
#
# Bulk Modulus (GPa) = 60.53605 66.74170 63.63887
# Shear Modulus (GPa) = 19.47348 23.64879 21.56113
#
# Velocity S-wave (km/s) = 3.33130 3.67111 3.50533
# Velocity P-wave (km/s) = 7.02105 7.48360 7.25601
#
# Compressibility (1/GPa) = 0.01651908
#
# Stress axis : x y z
#
# Youngs Moduli (GPa) = 69.63681 78.98850 35.27713
#
# Poissons Ratio (x) = 0.09080 0.27084
# Poissons Ratio (y) = 0.08005 0.37383
# Poissons Ratio (z) = 0.53464 0.83704
#
# Static dielectric constant tensor:
#      x y z
#    x 3.171160 0.000000 0.000000 
#    y 0.000000 3.312860 0.000000 
#    z 0.000000 0.000000 3.221700 
# 
# 
# High freq. dielectric constant tensor:
#      x y z
#    x 1.664020 0.000000 0.000000 
#    y 0.000000 1.684230 0.000000 
#    z 0.000000 0.000000 1.676630 
# 
# From -- ./inp_files/2296.got.cif
#   From: 2010.03.12/outbox.cif.g09.slc.cpg/sg55_2_cif.got.tgz:2296.got - 2010.04.16 15:19:21.
