data_PCOD8224424
_publ_section_title
;
Structure prediction by ZEFSAII (Michael W. Deem and Ramdas Pophale) SiO2 
 PCOD8224424
Probable space group: P B A M
;
_chemical_formula_sum "Si O2"
_cell_formula_units_Z 64
_cell_length_a 24.864022
_cell_length_b 15.246079
_cell_length_c 8.844730
_cell_angle_alpha 90.000000
_cell_angle_beta 90.000000
_cell_angle_gamma 90.000000
_cell_volume 3352.850021
_symmetry_space_group_name_H-M "P B A M"
_symmetry_group_IT_number 55
_symmetry_cell_setting 'orthorhombic'
loop_
_space_group_symop_operation_xyz
x,y,z
-x,-y,z
1/2+x,1/2-y,-z
1/2-x,1/2+y,-z
-x,-y,-z
x,y,-z
1/2-x,1/2+y,z
1/2+x,1/2-y,z
loop_
_atom_site_type_symbol
_atom_site_label
_atom_site_fract_x
_atom_site_fract_y
_atom_site_fract_z
Si Si1 0.540060 0.196934 0.179522
Si Si2 0.577742 0.557597 0.321092
Si Si3 0.779595 0.477349 0.322739
Si Si4 0.692150 0.619938 0.678826
Si Si5 0.810178 0.301117 0.819793
Si Si6 0.384736 0.957297 0.174146
Si Si7 0.074383 0.644883 0.173053
Si Si8 0.964450 0.873999 0.321138
O O1 0.582793 0.125804 0.237901
O O2 0.480708 0.178284 0.250928
O O3 0.560570 0.290656 0.236950
O O4 0.537591 0.192303 0.000000
O O5 0.580304 0.554888 0.500000
O O6 0.632663 0.598158 0.256168
O O7 0.569681 0.457686 0.265017
O O8 0.526759 0.615418 0.269552
O O9 0.780449 0.458993 0.500000
O O10 0.729400 0.538118 0.275825
O O11 0.774950 0.383328 0.239350
O O12 0.832423 0.530708 0.275920
O O13 0.692329 0.635269 0.500000
O O14 0.712987 0.709347 0.757543
O O15 0.871408 0.312773 0.756137
O O16 0.807964 0.303054 0.000000
O O17 0.424117 0.040169 0.189795
O O18 0.366600 0.945520 0.000000
O O19 0.073051 0.673800 0.000000
O O20 0.960237 0.861506 0.500000
#
# Coordination Sequence:
#
# PCOD8224424 Si02
#       8
#     8   8   8   8   8   8   8   8
#     4  10  18  29  48  75 105 135 169 208 256 315
#     4   8  16  33  54  74  99 133 169 209 255 305
#     4  10  21  37  55  76 105 140 180 224 264 306
#     4  10  20  36  58  80 102 135 180 221 259 307
#     4  10  20  35  57  82 107 136 171 217 269 316
#     4   9  18  33  51  70 101 139 173 213 263 311
#     4   8  15  29  50  74  99 133 172 207 253 310
#     4   9  17  31  51  74 103 135 166 203 254 312
#
# _framework density 19.088236999999999
#
# number of rings (size 3 to 8) (size 9 to 14) (size 15 to 20)
#    0.000    2.750    0.000    3.375    0.000    3.000 
#    2.250    4.375    0.000    3.750    0.000    0.000 
#    0.000    0.000    0.000    0.000    0.000    0.000 
#
# Total GULP energy -793412.645822 kJ/mol
# GULP energy per Si atom -12397.072591 kJ/mol
# Density = 1.904479 g / cm^3
# Si number density = 19.088237 Si / 1000 Ang^3
#
#
#
# Elastic Constant Matrix: (Units=GPa)
#
#
# Indices 1 2 3 4 5 6 
#
# 1 64.4202 51.1689 24.6330 0.0000 0.0000 0.0000
# 2 51.1689 140.4469 35.2524 0.0000 0.0000 0.0000
# 3 24.6330 35.2524 36.7834 0.0000 0.0000 0.0000
# 4 0.0000 0.0000 0.0000 33.7680 0.0000 0.0000
# 5 0.0000 0.0000 0.0000 0.0000 19.2795 0.0000
# 6 0.0000 0.0000 0.0000 0.0000 0.0000 25.3010
#
#
#
# Elastic Compliance Matrix: (Units=1/GPa)
#
#
# Indices 1 2 3 4 5 6 
#
# 1 0.024508 -0.006333 -0.010343 0.000000 0.000000 0.000000
# 2 -0.006333 0.011012 -0.006313 0.000000 0.000000 0.000000
# 3 -0.010343 -0.006313 0.040163 0.000000 0.000000 0.000000
# 4 0.000000 0.000000 0.000000 0.029614 0.000000 0.000000
# 5 0.000000 0.000000 0.000000 0.000000 0.051869 0.000000
# 6 0.000000 0.000000 0.000000 0.000000 0.000000 0.039524
#
#
# Mechanical properties :
#
#
# Convention : Reuss Voigt Hill
#
# Bulk Modulus (GPa) = 33.66401 51.52880 42.59641
# Shear Modulus (GPa) = 19.79656 24.37609 22.08633
#
# Velocity S-wave (km/s) = 3.22391 3.57742 3.40526
# Velocity P-wave (km/s) = 5.61537 6.64211 6.15020
#
# Compressibility (1/GPa) = 0.02970531
#
# Stress axis : x y z
#
# Youngs Moduli (GPa) = 40.80225 90.81123 24.89869
#
# Poissons Ratio (x) = 0.57510 0.25754
# Poissons Ratio (y) = 0.25840 0.15717
# Poissons Ratio (z) = 0.42204 0.57325
#
# Static dielectric constant tensor:
#      x y z
#    x 3.614430 0.000000 0.000000 
#    y 0.000000 3.602510 0.000000 
#    z 0.000000 0.000000 3.114740 
# 
# 
# High freq. dielectric constant tensor:
#      x y z
#    x 1.728100 0.000000 0.000000 
#    y 0.000000 1.754150 0.000000 
#    z 0.000000 0.000000 1.710740 
# 
# From -- ./inp_files/9654.got.cif
#   From: 2010.03.12/outbox.cif.g09.slc.cpg/sg55_5_cif.got.tgz:9654.got - 2010.04.16 15:19:21.
