data_PCOD8224001
_publ_section_title
;
Structure prediction by ZEFSAII (Michael W. Deem and Ramdas Pophale) SiO2 
 PCOD8224001
Probable space group: P C C A
;
_chemical_formula_sum "Si O2"
_cell_formula_units_Z 60
_cell_length_a 9.342253
_cell_length_b 17.972860
_cell_length_c 16.719944
_cell_angle_alpha 90.000000
_cell_angle_beta 90.000000
_cell_angle_gamma 90.000000
_cell_volume 2807.395725
_symmetry_space_group_name_H-M "P C C A"
_symmetry_group_IT_number 54
_symmetry_cell_setting 'orthorhombic'
loop_
_space_group_symop_operation_xyz
x,y,z
1/2-x,-y,z
1/2+x,-y,1/2-z
-x,y,1/2-z
-x,-y,-z
1/2+x,y,-z
1/2-x,y,1/2+z
x,-y,1/2+z
loop_
_atom_site_type_symbol
_atom_site_label
_atom_site_fract_x
_atom_site_fract_y
_atom_site_fract_z
Si Si1 0.855317 0.932142 0.701611
Si Si2 0.996559 0.919579 0.535418
Si Si3 0.024354 0.350914 0.337924
Si Si4 0.500000 0.704307 0.750000
Si Si5 0.296688 0.328001 0.111600
Si Si6 0.377057 0.444680 0.978445
Si Si7 0.250168 0.219626 0.841932
Si Si8 0.767475 0.823627 0.475381
O O1 0.892863 0.930372 0.609387
O O2 0.779538 0.852331 0.714510
O O3 0.000000 0.942278 0.750000
O O4 0.750000 0.000000 0.723546
O O5 0.918251 0.865794 0.473033
O O6 0.147871 0.881672 0.557214
O O7 0.000000 0.000000 0.500000
O O8 0.112385 0.408994 0.390765
O O9 0.113161 0.274053 0.331543
O O10 0.000000 0.384356 0.250000
O O11 0.869792 0.344520 0.377894
O O12 0.608760 0.658044 0.807810
O O13 0.399780 0.749972 0.809948
O O14 0.295669 0.242245 0.086238
O O15 0.363101 0.379099 0.042926
O O16 0.250000 0.500000 0.977117
O O17 0.500000 0.500000 0.000000
O O18 0.227568 0.204702 0.935914
#
# Coordination Sequence:
#
# PCOD8224001 Si02
#       8
#     8   8   8   4   8   8   8   8
#     4  11  26  44  64  95 139 187 235 295 366 428
#     4  11  23  42  65  98 134 176 235 294 350 418
#     4  12  25  50  74 106 151 191 237 297 362 430
#     4  12  28  40  74 110 148 178 248 304 352 430
#     4  12  26  46  74 110 142 194 243 293 363 432
#     4  12  28  50  77 108 148 190 238 293 360 442
#     4  11  24  45  69 105 142 187 242 300 355 430
#     4  11  23  41  72  97 134 189 236 290 353 426
#
# _framework density 21.372119000000001
#
# number of rings (size 3 to 8) (size 9 to 14) (size 15 to 20)
#    0.000    0.533    4.000    4.800    6.533    1.067 
#    3.600    0.000    0.000    0.000    0.000    0.000 
#    0.000    0.000    0.000    0.000    0.000    0.000 
#
# Total GULP energy -743730.630859 kJ/mol
# GULP energy per Si atom -12395.510514 kJ/mol
# Density = 2.132348 g / cm^3
# Si number density = 21.372119 Si / 1000 Ang^3
#
#
#
# Elastic Constant Matrix: (Units=GPa)
#
#
# Indices 1 2 3 4 5 6 
#
# 1 84.2893 8.5016 -5.8016 0.0000 0.0000 0.0000
# 2 8.5016 95.2413 15.5110 0.0000 0.0000 0.0000
# 3 -5.8016 15.5110 68.2857 0.0000 0.0000 0.0000
# 4 0.0000 0.0000 0.0000 17.2254 0.0000 0.0000
# 5 0.0000 0.0000 0.0000 0.0000 41.4795 0.0000
# 6 0.0000 0.0000 0.0000 0.0000 0.0000 12.0346
#
#
#
# Elastic Compliance Matrix: (Units=1/GPa)
#
#
# Indices 1 2 3 4 5 6 
#
# 1 0.012085 -0.001294 0.001321 0.000000 0.000000 0.000000
# 2 -0.001294 0.011042 -0.002618 0.000000 0.000000 0.000000
# 3 0.001321 -0.002618 0.015351 0.000000 0.000000 0.000000
# 4 0.000000 0.000000 0.000000 0.058054 0.000000 0.000000
# 5 0.000000 0.000000 0.000000 0.000000 0.024108 0.000000
# 6 0.000000 0.000000 0.000000 0.000000 0.000000 0.083094
#
#
# Mechanical properties :
#
#
# Convention : Reuss Voigt Hill
#
# Bulk Modulus (GPa) = 30.03391 31.58202 30.80796
# Shear Modulus (GPa) = 22.72574 29.45491 26.09032
#
# Velocity S-wave (km/s) = 3.26442 3.71643 3.49773
# Velocity P-wave (km/s) = 5.31902 5.76412 5.54604
#
# Compressibility (1/GPa) = 0.03329570
#
# Stress axis : x y z
#
# Youngs Moduli (GPa) = 82.74510 90.56730 65.14134
#
# Poissons Ratio (x) = 0.11718 -0.08603
# Poissons Ratio (y) = 0.10706 0.17054
# Poissons Ratio (z) = -0.10928 0.23710
#
# Static dielectric constant tensor:
#      x y z
#    x 4.177740 0.000000 0.000000 
#    y 0.000000 3.900670 0.000000 
#    z 0.000000 0.000000 3.960390 
# 
# 
# High freq. dielectric constant tensor:
#      x y z
#    x 1.861770 0.000000 0.000000 
#    y 0.000000 1.837640 0.000000 
#    z 0.000000 0.000000 1.842190 
# 
# From -- ./inp_files/16822.got.cif
#   From: 2010.03.12/outbox.cif.g09.slc.cpg/sg54_9_cif.got.tgz:16822.got - 2010.04.16 15:00:50.
