data_PCOD8224288
_publ_section_title
;
Structure prediction by ZEFSAII (Michael W. Deem and Ramdas Pophale) SiO2 
 PCOD8224288
Probable space group: P B A M
;
_chemical_formula_sum "Si O2"
_cell_formula_units_Z 64
_cell_length_a 26.621052
_cell_length_b 18.515433
_cell_length_c 8.650002
_cell_angle_alpha 90.000000
_cell_angle_beta 90.000000
_cell_angle_gamma 90.000000
_cell_volume 4263.588621
_symmetry_space_group_name_H-M "P B A M"
_symmetry_group_IT_number 55
_symmetry_cell_setting 'orthorhombic'
loop_
_space_group_symop_operation_xyz
x,y,z
-x,-y,z
1/2+x,1/2-y,-z
1/2-x,1/2+y,-z
-x,-y,-z
x,y,-z
1/2-x,1/2+y,z
1/2+x,1/2-y,z
loop_
_atom_site_type_symbol
_atom_site_label
_atom_site_fract_x
_atom_site_fract_y
_atom_site_fract_z
Si Si1 0.799005 0.296032 0.682295
Si Si2 0.296899 0.782721 0.818351
Si Si3 0.558416 0.418318 0.816943
Si Si4 0.650208 0.338792 0.681507
Si Si5 0.445737 0.419053 0.817381
Si Si6 0.745114 0.420623 0.816405
Si Si7 0.146785 0.828265 0.183936
Si Si8 0.258433 0.418564 0.180850
O O1 0.801859 0.299756 0.500000
O O2 0.750502 0.254182 0.740034
O O3 0.793251 0.377232 0.748998
O O4 0.847438 0.252686 0.746949
O O5 0.345448 0.744915 0.740685
O O6 0.291133 0.868765 0.785837
O O7 0.296335 0.766366 0.000000
O O8 0.595143 0.365855 0.724880
O O9 0.501811 0.395645 0.768702
O O10 0.567677 0.500349 0.759364
O O11 0.567308 0.410342 0.000000
O O12 0.659029 0.342263 0.500000
O O13 0.691962 0.387724 0.764516
O O14 0.405497 0.361513 0.753090
O O15 0.442779 0.422269 0.000000
O O16 0.748980 0.502007 0.747780
O O17 0.747943 0.419207 0.000000
O O18 0.191531 0.879879 0.246993
O O19 0.147991 0.822334 0.000000
O O20 0.266955 0.427441 0.000000
#
# Coordination Sequence:
#
# PCOD8224288 Si02
#       8
#     8   8   8   8   8   8   8   8
#     4  10  18  27  37  56  82 107 133 163 195 236
#     4   9  16  29  44  57  74 102 135 169 201 234
#     4   9  16  29  45  61  79 105 137 173 207 235
#     4  11  20  28  38  58  84 111 138 165 196 239
#     4   8  15  27  46  64  78 100 140 179 203 230
#     4  10  17  28  44  60  78 105 136 169 202 237
#     4   9  15  27  43  59  78 105 136 167 198 234
#     4   8  15  25  42  63  79  97 131 169 202 235
#
# _framework density 15.010828999999999
#
# number of rings (size 3 to 8) (size 9 to 14) (size 15 to 20)
#    0.000    2.750    0.000    6.750    0.000    2.000 
#    0.000   11.250    0.000    0.000    0.000    0.000 
#    0.000    1.000    0.000   11.500    0.000    4.500 
#
# Total GULP energy -793013.244068 kJ/mol
# GULP energy per Si atom -12390.831939 kJ/mol
# Density = 1.497666 g / cm^3
# Si number density = 15.010829 Si / 1000 Ang^3
#
#
#
# Elastic Constant Matrix: (Units=GPa)
#
#
# Indices 1 2 3 4 5 6 
#
# 1 85.3208 57.4111 23.5910 0.0000 0.0000 0.0000
# 2 57.4111 111.6879 28.8123 0.0000 0.0000 0.0000
# 3 23.5910 28.8123 61.3255 0.0000 0.0000 0.0000
# 4 0.0000 0.0000 0.0000 1.0688 0.0000 0.0000
# 5 0.0000 0.0000 0.0000 0.0000 9.0202 0.0000
# 6 0.0000 0.0000 0.0000 0.0000 0.0000 29.6641
#
#
#
# Elastic Compliance Matrix: (Units=1/GPa)
#
#
# Indices 1 2 3 4 5 6 
#
# 1 0.018389 -0.008680 -0.002996 0.000000 0.000000 0.000000
# 2 -0.008680 0.014285 -0.003373 0.000000 0.000000 0.000000
# 3 -0.002996 -0.003373 0.019044 0.000000 0.000000 0.000000
# 4 0.000000 0.000000 0.000000 0.935589 0.000000 0.000000
# 5 0.000000 0.000000 0.000000 0.000000 0.110863 0.000000
# 6 0.000000 0.000000 0.000000 0.000000 0.000000 0.033711
#
#
# Mechanical properties :
#
#
# Convention : Reuss Voigt Hill
#
# Bulk Modulus (GPa) = 46.25109 53.10701 49.67905
# Shear Modulus (GPa) = 4.27648 17.85195 11.06422
#
# Velocity S-wave (km/s) = 1.68971 3.45232 2.71787
# Velocity P-wave (km/s) = 5.88944 7.16570 6.55869
#
# Compressibility (1/GPa) = 0.02162111
#
# Stress axis : x y z
#
# Youngs Moduli (GPa) = 54.37919 70.00232 52.51133
#
# Poissons Ratio (x) = 0.60761 0.15733
# Poissons Ratio (y) = 0.47200 0.17710
# Poissons Ratio (z) = 0.16293 0.23609
#
# Static dielectric constant tensor:
#      x y z
#    x 2.957050 0.000000 0.000000 
#    y 0.000000 3.404310 0.000000 
#    z 0.000000 0.000000 2.736850 
# 
# 
# High freq. dielectric constant tensor:
#      x y z
#    x 1.540460 0.000000 0.000000 
#    y 0.000000 1.568900 0.000000 
#    z 0.000000 0.000000 1.564420 
# 
# From -- ./inp_files/10309.got.cif
#   From: 2010.03.12/outbox.cif.g09.slc.cpg/sg55_6_cif.got.tgz:10309.got - 2010.04.16 15:19:21.
