data_PCOD8224582
_publ_section_title
;
Structure prediction by ZEFSAII (Michael W. Deem and Ramdas Pophale) SiO2 
 PCOD8224582
Probable space group: P B A M
;
_chemical_formula_sum "Si O2"
_cell_formula_units_Z 64
_cell_length_a 23.226767
_cell_length_b 16.620337
_cell_length_c 8.987826
_cell_angle_alpha 90.000000
_cell_angle_beta 90.000000
_cell_angle_gamma 90.000000
_cell_volume 3469.630644
_symmetry_space_group_name_H-M "P B A M"
_symmetry_group_IT_number 55
_symmetry_cell_setting 'orthorhombic'
loop_
_space_group_symop_operation_xyz
x,y,z
-x,-y,z
1/2+x,1/2-y,-z
1/2-x,1/2+y,-z
-x,-y,-z
x,y,-z
1/2-x,1/2+y,z
1/2+x,1/2-y,z
loop_
_atom_site_type_symbol
_atom_site_label
_atom_site_fract_x
_atom_site_fract_y
_atom_site_fract_z
Si Si1 0.754869 0.894883 0.666036
Si Si2 0.045443 0.768835 0.170820
Si Si3 0.368395 0.680979 0.335867
Si Si4 0.854190 0.971331 0.824048
Si Si5 0.361758 0.140569 0.175888
Si Si6 0.427176 0.815122 0.832364
Si Si7 0.048981 0.935780 0.324236
Si Si8 0.562765 0.004007 0.826507
O O1 0.738691 0.925489 0.500000
O O2 0.798884 0.819496 0.656003
O O3 0.789054 0.966688 0.754956
O O4 0.700372 0.859690 0.750337
O O5 0.103947 0.722272 0.217759
O O6 0.032189 0.845750 0.273532
O O7 0.994408 0.704094 0.192388
O O8 0.049211 0.797651 0.000000
O O9 0.394707 0.663663 0.500000
O O10 0.389251 0.609866 0.224118
O O11 0.387726 0.767149 0.280805
O O12 0.890212 0.045086 0.755999
O O13 0.850158 0.980033 0.000000
O O14 0.395041 0.062798 0.242215
O O15 0.353692 0.134024 0.000000
O O16 0.412280 0.907497 0.799291
O O17 0.409372 0.792551 0.000000
O O18 0.058339 0.937446 0.500000
O O19 0.000000 0.000000 0.275831
O O20 0.500000 0.000000 0.750088
O O21 0.555751 0.983694 0.000000
#
# Coordination Sequence:
#
# PCOD8224582 Si02
#       8
#     8   8   8   8   8   8   8   8
#     4   9  20  37  57  79 111 154 190 227 280 336
#     4  10  21  34  53  84 115 147 187 233 280 333
#     4   9  19  34  53  78 111 146 181 225 275 331
#     4  10  19  35  59  82 106 140 187 236 277 327
#     4  10  19  35  59  84 112 149 192 232 276 332
#     4  10  18  31  55  84 112 145 187 231 279 329
#     4  11  23  37  54  81 117 154 186 225 284 347
#     4   9  16  31  55  83 115 146 181 231 283 328
#
# _framework density 18.445768000000001
#
# number of rings (size 3 to 8) (size 9 to 14) (size 15 to 20)
#    0.750    1.500    1.250    2.625    0.000    4.000 
#    0.000    1.875    0.000    5.250    0.000    0.000 
#    0.000    0.000    0.000    0.000    0.000    0.000 
#
# Total GULP energy -793158.663160 kJ/mol
# GULP energy per Si atom -12393.104112 kJ/mol
# Density = 1.840378 g / cm^3
# Si number density = 18.445768 Si / 1000 Ang^3
#
#
#
# Elastic Constant Matrix: (Units=GPa)
#
#
# Indices 1 2 3 4 5 6 
#
# 1 73.6981 26.2138 32.0784 0.0000 0.0000 0.0000
# 2 26.2138 73.7105 35.4075 0.0000 0.0000 0.0000
# 3 32.0784 35.4075 88.8698 0.0000 0.0000 0.0000
# 4 0.0000 0.0000 0.0000 14.8488 0.0000 0.0000
# 5 0.0000 0.0000 0.0000 0.0000 19.8877 0.0000
# 6 0.0000 0.0000 0.0000 0.0000 0.0000 29.7856
#
#
#
# Elastic Compliance Matrix: (Units=1/GPa)
#
#
# Indices 1 2 3 4 5 6 
#
# 1 0.016923 -0.003814 -0.004589 0.000000 0.000000 0.000000
# 2 -0.003814 0.017637 -0.005650 0.000000 0.000000 0.000000
# 3 -0.004589 -0.005650 0.015160 0.000000 0.000000 0.000000
# 4 0.000000 0.000000 0.000000 0.067346 0.000000 0.000000
# 5 0.000000 0.000000 0.000000 0.000000 0.050282 0.000000
# 6 0.000000 0.000000 0.000000 0.000000 0.000000 0.033573
#
#
# Mechanical properties :
#
#
# Convention : Reuss Voigt Hill
#
# Bulk Modulus (GPa) = 46.26705 47.07531 46.67118
# Shear Modulus (GPa) = 21.16563 22.40968 21.78765
#
# Velocity S-wave (km/s) = 3.39108 3.48932 3.44055
# Velocity P-wave (km/s) = 6.36159 6.46607 6.41404
#
# Compressibility (1/GPa) = 0.02161365
#
# Stress axis : x y z
#
# Youngs Moduli (GPa) = 59.09163 56.69861 65.96307
#
# Poissons Ratio (x) = 0.21625 0.30270
# Poissons Ratio (y) = 0.22538 0.37271
# Poissons Ratio (z) = 0.27116 0.32036
#
# Static dielectric constant tensor:
#      x y z
#    x 3.293460 0.000000 0.000000 
#    y 0.000000 3.226240 0.000000 
#    z 0.000000 0.000000 3.244720 
# 
# 
# High freq. dielectric constant tensor:
#      x y z
#    x 1.706240 0.000000 0.000000 
#    y 0.000000 1.701250 0.000000 
#    z 0.000000 0.000000 1.705280 
# 
# From -- ./inp_files/9874.got.cif
#   From: 2010.03.12/outbox.cif.g09.slc.cpg/sg55_5_cif.got.tgz:9874.got - 2010.04.16 15:19:21.
