data_PCOD8224542
_publ_section_title
;
Structure prediction by ZEFSAII (Michael W. Deem and Ramdas Pophale) SiO2 
 PCOD8224542
Probable space group: P B A M
;
_chemical_formula_sum "Si O2"
_cell_formula_units_Z 56
_cell_length_a 13.571853
_cell_length_b 24.040583
_cell_length_c 9.076169
_cell_angle_alpha 90.000000
_cell_angle_beta 90.000000
_cell_angle_gamma 90.000000
_cell_volume 2961.329387
_symmetry_space_group_name_H-M "P B A M"
_symmetry_group_IT_number 55
_symmetry_cell_setting 'orthorhombic'
loop_
_space_group_symop_operation_xyz
x,y,z
-x,-y,z
1/2+x,1/2-y,-z
1/2-x,1/2+y,-z
-x,-y,-z
x,y,-z
1/2-x,1/2+y,z
1/2+x,1/2-y,z
loop_
_atom_site_type_symbol
_atom_site_label
_atom_site_fract_x
_atom_site_fract_y
_atom_site_fract_z
Si Si1 0.386017 0.880018 0.171819
Si Si2 0.287952 0.437147 0.330124
Si Si3 0.729258 0.440779 0.327040
Si Si4 0.095597 0.829664 0.328943
Si Si5 0.128488 0.169503 0.324924
Si Si6 0.951682 0.441795 0.674129
Si Si7 0.269904 0.770753 0.827492
O O1 0.305669 0.922974 0.231631
O O2 0.489652 0.890771 0.251693
O O3 0.351690 0.817398 0.207373
O O4 0.398617 0.890237 0.000000
O O5 0.252651 0.434918 0.500000
O O6 0.321717 0.499848 0.288399
O O7 0.376973 0.394444 0.301347
O O8 0.735477 0.432785 0.500000
O O9 0.663751 0.390517 0.263140
O O10 0.840460 0.439193 0.264526
O O11 0.109246 0.814333 0.500000
O O12 0.163906 0.789266 0.233815
O O13 0.984040 0.821249 0.275404
O O14 0.138052 0.173670 0.500000
O O15 0.198366 0.214860 0.252358
O O16 0.956820 0.434017 0.500000
O O17 0.000000 0.500000 0.723034
O O18 0.258695 0.759921 0.000000
#
# Coordination Sequence:
#
# PCOD8224542 Si02
#       7
#     8   8   8   8   8   8   8
#     4  10  20  33  51  77 106 139 181 227 267 309
#     4   9  16  32  55  78 106 140 176 212 264 329
#     4   9  18  32  52  79 111 141 174 218 266 322
#     4   9  19  35  59  84 106 138 178 223 271 321
#     4  10  21  37  56  83 113 139 177 228 276 320
#     4  10  18  31  52  78 109 145 177 211 267 329
#     4  10  22  39  57  77 106 146 188 226 267 322
#
# _framework density 18.910425
#
# number of rings (size 3 to 8) (size 9 to 14) (size 15 to 20)
#    0.000    2.429    1.429    0.857    0.000    4.286 
#    0.000    8.571    0.000    0.000    0.000    5.000 
#    0.000    0.000    0.000    0.000    0.000    0.000 
#
# Total GULP energy -694380.365939 kJ/mol
# GULP energy per Si atom -12399.649392 kJ/mol
# Density = 1.886738 g / cm^3
# Si number density = 18.910425 Si / 1000 Ang^3
#
#
#
# Elastic Constant Matrix: (Units=GPa)
#
#
# Indices 1 2 3 4 5 6 
#
# 1 109.7617 56.3954 30.6872 0.0000 0.0000 0.0000
# 2 56.3954 127.3782 32.0354 0.0000 0.0000 0.0000
# 3 30.6872 32.0354 38.4804 0.0000 0.0000 0.0000
# 4 0.0000 0.0000 0.0000 17.9016 0.0000 0.0000
# 5 0.0000 0.0000 0.0000 0.0000 13.1796 0.0000
# 6 0.0000 0.0000 0.0000 0.0000 0.0000 26.5986
#
#
#
# Elastic Compliance Matrix: (Units=1/GPa)
#
#
# Indices 1 2 3 4 5 6 
#
# 1 0.013186 -0.004039 -0.007153 0.000000 0.000000 0.000000
# 2 -0.004039 0.011167 -0.006076 0.000000 0.000000 0.000000
# 3 -0.007153 -0.006076 0.036749 0.000000 0.000000 0.000000
# 4 0.000000 0.000000 0.000000 0.055861 0.000000 0.000000
# 5 0.000000 0.000000 0.000000 0.000000 0.075875 0.000000
# 6 0.000000 0.000000 0.000000 0.000000 0.000000 0.037596
#
#
# Mechanical properties :
#
#
# Convention : Reuss Voigt Hill
#
# Bulk Modulus (GPa) = 37.64019 57.09514 47.36766
# Shear Modulus (GPa) = 18.25993 21.96945 20.11469
#
# Velocity S-wave (km/s) = 3.11078 3.41216 3.26495
# Velocity P-wave (km/s) = 5.73152 6.76622 6.27025
#
# Compressibility (1/GPa) = 0.02656735
#
# Stress axis : x y z
#
# Youngs Moduli (GPa) = 75.84039 89.55109 27.21130
#
# Poissons Ratio (x) = 0.36169 0.19464
# Poissons Ratio (y) = 0.30631 0.16532
# Poissons Ratio (z) = 0.54247 0.54408
#
# Static dielectric constant tensor:
#      x y z
#    x 3.514950 0.000000 0.000000 
#    y 0.000000 3.587280 0.000000 
#    z 0.000000 0.000000 3.232080 
# 
# 
# High freq. dielectric constant tensor:
#      x y z
#    x 1.730200 0.000000 0.000000 
#    y 0.000000 1.739190 0.000000 
#    z 0.000000 0.000000 1.710610 
# 
# From -- ./inp_files/6165.got.cif
#   From: 2010.03.12/outbox.cif.g09.slc.cpg/sg55_4_cif.got.tgz:6165.got - 2010.04.16 15:19:21.
