data_PCOD8224601
_publ_section_title
;
Structure prediction by ZEFSAII (Michael W. Deem and Ramdas Pophale) SiO2 
 PCOD8224601
Probable space group: P B A M
;
_chemical_formula_sum "Si O2"
_cell_formula_units_Z 48
_cell_length_a 24.836718
_cell_length_b 8.380622
_cell_length_c 12.812399
_cell_angle_alpha 90.000000
_cell_angle_beta 90.000000
_cell_angle_gamma 90.000000
_cell_volume 2666.864276
_symmetry_space_group_name_H-M "P B A M"
_symmetry_group_IT_number 55
_symmetry_cell_setting 'orthorhombic'
loop_
_space_group_symop_operation_xyz
x,y,z
-x,-y,z
1/2+x,1/2-y,-z
1/2-x,1/2+y,-z
-x,-y,-z
x,y,-z
1/2-x,1/2+y,z
1/2+x,1/2-y,z
loop_
_atom_site_type_symbol
_atom_site_label
_atom_site_fract_x
_atom_site_fract_y
_atom_site_fract_z
Si Si1 0.373141 0.885404 0.880882
Si Si2 0.821932 0.216327 0.500000
Si Si3 0.012215 0.329492 0.123412
Si Si4 0.399624 0.257707 0.118961
Si Si5 0.704389 0.087501 0.500000
Si Si6 0.204999 0.257658 0.711950
Si Si7 0.822005 0.110380 0.713842
O O1 0.426399 0.781291 0.845536
O O2 0.323279 0.840375 0.809601
O O3 0.385927 0.071894 0.868769
O O4 0.357304 0.845589 0.000000
O O5 0.768285 0.108168 0.500000
O O6 0.809404 0.402400 0.500000
O O7 0.852567 0.165198 0.606493
O O8 0.000000 0.500000 0.176580
O O9 0.962631 0.211295 0.152987
O O10 0.011438 0.352392 0.000000
O O11 0.361786 0.365310 0.190035
O O12 0.390408 0.313625 0.000000
O O13 0.680954 0.168392 0.395137
O O14 0.268826 0.281125 0.724956
O O15 0.195008 0.071348 0.710565
#
# Coordination Sequence:
#
# PCOD8224601 Si02
#       7
#     8   4   8   8   4   8   8
#     4   9  17  31  51  74  99 128 162 198 237 283
#     4  10  18  32  52  71  92 121 160 200 238 282
#     4   7  12  26  49  72  93 122 161 199 233 277
#     4   9  17  31  51  74  99 128 162 198 237 283
#     4  10  18  32  52  71  92 121 160 200 238 282
#     4  11  21  33  49  71  99 129 161 197 240 286
#     4  11  21  33  49  71  99 129 161 197 240 286
#
# _framework density 17.998667000000001
#
# number of rings (size 3 to 8) (size 9 to 14) (size 15 to 20)
#    0.000    2.500    0.000    8.500    0.000    1.333 
#    0.000    0.833    0.000    4.000    0.000    7.000 
#    0.000    0.000    0.000    0.000    0.000    0.000 
#
# Total GULP energy -594685.939674 kJ/mol
# GULP energy per Si atom -12389.290410 kJ/mol
# Density = 1.795770 g / cm^3
# Si number density = 17.998667 Si / 1000 Ang^3
#
#
#
# Elastic Constant Matrix: (Units=GPa)
#
#
# Indices 1 2 3 4 5 6 
#
# 1 45.2112 -12.9038 30.3927 0.0000 0.0000 0.0000
# 2 -12.9038 37.2019 11.5704 0.0000 0.0000 0.0000
# 3 30.3927 11.5704 98.9558 0.0000 0.0000 0.0000
# 4 0.0000 0.0000 0.0000 23.2738 0.0000 0.0000
# 5 0.0000 0.0000 0.0000 0.0000 1.7684 0.0000
# 6 0.0000 0.0000 0.0000 0.0000 0.0000 12.9141
#
#
#
# Elastic Compliance Matrix: (Units=1/GPa)
#
#
# Indices 1 2 3 4 5 6 
#
# 1 0.035309 0.016210 -0.012740 0.000000 0.000000 0.000000
# 2 0.016210 0.035336 -0.009110 0.000000 0.000000 0.000000
# 3 -0.012740 -0.009110 0.015084 0.000000 0.000000 0.000000
# 4 0.000000 0.000000 0.000000 0.042967 0.000000 0.000000
# 5 0.000000 0.000000 0.000000 0.000000 0.565492 0.000000
# 6 0.000000 0.000000 0.000000 0.000000 0.000000 0.077435
#
#
# Mechanical properties :
#
#
# Convention : Reuss Voigt Hill
#
# Bulk Modulus (GPa) = 13.43225 26.60974 20.02099
# Shear Modulus (GPa) = 6.19027 17.74521 11.96774
#
# Velocity S-wave (km/s) = 1.85654 3.14334 2.58141
# Velocity P-wave (km/s) = 3.47488 5.29060 4.47578
#
# Compressibility (1/GPa) = 0.07444769
#
# Stress axis : x y z
#
# Youngs Moduli (GPa) = 28.32131 28.29964 66.29711
#
# Poissons Ratio (x) = -0.45872 0.84462
# Poissons Ratio (y) = -0.45908 0.60398
# Poissons Ratio (z) = 0.36081 0.25782
#
# Static dielectric constant tensor:
#      x y z
#    x 3.566330 0.000000 0.000000 
#    y 0.000000 3.131280 0.000000 
#    z 0.000000 0.000000 3.592940 
# 
# 
# High freq. dielectric constant tensor:
#      x y z
#    x 1.675270 0.000000 0.000000 
#    y 0.000000 1.689120 0.000000 
#    z 0.000000 0.000000 1.687680 
# 
# From -- ./inp_files/15632.got.cif
#   From: 2010.03.12/outbox.cif.g09.slc.cpg/sg55_8_cif.got.tgz:15632.got - 2010.04.16 15:19:21.
