data_PCOD8225958
_publ_section_title
;
Structure prediction by ZEFSAII (Michael W. Deem and Ramdas Pophale) SiO2 
 PCOD8225958
Probable space group: P B A M
;
_chemical_formula_sum "Si O2"
_cell_formula_units_Z 40
_cell_length_a 12.418443
_cell_length_b 20.880040
_cell_length_c 8.752468
_cell_angle_alpha 90.000000
_cell_angle_beta 90.000000
_cell_angle_gamma 90.000000
_cell_volume 2269.493829
_symmetry_space_group_name_H-M "P B A M"
_symmetry_group_IT_number 55
_symmetry_cell_setting 'orthorhombic'
loop_
_space_group_symop_operation_xyz
x,y,z
-x,-y,z
1/2+x,1/2-y,-z
1/2-x,1/2+y,-z
-x,-y,-z
x,y,-z
1/2-x,1/2+y,z
1/2+x,1/2-y,z
loop_
_atom_site_type_symbol
_atom_site_label
_atom_site_fract_x
_atom_site_fract_y
_atom_site_fract_z
Si Si1 0.337434 0.662054 0.177929
Si Si2 0.183929 0.840528 0.178343
Si Si3 0.506832 0.574468 0.322587
Si Si4 0.610343 0.203565 0.678263
Si Si5 0.896441 0.299958 0.824359
O O1 0.394568 0.606018 0.271665
O O2 0.381212 0.730694 0.228705
O O3 0.209476 0.657415 0.208345
O O4 0.365356 0.654335 0.000000
O O5 0.296815 0.845545 0.268975
O O6 0.127398 0.773573 0.219447
O O7 0.106992 0.897835 0.228661
O O8 0.209427 0.845562 0.000000
O O9 0.500000 0.500000 0.285456
O O10 0.526176 0.588340 0.500000
O O11 0.620385 0.217317 0.500000
O O12 0.493388 0.173892 0.718909
O O13 0.931022 0.305683 0.000000
#
# Coordination Sequence:
#
# PCOD8225958 Si02
#       5
#     8   8   8   8   8
#     4  10  20  34  52  75 105 141 180 217 259 314
#     4  10  20  34  53  75 105 141 179 217 259 316
#     4  11  23  37  54  78 109 141 177 222 267 314
#     4  11  20  30  51  79 110 139 169 216 270 318
#     4   9  18  32  51  76 106 137 172 216 264 314
#
# _framework density 17.625077000000001
#
# number of rings (size 3 to 8) (size 9 to 14) (size 15 to 20)
#    0.000    1.800    2.000    4.800    0.000    5.600 
#    0.000    0.000    0.000    1.200    0.000    8.400 
#    0.000    0.000    0.000    0.000    0.000    0.000 
#
# Total GULP energy -496113.039115 kJ/mol
# GULP energy per Si atom -12402.825978 kJ/mol
# Density = 1.758496 g / cm^3
# Si number density = 17.625077 Si / 1000 Ang^3
#
#
#
# Elastic Constant Matrix: (Units=GPa)
#
#
# Indices 1 2 3 4 5 6 
#
# 1 123.0607 33.1307 30.3814 0.0000 0.0000 0.0000
# 2 33.1307 62.7605 17.7067 0.0000 0.0000 0.0000
# 3 30.3814 17.7067 43.9316 0.0000 0.0000 0.0000
# 4 0.0000 0.0000 0.0000 22.1795 0.0000 0.0000
# 5 0.0000 0.0000 0.0000 0.0000 28.8180 0.0000
# 6 0.0000 0.0000 0.0000 0.0000 0.0000 19.8305
#
#
#
# Elastic Compliance Matrix: (Units=1/GPa)
#
#
# Indices 1 2 3 4 5 6 
#
# 1 0.010615 -0.003986 -0.005734 0.000000 0.000000 0.000000
# 2 -0.003986 0.019474 -0.005093 0.000000 0.000000 0.000000
# 3 -0.005734 -0.005093 0.028781 0.000000 0.000000 0.000000
# 4 0.000000 0.000000 0.000000 0.045087 0.000000 0.000000
# 5 0.000000 0.000000 0.000000 0.000000 0.034701 0.000000
# 6 0.000000 0.000000 0.000000 0.000000 0.000000 0.050427
#
#
# Mechanical properties :
#
#
# Convention : Reuss Voigt Hill
#
# Bulk Modulus (GPa) = 34.19450 43.57672 38.88561
# Shear Modulus (GPa) = 21.88578 24.06786 22.97682
#
# Velocity S-wave (km/s) = 3.52766 3.69934 3.61452
# Velocity P-wave (km/s) = 6.00297 6.55933 6.28731
#
# Compressibility (1/GPa) = 0.02924447
#
# Stress axis : x y z
#
# Youngs Moduli (GPa) = 94.20814 51.34941 34.74512
#
# Poissons Ratio (x) = 0.20466 0.19924
# Poissons Ratio (y) = 0.37548 0.17695
# Poissons Ratio (z) = 0.54022 0.26152
#
# Static dielectric constant tensor:
#      x y z
#    x 3.617340 0.000000 0.000000 
#    y 0.000000 2.874450 0.000000 
#    z 0.000000 0.000000 3.295860 
# 
# 
# High freq. dielectric constant tensor:
#      x y z
#    x 1.699290 0.000000 0.000000 
#    y 0.000000 1.627580 0.000000 
#    z 0.000000 0.000000 1.694550 
# 
# From -- ./inp_files/3629.got.cif
#   From: 2010.03.12/outbox.cif.g09.slc.cpg/sg55_2_cif.got.tgz:3629.got - 2010.04.16 15:19:21.
