data_PCOD8225136
_publ_section_title
;
Structure prediction by ZEFSAII (Michael W. Deem and Ramdas Pophale) SiO2 
 PCOD8225136
Probable space group: P B A M
;
_chemical_formula_sum "Si O2"
_cell_formula_units_Z 64
_cell_length_a 15.299710
_cell_length_b 24.911759
_cell_length_c 8.566534
_cell_angle_alpha 90.000000
_cell_angle_beta 90.000000
_cell_angle_gamma 90.000000
_cell_volume 3265.071798
_symmetry_space_group_name_H-M "P B A M"
_symmetry_group_IT_number 55
_symmetry_cell_setting 'orthorhombic'
loop_
_space_group_symop_operation_xyz
x,y,z
-x,-y,z
1/2+x,1/2-y,-z
1/2-x,1/2+y,-z
-x,-y,-z
x,y,-z
1/2-x,1/2+y,z
1/2+x,1/2-y,z
loop_
_atom_site_type_symbol
_atom_site_label
_atom_site_fract_x
_atom_site_fract_y
_atom_site_fract_z
Si Si1 0.172225 0.143109 0.818244
Si Si2 0.817050 0.434568 0.315514
Si Si3 0.497491 0.885768 0.683932
Si Si4 0.193108 0.856703 0.684664
Si Si5 0.824376 0.555295 0.685486
Si Si6 0.772183 0.261940 0.682864
Si Si7 0.501827 0.668168 0.316382
Si Si8 0.456727 0.221503 0.817967
O O1 0.242538 0.099867 0.765388
O O2 0.202056 0.203378 0.776905
O O3 0.080145 0.131276 0.731660
O O4 0.156264 0.137794 0.000000
O O5 0.804144 0.430872 0.500000
O O6 0.808313 0.495318 0.252366
O O7 0.911846 0.413140 0.265980
O O8 0.492750 0.875081 0.500000
O O9 0.419547 0.924624 0.739439
O O10 0.484286 0.829618 0.773654
O O11 0.198698 0.858784 0.500000
O O12 0.249314 0.905559 0.756349
O O13 0.233845 0.799801 0.739774
O O14 0.091793 0.860917 0.737661
O O15 0.819949 0.555107 0.500000
O O16 0.753017 0.268568 0.500000
O O17 0.868569 0.284266 0.717317
O O18 0.503709 0.679163 0.500000
O O19 0.491554 0.724880 0.228352
O O20 0.433573 0.221957 0.000000
#
# Coordination Sequence:
#
# PCOD8225136 Si02
#       8
#     8   8   8   8   8   8   8   8
#     4  12  24  37  56  84 117 152 193 242 296 348
#     4  10  20  36  58  84 117 154 196 238 287 349
#     4  10  19  32  55  85 118 156 194 234 283 345
#     4   8  17  34  57  85 112 141 187 245 293 334
#     4   9  18  34  58  87 113 146 196 249 290 339
#     4  10  19  34  56  82 113 152 194 233 286 349
#     4  10  21  38  59  81 112 152 195 243 293 353
#     4  11  21  34  53  83 121 155 187 231 287 343
#
# _framework density 19.601406999999998
#
# number of rings (size 3 to 8) (size 9 to 14) (size 15 to 20)
#    0.000    2.000    1.250    4.125    1.750    1.500 
#    0.000    1.250    0.000   10.500    0.000    0.000 
#    0.000    0.000    0.000    0.000    0.000    0.000 
#
# Total GULP energy -793651.296133 kJ/mol
# GULP energy per Si atom -12400.801502 kJ/mol
# Density = 1.955679 g / cm^3
# Si number density = 19.601407 Si / 1000 Ang^3
#
#
#
# Elastic Constant Matrix: (Units=GPa)
#
#
# Indices 1 2 3 4 5 6 
#
# 1 135.1201 77.6016 22.6506 0.0000 0.0000 0.0000
# 2 77.6016 113.1248 29.7197 0.0000 0.0000 0.0000
# 3 22.6506 29.7197 46.5406 0.0000 0.0000 0.0000
# 4 0.0000 0.0000 0.0000 7.9478 0.0000 0.0000
# 5 0.0000 0.0000 0.0000 0.0000 13.6488 0.0000
# 6 0.0000 0.0000 0.0000 0.0000 0.0000 24.7380
#
#
#
# Elastic Compliance Matrix: (Units=1/GPa)
#
#
# Indices 1 2 3 4 5 6 
#
# 1 0.012232 -0.008203 -0.000715 0.000000 0.000000 0.000000
# 2 -0.008203 0.016123 -0.006303 0.000000 0.000000 0.000000
# 3 -0.000715 -0.006303 0.025860 0.000000 0.000000 0.000000
# 4 0.000000 0.000000 0.000000 0.125821 0.000000 0.000000
# 5 0.000000 0.000000 0.000000 0.000000 0.073267 0.000000
# 6 0.000000 0.000000 0.000000 0.000000 0.000000 0.040424
#
#
# Mechanical properties :
#
#
# Convention : Reuss Voigt Hill
#
# Bulk Modulus (GPa) = 42.06636 61.63660 51.85148
# Shear Modulus (GPa) = 15.05605 20.25449 17.65527
#
# Velocity S-wave (km/s) = 2.77449 3.21801 3.00445
# Velocity P-wave (km/s) = 5.63659 6.73207 6.20854
#
# Compressibility (1/GPa) = 0.02377196
#
# Stress axis : x y z
#
# Youngs Moduli (GPa) = 81.75446 62.02356 38.67024
#
# Poissons Ratio (x) = 0.50878 0.02764
# Poissons Ratio (y) = 0.67063 0.24376
# Poissons Ratio (z) = 0.05844 0.39096
#
# Static dielectric constant tensor:
#      x y z
#    x 3.713230 0.000000 0.000000 
#    y 0.000000 3.755670 0.000000 
#    z 0.000000 0.000000 3.232430 
# 
# 
# High freq. dielectric constant tensor:
#      x y z
#    x 1.768580 0.000000 0.000000 
#    y 0.000000 1.756640 0.000000 
#    z 0.000000 0.000000 1.735880 
# 
# From -- ./inp_files/6489.got.cif
#   From: 2010.03.12/outbox.cif.g09.slc.cpg/sg55_4_cif.got.tgz:6489.got - 2010.04.16 15:19:21.
