data_PCOD8225584
_publ_section_title
;
Structure prediction by ZEFSAII (Michael W. Deem and Ramdas Pophale) SiO2 
 PCOD8225584
Probable space group: P B A M
;
_chemical_formula_sum "Si O2"
_cell_formula_units_Z 64
_cell_length_a 18.295424
_cell_length_b 9.556978
_cell_length_c 18.924874
_cell_angle_alpha 90.000000
_cell_angle_beta 90.000000
_cell_angle_gamma 90.000000
_cell_volume 3308.994625
_symmetry_space_group_name_H-M "P B A M"
_symmetry_group_IT_number 55
_symmetry_cell_setting 'orthorhombic'
loop_
_space_group_symop_operation_xyz
x,y,z
-x,-y,z
1/2+x,1/2-y,-z
1/2-x,1/2+y,-z
-x,-y,-z
x,y,-z
1/2-x,1/2+y,z
1/2+x,1/2-y,z
loop_
_atom_site_type_symbol
_atom_site_label
_atom_site_fract_x
_atom_site_fract_y
_atom_site_fract_z
Si Si1 0.481837 0.341341 0.919081
Si Si2 0.790361 0.491681 0.187485
Si Si3 0.162444 0.809030 0.156562
Si Si4 0.247163 0.000991 0.650555
Si Si5 0.452330 0.702328 0.318071
Si Si6 0.601723 0.594570 0.298916
Si Si7 0.444469 0.874977 0.181918
Si Si8 0.325790 0.759905 0.582515
O O1 0.500000 0.500000 0.899773
O O2 0.395353 0.313951 0.907141
O O3 0.534770 0.248730 0.870930
O O4 0.499674 0.305896 0.000000
O O5 0.793630 0.336248 0.156035
O O6 0.720497 0.565238 0.151758
O O7 0.781699 0.484348 0.271961
O O8 0.862387 0.576380 0.165785
O O9 0.114033 0.819188 0.227452
O O10 0.230942 0.154132 0.619857
O O11 0.173544 0.907117 0.652658
O O12 0.302065 0.918677 0.599174
O O13 0.536070 0.671161 0.340856
O O14 0.418498 0.565705 0.279680
O O15 0.448534 0.828873 0.263272
O O16 0.407725 0.738670 0.388556
O O17 0.500000 0.000000 0.168412
O O18 0.326836 0.730592 0.500000
#
# Coordination Sequence:
#
# PCOD8225584 Si02
#       8
#     8   8   8   8   8   8   8   8
#     4  11  25  44  66  92 127 168 205 247 309 382
#     4  11  23  37  63  97 120 158 208 268 305 354
#     4  11  22  39  61  94 126 155 206 254 309 362
#     4  10  20  36  57  83 116 152 202 248 299 361
#     4  10  19  35  58  87 112 152 199 253 306 357
#     4   9  18  33  60  86 112 147 198 257 298 350
#     4  12  22  39  64  95 122 159 206 261 310 361
#     4  11  22  36  55  81 118 159 197 246 308 371
#
# _framework density 19.341221999999998
#
# number of rings (size 3 to 8) (size 9 to 14) (size 15 to 20)
#    0.000    1.375    3.750    2.625    5.250    0.250 
#    0.000    6.875    0.000    0.375    0.000    0.000 
#    0.000    0.000    0.000    0.000    0.000    0.000 
#
# Total GULP energy -793755.981224 kJ/mol
# GULP energy per Si atom -12402.437207 kJ/mol
# Density = 1.929720 g / cm^3
# Si number density = 19.341222 Si / 1000 Ang^3
#
#
#
# Elastic Constant Matrix: (Units=GPa)
#
#
# Indices 1 2 3 4 5 6 
#
# 1 109.7607 35.1978 24.9595 0.0000 0.0000 0.0000
# 2 35.1978 90.6862 33.8756 0.0000 0.0000 0.0000
# 3 24.9595 33.8756 73.3739 0.0000 0.0000 0.0000
# 4 0.0000 0.0000 0.0000 21.0520 0.0000 0.0000
# 5 0.0000 0.0000 0.0000 0.0000 19.3013 0.0000
# 6 0.0000 0.0000 0.0000 0.0000 0.0000 34.6665
#
#
#
# Elastic Compliance Matrix: (Units=1/GPa)
#
#
# Indices 1 2 3 4 5 6 
#
# 1 0.010661 -0.003363 -0.002074 0.000000 0.000000 0.000000
# 2 -0.003363 0.014386 -0.005498 0.000000 0.000000 0.000000
# 3 -0.002074 -0.005498 0.016873 0.000000 0.000000 0.000000
# 4 0.000000 0.000000 0.000000 0.047501 0.000000 0.000000
# 5 0.000000 0.000000 0.000000 0.000000 0.051810 0.000000
# 6 0.000000 0.000000 0.000000 0.000000 0.000000 0.028846
#
#
# Mechanical properties :
#
#
# Convention : Reuss Voigt Hill
#
# Bulk Modulus (GPa) = 49.87532 51.32074 50.59803
# Shear Modulus (GPa) = 25.17248 26.98982 26.08115
#
# Velocity S-wave (km/s) = 3.61154 3.73963 3.67614
# Velocity P-wave (km/s) = 6.57525 6.72595 6.65103
#
# Compressibility (1/GPa) = 0.02005000
#
# Stress axis : x y z
#
# Youngs Moduli (GPa) = 93.80183 69.51193 59.26803
#
# Poissons Ratio (x) = 0.23377 0.12291
# Poissons Ratio (y) = 0.31546 0.32584
# Poissons Ratio (z) = 0.19452 0.38216
#
# Static dielectric constant tensor:
#      x y z
#    x 3.757230 0.000000 0.000000 
#    y 0.000000 3.618060 0.000000 
#    z 0.000000 0.000000 3.166940 
# 
# 
# High freq. dielectric constant tensor:
#      x y z
#    x 1.766850 0.000000 0.000000 
#    y 0.000000 1.762980 0.000000 
#    z 0.000000 0.000000 1.714560 
# 
# From -- ./inp_files/23064.got.cif
#   From: 2010.03.12/outbox.cif.g09.slc.cpg/sg55_12_cif.got.tgz:23064.got - 2010.04.16 15:19:21.
