data_PCOD8225183
_publ_section_title
;
Structure prediction by ZEFSAII (Michael W. Deem and Ramdas Pophale) SiO2 
 PCOD8225183
Probable space group: P B A M
;
_chemical_formula_sum "Si O2"
_cell_formula_units_Z 64
_cell_length_a 17.835424
_cell_length_b 20.628916
_cell_length_c 8.867000
_cell_angle_alpha 90.000000
_cell_angle_beta 90.000000
_cell_angle_gamma 90.000000
_cell_volume 3262.395085
_symmetry_space_group_name_H-M "P B A M"
_symmetry_group_IT_number 55
_symmetry_cell_setting 'orthorhombic'
loop_
_space_group_symop_operation_xyz
x,y,z
-x,-y,z
1/2+x,1/2-y,-z
1/2-x,1/2+y,-z
-x,-y,-z
x,y,-z
1/2-x,1/2+y,z
1/2+x,1/2-y,z
loop_
_atom_site_type_symbol
_atom_site_label
_atom_site_fract_x
_atom_site_fract_y
_atom_site_fract_z
Si Si1 0.776578 0.521346 0.178811
Si Si2 0.008024 0.898158 0.169627
Si Si3 0.728901 0.765059 0.673948
Si Si4 0.880571 0.983702 0.832798
Si Si5 0.565038 0.719304 0.670560
Si Si6 0.997467 0.666540 0.175583
Si Si7 0.161497 0.348363 0.679037
Si Si8 0.656395 0.885133 0.176588
O O1 0.696014 0.501979 0.251846
O O2 0.800289 0.587014 0.259215
O O3 0.829166 0.460007 0.218282
O O4 0.774750 0.535074 0.000000
O O5 0.041119 0.853392 0.298830
O O6 0.926748 0.922243 0.232387
O O7 0.064579 0.956635 0.158898
O O8 0.001238 0.867809 0.000000
O O9 0.743814 0.780376 0.500000
O O10 0.653186 0.724619 0.700531
O O11 0.795963 0.717913 0.736499
O O12 0.718190 0.835274 0.753674
O O13 0.854963 0.963232 0.000000
O O14 0.544934 0.739952 0.500000
O O15 0.515974 0.759143 0.790130
O O16 0.071181 0.627434 0.233569
O O17 0.924063 0.647406 0.267583
O O18 0.981484 0.654784 0.000000
O O19 0.165328 0.349782 0.500000
O O20 0.661078 0.872409 0.000000
#
# Coordination Sequence:
#
# PCOD8225183 Si02
#       8
#     8   8   8   8   8   8   8   8
#     4  10  20  36  56  79 106 141 182 226 272 321
#     4   9  16  29  49  75 106 141 176 214 259 315
#     4   9  20  37  56  78 110 145 177 217 270 325
#     4   8  16  30  49  73 104 139 178 218 259 312
#     4  10  19  33  53  78 106 137 171 214 266 322
#     4  10  21  38  56  76 102 137 179 225 272 319
#     4  11  23  38  56  83 113 142 179 224 269 323
#     4   9  20  37  58  82 108 139 184 232 272 318
#
# _framework density 19.617488999999999
#
# number of rings (size 3 to 8) (size 9 to 14) (size 15 to 20)
#    0.000    2.500    0.000    2.625    0.000    4.000 
#    0.000    5.625    0.000    0.000    0.000    0.000 
#    0.000    0.000    0.000    0.000    0.000    0.000 
#
# Total GULP energy -792914.356750 kJ/mol
# GULP energy per Si atom -12389.286824 kJ/mol
# Density = 1.957284 g / cm^3
# Si number density = 19.617489 Si / 1000 Ang^3
#
#
#
# Elastic Constant Matrix: (Units=GPa)
#
#
# Indices 1 2 3 4 5 6 
#
# 1 93.7587 11.3367 25.6826 0.0000 0.0000 0.0000
# 2 11.3367 51.1883 24.0472 0.0000 0.0000 0.0000
# 3 25.6826 24.0472 46.0251 0.0000 0.0000 0.0000
# 4 0.0000 0.0000 0.0000 22.0018 0.0000 0.0000
# 5 0.0000 0.0000 0.0000 0.0000 24.5608 0.0000
# 6 0.0000 0.0000 0.0000 0.0000 0.0000 23.4344
#
#
#
# Elastic Compliance Matrix: (Units=1/GPa)
#
#
# Indices 1 2 3 4 5 6 
#
# 1 0.012608 0.000680 -0.007390 0.000000 0.000000 0.000000
# 2 0.000680 0.025927 -0.013926 0.000000 0.000000 0.000000
# 3 -0.007390 -0.013926 0.033127 0.000000 0.000000 0.000000
# 4 0.000000 0.000000 0.000000 0.045451 0.000000 0.000000
# 5 0.000000 0.000000 0.000000 0.000000 0.040715 0.000000
# 6 0.000000 0.000000 0.000000 0.000000 0.000000 0.042672
#
#
# Mechanical properties :
#
#
# Convention : Reuss Voigt Hill
#
# Bulk Modulus (GPa) = 32.90645 34.78946 33.84796
# Shear Modulus (GPa) = 19.84888 22.65978 21.25433
#
# Velocity S-wave (km/s) = 3.18432 3.40233 3.29513
# Velocity P-wave (km/s) = 5.50730 5.76254 5.63637
#
# Compressibility (1/GPa) = 0.03038918
#
# Stress axis : x y z
#
# Youngs Moduli (GPa) = 79.31522 38.56957 30.18675
#
# Poissons Ratio (x) = -0.02621 0.22309
# Poissons Ratio (y) = -0.05390 0.42037
# Poissons Ratio (z) = 0.58618 0.53711
#
# Static dielectric constant tensor:
#      x y z
#    x 3.899930 0.000000 0.000000 
#    y 0.000000 3.534380 0.000000 
#    z 0.000000 0.000000 3.404330 
# 
# 
# High freq. dielectric constant tensor:
#      x y z
#    x 1.773040 0.000000 0.000000 
#    y 0.000000 1.761500 0.000000 
#    z 0.000000 0.000000 1.741490 
# 
# From -- ./inp_files/7950.got.cif
#   From: 2010.03.12/outbox.cif.g09.slc.cpg/sg55_4_cif.got.tgz:7950.got - 2010.04.16 15:19:21.
