data_PCOD8225270
_publ_section_title
;
Structure prediction by ZEFSAII (Michael W. Deem and Ramdas Pophale) SiO2 
 PCOD8225270
Probable space group: P B A M
;
_chemical_formula_sum "Si O2"
_cell_formula_units_Z 64
_cell_length_a 11.913456
_cell_length_b 29.445483
_cell_length_c 9.076259
_cell_angle_alpha 90.000000
_cell_angle_beta 90.000000
_cell_angle_gamma 90.000000
_cell_volume 3183.928659
_symmetry_space_group_name_H-M "P B A M"
_symmetry_group_IT_number 55
_symmetry_cell_setting 'orthorhombic'
loop_
_space_group_symop_operation_xyz
x,y,z
-x,-y,z
1/2+x,1/2-y,-z
1/2-x,1/2+y,-z
-x,-y,-z
x,y,-z
1/2-x,1/2+y,z
1/2+x,1/2-y,z
loop_
_atom_site_type_symbol
_atom_site_label
_atom_site_fract_x
_atom_site_fract_y
_atom_site_fract_z
Si Si1 0.752442 0.835288 0.325887
Si Si2 0.793150 0.936049 0.672013
Si Si3 0.872435 0.159644 0.172789
Si Si4 0.726709 0.030364 0.669267
Si Si5 0.529791 0.276097 0.326915
Si Si6 0.471133 0.188936 0.172985
Si Si7 0.459285 0.422591 0.667507
Si Si8 0.644643 0.114355 0.829563
O O1 0.729779 0.834397 0.500000
O O2 0.760291 0.886880 0.262395
O O3 0.866127 0.808569 0.287226
O O4 0.651960 0.810463 0.242538
O O5 0.770185 0.933893 0.500000
O O6 0.923896 0.947710 0.701272
O O7 0.719176 0.978623 0.734212
O O8 0.746664 0.146549 0.224489
O O9 0.913855 0.203655 0.261690
O O10 0.953126 0.118300 0.216897
O O11 0.880174 0.169800 0.000000
O O12 0.690057 0.031711 0.500000
O O13 0.644417 0.065286 0.751260
O O14 0.856758 0.043368 0.689147
O O15 0.516258 0.269050 0.500000
O O16 0.547386 0.227511 0.249264
O O17 0.529034 0.140210 0.204696
O O18 0.464412 0.198814 0.000000
O O19 0.460681 0.402645 0.500000
O O20 0.661477 0.104012 0.000000
#
# Coordination Sequence:
#
# PCOD8225270 Si02
#       8
#     8   8   8   8   8   8   8   8
#     4  10  22  41  62  87 120 153 191 241 291 346
#     4   9  16  31  54  83 118 152 190 239 291 340
#     4  10  19  33  55  84 115 150 188 229 284 344
#     4   9  17  29  55  87 113 150 197 239 285 343
#     4  11  23  40  62  89 116 147 188 237 295 351
#     4  11  25  43  62  83 113 154 198 243 291 346
#     4   9  15  28  49  79 117 153 187 230 285 340
#     4   9  21  40  57  79 116 155 192 238 287 338
#
# _framework density 20.100951999999999
#
# number of rings (size 3 to 8) (size 9 to 14) (size 15 to 20)
#    0.000    2.250    1.250    1.500    1.750    4.000 
#    0.000    1.875    0.000    6.750    0.000    0.000 
#    0.000    0.000    0.000    0.000    0.000    0.000 
#
# Total GULP energy -793369.108493 kJ/mol
# GULP energy per Si atom -12396.392320 kJ/mol
# Density = 2.005520 g / cm^3
# Si number density = 20.100952 Si / 1000 Ang^3
#
#
#
# Elastic Constant Matrix: (Units=GPa)
#
#
# Indices 1 2 3 4 5 6 
#
# 1 58.2828 26.3114 29.5254 0.0000 0.0000 0.0000
# 2 26.3114 110.8113 40.1797 0.0000 0.0000 0.0000
# 3 29.5254 40.1797 62.1856 0.0000 0.0000 0.0000
# 4 0.0000 0.0000 0.0000 22.8024 0.0000 0.0000
# 5 0.0000 0.0000 0.0000 0.0000 22.8500 0.0000
# 6 0.0000 0.0000 0.0000 0.0000 0.0000 19.1025
#
#
#
# Elastic Compliance Matrix: (Units=1/GPa)
#
#
# Indices 1 2 3 4 5 6 
#
# 1 0.022911 -0.001953 -0.009616 0.000000 0.000000 0.000000
# 2 -0.001953 0.011952 -0.006795 0.000000 0.000000 0.000000
# 3 -0.009616 -0.006795 0.025037 0.000000 0.000000 0.000000
# 4 0.000000 0.000000 0.000000 0.043855 0.000000 0.000000
# 5 0.000000 0.000000 0.000000 0.000000 0.043764 0.000000
# 6 0.000000 0.000000 0.000000 0.000000 0.000000 0.052349
#
#
# Mechanical properties :
#
#
# Convention : Reuss Voigt Hill
#
# Bulk Modulus (GPa) = 43.15694 47.03475 45.09584
# Shear Modulus (GPa) = 20.46498 21.96853 21.21676
#
# Velocity S-wave (km/s) = 3.19424 3.30951 3.25239
# Velocity P-wave (km/s) = 5.92630 6.16878 6.04875
#
# Compressibility (1/GPa) = 0.02317124
#
# Stress axis : x y z
#
# Youngs Moduli (GPa) = 43.64750 83.66790 39.94106
#
# Poissons Ratio (x) = 0.16343 0.38407
# Poissons Ratio (y) = 0.08526 0.27140
# Poissons Ratio (z) = 0.41971 0.56853
#
# Static dielectric constant tensor:
#      x y z
#    x 3.460280 0.000000 0.000000 
#    y 0.000000 3.905450 0.000000 
#    z 0.000000 0.000000 3.441970 
# 
# 
# High freq. dielectric constant tensor:
#      x y z
#    x 1.767420 0.000000 0.000000 
#    y 0.000000 1.793670 0.000000 
#    z 0.000000 0.000000 1.762270 
# 
# From -- ./inp_files/4575.got.cif
#   From: 2010.03.12/outbox.cif.g09.slc.cpg/sg55_3_cif.got.tgz:4575.got - 2010.04.16 15:19:21.
