data_PCOD8225242
_publ_section_title
;
Structure prediction by ZEFSAII (Michael W. Deem and Ramdas Pophale) SiO2 
 PCOD8225242
Probable space group: P B A M
;
_chemical_formula_sum "Si O2"
_cell_formula_units_Z 64
_cell_length_a 12.791145
_cell_length_b 28.170169
_cell_length_c 9.114017
_cell_angle_alpha 90.000000
_cell_angle_beta 90.000000
_cell_angle_gamma 90.000000
_cell_volume 3284.042046
_symmetry_space_group_name_H-M "P B A M"
_symmetry_group_IT_number 55
_symmetry_cell_setting 'orthorhombic'
loop_
_space_group_symop_operation_xyz
x,y,z
-x,-y,z
1/2+x,1/2-y,-z
1/2-x,1/2+y,-z
-x,-y,-z
x,y,-z
1/2-x,1/2+y,z
1/2+x,1/2-y,z
loop_
_atom_site_type_symbol
_atom_site_label
_atom_site_fract_x
_atom_site_fract_y
_atom_site_fract_z
Si Si1 0.344811 0.417670 0.838658
Si Si2 0.753570 0.407241 0.673118
Si Si3 0.423888 0.333588 0.670769
Si Si4 0.232021 0.285480 0.173981
Si Si5 0.881480 0.624493 0.160849
Si Si6 0.162366 0.191476 0.328970
Si Si7 0.379683 0.506159 0.669802
Si Si8 0.526443 0.946767 0.325720
O O1 0.422410 0.386670 0.737755
O O2 0.236757 0.391314 0.855295
O O3 0.317769 0.467511 0.763254
O O4 0.395273 0.424930 0.000000
O O5 0.763201 0.404649 0.500000
O O6 0.724536 0.354972 0.730848
O O7 0.659335 0.442139 0.718915
O O8 0.862079 0.428523 0.736663
O O9 0.395326 0.337219 0.500000
O O10 0.340799 0.299858 0.750159
O O11 0.538974 0.313196 0.695276
O O12 0.134038 0.320765 0.213968
O O13 0.203027 0.233933 0.230781
O O14 0.250302 0.284678 0.000000
O O15 0.941998 0.591980 0.275652
O O16 0.936263 0.621675 0.000000
O O17 0.187380 0.200535 0.500000
O O18 0.500000 0.500000 0.708705
O O19 0.355201 0.496909 0.500000
O O20 0.525297 0.947975 0.500000
O O21 0.500000 0.000000 0.265660
#
# Coordination Sequence:
#
# PCOD8225242 Si02
#       8
#     8   8   8   8   8   8   8   8
#     4  10  20  34  53  79 110 141 177 224 275 326
#     4   9  19  35  53  79 113 142 180 233 280 331
#     4  10  20  36  59  83 108 143 187 231 279 336
#     4  10  22  39  58  83 114 146 185 237 293 346
#     4   9  20  37  54  75 105 141 181 224 270 325
#     4  10  21  38  59  82 110 146 188 235 285 336
#     4  10  19  33  55  79 105 141 181 221 269 325
#     4  10  20  34  55  82 112 148 186 227 278 333
#
# _framework density 19.488178999999999
#
# number of rings (size 3 to 8) (size 9 to 14) (size 15 to 20)
#    0.000    2.250    0.000    3.375    0.000    8.500 
#    0.000    5.625    0.000    0.000    0.000    0.000 
#    0.000    0.000    0.000    0.000    0.000    0.000 
#
# Total GULP energy -793380.064032 kJ/mol
# GULP energy per Si atom -12396.563500 kJ/mol
# Density = 1.944382 g / cm^3
# Si number density = 19.488179 Si / 1000 Ang^3
#
#
#
# Elastic Constant Matrix: (Units=GPa)
#
#
# Indices 1 2 3 4 5 6 
#
# 1 81.8344 53.9487 37.4417 0.0000 0.0000 0.0000
# 2 53.9487 164.4161 47.9185 0.0000 0.0000 0.0000
# 3 37.4417 47.9185 65.8064 0.0000 0.0000 0.0000
# 4 0.0000 0.0000 0.0000 6.3776 0.0000 0.0000
# 5 0.0000 0.0000 0.0000 0.0000 12.9787 0.0000
# 6 0.0000 0.0000 0.0000 0.0000 0.0000 30.1090
#
#
#
# Elastic Compliance Matrix: (Units=1/GPa)
#
#
# Indices 1 2 3 4 5 6 
#
# 1 0.018171 -0.003744 -0.007613 0.000000 0.000000 0.000000
# 2 -0.003744 0.008492 -0.004054 0.000000 0.000000 0.000000
# 3 -0.007613 -0.004054 0.022479 0.000000 0.000000 0.000000
# 4 0.000000 0.000000 0.000000 0.156799 0.000000 0.000000
# 5 0.000000 0.000000 0.000000 0.000000 0.077049 0.000000
# 6 0.000000 0.000000 0.000000 0.000000 0.000000 0.033213
#
#
# Mechanical properties :
#
#
# Convention : Reuss Voigt Hill
#
# Bulk Modulus (GPa) = 54.57849 65.63052 60.10450
# Shear Modulus (GPa) = 14.15912 21.40960 17.78436
#
# Velocity S-wave (km/s) = 2.69838 3.31810 3.02416
# Velocity P-wave (km/s) = 6.14614 6.95916 6.56525
#
# Compressibility (1/GPa) = 0.01832224
#
# Stress axis : x y z
#
# Youngs Moduli (GPa) = 55.03372 117.75942 44.48574
#
# Poissons Ratio (x) = 0.44084 0.33865
# Poissons Ratio (y) = 0.20602 0.18033
# Poissons Ratio (z) = 0.41895 0.47735
#
# Static dielectric constant tensor:
#      x y z
#    x 3.514500 0.000000 0.000000 
#    y 0.000000 3.903170 0.000000 
#    z 0.000000 0.000000 3.487920 
# 
# 
# High freq. dielectric constant tensor:
#      x y z
#    x 1.751730 0.000000 0.000000 
#    y 0.000000 1.771390 0.000000 
#    z 0.000000 0.000000 1.745550 
# 
# From -- ./inp_files/4561.got.cif
#   From: 2010.03.12/outbox.cif.g09.slc.cpg/sg55_3_cif.got.tgz:4561.got - 2010.04.16 15:19:21.
