data_PCOD8225261
_publ_section_title
;
Structure prediction by ZEFSAII (Michael W. Deem and Ramdas Pophale) SiO2 
 PCOD8225261
Probable space group: P B A M
;
_chemical_formula_sum "Si O2"
_cell_formula_units_Z 40
_cell_length_a 11.669541
_cell_length_b 20.438508
_cell_length_c 9.012836
_cell_angle_alpha 90.000000
_cell_angle_beta 90.000000
_cell_angle_gamma 90.000000
_cell_volume 2149.633553
_symmetry_space_group_name_H-M "P B A M"
_symmetry_group_IT_number 55
_symmetry_cell_setting 'orthorhombic'
loop_
_space_group_symop_operation_xyz
x,y,z
-x,-y,z
1/2+x,1/2-y,-z
1/2-x,1/2+y,-z
-x,-y,-z
x,y,-z
1/2-x,1/2+y,z
1/2+x,1/2-y,z
loop_
_atom_site_type_symbol
_atom_site_label
_atom_site_fract_x
_atom_site_fract_y
_atom_site_fract_z
Si Si1 0.749679 0.376699 0.675440
Si Si2 0.370998 0.992718 0.676608
Si Si3 0.157863 0.748881 0.174906
Si Si4 0.241963 0.866727 0.668152
Si Si5 0.997878 0.835558 0.667026
O O1 0.766643 0.369036 0.500000
O O2 0.795407 0.446437 0.732427
O O3 0.823904 0.322006 0.756355
O O4 0.616663 0.371089 0.723889
O O5 0.369415 0.989665 0.500000
O O6 0.500000 0.000000 0.737561
O O7 0.315520 0.925649 0.739429
O O8 0.255415 0.799631 0.236611
O O9 0.031807 0.774050 0.227555
O O10 0.164983 0.745102 0.000000
O O11 0.282673 0.852096 0.500000
O O12 0.105850 0.886304 0.669518
O O13 0.978762 0.808890 0.500000
#
# Coordination Sequence:
#
# PCOD8225261 Si02
#       5
#     8   8   8   8   8
#     4  10  19  33  55  82 109 138 178 223 269 321
#     4   9  18  32  54  84 110 135 171 221 275 323
#     4  10  20  34  52  77 109 143 178 221 270 317
#     4   8  16  34  54  76 105 138 176 216 264 318
#     4   8  17  33  53  76 101 136 179 220 262 311
#
# _framework density 18.607823
#
# number of rings (size 3 to 8) (size 9 to 14) (size 15 to 20)
#    1.200    1.800    0.000    1.200    0.000    3.200 
#    0.000    9.000    0.000    2.400    0.000    0.000 
#    0.000    0.000    0.000    0.000    0.000    0.000 
#
# Total GULP energy -495553.887718 kJ/mol
# GULP energy per Si atom -12388.847193 kJ/mol
# Density = 1.856547 g / cm^3
# Si number density = 18.607823 Si / 1000 Ang^3
#
#
#
# Elastic Constant Matrix: (Units=GPa)
#
#
# Indices 1 2 3 4 5 6 
#
# 1 48.8597 -9.2149 5.1149 0.0000 0.0000 0.0000
# 2 -9.2149 66.9040 18.9587 0.0000 0.0000 0.0000
# 3 5.1149 18.9587 50.5704 0.0000 0.0000 0.0000
# 4 0.0000 0.0000 0.0000 4.9235 0.0000 0.0000
# 5 0.0000 0.0000 0.0000 0.0000 9.0341 0.0000
# 6 0.0000 0.0000 0.0000 0.0000 0.0000 33.2161
#
#
#
# Elastic Compliance Matrix: (Units=1/GPa)
#
#
# Indices 1 2 3 4 5 6 
#
# 1 0.021612 0.004024 -0.003694 0.000000 0.000000 0.000000
# 2 0.004024 0.017472 -0.006957 0.000000 0.000000 0.000000
# 3 -0.003694 -0.006957 0.022756 0.000000 0.000000 0.000000
# 4 0.000000 0.000000 0.000000 0.203107 0.000000 0.000000
# 5 0.000000 0.000000 0.000000 0.000000 0.110692 0.000000
# 6 0.000000 0.000000 0.000000 0.000000 0.000000 0.030106
#
#
# Mechanical properties :
#
#
# Convention : Reuss Voigt Hill
#
# Bulk Modulus (GPa) = 20.58249 21.78349 21.18299
# Shear Modulus (GPa) = 11.48905 19.53310 15.51107
#
# Velocity S-wave (km/s) = 2.48751 3.24346 2.89031
# Velocity P-wave (km/s) = 4.39722 5.07531 4.74838
#
# Compressibility (1/GPa) = 0.04858499
#
# Stress axis : x y z
#
# Youngs Moduli (GPa) = 46.26980 57.23280 43.94372
#
# Poissons Ratio (x) = -0.23028 0.16235
# Poissons Ratio (y) = -0.18617 0.30573
# Poissons Ratio (z) = 0.17094 0.39819
#
# Static dielectric constant tensor:
#      x y z
#    x 3.459700 0.000000 0.000000 
#    y 0.000000 3.325220 0.000000 
#    z 0.000000 0.000000 2.982080 
# 
# 
# High freq. dielectric constant tensor:
#      x y z
#    x 1.718630 0.000000 0.000000 
#    y 0.000000 1.709890 0.000000 
#    z 0.000000 0.000000 1.682270 
# 
# From -- ./inp_files/3852.got.cif
#   From: 2010.03.12/outbox.cif.g09.slc.cpg/sg55_2_cif.got.tgz:3852.got - 2010.04.16 15:19:21.
