data_PCOD8225022
_publ_section_title
;
Structure prediction by ZEFSAII (Michael W. Deem and Ramdas Pophale) SiO2 
 PCOD8225022
Probable space group: P B A M
;
_chemical_formula_sum "Si O2"
_cell_formula_units_Z 64
_cell_length_a 14.403480
_cell_length_b 23.843107
_cell_length_c 9.045333
_cell_angle_alpha 90.000000
_cell_angle_beta 90.000000
_cell_angle_gamma 90.000000
_cell_volume 3106.381861
_symmetry_space_group_name_H-M "P B A M"
_symmetry_group_IT_number 55
_symmetry_cell_setting 'orthorhombic'
loop_
_space_group_symop_operation_xyz
x,y,z
-x,-y,z
1/2+x,1/2-y,-z
1/2-x,1/2+y,-z
-x,-y,-z
x,y,-z
1/2-x,1/2+y,z
1/2+x,1/2-y,z
loop_
_atom_site_type_symbol
_atom_site_label
_atom_site_fract_x
_atom_site_fract_y
_atom_site_fract_z
Si Si1 0.021633 0.327816 0.328193
Si Si2 0.822162 0.294379 0.328800
Si Si3 0.060169 0.945497 0.825529
Si Si4 0.244946 0.587110 0.665308
Si Si5 0.960559 0.560116 0.170519
Si Si6 0.261170 0.977379 0.831437
Si Si7 0.151807 0.245865 0.824369
Si Si8 0.936357 0.860907 0.668495
O O1 0.049426 0.331121 0.500000
O O2 0.997308 0.390329 0.270690
O O3 0.105215 0.303228 0.231266
O O4 0.932406 0.286411 0.307789
O O5 0.791634 0.287962 0.500000
O O6 0.799770 0.356582 0.270579
O O7 0.759279 0.252516 0.230987
O O8 0.165813 0.952267 0.765473
O O9 0.024629 0.889373 0.745340
O O10 0.055295 0.934786 0.000000
O O11 0.000000 0.000000 0.781359
O O12 0.209315 0.576810 0.500000
O O13 0.209457 0.535899 0.760697
O O14 0.356163 0.592291 0.671893
O O15 0.848545 0.563640 0.189370
O O16 0.000000 0.500000 0.224527
O O17 0.988979 0.569723 0.000000
O O18 0.240629 0.991382 0.000000
O O19 0.095253 0.194203 0.755764
O O20 0.149044 0.242855 0.000000
O O21 0.960395 0.843466 0.500000
#
# Coordination Sequence:
#
# PCOD8225022 Si02
#       8
#     8   8   8   8   8   8   8   8
#     4  11  23  42  67  92 123 160 203 254 306 367
#     4   9  20  39  62  89 117 151 195 246 300 353
#     4  10  19  32  51  79 117 158 201 247 301 364
#     4   9  17  30  52  81 112 145 190 241 286 345
#     4  10  22  40  61  88 122 158 201 253 307 365
#     4  10  20  33  51  79 116 156 194 240 297 355
#     4  11  23  40  64  91 120 154 198 249 303 362
#     4  10  20  35  55  81 115 155 201 249 297 349
#
# _framework density 20.602747000000001
#
# number of rings (size 3 to 8) (size 9 to 14) (size 15 to 20)
#    0.000    2.000    1.250    3.375    0.000    4.500 
#    2.250    0.000    0.000    0.000    0.000    0.000 
#    0.000    0.000    0.000    0.000    0.000    0.000 
#
# Total GULP energy -793559.969132 kJ/mol
# GULP energy per Si atom -12399.374518 kJ/mol
# Density = 2.055585 g / cm^3
# Si number density = 20.602747 Si / 1000 Ang^3
#
#
#
# Elastic Constant Matrix: (Units=GPa)
#
#
# Indices 1 2 3 4 5 6 
#
# 1 90.5546 18.6978 34.4646 0.0000 0.0000 0.0000
# 2 18.6978 67.2973 40.4983 0.0000 0.0000 0.0000
# 3 34.4646 40.4983 102.9967 0.0000 0.0000 0.0000
# 4 0.0000 0.0000 0.0000 32.2601 0.0000 0.0000
# 5 0.0000 0.0000 0.0000 0.0000 25.2400 0.0000
# 6 0.0000 0.0000 0.0000 0.0000 0.0000 29.5821
#
#
#
# Elastic Compliance Matrix: (Units=1/GPa)
#
#
# Indices 1 2 3 4 5 6 
#
# 1 0.012738 -0.001276 -0.003761 0.000000 0.000000 0.000000
# 2 -0.001276 0.019593 -0.007277 0.000000 0.000000 0.000000
# 3 -0.003761 -0.007277 0.013829 0.000000 0.000000 0.000000
# 4 0.000000 0.000000 0.000000 0.030998 0.000000 0.000000
# 5 0.000000 0.000000 0.000000 0.000000 0.039620 0.000000
# 6 0.000000 0.000000 0.000000 0.000000 0.000000 0.033804
#
#
# Mechanical properties :
#
#
# Convention : Reuss Voigt Hill
#
# Bulk Modulus (GPa) = 46.44159 49.79665 48.11912
# Shear Modulus (GPa) = 27.41434 28.56231 27.98833
#
# Velocity S-wave (km/s) = 3.65172 3.72739 3.68975
# Velocity P-wave (km/s) = 6.35377 6.53812 6.44660
#
# Compressibility (1/GPa) = 0.02153242
#
# Stress axis : x y z
#
# Youngs Moduli (GPa) = 78.50655 51.03826 72.31322
#
# Poissons Ratio (x) = 0.06513 0.27194
# Poissons Ratio (y) = 0.10018 0.52623
# Poissons Ratio (z) = 0.29523 0.37141
#
# Static dielectric constant tensor:
#      x y z
#    x 3.893620 0.000000 0.000000 
#    y 0.000000 3.454660 0.000000 
#    z 0.000000 0.000000 3.578970 
# 
# 
# High freq. dielectric constant tensor:
#      x y z
#    x 1.812290 0.000000 0.000000 
#    y 0.000000 1.786380 0.000000 
#    z 0.000000 0.000000 1.797910 
# 
# From -- ./inp_files/6547.got.cif
#   From: 2010.03.12/outbox.cif.g09.slc.cpg/sg55_4_cif.got.tgz:6547.got - 2010.04.16 15:19:21.
