data_PCOD8225507
_publ_section_title
;
Structure prediction by ZEFSAII (Michael W. Deem and Ramdas Pophale) SiO2 
 PCOD8225507
Probable space group: P B A M
;
_chemical_formula_sum "Si O2"
_cell_formula_units_Z 48
_cell_length_a 28.077694
_cell_length_b 10.177638
_cell_length_c 8.557447
_cell_angle_alpha 90.000000
_cell_angle_beta 90.000000
_cell_angle_gamma 90.000000
_cell_volume 2445.415465
_symmetry_space_group_name_H-M "P B A M"
_symmetry_group_IT_number 55
_symmetry_cell_setting 'orthorhombic'
loop_
_space_group_symop_operation_xyz
x,y,z
-x,-y,z
1/2+x,1/2-y,-z
1/2-x,1/2+y,-z
-x,-y,-z
x,y,-z
1/2-x,1/2+y,z
1/2+x,1/2-y,z
loop_
_atom_site_type_symbol
_atom_site_label
_atom_site_fract_x
_atom_site_fract_y
_atom_site_fract_z
Si Si1 0.148390 0.754516 0.180643
Si Si2 0.049878 0.137732 0.318633
Si Si3 0.198967 0.486147 0.181431
Si Si4 0.452626 0.353694 0.818122
Si Si5 0.800987 0.004720 0.319581
Si Si6 0.641998 0.268472 0.817740
O O1 0.162783 0.604999 0.211706
O O2 0.093325 0.768976 0.231303
O O3 0.182120 0.848180 0.282032
O O4 0.155047 0.794182 0.000000
O O5 0.051830 0.102556 0.500000
O O6 0.091837 0.237904 0.273509
O O7 0.998469 0.199921 0.276537
O O8 0.057719 0.005248 0.220472
O O9 0.245469 0.509267 0.283959
O O10 0.173671 0.353525 0.239632
O O11 0.213829 0.476061 0.000000
O O12 0.463834 0.339442 0.000000
O O13 0.810373 0.972635 0.500000
O O14 0.830540 0.903046 0.215815
O O15 0.631057 0.257020 0.000000
#
# Coordination Sequence:
#
# PCOD8225507 Si02
#       6
#     8   8   8   8   8   8
#     4  10  21  39  62  86 113 149 193 239 285 336
#     4  11  21  34  56  86 118 147 186 237 289 340
#     4  10  23  41  60  83 114 153 195 238 284 337
#     4  10  19  34  59  86 113 147 190 235 286 342
#     4  12  24  37  58  87 117 151 192 237 287 342
#     4  11  22  39  61  84 114 153 196 238 281 336
#
# _framework density 19.628565999999999
#
# number of rings (size 3 to 8) (size 9 to 14) (size 15 to 20)
#    0.000    1.333    1.667    6.000    0.000    6.667 
#    0.000    0.833    0.000    5.000    0.000    0.000 
#    0.000    0.000    0.000    0.000    0.000    0.000 
#
# Total GULP energy -595468.810708 kJ/mol
# GULP energy per Si atom -12405.600223 kJ/mol
# Density = 1.958389 g / cm^3
# Si number density = 19.628566 Si / 1000 Ang^3
#
#
#
# Elastic Constant Matrix: (Units=GPa)
#
#
# Indices 1 2 3 4 5 6 
#
# 1 140.4284 28.0746 31.0781 0.0000 0.0000 0.0000
# 2 28.0746 65.6945 10.6470 0.0000 0.0000 0.0000
# 3 31.0781 10.6470 49.3983 0.0000 0.0000 0.0000
# 4 0.0000 0.0000 0.0000 5.7643 0.0000 0.0000
# 5 0.0000 0.0000 0.0000 0.0000 14.9900 0.0000
# 6 0.0000 0.0000 0.0000 0.0000 0.0000 14.0842
#
#
#
# Elastic Compliance Matrix: (Units=1/GPa)
#
#
# Indices 1 2 3 4 5 6 
#
# 1 0.008797 -0.002966 -0.004895 0.000000 0.000000 0.000000
# 2 -0.002966 0.016773 -0.001749 0.000000 0.000000 0.000000
# 3 -0.004895 -0.001749 0.023701 0.000000 0.000000 0.000000
# 4 0.000000 0.000000 0.000000 0.173482 0.000000 0.000000
# 5 0.000000 0.000000 0.000000 0.000000 0.066711 0.000000
# 6 0.000000 0.000000 0.000000 0.000000 0.000000 0.071002
#
#
# Mechanical properties :
#
#
# Convention : Reuss Voigt Hill
#
# Bulk Modulus (GPa) = 33.27826 43.90228 38.59027
# Shear Modulus (GPa) = 12.83027 19.34913 16.08970
#
# Velocity S-wave (km/s) = 2.55944 3.14309 2.86616
# Velocity P-wave (km/s) = 5.07199 5.96550 5.53680
#
# Compressibility (1/GPa) = 0.03004965
#
# Stress axis : x y z
#
# Youngs Moduli (GPa) = 113.66879 59.61948 42.19318
#
# Poissons Ratio (x) = 0.17684 0.20656
# Poissons Ratio (y) = 0.33717 0.07380
# Poissons Ratio (z) = 0.55646 0.10427
#
# Static dielectric constant tensor:
#      x y z
#    x 3.886550 0.000000 0.000000 
#    y 0.000000 3.396240 0.000000 
#    z 0.000000 0.000000 3.536440 
# 
# 
# High freq. dielectric constant tensor:
#      x y z
#    x 1.783560 0.000000 0.000000 
#    y 0.000000 1.740250 0.000000 
#    z 0.000000 0.000000 1.764850 
# 
# From -- ./inp_files/10516.got.cif
#   From: 2010.03.12/outbox.cif.g09.slc.cpg/sg55_6_cif.got.tgz:10516.got - 2010.04.16 15:19:21.
