data_PCOD8225431
_publ_section_title
;
Structure prediction by ZEFSAII (Michael W. Deem and Ramdas Pophale) SiO2 
 PCOD8225431
Probable space group: P B A M
;
_chemical_formula_sum "Si O2"
_cell_formula_units_Z 64
_cell_length_a 25.140510
_cell_length_b 14.538429
_cell_length_c 9.285542
_cell_angle_alpha 90.000000
_cell_angle_beta 90.000000
_cell_angle_gamma 90.000000
_cell_volume 3393.898283
_symmetry_space_group_name_H-M "P B A M"
_symmetry_group_IT_number 55
_symmetry_cell_setting 'orthorhombic'
loop_
_space_group_symop_operation_xyz
x,y,z
-x,-y,z
1/2+x,1/2-y,-z
1/2-x,1/2+y,-z
-x,-y,-z
x,y,-z
1/2-x,1/2+y,z
1/2+x,1/2-y,z
loop_
_atom_site_type_symbol
_atom_site_label
_atom_site_fract_x
_atom_site_fract_y
_atom_site_fract_z
Si Si1 0.870939 0.092122 0.669637
Si Si2 0.013189 0.604940 0.830536
Si Si3 0.224068 0.641654 0.328418
Si Si4 0.608301 0.797342 0.670192
Si Si5 0.314915 0.777066 0.330264
Si Si6 0.944962 0.957589 0.166994
Si Si7 0.753243 0.055737 0.329892
Si Si8 0.576595 0.249019 0.166527
O O1 0.873587 0.075287 0.500000
O O2 0.898719 0.189290 0.709607
O O3 0.809974 0.093488 0.725276
O O4 0.898341 0.005696 0.744709
O O5 0.065472 0.639461 0.749215
O O6 0.000000 0.500000 0.785373
O O7 0.964645 0.670708 0.783539
O O8 0.024102 0.612390 0.000000
O O9 0.223376 0.643856 0.500000
O O10 0.166298 0.672407 0.272939
O O11 0.270367 0.707665 0.270700
O O12 0.238294 0.542411 0.262991
O O13 0.602437 0.812991 0.500000
O O14 0.322757 0.765836 0.500000
O O15 0.294621 0.877584 0.285656
O O16 0.370498 0.759751 0.256926
O O17 0.947916 0.849069 0.197886
O O18 0.935036 0.978966 0.000000
O O19 0.000000 0.000000 0.221469
O O20 0.756962 0.047661 0.500000
O O21 0.590997 0.236622 0.000000
#
# Coordination Sequence:
#
# PCOD8225431 Si02
#       8
#     8   8   8   8   8   8   8   8
#     4  10  19  34  56  85 116 142 178 229 276 325
#     4  10  23  42  60  78 107 150 193 233 280 330
#     4   9  17  31  52  81 114 145 177 220 273 324
#     4  10  20  35  57  84 114 144 182 233 279 324
#     4  10  19  34  57  83 110 144 184 219 267 334
#     4  10  21  37  57  79 106 145 186 222 274 337
#     4   9  17  30  51  78 109 144 177 214 267 328
#     4  10  22  39  56  78 112 145 181 235 283 325
#
# _framework density 18.857371000000001
#
# number of rings (size 3 to 8) (size 9 to 14) (size 15 to 20)
#    0.000    2.250    1.250    1.500    1.750    4.000 
#    0.000    1.250    0.000    1.500    0.000    0.000 
#    0.000    0.000    0.000    0.000    0.000    0.000 
#
# Total GULP energy -793576.822113 kJ/mol
# GULP energy per Si atom -12399.637846 kJ/mol
# Density = 1.881445 g / cm^3
# Si number density = 18.857371 Si / 1000 Ang^3
#
#
#
# Elastic Constant Matrix: (Units=GPa)
#
#
# Indices 1 2 3 4 5 6 
#
# 1 146.2668 70.1911 43.1040 0.0000 0.0000 0.0000
# 2 70.1911 151.5109 36.3098 0.0000 0.0000 0.0000
# 3 43.1040 36.3098 33.9944 0.0000 0.0000 0.0000
# 4 0.0000 0.0000 0.0000 22.5734 0.0000 0.0000
# 5 0.0000 0.0000 0.0000 0.0000 -168.9631 0.0000
# 6 0.0000 0.0000 0.0000 0.0000 0.0000 39.2721
#
#
#
# Elastic Compliance Matrix: (Units=1/GPa)
#
#
# Indices 1 2 3 4 5 6 
#
# 1 0.011569 -0.002479 -0.012022 0.000000 0.000000 0.000000
# 2 -0.002479 0.009402 -0.006900 0.000000 0.000000 0.000000
# 3 -0.012022 -0.006900 0.052029 0.000000 0.000000 0.000000
# 4 0.000000 0.000000 0.000000 0.044300 0.000000 0.000000
# 5 0.000000 0.000000 0.000000 0.000000 -0.005918 0.000000
# 6 0.000000 0.000000 0.000000 0.000000 0.000000 0.025463
#
#
# Mechanical properties :
#
#
# Convention : Reuss Voigt Hill
#
# Bulk Modulus (GPa) = 33.11201 70.10911 51.61056
# Shear Modulus (GPa) = 26.35577 -9.27903 8.53837
#
# Velocity S-wave (km/s) = 3.74255 -2.22066 2.13019
# Velocity P-wave (km/s) = 6.02270 5.53934 5.78607
#
# Compressibility (1/GPa) = 0.03020052
#
# Stress axis : x y z
#
# Youngs Moduli (GPa) = 86.43776 106.36114 19.21991
#
# Poissons Ratio (x) = 0.26363 0.23106
# Poissons Ratio (y) = 0.21424 0.13261
# Poissons Ratio (z) = 1.03914 0.73384
#
# Static dielectric constant tensor:
#      x y z
#    x 3.500360 0.000000 0.000000 
#    y 0.000000 3.841620 0.000000 
#    z 0.000000 0.000000 3.083540 
# 
# 
# High freq. dielectric constant tensor:
#      x y z
#    x 1.742070 0.000000 0.000000 
#    y 0.000000 1.752090 0.000000 
#    z 0.000000 0.000000 1.692730 
# 
# From -- ./inp_files/9647.got.cif
#   From: 2010.03.12/outbox.cif.g09.slc.cpg/sg55_5_cif.got.tgz:9647.got - 2010.04.16 15:19:21.
