data_PCOD8225575
_publ_section_title
;
Structure prediction by ZEFSAII (Michael W. Deem and Ramdas Pophale) SiO2 
 PCOD8225575
Probable space group: P B A M
;
_chemical_formula_sum "Si O2"
_cell_formula_units_Z 64
_cell_length_a 21.024324
_cell_length_b 16.883057
_cell_length_c 9.257431
_cell_angle_alpha 90.000000
_cell_angle_beta 90.000000
_cell_angle_gamma 90.000000
_cell_volume 3285.970129
_symmetry_space_group_name_H-M "P B A M"
_symmetry_group_IT_number 55
_symmetry_cell_setting 'orthorhombic'
loop_
_space_group_symop_operation_xyz
x,y,z
-x,-y,z
1/2+x,1/2-y,-z
1/2-x,1/2+y,-z
-x,-y,-z
x,y,-z
1/2-x,1/2+y,z
1/2+x,1/2-y,z
loop_
_atom_site_type_symbol
_atom_site_label
_atom_site_fract_x
_atom_site_fract_y
_atom_site_fract_z
Si Si1 0.595643 0.687213 0.834362
Si Si2 0.313473 0.894741 0.328860
Si Si3 0.572513 0.995656 0.329280
Si Si4 0.694400 0.556694 0.168179
Si Si5 0.141003 0.084405 0.335327
Si Si6 0.868003 0.330941 0.328723
Si Si7 0.499383 0.407069 0.658741
Si Si8 0.729719 0.277834 0.328663
O O1 0.663234 0.643360 0.807628
O O2 0.585545 0.765490 0.738562
O O3 0.539812 0.628541 0.789488
O O4 0.587270 0.710539 0.000000
O O5 0.303404 0.902620 0.500000
O O6 0.384225 0.927423 0.286501
O O7 0.261550 0.949928 0.250480
O O8 0.299902 0.805427 0.272277
O O9 0.566703 0.990370 0.500000
O O10 0.500000 0.000000 0.264897
O O11 0.609492 0.917184 0.272483
O O12 0.646547 0.492789 0.235955
O O13 0.704384 0.538538 0.000000
O O14 0.159327 0.061198 0.500000
O O15 0.071412 0.122525 0.328883
O O16 0.185285 0.152637 0.271252
O O17 0.871367 0.327657 0.500000
O O18 0.798953 0.303458 0.269766
O O19 0.500000 0.500000 0.675848
O O20 0.471146 0.383853 0.500000
O O21 0.731261 0.273675 0.500000
#
# Coordination Sequence:
#
# PCOD8225575 Si02
#       8
#     8   8   8   8   8   8   8   8
#     4  11  23  36  54  79 111 151 193 233 280 334
#     4  10  19  35  60  83 110 144 185 235 288 344
#     4   9  19  35  59  90 117 147 190 243 297 348
#     4  11  22  35  53  80 111 147 189 230 279 334
#     4  10  20  35  56  82 115 147 184 227 275 337
#     4  10  19  35  58  84 112 143 188 238 287 340
#     4  10  20  34  54  82 112 147 186 224 272 332
#     4   9  18  32  55  87 112 139 181 232 285 335
#
# _framework density 19.476742999999999
#
# number of rings (size 3 to 8) (size 9 to 14) (size 15 to 20)
#    0.000    2.000    2.500    1.500    0.000    4.750 
#    0.000    6.875    0.000    3.000    0.000    0.000 
#    0.000    0.000    0.000    0.000    0.000    0.000 
#
# Total GULP energy -793303.422852 kJ/mol
# GULP energy per Si atom -12395.365982 kJ/mol
# Density = 1.943241 g / cm^3
# Si number density = 19.476743 Si / 1000 Ang^3
#
#
#
# Elastic Constant Matrix: (Units=GPa)
#
#
# Indices 1 2 3 4 5 6 
#
# 1 106.4708 55.5220 27.8156 0.0000 0.0000 0.0000
# 2 55.5220 101.0132 32.7879 0.0000 0.0000 0.0000
# 3 27.8156 32.7879 44.5866 0.0000 0.0000 0.0000
# 4 0.0000 0.0000 0.0000 11.2085 0.0000 0.0000
# 5 0.0000 0.0000 0.0000 0.0000 16.1323 0.0000
# 6 0.0000 0.0000 0.0000 0.0000 0.0000 25.7453
#
#
#
# Elastic Compliance Matrix: (Units=1/GPa)
#
#
# Indices 1 2 3 4 5 6 
#
# 1 0.013675 -0.006236 -0.003946 0.000000 0.000000 0.000000
# 2 -0.006236 0.015847 -0.007763 0.000000 0.000000 0.000000
# 3 -0.003946 -0.007763 0.030599 0.000000 0.000000 0.000000
# 4 0.000000 0.000000 0.000000 0.089218 0.000000 0.000000
# 5 0.000000 0.000000 0.000000 0.000000 0.061988 0.000000
# 6 0.000000 0.000000 0.000000 0.000000 0.000000 0.038842
#
#
# Mechanical properties :
#
#
# Convention : Reuss Voigt Hill
#
# Bulk Modulus (GPa) = 41.26878 53.81350 47.54114
# Shear Modulus (GPa) = 16.99903 19.68022 18.33963
#
# Velocity S-wave (km/s) = 2.95750 3.18220 3.07191
# Velocity P-wave (km/s) = 5.73560 6.41806 6.08640
#
# Compressibility (1/GPa) = 0.02423139
#
# Stress axis : x y z
#
# Youngs Moduli (GPa) = 73.12733 63.10320 32.68113
#
# Poissons Ratio (x) = 0.39349 0.12894
# Poissons Ratio (y) = 0.45600 0.25372
# Poissons Ratio (z) = 0.28852 0.48989
#
# Static dielectric constant tensor:
#      x y z
#    x 3.883830 0.000000 0.000000 
#    y 0.000000 3.650450 0.000000 
#    z 0.000000 0.000000 3.155910 
# 
# 
# High freq. dielectric constant tensor:
#      x y z
#    x 1.760870 0.000000 0.000000 
#    y 0.000000 1.759610 0.000000 
#    z 0.000000 0.000000 1.719280 
# 
# From -- ./inp_files/7987.got.cif
#   From: 2010.03.12/outbox.cif.g09.slc.cpg/sg55_4_cif.got.tgz:7987.got - 2010.04.16 15:19:21.
