data_PCOD8225822
_publ_section_title
;
Structure prediction by ZEFSAII (Michael W. Deem and Ramdas Pophale) SiO2 
 PCOD8225822
Probable space group: P B A M
;
_chemical_formula_sum "Si O2"
_cell_formula_units_Z 48
_cell_length_a 30.998458
_cell_length_b 9.720479
_cell_length_c 8.848518
_cell_angle_alpha 90.000000
_cell_angle_beta 90.000000
_cell_angle_gamma 90.000000
_cell_volume 2666.234205
_symmetry_space_group_name_H-M "P B A M"
_symmetry_group_IT_number 55
_symmetry_cell_setting 'orthorhombic'
loop_
_space_group_symop_operation_xyz
x,y,z
-x,-y,z
1/2+x,1/2-y,-z
1/2-x,1/2+y,-z
-x,-y,-z
x,y,-z
1/2-x,1/2+y,z
1/2+x,1/2-y,z
loop_
_atom_site_type_symbol
_atom_site_label
_atom_site_fract_x
_atom_site_fract_y
_atom_site_fract_z
Si Si1 0.630160 0.905481 0.666910
Si Si2 0.536261 0.896801 0.321034
Si Si3 0.622139 0.580264 0.665875
Si Si4 0.717444 0.584473 0.679406
Si Si5 0.215318 0.619243 0.822453
Si Si6 0.537175 0.602261 0.822983
O O1 0.641569 0.964799 0.500000
O O2 0.583366 0.959939 0.723724
O O3 0.624968 0.743167 0.655278
O O4 0.668175 0.944249 0.782832
O O5 0.533481 0.879462 0.500000
O O6 0.528067 0.748407 0.251094
O O7 0.500000 0.000000 0.258350
O O8 0.611693 0.519368 0.500000
O O9 0.669302 0.529008 0.720297
O O10 0.583652 0.537183 0.777728
O O11 0.726047 0.575994 0.500000
O O12 0.749635 0.491209 0.773434
O O13 0.723759 0.741483 0.730720
O O14 0.218122 0.648084 0.000000
O O15 0.500000 0.500000 0.766756
O O16 0.536421 0.622630 0.000000
#
# Coordination Sequence:
#
# PCOD8225822 Si02
#       6
#     8   8   8   8   8   8
#     4   8  15  30  50  71  97 130 166 202 244 297
#     4   9  18  33  53  75  97 126 167 209 245 288
#     4   8  16  31  52  73  93 127 171 205 238 289
#     4  10  20  36  55  75 101 134 170 207 251 301
#     4  11  21  33  52  79 105 131 167 209 252 298
#     4  10  20  32  48  73 103 133 163 199 246 295
#
# _framework density 18.002918999999999
#
# number of rings (size 3 to 8) (size 9 to 14) (size 15 to 20)
#    0.000    2.667    0.000    4.500    0.000    8.333 
#    0.000    1.667    0.000    6.000    0.000    0.000 
#    0.000    0.000    0.000    0.000    0.000    0.000 
#
# Total GULP energy -594920.684596 kJ/mol
# GULP energy per Si atom -12394.180929 kJ/mol
# Density = 1.796194 g / cm^3
# Si number density = 18.002919 Si / 1000 Ang^3
#
#
#
# Elastic Constant Matrix: (Units=GPa)
#
#
# Indices 1 2 3 4 5 6 
#
# 1 150.6150 47.4681 40.7012 0.0000 0.0000 0.0000
# 2 47.4681 47.3888 19.8040 0.0000 0.0000 0.0000
# 3 40.7012 19.8040 60.6742 0.0000 0.0000 0.0000
# 4 0.0000 0.0000 0.0000 28.4877 0.0000 0.0000
# 5 0.0000 0.0000 0.0000 0.0000 21.0653 0.0000
# 6 0.0000 0.0000 0.0000 0.0000 0.0000 31.2736
#
#
#
# Elastic Compliance Matrix: (Units=1/GPa)
#
#
# Indices 1 2 3 4 5 6 
#
# 1 0.010553 -0.008815 -0.004202 0.000000 0.000000 0.000000
# 2 -0.008815 0.031798 -0.004466 0.000000 0.000000 0.000000
# 3 -0.004202 -0.004466 0.020758 0.000000 0.000000 0.000000
# 4 0.000000 0.000000 0.000000 0.035103 0.000000 0.000000
# 5 0.000000 0.000000 0.000000 0.000000 0.047471 0.000000
# 6 0.000000 0.000000 0.000000 0.000000 0.000000 0.031976
#
#
# Mechanical properties :
#
#
# Convention : Reuss Voigt Hill
#
# Bulk Modulus (GPa) = 35.53188 52.73608 44.13398
# Shear Modulus (GPa) = 22.52202 26.21228 24.36715
#
# Velocity S-wave (km/s) = 3.54081 3.81990 3.68300
# Velocity P-wave (km/s) = 6.04120 6.98657 6.53101
#
# Compressibility (1/GPa) = 0.02814374
#
# Stress axis : x y z
#
# Youngs Moduli (GPa) = 94.75966 31.44882 48.17447
#
# Poissons Ratio (x) = 0.27721 0.20243
# Poissons Ratio (y) = 0.83527 0.21514
# Poissons Ratio (z) = 0.39818 0.14044
#
# Static dielectric constant tensor:
#      x y z
#    x 4.108150 0.000000 0.000000 
#    y 0.000000 2.943490 0.000000 
#    z 0.000000 0.000000 3.291590 
# 
# 
# High freq. dielectric constant tensor:
#      x y z
#    x 1.718050 0.000000 0.000000 
#    y 0.000000 1.652610 0.000000 
#    z 0.000000 0.000000 1.695620 
# 
# From -- ./inp_files/10521.got.cif
#   From: 2010.03.12/outbox.cif.g09.slc.cpg/sg55_6_cif.got.tgz:10521.got - 2010.04.16 15:19:21.
