data_PCOD8225642
_publ_section_title
;
Structure prediction by ZEFSAII (Michael W. Deem and Ramdas Pophale) SiO2 
 PCOD8225642
Probable space group: P B A M
;
_chemical_formula_sum "Si O2"
_cell_formula_units_Z 64
_cell_length_a 30.432208
_cell_length_b 11.823456
_cell_length_c 8.503117
_cell_angle_alpha 90.000000
_cell_angle_beta 90.000000
_cell_angle_gamma 90.000000
_cell_volume 3059.539454
_symmetry_space_group_name_H-M "P B A M"
_symmetry_group_IT_number 55
_symmetry_cell_setting 'orthorhombic'
loop_
_space_group_symop_operation_xyz
x,y,z
-x,-y,z
1/2+x,1/2-y,-z
1/2-x,1/2+y,-z
-x,-y,-z
x,y,-z
1/2-x,1/2+y,z
1/2+x,1/2-y,z
loop_
_atom_site_type_symbol
_atom_site_label
_atom_site_fract_x
_atom_site_fract_y
_atom_site_fract_z
Si Si1 0.706005 0.284487 0.681067
Si Si2 0.840369 0.013632 0.680651
Si Si3 0.431924 0.490471 0.817831
Si Si4 0.376105 0.835481 0.818096
Si Si5 0.040921 0.214801 0.682108
Si Si6 0.452491 0.237848 0.816098
Si Si7 0.378951 0.082143 0.684641
Si Si8 0.196471 0.749706 0.313415
O O1 0.703800 0.244653 0.500000
O O2 0.695918 0.416945 0.696733
O O3 0.672599 0.207039 0.777738
O O4 0.754670 0.269777 0.753398
O O5 0.856129 0.027102 0.500000
O O6 0.881295 0.978761 0.787621
O O7 0.820056 0.129132 0.747555
O O8 0.461750 0.582284 0.728298
O O9 0.440914 0.364137 0.756229
O O10 0.443555 0.501590 0.000000
O O11 0.411341 0.765176 0.718322
O O12 0.379977 0.967105 0.780744
O O13 0.386141 0.814609 0.000000
O O14 0.030732 0.228504 0.500000
O O15 0.003758 0.283996 0.777931
O O16 0.423419 0.150547 0.718171
O O17 0.443026 0.221876 0.000000
O O18 0.375730 0.056106 0.500000
O O19 0.336999 0.153488 0.746238
O O20 0.197964 0.747856 0.500000
#
# Coordination Sequence:
#
# PCOD8225642 Si02
#       8
#     8   8   8   8   8   8   8   8
#     4  10  21  38  64  95 125 164 211 258 305 366
#     4  10  19  35  62  93 126 164 209 256 306 360
#     4  11  22  38  62  93 132 167 200 249 315 372
#     4  12  26  44  63  89 126 165 205 259 321 377
#     4  12  25  42  66  94 122 161 213 261 305 368
#     4  11  24  42  64  94 131 167 202 251 314 374
#     4  11  23  42  67  93 123 165 214 260 306 368
#     4   9  20  37  63  96 127 162 209 260 307 357
#
# _framework density 20.918182000000002
#
# number of rings (size 3 to 8) (size 9 to 14) (size 15 to 20)
#    0.000    1.250    2.500    3.750    1.750    3.500 
#    0.000    4.375    0.000    0.000    0.000    0.000 
#    0.000    0.000    0.000    0.000    0.000    0.000 
#
# Total GULP energy -793972.288843 kJ/mol
# GULP energy per Si atom -12405.817013 kJ/mol
# Density = 2.087057 g / cm^3
# Si number density = 20.918182 Si / 1000 Ang^3
#
#
#
# Elastic Constant Matrix: (Units=GPa)
#
#
# Indices 1 2 3 4 5 6 
#
# 1 95.4591 15.6397 8.0084 0.0000 0.0000 0.0000
# 2 15.6397 100.2453 17.2294 0.0000 0.0000 0.0000
# 3 8.0084 17.2294 59.2819 0.0000 0.0000 0.0000
# 4 0.0000 0.0000 0.0000 30.6093 0.0000 0.0000
# 5 0.0000 0.0000 0.0000 0.0000 17.1502 0.0000
# 6 0.0000 0.0000 0.0000 0.0000 0.0000 28.7632
#
#
#
# Elastic Compliance Matrix: (Units=1/GPa)
#
#
# Indices 1 2 3 4 5 6 
#
# 1 0.010809 -0.001511 -0.001021 0.000000 0.000000 0.000000
# 2 -0.001511 0.010711 -0.002909 0.000000 0.000000 0.000000
# 3 -0.001021 -0.002909 0.017852 0.000000 0.000000 0.000000
# 4 0.000000 0.000000 0.000000 0.032670 0.000000 0.000000
# 5 0.000000 0.000000 0.000000 0.000000 0.058308 0.000000
# 6 0.000000 0.000000 0.000000 0.000000 0.000000 0.034767
#
#
# Mechanical properties :
#
#
# Convention : Reuss Voigt Hill
#
# Bulk Modulus (GPa) = 35.09967 37.41571 36.25769
# Shear Modulus (GPa) = 26.95486 29.57848 28.26667
#
# Velocity S-wave (km/s) = 3.59358 3.76441 3.67999
# Velocity P-wave (km/s) = 5.83390 6.06794 5.95207
#
# Compressibility (1/GPa) = 0.02849029
#
# Stress axis : x y z
#
# Youngs Moduli (GPa) = 92.51652 93.36014 56.01632
#
# Poissons Ratio (x) = 0.14105 0.05720
# Poissons Ratio (y) = 0.13978 0.16295
# Poissons Ratio (z) = 0.09447 0.27158
#
# Static dielectric constant tensor:
#      x y z
#    x 3.914930 0.000000 0.000000 
#    y 0.000000 3.842830 0.000000 
#    z 0.000000 0.000000 3.543210 
# 
# 
# High freq. dielectric constant tensor:
#      x y z
#    x 1.829810 0.000000 0.000000 
#    y 0.000000 1.824240 0.000000 
#    z 0.000000 0.000000 1.802230 
# 
# From -- ./inp_files/10729.got.cif
#   From: 2010.03.12/outbox.cif.g09.slc.cpg/sg55_6_cif.got.tgz:10729.got - 2010.04.16 15:19:21.
