data_PCOD8225193
_publ_section_title
;
Structure prediction by ZEFSAII (Michael W. Deem and Ramdas Pophale) SiO2 
 PCOD8225193
Probable space group: P B A M
;
_chemical_formula_sum "Si O2"
_cell_formula_units_Z 56
_cell_length_a 19.992188
_cell_length_b 18.349370
_cell_length_c 8.837728
_cell_angle_alpha 90.000000
_cell_angle_beta 90.000000
_cell_angle_gamma 90.000000
_cell_volume 3242.067974
_symmetry_space_group_name_H-M "P B A M"
_symmetry_group_IT_number 55
_symmetry_cell_setting 'orthorhombic'
loop_
_space_group_symop_operation_xyz
x,y,z
-x,-y,z
1/2+x,1/2-y,-z
1/2-x,1/2+y,-z
-x,-y,-z
x,y,-z
1/2-x,1/2+y,z
1/2+x,1/2-y,z
loop_
_atom_site_type_symbol
_atom_site_label
_atom_site_fract_x
_atom_site_fract_y
_atom_site_fract_z
Si Si1 0.133979 0.562012 0.670663
Si Si2 0.913917 0.590189 0.329067
Si Si3 0.214000 0.448067 0.179078
Si Si4 0.145796 0.936632 0.322931
Si Si5 0.935902 0.948892 0.166469
Si Si6 0.537457 0.665060 0.177842
Si Si7 0.962419 0.332789 0.822320
O O1 0.156107 0.581509 0.500000
O O2 0.077164 0.498111 0.669635
O O3 0.198437 0.530930 0.762315
O O4 0.104083 0.633498 0.748591
O O5 0.914039 0.621071 0.500000
O O6 0.842086 0.606713 0.249228
O O7 0.971668 0.627465 0.234479
O O8 0.285687 0.421892 0.235651
O O9 0.210661 0.445189 0.000000
O O10 0.158986 0.932829 0.500000
O O11 0.095113 0.873519 0.273892
O O12 0.117521 0.017303 0.282473
O O13 0.964462 0.869876 0.217602
O O14 0.902058 0.944221 0.000000
O O15 0.000000 0.000000 0.157469
O O16 0.534529 0.748813 0.225447
O O17 0.552966 0.654134 0.000000
O O18 0.957459 0.343410 0.000000
#
# Coordination Sequence:
#
# PCOD8225193 Si02
#       7
#     8   8   8   8   8   8   8
#     4   9  19  33  50  75 104 133 168 212 255 303
#     4   9  19  33  50  74 104 134 167 210 257 304
#     4  10  19  33  54  75  97 130 172 212 253 304
#     4  11  20  32  53  79 104 132 170 216 260 307
#     4   8  15  31  52  72  98 130 165 209 251 293
#     4   9  20  35  51  76 106 137 174 211 254 305
#     4  11  20  31  52  78 105 137 173 213 254 304
#
# _framework density 17.272925999999998
#
# number of rings (size 3 to 8) (size 9 to 14) (size 15 to 20)
#    0.857    1.571    0.000    4.714    0.000    5.429 
#    0.000    0.000    3.143    0.000    0.000    0.000 
#    0.000    0.000    0.000    0.000    0.000    0.000 
#
# Total GULP energy -693982.321261 kJ/mol
# GULP energy per Si atom -12392.541451 kJ/mol
# Density = 1.723361 g / cm^3
# Si number density = 17.272926 Si / 1000 Ang^3
#
#
#
# Elastic Constant Matrix: (Units=GPa)
#
#
# Indices 1 2 3 4 5 6 
#
# 1 32.5688 4.7216 8.1264 0.0000 0.0000 0.0000
# 2 4.7216 70.1310 20.7618 0.0000 0.0000 0.0000
# 3 8.1264 20.7618 90.7637 0.0000 0.0000 0.0000
# 4 0.0000 0.0000 0.0000 19.6951 0.0000 0.0000
# 5 0.0000 0.0000 0.0000 0.0000 28.5570 0.0000
# 6 0.0000 0.0000 0.0000 0.0000 0.0000 9.4519
#
#
#
# Elastic Compliance Matrix: (Units=1/GPa)
#
#
# Indices 1 2 3 4 5 6 
#
# 1 0.031530 -0.001381 -0.002507 0.000000 0.000000 0.000000
# 2 -0.001381 0.015355 -0.003389 0.000000 0.000000 0.000000
# 3 -0.002507 -0.003389 0.012017 0.000000 0.000000 0.000000
# 4 0.000000 0.000000 0.000000 0.050774 0.000000 0.000000
# 5 0.000000 0.000000 0.000000 0.000000 0.035018 0.000000
# 6 0.000000 0.000000 0.000000 0.000000 0.000000 0.105798
#
#
# Mechanical properties :
#
#
# Convention : Reuss Voigt Hill
#
# Bulk Modulus (GPa) = 22.54826 28.96479 25.75653
# Shear Modulus (GPa) = 17.86807 22.19773 20.03290
#
# Velocity S-wave (km/s) = 3.21978 3.58874 3.40926
# Velocity P-wave (km/s) = 5.18702 5.82901 5.51736
#
# Compressibility (1/GPa) = 0.04434931
#
# Stress axis : x y z
#
# Youngs Moduli (GPa) = 31.71588 65.12446 83.21349
#
# Poissons Ratio (x) = 0.08991 0.20863
# Poissons Ratio (y) = 0.04378 0.28200
# Poissons Ratio (z) = 0.07952 0.22070
#
# Static dielectric constant tensor:
#      x y z
#    x 3.063990 0.000000 0.000000 
#    y 0.000000 3.200440 0.000000 
#    z 0.000000 0.000000 3.244710 
# 
# 
# High freq. dielectric constant tensor:
#      x y z
#    x 1.651660 0.000000 0.000000 
#    y 0.000000 1.639510 0.000000 
#    z 0.000000 0.000000 1.678920 
# 
# From -- ./inp_files/8914.got.cif
#   From: 2010.03.12/outbox.cif.g09.slc.cpg/sg55_5_cif.got.tgz:8914.got - 2010.04.16 15:19:21.
