data_PCOD8225335
_publ_section_title
;
Structure prediction by ZEFSAII (Michael W. Deem and Ramdas Pophale) SiO2 
 PCOD8225335
Probable space group: P B A M
;
_chemical_formula_sum "Si O2"
_cell_formula_units_Z 48
_cell_length_a 14.034636
_cell_length_b 20.154988
_cell_length_c 8.797909
_cell_angle_alpha 90.000000
_cell_angle_beta 90.000000
_cell_angle_gamma 90.000000
_cell_volume 2488.646221
_symmetry_space_group_name_H-M "P B A M"
_symmetry_group_IT_number 55
_symmetry_cell_setting 'orthorhombic'
loop_
_space_group_symop_operation_xyz
x,y,z
-x,-y,z
1/2+x,1/2-y,-z
1/2-x,1/2+y,-z
-x,-y,-z
x,y,-z
1/2-x,1/2+y,z
1/2+x,1/2-y,z
loop_
_atom_site_type_symbol
_atom_site_label
_atom_site_fract_x
_atom_site_fract_y
_atom_site_fract_z
Si Si1 0.752390 0.110813 0.819406
Si Si2 0.239899 0.246908 0.678435
Si Si3 0.044661 0.193070 0.326137
Si Si4 0.426517 0.177404 0.670949
Si Si5 0.558874 0.564734 0.319649
Si Si6 0.045388 0.432954 0.178468
O O1 0.767870 0.185760 0.763468
O O2 0.836490 0.064032 0.755598
O O3 0.651131 0.082298 0.756455
O O4 0.754784 0.109745 0.000000
O O5 0.231082 0.264642 0.500000
O O6 0.142455 0.218124 0.750557
O O7 0.315056 0.187466 0.705702
O O8 0.068713 0.176871 0.500000
O O9 0.967102 0.249512 0.307680
O O10 0.001801 0.126511 0.252176
O O11 0.444624 0.151131 0.500000
O O12 0.473704 0.126902 0.786958
O O13 0.500000 0.500000 0.272318
O O14 0.573007 0.570312 0.500000
O O15 0.000000 0.500000 0.250154
O O16 0.053577 0.441041 0.000000
#
# Coordination Sequence:
#
# PCOD8225335 Si02
#       6
#     8   8   8   8   8   8
#     4  11  22  36  57  82 109 146 190 230 281 336
#     4  10  19  34  57  83 115 147 183 232 281 328
#     4   9  17  32  55  84 113 142 179 227 277 322
#     4  10  19  33  58  86 110 142 185 232 276 323
#     4  10  21  38  60  85 115 151 186 225 281 341
#     4  10  23  41  57  78 115 154 186 229 282 336
#
# _framework density 19.287593999999999
#
# number of rings (size 3 to 8) (size 9 to 14) (size 15 to 20)
#    0.000    2.000    3.333    0.500    0.000    3.333 
#    0.000    2.500    0.000    0.000    0.000    0.000 
#    0.000    0.000    0.000    0.000    0.000    0.000 
#
# Total GULP energy -595124.744038 kJ/mol
# GULP energy per Si atom -12398.432167 kJ/mol
# Density = 1.924369 g / cm^3
# Si number density = 19.287594 Si / 1000 Ang^3
#
#
#
# Elastic Constant Matrix: (Units=GPa)
#
#
# Indices 1 2 3 4 5 6 
#
# 1 117.1934 37.1173 23.7024 0.0000 0.0000 0.0000
# 2 37.1173 89.0783 20.4489 0.0000 0.0000 0.0000
# 3 23.7024 20.4489 30.0085 0.0000 0.0000 0.0000
# 4 0.0000 0.0000 0.0000 20.4728 0.0000 0.0000
# 5 0.0000 0.0000 0.0000 0.0000 23.8843 0.0000
# 6 0.0000 0.0000 0.0000 0.0000 0.0000 33.0552
#
#
#
# Elastic Compliance Matrix: (Units=1/GPa)
#
#
# Indices 1 2 3 4 5 6 
#
# 1 0.010797 -0.003012 -0.006475 0.000000 0.000000 0.000000
# 2 -0.003012 0.014148 -0.007262 0.000000 0.000000 0.000000
# 3 -0.006475 -0.007262 0.043387 0.000000 0.000000 0.000000
# 4 0.000000 0.000000 0.000000 0.048845 0.000000 0.000000
# 5 0.000000 0.000000 0.000000 0.000000 0.041868 0.000000
# 6 0.000000 0.000000 0.000000 0.000000 0.000000 0.030252
#
#
# Mechanical properties :
#
#
# Convention : Reuss Voigt Hill
#
# Bulk Modulus (GPa) = 28.70826 44.31304 36.51065
# Shear Modulus (GPa) = 21.33040 25.81657 23.57349
#
# Velocity S-wave (km/s) = 3.32913 3.66253 3.49980
# Velocity P-wave (km/s) = 5.44923 6.39611 5.94157
#
# Compressibility (1/GPa) = 0.03483318
#
# Stress axis : x y z
#
# Youngs Moduli (GPa) = 92.62243 70.67986 23.04853
#
# Poissons Ratio (x) = 0.21291 0.14924
# Poissons Ratio (y) = 0.27901 0.16738
# Poissons Ratio (z) = 0.59973 0.51327
#
# Static dielectric constant tensor:
#      x y z
#    x 3.858270 0.000000 0.000000 
#    y 0.000000 3.526500 0.000000 
#    z 0.000000 0.000000 3.199000 
# 
# 
# High freq. dielectric constant tensor:
#      x y z
#    x 1.771290 0.000000 0.000000 
#    y 0.000000 1.744580 0.000000 
#    z 0.000000 0.000000 1.715350 
# 
# From -- ./inp_files/5625.got.cif
#   From: 2010.03.12/outbox.cif.g09.slc.cpg/sg55_3_cif.got.tgz:5625.got - 2010.04.16 15:19:21.
