data_PCOD8225412
_publ_section_title
;
Structure prediction by ZEFSAII (Michael W. Deem and Ramdas Pophale) SiO2 
 PCOD8225412
Probable space group: P B A M
;
_chemical_formula_sum "Si O2"
_cell_formula_units_Z 48
_cell_length_a 8.942959
_cell_length_b 31.154043
_cell_length_c 8.325920
_cell_angle_alpha 90.000000
_cell_angle_beta 90.000000
_cell_angle_gamma 90.000000
_cell_volume 2319.678986
_symmetry_space_group_name_H-M "P B A M"
_symmetry_group_IT_number 55
_symmetry_cell_setting 'orthorhombic'
loop_
_space_group_symop_operation_xyz
x,y,z
-x,-y,z
1/2+x,1/2-y,-z
1/2-x,1/2+y,-z
-x,-y,-z
x,y,-z
1/2-x,1/2+y,z
1/2+x,1/2-y,z
loop_
_atom_site_type_symbol
_atom_site_label
_atom_site_fract_x
_atom_site_fract_y
_atom_site_fract_z
Si Si1 0.417231 0.458197 0.809262
Si Si2 0.576806 0.212881 0.185945
Si Si3 0.576295 0.371319 0.809585
Si Si4 0.600595 0.708800 0.316353
Si Si5 0.916726 0.372910 0.190543
Si Si6 0.580378 0.042793 0.808221
O O1 0.500000 0.500000 0.738029
O O2 0.507298 0.416389 0.754024
O O3 0.249094 0.456234 0.741173
O O4 0.412800 0.461086 0.000000
O O5 0.508928 0.251518 0.287084
O O6 0.754789 0.212203 0.204220
O O7 0.507615 0.168464 0.251819
O O8 0.536594 0.219828 0.000000
O O9 0.486895 0.334434 0.721029
O O10 0.746811 0.369921 0.749098
O O11 0.564042 0.364479 0.000000
O O12 0.653049 0.708703 0.500000
O O13 0.993599 0.415749 0.261066
O O14 0.921005 0.375278 0.000000
O O15 0.500000 0.000000 0.743513
O O16 0.579582 0.043396 0.000000
#
# Coordination Sequence:
#
# PCOD8225412 Si02
#       6
#     8   8   8   8   8   8
#     4   9  16  26  45  76 111 146 187 237 287 335
#     4  11  22  39  61  83 110 147 191 234 282 342
#     4  10  19  34  56  81 111 148 191 235 284 344
#     4  12  25  40  58  84 116 147 185 235 291 345
#     4   9  18  31  51  79 107 140 183 229 274 328
#     4   9  15  24  40  68 109 147 177 219 278 334
#
# _framework density 20.692519999999998
#
# number of rings (size 3 to 8) (size 9 to 14) (size 15 to 20)
#    0.000    2.000    0.000    5.000    0.000    8.000 
#    0.000    0.833    0.000    0.500    0.000    0.000 
#    0.000    8.000    0.000    0.000    0.000    0.000 
#
# Total GULP energy -595368.350559 kJ/mol
# GULP energy per Si atom -12403.507303 kJ/mol
# Density = 2.064542 g / cm^3
# Si number density = 20.692520 Si / 1000 Ang^3
#
#
#
# Elastic Constant Matrix: (Units=GPa)
#
#
# Indices 1 2 3 4 5 6 
#
# 1 162.9814 72.2061 5.6767 0.0000 0.0000 0.0000
# 2 72.2061 179.7974 18.0096 0.0000 0.0000 0.0000
# 3 5.6767 18.0096 33.4138 0.0000 0.0000 0.0000
# 4 0.0000 0.0000 0.0000 3.3533 0.0000 0.0000
# 5 0.0000 0.0000 0.0000 0.0000 10.7054 0.0000
# 6 0.0000 0.0000 0.0000 0.0000 0.0000 47.9953
#
#
#
# Elastic Compliance Matrix: (Units=1/GPa)
#
#
# Indices 1 2 3 4 5 6 
#
# 1 0.007468 -0.003036 0.000368 0.000000 0.000000 0.000000
# 2 -0.003036 0.007113 -0.003318 0.000000 0.000000 0.000000
# 3 0.000368 -0.003318 0.031654 0.000000 0.000000 0.000000
# 4 0.000000 0.000000 0.000000 0.298215 0.000000 0.000000
# 5 0.000000 0.000000 0.000000 0.000000 0.093411 0.000000
# 6 0.000000 0.000000 0.000000 0.000000 0.000000 0.020835
#
#
# Mechanical properties :
#
#
# Convention : Reuss Voigt Hill
#
# Bulk Modulus (GPa) = 29.18693 63.10861 46.14777
# Shear Modulus (GPa) = 10.37151 31.09749 20.73450
#
# Velocity S-wave (km/s) = 2.24122 3.88085 3.16892
# Velocity P-wave (km/s) = 4.56433 7.11659 5.97825
#
# Compressibility (1/GPa) = 0.03426191
#
# Stress axis : x y z
#
# Youngs Moduli (GPa) = 133.90708 140.57981 31.59181
#
# Poissons Ratio (x) = 0.42679 -0.01161
# Poissons Ratio (y) = 0.40653 0.10483
# Poissons Ratio (z) = -0.04922 0.46648
#
# Static dielectric constant tensor:
#      x y z
#    x 3.976620 0.000000 0.000000 
#    y 0.000000 4.011720 0.000000 
#    z 0.000000 0.000000 3.093170 
# 
# 
# High freq. dielectric constant tensor:
#      x y z
#    x 1.827250 0.000000 0.000000 
#    y 0.000000 1.829740 0.000000 
#    z 0.000000 0.000000 1.751770 
# 
# From -- ./inp_files/2770.got.cif
#   From: 2010.03.12/outbox.cif.g09.slc.cpg/sg55_2_cif.got.tgz:2770.got - 2010.04.16 15:19:21.
