data_PCOD8225862
_publ_section_title
;
Structure prediction by ZEFSAII (Michael W. Deem and Ramdas Pophale) SiO2 
 PCOD8225862
Probable space group: P B A M
;
_chemical_formula_sum "Si O2"
_cell_formula_units_Z 56
_cell_length_a 32.752917
_cell_length_b 11.326800
_cell_length_c 7.772466
_cell_angle_alpha 90.000000
_cell_angle_beta 90.000000
_cell_angle_gamma 90.000000
_cell_volume 2883.474053
_symmetry_space_group_name_H-M "P B A M"
_symmetry_group_IT_number 55
_symmetry_cell_setting 'orthorhombic'
loop_
_space_group_symop_operation_xyz
x,y,z
-x,-y,z
1/2+x,1/2-y,-z
1/2-x,1/2+y,-z
-x,-y,-z
x,y,-z
1/2-x,1/2+y,z
1/2+x,1/2-y,z
loop_
_atom_site_type_symbol
_atom_site_label
_atom_site_fract_x
_atom_site_fract_y
_atom_site_fract_z
Si Si1 0.427434 0.755924 0.696764
Si Si2 0.914734 0.259349 0.805177
Si Si3 0.838063 0.130952 0.311186
Si Si4 0.046221 0.501512 0.795699
Si Si5 0.783306 0.851634 0.000000
Si Si6 0.007542 0.863742 0.302277
Si Si7 0.346319 0.635991 0.698974
Si Si8 0.278118 0.370689 0.000000
O O1 0.427625 0.714817 0.500000
O O2 0.468706 0.703988 0.782844
O O3 0.385596 0.704814 0.775412
O O4 0.427318 0.895978 0.717629
O O5 0.875615 0.221286 0.696753
O O6 0.931591 0.381539 0.728339
O O7 0.951473 0.165760 0.800034
O O8 0.899890 0.273762 0.000000
O O9 0.817614 0.144058 0.500000
O O10 0.857244 0.001576 0.287808
O O11 0.804125 0.155459 0.169720
O O12 0.000000 0.500000 0.723704
O O13 0.045902 0.493559 0.000000
O O14 0.808739 0.836117 0.824523
O O15 0.763755 0.988118 0.000000
O O16 0.754698 0.735407 0.000000
O O17 0.013596 0.825741 0.500000
O O18 0.000000 0.000000 0.281128
O O19 0.335670 0.671815 0.500000
#
# Coordination Sequence:
#
# PCOD8225862 Si02
#       8
#     8   8   8   8   4   8   8   4
#     4  10  20  34  53  78 110 147 198 245 282 343
#     4  11  21  35  53  79 112 149 201 247 285 346
#     4  10  20  39  65  87 120 157 189 242 294 343
#     4  10  21  36  50  70 110 159 199 242 291 337
#     4  10  22  42  70  93 124 159 183 236 297 356
#     4  10  20  33  50  75 108 148 193 244 292 335
#     4   9  20  39  62  91 119 151 195 238 290 349
#     4  10  22  44  66  99 124 151 197 228 293 372
#
# _framework density 19.421016999999999
#
# number of rings (size 3 to 8) (size 9 to 14) (size 15 to 20)
#    0.000    2.000    2.143    1.286    1.000    4.571 
#    2.571    0.000    0.000    0.000    0.000    0.000 
#    0.000    0.000    0.000    0.000    0.000    0.000 
#
# Total GULP energy -694149.558372 kJ/mol
# GULP energy per Si atom -12395.527828 kJ/mol
# Density = 1.937681 g / cm^3
# Si number density = 19.421017 Si / 1000 Ang^3
#
#
#
# Elastic Constant Matrix: (Units=GPa)
#
#
# Indices 1 2 3 4 5 6 
#
# 1 94.5789 57.7986 36.4481 0.0000 0.0000 0.0000
# 2 57.7986 110.1931 30.0142 0.0000 0.0000 0.0000
# 3 36.4481 30.0142 75.8303 0.0000 0.0000 0.0000
# 4 0.0000 0.0000 0.0000 20.4436 0.0000 0.0000
# 5 0.0000 0.0000 0.0000 0.0000 12.6627 0.0000
# 6 0.0000 0.0000 0.0000 0.0000 0.0000 42.7804
#
#
#
# Elastic Compliance Matrix: (Units=1/GPa)
#
#
# Indices 1 2 3 4 5 6 
#
# 1 0.017263 -0.007616 -0.005283 0.000000 0.000000 0.000000
# 2 -0.007616 0.013531 -0.001695 0.000000 0.000000 0.000000
# 3 -0.005283 -0.001695 0.016398 0.000000 0.000000 0.000000
# 4 0.000000 0.000000 0.000000 0.048915 0.000000 0.000000
# 5 0.000000 0.000000 0.000000 0.000000 0.078972 0.000000
# 6 0.000000 0.000000 0.000000 0.000000 0.000000 0.023375
#
#
# Mechanical properties :
#
#
# Convention : Reuss Voigt Hill
#
# Bulk Modulus (GPa) = 55.54407 58.79156 57.16782
# Shear Modulus (GPa) = 21.39996 25.60010 23.50003
#
# Velocity S-wave (km/s) = 3.32308 3.63459 3.48232
# Velocity P-wave (km/s) = 6.58680 6.92470 6.75786
#
# Compressibility (1/GPa) = 0.01800372
#
# Stress axis : x y z
#
# Youngs Moduli (GPa) = 57.92573 73.90172 60.98407
#
# Poissons Ratio (x) = 0.56284 0.32220
# Poissons Ratio (y) = 0.44116 0.10338
# Poissons Ratio (z) = 0.30604 0.12528
#
# Static dielectric constant tensor:
#      x y z
#    x 3.330150 0.000000 0.000000 
#    y 0.000000 3.629220 0.000000 
#    z 0.000000 0.000000 3.591010 
# 
# 
# High freq. dielectric constant tensor:
#      x y z
#    x 1.730580 0.000000 0.000000 
#    y 0.000000 1.760840 0.000000 
#    z 0.000000 0.000000 1.759070 
# 
# From -- ./inp_files/10681.got.cif
#   From: 2010.03.12/outbox.cif.g09.slc.cpg/sg55_6_cif.got.tgz:10681.got - 2010.04.16 15:19:21.
