data_PCOD8225527
_publ_section_title
;
Structure prediction by ZEFSAII (Michael W. Deem and Ramdas Pophale) SiO2 
 PCOD8225527
Probable space group: P B A M
;
_chemical_formula_sum "Si O2"
_cell_formula_units_Z 48
_cell_length_a 15.148996
_cell_length_b 8.981653
_cell_length_c 16.432662
_cell_angle_alpha 90.000000
_cell_angle_beta 90.000000
_cell_angle_gamma 90.000000
_cell_volume 2235.877707
_symmetry_space_group_name_H-M "P B A M"
_symmetry_group_IT_number 55
_symmetry_cell_setting 'orthorhombic'
loop_
_space_group_symop_operation_xyz
x,y,z
-x,-y,z
1/2+x,1/2-y,-z
1/2-x,1/2+y,-z
-x,-y,-z
x,y,-z
1/2-x,1/2+y,z
1/2+x,1/2-y,z
loop_
_atom_site_type_symbol
_atom_site_label
_atom_site_fract_x
_atom_site_fract_y
_atom_site_fract_z
Si Si1 0.193635 0.388481 0.176046
Si Si2 0.149011 0.254536 0.338901
Si Si3 0.703509 0.086254 0.000000
Si Si4 0.701332 0.549924 0.594126
Si Si5 0.534485 0.663330 0.324279
Si Si6 0.130127 0.719152 0.176077
Si Si7 0.634447 0.769149 0.000000
O O1 0.143066 0.290215 0.242752
O O2 0.159882 0.349524 0.083744
O O3 0.178588 0.562826 0.193080
O O4 0.297846 0.351260 0.183876
O O5 0.203895 0.377200 0.388246
O O6 0.047138 0.246870 0.369924
O O7 0.197298 0.097396 0.351634
O O8 0.701933 0.908139 0.000000
O O9 0.807307 0.120852 0.000000
O O10 0.694045 0.507230 0.500000
O O11 0.620126 0.659448 0.617343
O O12 0.500000 0.500000 0.300327
O O13 0.555211 0.754277 0.242460
O O14 0.081971 0.722619 0.086122
#
# Coordination Sequence:
#
# PCOD8225527 Si02
#       7
#     8   8   4   8   8   8   4
#     4  10  19  34  63  88 127 166 207 255 300 362
#     4  11  23  41  65  94 122 159 204 253 309 371
#     4   8  16  30  51  91 117 162 211 246 299 351
#     4  11  24  44  67  91 121 161 204 253 315 378
#     4  10  24  40  63  92 125 161 206 254 311 371
#     4  10  19  36  59  92 128 167 214 254 306 362
#     4   8  16  30  54  83 126 167 205 259 297 352
#
# _framework density 21.468078999999999
#
# number of rings (size 3 to 8) (size 9 to 14) (size 15 to 20)
#    0.000    2.000    1.667    1.500    2.333    4.333 
#    0.000    1.250    0.000    5.000    0.000    0.000 
#    0.000    0.000    0.000    0.000    0.000    0.000 
#
# Total GULP energy -594715.168969 kJ/mol
# GULP energy per Si atom -12389.899354 kJ/mol
# Density = 2.141922 g / cm^3
# Si number density = 21.468079 Si / 1000 Ang^3
#
#
#
# Elastic Constant Matrix: (Units=GPa)
#
#
# Indices 1 2 3 4 5 6 
#
# 1 76.9943 45.5709 39.3732 0.0000 0.0000 0.0000
# 2 45.5709 82.9373 44.3165 0.0000 0.0000 0.0000
# 3 39.3732 44.3165 124.8380 0.0000 0.0000 0.0000
# 4 0.0000 0.0000 0.0000 25.1537 0.0000 0.0000
# 5 0.0000 0.0000 0.0000 0.0000 12.0179 0.0000
# 6 0.0000 0.0000 0.0000 0.0000 0.0000 24.8254
#
#
#
# Elastic Compliance Matrix: (Units=1/GPa)
#
#
# Indices 1 2 3 4 5 6 
#
# 1 0.020111 -0.009454 -0.002987 0.000000 0.000000 0.000000
# 2 -0.009454 0.019324 -0.003878 0.000000 0.000000 0.000000
# 3 -0.002987 -0.003878 0.010329 0.000000 0.000000 0.000000
# 4 0.000000 0.000000 0.000000 0.039756 0.000000 0.000000
# 5 0.000000 0.000000 0.000000 0.000000 0.083209 0.000000
# 6 0.000000 0.000000 0.000000 0.000000 0.000000 0.040281
#
#
# Mechanical properties :
#
#
# Convention : Reuss Voigt Hill
#
# Bulk Modulus (GPa) = 58.39039 60.36565 59.37802
# Shear Modulus (GPa) = 19.89195 22.76667 21.32931
#
# Velocity S-wave (km/s) = 3.04728 3.26005 3.15546
# Velocity P-wave (km/s) = 6.29595 6.50772 6.40271
#
# Compressibility (1/GPa) = 0.01712611
#
# Stress axis : x y z
#
# Youngs Moduli (GPa) = 49.72381 51.74821 96.81411
#
# Poissons Ratio (x) = 0.48925 0.28915
# Poissons Ratio (y) = 0.47011 0.37546
# Poissons Ratio (z) = 0.14851 0.20069
#
# Static dielectric constant tensor:
#      x y z
#    x 3.642210 0.000000 0.000000 
#    y 0.000000 3.826080 0.000000 
#    z 0.000000 0.000000 4.166500 
# 
# 
# High freq. dielectric constant tensor:
#      x y z
#    x 1.810250 0.000000 0.000000 
#    y 0.000000 1.836680 0.000000 
#    z 0.000000 0.000000 1.853140 
# 
# From -- ./inp_files/20854.got.cif
#   From: 2010.03.12/outbox.cif.g09.slc.cpg/sg55_11_cif.got.tgz:20854.got - 2010.04.16 15:19:21.
