data_PCOD8225611
_publ_section_title
;
Structure prediction by ZEFSAII (Michael W. Deem and Ramdas Pophale) SiO2 
 PCOD8225611
Probable space group: P B A M
;
_chemical_formula_sum "Si O2"
_cell_formula_units_Z 48
_cell_length_a 9.920258
_cell_length_b 30.504727
_cell_length_c 7.631188
_cell_angle_alpha 90.000000
_cell_angle_beta 90.000000
_cell_angle_gamma 90.000000
_cell_volume 2309.310141
_symmetry_space_group_name_H-M "P B A M"
_symmetry_group_IT_number 55
_symmetry_cell_setting 'orthorhombic'
loop_
_space_group_symop_operation_xyz
x,y,z
-x,-y,z
1/2+x,1/2-y,-z
1/2-x,1/2+y,-z
-x,-y,-z
x,y,-z
1/2-x,1/2+y,z
1/2+x,1/2-y,z
loop_
_atom_site_type_symbol
_atom_site_label
_atom_site_fract_x
_atom_site_fract_y
_atom_site_fract_z
Si Si1 0.007727 0.635853 0.801968
Si Si2 0.058383 0.297609 0.500000
Si Si3 0.630626 0.715186 0.500000
Si Si4 0.271936 0.924016 0.203776
Si Si5 0.798304 0.891638 0.697766
Si Si6 0.429876 0.350883 0.800345
Si Si7 0.346462 0.512245 0.795843
O O1 0.960317 0.674009 0.674382
O O2 0.924050 0.591449 0.756619
O O3 0.163388 0.624634 0.789612
O O4 0.973362 0.650981 0.000000
O O5 0.208224 0.277181 0.500000
O O6 0.942508 0.261570 0.500000
O O7 0.582803 0.690995 0.676209
O O8 0.169385 0.887757 0.280547
O O9 0.244952 0.972402 0.281752
O O10 0.237344 0.927721 0.000000
O O11 0.800204 0.874054 0.500000
O O12 0.920059 0.870148 0.803651
O O13 0.806297 0.944100 0.694119
O O14 0.391202 0.337645 0.000000
O O15 0.500000 0.500000 0.758422
O O16 0.319919 0.521011 0.000000
#
# Coordination Sequence:
#
# PCOD8225611 Si02
#       7
#     8   4   4   8   8   8   8
#     4  11  24  46  70  93 134 182 221 270 333 397
#     4  12  28  48  72 103 136 166 211 273 335 403
#     4  12  28  46  72 103 137 167 210 274 330 402
#     4   9  19  38  66  92 125 179 226 264 321 381
#     4  12  24  39  62  99 137 177 226 280 327 382
#     4  11  22  43  70  95 130 179 222 262 326 395
#     4  10  19  35  59  93 134 174 226 281 323 378
#
# _framework density 20.785428
#
# number of rings (size 3 to 8) (size 9 to 14) (size 15 to 20)
#    0.000    1.167    5.000    1.500    2.333    1.667 
#    3.000    3.333    0.000    0.000    0.000    0.000 
#    0.000    0.000    0.000    0.000    0.000    0.000 
#
# Total GULP energy -595297.062562 kJ/mol
# GULP energy per Si atom -12402.022137 kJ/mol
# Density = 2.073812 g / cm^3
# Si number density = 20.785428 Si / 1000 Ang^3
#
#
#
# Elastic Constant Matrix: (Units=GPa)
#
#
# Indices 1 2 3 4 5 6 
#
# 1 122.7112 25.0364 20.3872 0.0000 0.0000 0.0000
# 2 25.0364 84.8800 36.2930 0.0000 0.0000 0.0000
# 3 20.3872 36.2930 100.6786 0.0000 0.0000 0.0000
# 4 0.0000 0.0000 0.0000 22.6571 0.0000 0.0000
# 5 0.0000 0.0000 0.0000 0.0000 42.1306 0.0000
# 6 0.0000 0.0000 0.0000 0.0000 0.0000 34.0129
#
#
#
# Elastic Compliance Matrix: (Units=1/GPa)
#
#
# Indices 1 2 3 4 5 6 
#
# 1 0.008755 -0.002157 -0.000995 0.000000 0.000000 0.000000
# 2 -0.002157 0.014459 -0.004776 0.000000 0.000000 0.000000
# 3 -0.000995 -0.004776 0.011856 0.000000 0.000000 0.000000
# 4 0.000000 0.000000 0.000000 0.044136 0.000000 0.000000
# 5 0.000000 0.000000 0.000000 0.000000 0.023736 0.000000
# 6 0.000000 0.000000 0.000000 0.000000 0.000000 0.029401
#
#
# Mechanical properties :
#
#
# Convention : Reuss Voigt Hill
#
# Bulk Modulus (GPa) = 52.04439 52.41144 52.22791
# Shear Modulus (GPa) = 32.34098 34.86365 33.60231
#
# Velocity S-wave (km/s) = 3.94883 4.09994 4.02509
# Velocity P-wave (km/s) = 6.77379 6.90528 6.83985
#
# Compressibility (1/GPa) = 0.01921437
#
# Stress axis : x y z
#
# Youngs Moduli (GPa) = 114.22565 69.15886 84.34758
#
# Poissons Ratio (x) = 0.14915 0.08395
# Poissons Ratio (y) = 0.24635 0.40282
# Poissons Ratio (z) = 0.11369 0.33028
#
# Static dielectric constant tensor:
#      x y z
#    x 3.850440 0.000000 0.000000 
#    y 0.000000 3.670050 0.000000 
#    z 0.000000 0.000000 3.688240 
# 
# 
# High freq. dielectric constant tensor:
#      x y z
#    x 1.822420 0.000000 0.000000 
#    y 0.000000 1.799120 0.000000 
#    z 0.000000 0.000000 1.814170 
# 
# From -- ./inp_files/2931.got.cif
#   From: 2010.03.12/outbox.cif.g09.slc.cpg/sg55_2_cif.got.tgz:2931.got - 2010.04.16 15:19:21.
