data_PCOD8225031
_publ_section_title
;
Structure prediction by ZEFSAII (Michael W. Deem and Ramdas Pophale) SiO2 
 PCOD8225031
Probable space group: P B A M
;
_chemical_formula_sum "Si O2"
_cell_formula_units_Z 48
_cell_length_a 8.484366
_cell_length_b 20.099405
_cell_length_c 15.951087
_cell_angle_alpha 90.000000
_cell_angle_beta 90.000000
_cell_angle_gamma 90.000000
_cell_volume 2720.150166
_symmetry_space_group_name_H-M "P B A M"
_symmetry_group_IT_number 55
_symmetry_cell_setting 'orthorhombic'
loop_
_space_group_symop_operation_xyz
x,y,z
-x,-y,z
1/2+x,1/2-y,-z
1/2-x,1/2+y,-z
-x,-y,-z
x,y,-z
1/2-x,1/2+y,z
1/2+x,1/2-y,z
loop_
_atom_site_type_symbol
_atom_site_label
_atom_site_fract_x
_atom_site_fract_y
_atom_site_fract_z
Si Si1 0.993777 0.421717 0.741952
Si Si2 0.730841 0.673531 0.256112
Si Si3 0.102774 0.651489 0.906398
Si Si4 0.711204 0.227258 0.092151
Si Si5 0.557947 0.275231 0.652334
Si Si6 0.645740 0.842988 0.408017
O O1 0.920214 0.402152 0.832534
O O2 0.885167 0.395087 0.666410
O O3 0.000000 0.500000 0.736293
O O4 0.171202 0.394100 0.728839
O O5 0.690911 0.682265 0.158084
O O6 0.840772 0.737640 0.276701
O O7 0.570043 0.673976 0.308436
O O8 0.264526 0.693022 0.893403
O O9 0.972397 0.709597 0.898658
O O10 0.097124 0.617777 0.000000
O O11 0.774341 0.207636 0.000000
O O12 0.673261 0.319180 0.595778
O O13 0.469697 0.220312 0.596823
O O14 0.619940 0.875883 0.500000
#
# Coordination Sequence:
#
# PCOD8225031 Si02
#       6
#     8   8   8   8   8   8
#     4  10  21  34  47  66  96 137 174 197 226 273
#     4   9  16  29  48  70  97 125 154 194 241 288
#     4   9  17  29  48  73  98 123 154 197 243 287
#     4   9  15  24  42  70  96 116 146 190 242 285
#     4   9  17  30  51  75  95 116 148 195 253 298
#     4  10  19  32  52  75  98 121 151 196 246 295
#
# _framework density 17.646083999999998
#
# number of rings (size 3 to 8) (size 9 to 14) (size 15 to 20)
#    0.000    2.667    0.000    4.500    0.000    0.667 
#    0.000    1.667    0.000    1.000    0.000    0.000 
#    0.000   21.333    0.000    0.000    0.000    0.000 
#
# Total GULP energy -594796.831001 kJ/mol
# GULP energy per Si atom -12391.600646 kJ/mol
# Density = 1.760592 g / cm^3
# Si number density = 17.646084 Si / 1000 Ang^3
#
#
#
# Elastic Constant Matrix: (Units=GPa)
#
#
# Indices 1 2 3 4 5 6 
#
# 1 72.5043 33.5890 37.6014 0.0000 0.0000 0.0000
# 2 33.5890 95.6796 47.4553 0.0000 0.0000 0.0000
# 3 37.6014 47.4553 131.8847 0.0000 0.0000 0.0000
# 4 0.0000 0.0000 0.0000 11.8133 0.0000 0.0000
# 5 0.0000 0.0000 0.0000 0.0000 17.0568 0.0000
# 6 0.0000 0.0000 0.0000 0.0000 0.0000 16.0380
#
#
#
# Elastic Compliance Matrix: (Units=1/GPa)
#
#
# Indices 1 2 3 4 5 6 
#
# 1 0.017648 -0.004504 -0.003411 0.000000 0.000000 0.000000
# 2 -0.004504 0.013871 -0.003707 0.000000 0.000000 0.000000
# 3 -0.003411 -0.003707 0.009889 0.000000 0.000000 0.000000
# 4 0.000000 0.000000 0.000000 0.084650 0.000000 0.000000
# 5 0.000000 0.000000 0.000000 0.000000 0.058628 0.000000
# 6 0.000000 0.000000 0.000000 0.000000 0.000000 0.062352
#
#
# Mechanical properties :
#
#
# Convention : Reuss Voigt Hill
#
# Bulk Modulus (GPa) = 55.05335 59.70667 57.38001
# Shear Modulus (GPa) = 18.09391 21.07647 19.58519
#
# Velocity S-wave (km/s) = 3.20563 3.45976 3.33511
# Velocity P-wave (km/s) = 6.70580 7.06180 6.88610
#
# Compressibility (1/GPa) = 0.01816420
#
# Stress axis : x y z
#
# Youngs Moduli (GPa) = 56.66493 72.09147 101.12413
#
# Poissons Ratio (x) = 0.32467 0.34493
# Poissons Ratio (y) = 0.25519 0.37489
# Poissons Ratio (z) = 0.19328 0.26726
#
# Static dielectric constant tensor:
#      x y z
#    x 3.330920 0.000000 0.000000 
#    y 0.000000 2.780170 0.000000 
#    z 0.000000 0.000000 3.486290 
# 
# 
# High freq. dielectric constant tensor:
#      x y z
#    x 1.678610 0.000000 0.000000 
#    y 0.000000 1.622060 0.000000 
#    z 0.000000 0.000000 1.702260 
# 
# From -- ./inp_files/17502.got.cif
#   From: 2010.03.12/outbox.cif.g09.slc.cpg/sg55_9_cif.got.tgz:17502.got - 2010.04.16 15:19:21.
