data_PCOD8225953
_publ_section_title
;
Structure prediction by ZEFSAII (Michael W. Deem and Ramdas Pophale) SiO2 
 PCOD8225953
Probable space group: P B A M
;
_chemical_formula_sum "Si O2"
_cell_formula_units_Z 64
_cell_length_a 8.798148
_cell_length_b 11.208028
_cell_length_c 33.207189
_cell_angle_alpha 90.000000
_cell_angle_beta 90.000000
_cell_angle_gamma 90.000000
_cell_volume 3274.557226
_symmetry_space_group_name_H-M "P B A M"
_symmetry_group_IT_number 55
_symmetry_cell_setting 'orthorhombic'
loop_
_space_group_symop_operation_xyz
x,y,z
-x,-y,z
1/2+x,1/2-y,-z
1/2-x,1/2+y,-z
-x,-y,-z
x,y,-z
1/2-x,1/2+y,z
1/2+x,1/2-y,z
loop_
_atom_site_type_symbol
_atom_site_label
_atom_site_fract_x
_atom_site_fract_y
_atom_site_fract_z
Si Si1 0.312026 0.890891 0.454112
Si Si2 0.955522 0.135190 0.235928
Si Si3 0.858513 0.350248 0.425720
Si Si4 0.291378 0.750983 0.286495
Si Si5 0.037720 0.863987 0.146698
Si Si6 0.784375 0.750353 0.904290
Si Si7 0.462429 0.136088 0.955466
Si Si8 0.044653 0.634448 0.336296
O O1 0.261916 0.910898 0.500000
O O2 0.231066 0.769821 0.438158
O O3 0.490534 0.862775 0.452251
O O4 0.272957 0.018569 0.430998
O O5 0.812480 0.147296 0.265936
O O6 0.102856 0.203763 0.251360
O O7 0.918602 0.185278 0.191149
O O8 0.000000 0.000000 0.233888
O O9 0.901057 0.323028 0.379732
O O10 0.178932 0.650116 0.303855
O O11 0.391862 0.796298 0.323767
O O12 0.885324 0.800746 0.131637
O O13 0.176153 0.848844 0.115669
O O14 0.000000 0.000000 0.149871
O O15 0.678234 0.849755 0.925005
O O16 0.886548 0.699063 0.939651
O O17 0.500000 0.000000 0.958905
O O18 0.424244 0.187889 0.000000
O O19 0.000000 0.500000 0.338589
#
# Coordination Sequence:
#
# PCOD8225953 Si02
#       8
#     8   8   8   8   8   8   8   8
#     4  11  22  41  63  89 121 156 194 239 287 338
#     4  10  20  37  55  82 109 143 182 222 276 329
#     4  11  23  40  62  90 120 155 195 238 286 339
#     4  10  22  36  58  82 112 146 183 227 276 333
#     4  10  20  34  55  77 108 139 177 227 271 331
#     4  10  20  34  52  78 104 140 180 222 278 325
#     4  10  20  34  52  74 105 140 181 226 271 326
#     4  11  21  38  58  83 115 147 187 231 278 329
#
# _framework density 19.544626999999998
#
# number of rings (size 3 to 8) (size 9 to 14) (size 15 to 20)
#    0.000    1.625    1.250    4.875    0.000    0.500 
#    0.000    1.250    0.000   18.000    0.000    0.000 
#    0.000    0.000    0.000    0.000    0.000    0.000 
#
# Total GULP energy -793156.727433 kJ/mol
# GULP energy per Si atom -12393.073866 kJ/mol
# Density = 1.950014 g / cm^3
# Si number density = 19.544627 Si / 1000 Ang^3
#
#
#
# Elastic Constant Matrix: (Units=GPa)
#
#
# Indices 1 2 3 4 5 6 
#
# 1 91.1095 36.5390 33.6323 0.0000 0.0000 0.0000
# 2 36.5390 74.2512 44.2190 0.0000 0.0000 0.0000
# 3 33.6323 44.2190 121.5519 0.0000 0.0000 0.0000
# 4 0.0000 0.0000 0.0000 31.3719 0.0000 0.0000
# 5 0.0000 0.0000 0.0000 0.0000 35.6738 0.0000
# 6 0.0000 0.0000 0.0000 0.0000 0.0000 25.6032
#
#
#
# Elastic Compliance Matrix: (Units=1/GPa)
#
#
# Indices 1 2 3 4 5 6 
#
# 1 0.013957 -0.005832 -0.001740 0.000000 0.000000 0.000000
# 2 -0.005832 0.019629 -0.005527 0.000000 0.000000 0.000000
# 3 -0.001740 -0.005527 0.010719 0.000000 0.000000 0.000000
# 4 0.000000 0.000000 0.000000 0.031876 0.000000 0.000000
# 5 0.000000 0.000000 0.000000 0.000000 0.028032 0.000000
# 6 0.000000 0.000000 0.000000 0.000000 0.000000 0.039058
#
#
# Mechanical properties :
#
#
# Convention : Reuss Voigt Hill
#
# Bulk Modulus (GPa) = 55.22788 57.29926 56.26357
# Shear Modulus (GPa) = 28.48923 30.03128 29.26026
#
# Velocity S-wave (km/s) = 3.82206 3.92414 3.87343
# Velocity P-wave (km/s) = 6.91348 7.06488 6.98959
#
# Compressibility (1/GPa) = 0.01810680
#
# Stress axis : x y z
#
# Youngs Moduli (GPa) = 71.64843 50.94420 93.29069
#
# Poissons Ratio (x) = 0.29710 0.16235
# Poissons Ratio (y) = 0.41785 0.51564
# Poissons Ratio (z) = 0.12468 0.28158
#
# Static dielectric constant tensor:
#      x y z
#    x 3.669520 0.000000 0.000000 
#    y 0.000000 4.495940 0.000000 
#    z 0.000000 0.000000 4.015400 
# 
# 
# High freq. dielectric constant tensor:
#      x y z
#    x 1.763620 0.000000 0.000000 
#    y 0.000000 1.756550 0.000000 
#    z 0.000000 0.000000 1.778610 
# 
# From -- ./inp_files/24149.got.cif
#   From: 2010.03.12/outbox.cif.g09.slc.cpg/sg55_13_cif.got.tgz:24149.got - 2010.04.16 15:19:21.
