data_PCOD8225547
_publ_section_title
;
Structure prediction by ZEFSAII (Michael W. Deem and Ramdas Pophale) SiO2 
 PCOD8225547
Probable space group: P B A M
;
_chemical_formula_sum "Si O2"
_cell_formula_units_Z 32
_cell_length_a 8.302906
_cell_length_b 13.875717
_cell_length_c 14.313851
_cell_angle_alpha 90.000000
_cell_angle_beta 90.000000
_cell_angle_gamma 90.000000
_cell_volume 1649.081224
_symmetry_space_group_name_H-M "P B A M"
_symmetry_group_IT_number 55
_symmetry_cell_setting 'orthorhombic'
loop_
_space_group_symop_operation_xyz
x,y,z
-x,-y,z
1/2+x,1/2-y,-z
1/2-x,1/2+y,-z
-x,-y,-z
x,y,-z
1/2-x,1/2+y,z
1/2+x,1/2-y,z
loop_
_atom_site_type_symbol
_atom_site_label
_atom_site_fract_x
_atom_site_fract_y
_atom_site_fract_z
Si Si1 0.687165 0.974632 0.142547
Si Si2 0.174291 0.879778 0.000000
Si Si3 0.382629 0.176995 0.500000
Si Si4 0.698322 0.329060 0.000000
Si Si5 0.250804 0.381770 0.500000
Si Si6 0.685032 0.970964 0.353086
O O1 0.751698 0.963043 0.248133
O O2 0.500000 0.000000 0.137719
O O3 0.787901 0.058632 0.092378
O O4 0.716358 0.872954 0.091634
O O5 0.284077 0.785220 0.000000
O O6 0.988666 0.853689 0.000000
O O7 0.369657 0.291749 0.500000
O O8 0.569869 0.155334 0.500000
O O9 0.299239 0.130797 0.407718
O O10 0.284234 0.446542 0.591865
O O11 0.500000 0.000000 0.351470
#
# Coordination Sequence:
#
# PCOD8225547 Si02
#       6
#     8   4   4   4   4   8
#     4  10  19  35  56  79 104 135 171 214 260 306
#     4  11  22  37  54  76 104 137 172 213 258 308
#     4   9  17  33  52  74 102 135 169 205 246 296
#     4  11  22  37  54  76 104 137 172 213 258 308
#     4   9  17  33  52  74 102 135 169 205 246 296
#     4   8  17  33  53  73 102 137 167 200 251 306
#
# _framework density 19.404744000000001
#
# number of rings (size 3 to 8) (size 9 to 14) (size 15 to 20)
#    0.000    2.500    0.000    6.000    0.000    2.000 
#    0.000   12.500    0.000    0.000    0.000    0.000 
#    0.000    0.000    0.000    0.000    0.000    0.000 
#
# Total GULP energy -396759.124059 kJ/mol
# GULP energy per Si atom -12398.722627 kJ/mol
# Density = 1.936058 g / cm^3
# Si number density = 19.404744 Si / 1000 Ang^3
#
#
#
# Elastic Constant Matrix: (Units=GPa)
#
#
# Indices 1 2 3 4 5 6 
#
# 1 40.6838 -14.0884 9.4219 0.0000 0.0000 0.0000
# 2 -14.0884 67.8522 28.0209 0.0000 0.0000 0.0000
# 3 9.4219 28.0209 170.4123 0.0000 0.0000 0.0000
# 4 0.0000 0.0000 0.0000 4.2064 0.0000 0.0000
# 5 0.0000 0.0000 0.0000 0.0000 10.8253 0.0000
# 6 0.0000 0.0000 0.0000 0.0000 0.0000 34.0811
#
#
#
# Elastic Compliance Matrix: (Units=1/GPa)
#
#
# Indices 1 2 3 4 5 6 
#
# 1 0.027551 0.006812 -0.002643 0.000000 0.000000 0.000000
# 2 0.006812 0.017496 -0.003253 0.000000 0.000000 0.000000
# 3 -0.002643 -0.003253 0.006549 0.000000 0.000000 0.000000
# 4 0.000000 0.000000 0.000000 0.237733 0.000000 0.000000
# 5 0.000000 0.000000 0.000000 0.000000 0.092376 0.000000
# 6 0.000000 0.000000 0.000000 0.000000 0.000000 0.029342
#
#
# Mechanical properties :
#
#
# Convention : Reuss Voigt Hill
#
# Bulk Modulus (GPa) = 18.71724 36.18412 27.45068
# Shear Modulus (GPa) = 11.70890 26.86215 19.28553
#
# Velocity S-wave (km/s) = 2.45909 3.72467 3.15597
# Velocity P-wave (km/s) = 4.21064 6.09795 5.23997
#
# Compressibility (1/GPa) = 0.05342668
#
# Stress axis : x y z
#
# Youngs Moduli (GPa) = 36.29639 57.15614 152.68944
#
# Poissons Ratio (x) = -0.38936 0.40362
# Poissons Ratio (y) = -0.24726 0.49677
# Poissons Ratio (z) = 0.09595 0.18596
#
# Static dielectric constant tensor:
#      x y z
#    x 3.262380 0.000000 0.000000 
#    y 0.000000 3.774370 0.000000 
#    z 0.000000 0.000000 3.955400 
# 
# 
# High freq. dielectric constant tensor:
#      x y z
#    x 1.740560 0.000000 0.000000 
#    y 0.000000 1.755010 0.000000 
#    z 0.000000 0.000000 1.758900 
# 
# From -- ./inp_files/16968.got.cif
#   From: 2010.03.12/outbox.cif.g09.slc.cpg/sg55_9_cif.got.tgz:16968.got - 2010.04.16 15:19:21.
