data_PCOD8225603
_publ_section_title
;
Structure prediction by ZEFSAII (Michael W. Deem and Ramdas Pophale) SiO2 
 PCOD8225603
Probable space group: P B A M
;
_chemical_formula_sum "Si O2"
_cell_formula_units_Z 64
_cell_length_a 19.961760
_cell_length_b 18.709892
_cell_length_c 8.376160
_cell_angle_alpha 90.000000
_cell_angle_beta 90.000000
_cell_angle_gamma 90.000000
_cell_volume 3128.348120
_symmetry_space_group_name_H-M "P B A M"
_symmetry_group_IT_number 55
_symmetry_cell_setting 'orthorhombic'
loop_
_space_group_symop_operation_xyz
x,y,z
-x,-y,z
1/2+x,1/2-y,-z
1/2-x,1/2+y,-z
-x,-y,-z
x,y,-z
1/2-x,1/2+y,z
1/2+x,1/2-y,z
loop_
_atom_site_type_symbol
_atom_site_label
_atom_site_fract_x
_atom_site_fract_y
_atom_site_fract_z
Si Si1 0.478016 0.215644 0.689910
Si Si2 0.447876 0.058229 0.690118
Si Si3 0.375169 0.739754 0.310644
Si Si4 0.928777 0.020698 0.313145
Si Si5 0.826822 0.908856 0.184713
Si Si6 0.799783 0.481819 0.690005
Si Si7 0.374051 0.331158 0.309515
Si Si8 0.272679 0.858905 0.310916
O O1 0.476437 0.213299 0.500000
O O2 0.468228 0.135929 0.758394
O O3 0.548697 0.248270 0.746635
O O4 0.417806 0.265108 0.756548
O O5 0.450741 0.058493 0.500000
O O6 0.373812 0.038448 0.749365
O O7 0.500000 0.000000 0.758440
O O8 0.370460 0.727778 0.500000
O O9 0.343813 0.672623 0.221895
O O10 0.333314 0.808912 0.254446
O O11 0.938440 0.031596 0.500000
O O12 0.904437 0.095498 0.238698
O O13 0.875007 0.959273 0.286227
O O14 0.000000 0.000000 0.234258
O O15 0.750489 0.924407 0.233955
O O16 0.837987 0.924903 0.000000
O O17 0.793873 0.477682 0.500000
O O18 0.782739 0.561022 0.755756
O O19 0.376061 0.331914 0.500000
O O20 0.297430 0.325492 0.248684
O O21 0.271785 0.863871 0.500000
#
# Coordination Sequence:
#
# PCOD8225603 Si02
#       8
#     8   8   8   8   8   8   8   8
#     4   9  17  29  48  80 113 139 173 224 279 332
#     4   9  17  29  52  87 120 143 176 233 295 340
#     4  10  20  35  57  81 108 144 188 231 283 338
#     4  10  19  35  60  84 108 141 183 230 282 343
#     4  12  25  38  53  80 118 154 192 234 278 335
#     4  10  19  35  59  85 114 148 187 234 289 348
#     4   9  16  27  46  77 110 135 170 220 270 323
#     4   9  17  30  53  81 108 138 181 232 279 333
#
# _framework density 20.458082999999998
#
# number of rings (size 3 to 8) (size 9 to 14) (size 15 to 20)
#    0.000    2.250    1.250    2.625    1.750    5.250 
#    0.000    0.625    0.000    1.125    0.000    0.000 
#    0.000    0.000    0.000    0.000    0.000    0.000 
#
# Total GULP energy -793607.058840 kJ/mol
# GULP energy per Si atom -12400.110294 kJ/mol
# Density = 2.041152 g / cm^3
# Si number density = 20.458083 Si / 1000 Ang^3
#
#
#
# Elastic Constant Matrix: (Units=GPa)
#
#
# Indices 1 2 3 4 5 6 
#
# 1 174.7687 74.3641 7.1103 0.0000 0.0000 0.0000
# 2 74.3641 151.6585 6.0285 0.0000 0.0000 0.0000
# 3 7.1103 6.0285 11.7854 0.0000 0.0000 0.0000
# 4 0.0000 0.0000 0.0000 2.8288 0.0000 0.0000
# 5 0.0000 0.0000 0.0000 0.0000 1.1518 0.0000
# 6 0.0000 0.0000 0.0000 0.0000 0.0000 47.5897
#
#
#
# Elastic Compliance Matrix: (Units=1/GPa)
#
#
# Indices 1 2 3 4 5 6 
#
# 1 0.007309 -0.003480 -0.002630 0.000000 0.000000 0.000000
# 2 -0.003480 0.008387 -0.002191 0.000000 0.000000 0.000000
# 3 -0.002630 -0.002191 0.087558 0.000000 0.000000 0.000000
# 4 0.000000 0.000000 0.000000 0.353512 0.000000 0.000000
# 5 0.000000 0.000000 0.000000 0.000000 0.868169 0.000000
# 6 0.000000 0.000000 0.000000 0.000000 0.000000 0.021013
#
#
# Mechanical properties :
#
#
# Convention : Reuss Voigt Hill
#
# Bulk Modulus (GPa) = 11.54018 57.02425 34.28221
# Shear Modulus (GPa) = 3.59342 27.02805 15.31073
#
# Velocity S-wave (km/s) = 1.32676 3.63870 2.73865
# Velocity P-wave (km/s) = 2.82846 6.75187 5.17629
#
# Compressibility (1/GPa) = 0.08665379
#
# Stress axis : x y z
#
# Youngs Moduli (GPa) = 136.81029 119.23211 11.42097
#
# Poissons Ratio (x) = 0.41487 0.03004
# Poissons Ratio (y) = 0.47604 0.02502
# Poissons Ratio (z) = 0.35981 0.26122
#
# Static dielectric constant tensor:
#      x y z
#    x 4.001020 0.000000 0.000000 
#    y 0.000000 3.933290 0.000000 
#    z 0.000000 0.000000 2.988130 
# 
# 
# High freq. dielectric constant tensor:
#      x y z
#    x 1.818770 0.000000 0.000000 
#    y 0.000000 1.812040 0.000000 
#    z 0.000000 0.000000 1.729530 
# 
# From -- ./inp_files/8965.got.cif
#   From: 2010.03.12/outbox.cif.g09.slc.cpg/sg55_5_cif.got.tgz:8965.got - 2010.04.16 15:19:21.
