data_PCOD8225312
_publ_section_title
;
Structure prediction by ZEFSAII (Michael W. Deem and Ramdas Pophale) SiO2 
 PCOD8225312
Probable space group: P B A M
;
_chemical_formula_sum "Si O2"
_cell_formula_units_Z 48
_cell_length_a 16.619331
_cell_length_b 8.694940
_cell_length_c 15.701914
_cell_angle_alpha 90.000000
_cell_angle_beta 90.000000
_cell_angle_gamma 90.000000
_cell_volume 2268.990729
_symmetry_space_group_name_H-M "P B A M"
_symmetry_group_IT_number 55
_symmetry_cell_setting 'orthorhombic'
loop_
_space_group_symop_operation_xyz
x,y,z
-x,-y,z
1/2+x,1/2-y,-z
1/2-x,1/2+y,-z
-x,-y,-z
x,y,-z
1/2-x,1/2+y,z
1/2+x,1/2-y,z
loop_
_atom_site_type_symbol
_atom_site_label
_atom_site_fract_x
_atom_site_fract_y
_atom_site_fract_z
Si Si1 0.849535 0.731512 0.747893
Si Si2 0.707695 0.398784 0.596024
Si Si3 0.739464 0.976611 0.841043
Si Si4 0.477496 0.326611 0.749064
Si Si5 0.363896 0.272918 0.402606
Si Si6 0.359944 0.288624 0.906110
O O1 0.843803 0.774700 0.648751
O O2 0.803617 0.866868 0.797056
O O3 0.809351 0.568323 0.768081
O O4 0.943630 0.727814 0.772439
O O5 0.682718 0.362887 0.500000
O O6 0.803245 0.370291 0.609319
O O7 0.686223 0.573295 0.620698
O O8 0.674580 0.882835 0.895641
O O9 0.785711 0.092894 0.902819
O O10 0.500000 0.500000 0.724169
O O11 0.434345 0.252218 0.666547
O O12 0.422986 0.327280 0.832836
O O13 0.397585 0.279033 0.500000
O O14 0.400031 0.301290 0.000000
#
# Coordination Sequence:
#
# PCOD8225312 Si02
#       6
#     8   8   8   8   8   8
#     4  11  21  39  62  87 120 160 204 251 302 369
#     4  10  19  33  56  86 116 158 204 251 294 349
#     4  10  22  41  65  87 115 160 205 250 299 361
#     4  12  23  38  58  93 126 161 202 246 314 359
#     4  10  21  37  61  89 124 161 208 253 299 358
#     4  11  23  42  65  92 122 156 202 253 303 366
#
# _framework density 21.154779000000001
#
# number of rings (size 3 to 8) (size 9 to 14) (size 15 to 20)
#    0.000    1.333    3.333    3.500    0.000    2.000 
#    0.000    2.500    0.000    0.000    0.000    9.333 
#    0.000    0.000    0.000    0.000    0.000    0.000 
#
# Total GULP energy -595219.431739 kJ/mol
# GULP energy per Si atom -12400.404828 kJ/mol
# Density = 2.110663 g / cm^3
# Si number density = 21.154779 Si / 1000 Ang^3
#
#
#
# Elastic Constant Matrix: (Units=GPa)
#
#
# Indices 1 2 3 4 5 6 
#
# 1 102.2219 24.0225 36.1291 0.0000 0.0000 0.0000
# 2 24.0225 67.3359 18.1242 0.0000 0.0000 0.0000
# 3 36.1291 18.1242 112.9029 0.0000 0.0000 0.0000
# 4 0.0000 0.0000 0.0000 19.8334 0.0000 0.0000
# 5 0.0000 0.0000 0.0000 0.0000 16.7450 0.0000
# 6 0.0000 0.0000 0.0000 0.0000 0.0000 22.0574
#
#
#
# Elastic Compliance Matrix: (Units=1/GPa)
#
#
# Indices 1 2 3 4 5 6 
#
# 1 0.011695 -0.003308 -0.003211 0.000000 0.000000 0.000000
# 2 -0.003308 0.016457 -0.001583 0.000000 0.000000 0.000000
# 3 -0.003211 -0.001583 0.010139 0.000000 0.000000 0.000000
# 4 0.000000 0.000000 0.000000 0.050420 0.000000 0.000000
# 5 0.000000 0.000000 0.000000 0.000000 0.059719 0.000000
# 6 0.000000 0.000000 0.000000 0.000000 0.000000 0.045336
#
#
# Mechanical properties :
#
#
# Convention : Reuss Voigt Hill
#
# Bulk Modulus (GPa) = 45.27765 48.77917 47.02841
# Shear Modulus (GPa) = 23.00602 25.33946 24.17274
#
# Velocity S-wave (km/s) = 3.30132 3.46470 3.38399
# Velocity P-wave (km/s) = 5.99843 6.25410 6.12760
#
# Compressibility (1/GPa) = 0.02208595
#
# Stress axis : x y z
#
# Youngs Moduli (GPa) = 85.50635 60.76368 98.62907
#
# Poissons Ratio (x) = 0.20100 0.31674
# Poissons Ratio (y) = 0.28285 0.15616
# Poissons Ratio (z) = 0.27460 0.09621
#
# Static dielectric constant tensor:
#      x y z
#    x 3.771420 0.000000 0.000000 
#    y 0.000000 3.889840 0.000000 
#    z 0.000000 0.000000 3.816040 
# 
# 
# High freq. dielectric constant tensor:
#      x y z
#    x 1.814690 0.000000 0.000000 
#    y 0.000000 1.827530 0.000000 
#    z 0.000000 0.000000 1.833070 
# 
# From -- ./inp_files/17334.got.cif
#   From: 2010.03.12/outbox.cif.g09.slc.cpg/sg55_9_cif.got.tgz:17334.got - 2010.04.16 15:19:21.
