data_PCOD8225063
_publ_section_title
;
Structure prediction by ZEFSAII (Michael W. Deem and Ramdas Pophale) SiO2 
 PCOD8225063
Probable space group: P B A M
;
_chemical_formula_sum "Si O2"
_cell_formula_units_Z 56
_cell_length_a 19.330998
_cell_length_b 17.495248
_cell_length_c 9.107864
_cell_angle_alpha 90.000000
_cell_angle_beta 90.000000
_cell_angle_gamma 90.000000
_cell_volume 3080.285107
_symmetry_space_group_name_H-M "P B A M"
_symmetry_group_IT_number 55
_symmetry_cell_setting 'orthorhombic'
loop_
_space_group_symop_operation_xyz
x,y,z
-x,-y,z
1/2+x,1/2-y,-z
1/2-x,1/2+y,-z
-x,-y,-z
x,y,-z
1/2-x,1/2+y,z
1/2+x,1/2-y,z
loop_
_atom_site_type_symbol
_atom_site_label
_atom_site_fract_x
_atom_site_fract_y
_atom_site_fract_z
Si Si1 0.840151 0.473790 0.326099
Si Si2 0.380208 0.712922 0.172488
Si Si3 0.896421 0.633812 0.670976
Si Si4 0.430410 0.457837 0.671597
Si Si5 0.688701 0.424427 0.672355
Si Si6 0.461046 0.307294 0.172255
Si Si7 0.555741 0.845567 0.329190
O O1 0.846277 0.476038 0.500000
O O2 0.860817 0.557255 0.266011
O O3 0.763146 0.453657 0.274258
O O4 0.893223 0.410297 0.265875
O O5 0.364272 0.795761 0.239847
O O6 0.327397 0.653049 0.242060
O O7 0.457978 0.687589 0.213197
O O8 0.368200 0.716649 0.000000
O O9 0.880143 0.647053 0.500000
O O10 0.978094 0.625812 0.698660
O O11 0.500000 0.500000 0.722691
O O12 0.432959 0.438292 0.500000
O O13 0.365910 0.510389 0.713891
O O14 0.421834 0.379605 0.760116
O O15 0.686898 0.406238 0.500000
O O16 0.427926 0.231538 0.241200
O O17 0.448627 0.305529 0.000000
O O18 0.569279 0.828958 0.500000
#
# Coordination Sequence:
#
# PCOD8225063 Si02
#       7
#     8   8   8   8   8   8   8
#     4   9  18  34  55  81 105 132 174 218 262 309
#     4  10  20  34  52  76 105 137 173 212 257 308
#     4   9  17  32  57  82 104 132 171 216 260 307
#     4  10  19  32  53  77 101 132 175 220 259 302
#     4  10  20  35  54  75 103 138 174 215 261 308
#     4  10  20  33  52  78 106 135 172 214 258 307
#     4   9  17  32  56  81 105 133 169 216 262 307
#
# _framework density 18.180135
#
# number of rings (size 3 to 8) (size 9 to 14) (size 15 to 20)
#    0.000    2.429    1.429    1.286    0.000    3.714 
#    2.571    2.143    0.000    3.429    0.000    0.000 
#    0.000    0.000    0.000    0.000    0.000    0.000 
#
# Total GULP energy -694588.604702 kJ/mol
# GULP energy per Si atom -12403.367941 kJ/mol
# Density = 1.813876 g / cm^3
# Si number density = 18.180135 Si / 1000 Ang^3
#
#
#
# Elastic Constant Matrix: (Units=GPa)
#
#
# Indices 1 2 3 4 5 6 
#
# 1 105.1389 84.2263 37.0667 0.0000 0.0000 0.0000
# 2 84.2263 188.8341 63.5074 0.0000 0.0000 0.0000
# 3 37.0667 63.5074 54.8007 0.0000 0.0000 0.0000
# 4 0.0000 0.0000 0.0000 1.8842 0.0000 0.0000
# 5 0.0000 0.0000 0.0000 0.0000 12.7036 0.0000
# 6 0.0000 0.0000 0.0000 0.0000 0.0000 23.9371
#
#
#
# Elastic Compliance Matrix: (Units=1/GPa)
#
#
# Indices 1 2 3 4 5 6 
#
# 1 0.015317 -0.005486 -0.004003 0.000000 0.000000 0.000000
# 2 -0.005486 0.010642 -0.008623 0.000000 0.000000 0.000000
# 3 -0.004003 -0.008623 0.030948 0.000000 0.000000 0.000000
# 4 0.000000 0.000000 0.000000 0.530743 0.000000 0.000000
# 5 0.000000 0.000000 0.000000 0.000000 0.078718 0.000000
# 6 0.000000 0.000000 0.000000 0.000000 0.000000 0.041776
#
#
# Mechanical properties :
#
#
# Convention : Reuss Voigt Hill
#
# Bulk Modulus (GPa) = 48.34491 79.81939 64.08215
# Shear Modulus (GPa) = 6.65546 18.63651 12.64598
#
# Velocity S-wave (km/s) = 1.91541 3.20520 2.64027
# Velocity P-wave (km/s) = 5.61619 7.59590 6.67980
#
# Compressibility (1/GPa) = 0.02068470
#
# Stress axis : x y z
#
# Youngs Moduli (GPa) = 65.28681 93.96391 32.31182
#
# Poissons Ratio (x) = 0.51545 0.12935
# Poissons Ratio (y) = 0.35814 0.27862
# Poissons Ratio (z) = 0.26135 0.81023
#
# Static dielectric constant tensor:
#      x y z
#    x 3.280110 0.000000 0.000000 
#    y 0.000000 3.468990 0.000000 
#    z 0.000000 0.000000 3.107540 
# 
# 
# High freq. dielectric constant tensor:
#      x y z
#    x 1.688830 0.000000 0.000000 
#    y 0.000000 1.718580 0.000000 
#    z 0.000000 0.000000 1.683600 
# 
# From -- ./inp_files/6166.got.cif
#   From: 2010.03.12/outbox.cif.g09.slc.cpg/sg55_4_cif.got.tgz:6166.got - 2010.04.16 15:19:21.
