data_PCOD8225268
_publ_section_title
;
Structure prediction by ZEFSAII (Michael W. Deem and Ramdas Pophale) SiO2 
 PCOD8225268
Probable space group: P B A M
;
_chemical_formula_sum "Si O2"
_cell_formula_units_Z 48
_cell_length_a 20.625391
_cell_length_b 8.688628
_cell_length_c 12.897300
_cell_angle_alpha 90.000000
_cell_angle_beta 90.000000
_cell_angle_gamma 90.000000
_cell_volume 2311.278055
_symmetry_space_group_name_H-M "P B A M"
_symmetry_group_IT_number 55
_symmetry_cell_setting 'orthorhombic'
loop_
_space_group_symop_operation_xyz
x,y,z
-x,-y,z
1/2+x,1/2-y,-z
1/2-x,1/2+y,-z
-x,-y,-z
x,y,-z
1/2-x,1/2+y,z
1/2+x,1/2-y,z
loop_
_atom_site_type_symbol
_atom_site_label
_atom_site_fract_x
_atom_site_fract_y
_atom_site_fract_z
Si Si1 0.548465 0.807997 0.189959
Si Si2 0.516669 0.324208 0.381946
Si Si3 0.679360 0.735388 0.878951
Si Si4 0.583719 0.141531 0.883041
Si Si5 0.758062 0.501610 0.246406
Si Si6 0.156930 0.235737 0.701731
O O1 0.528698 0.781415 0.309904
O O2 0.604924 0.693476 0.150776
O O3 0.485879 0.773042 0.118200
O O4 0.573469 0.982116 0.177626
O O5 0.500000 0.500000 0.353813
O O6 0.497934 0.287402 0.500000
O O7 0.593113 0.285126 0.367909
O O8 0.694633 0.886695 0.812445
O O9 0.725257 0.598103 0.845359
O O10 0.687280 0.768270 0.000000
O O11 0.636641 0.244589 0.823072
O O12 0.607865 0.114803 0.000000
O O13 0.702756 0.413354 0.312321
O O14 0.799941 0.611229 0.324384
#
# Coordination Sequence:
#
# PCOD8225268 Si02
#       6
#     8   8   8   8   8   8
#     4  10  19  33  56  83 112 149 195 248 300 351
#     4  10  22  42  66  89 114 149 199 262 327 376
#     4  11  20  33  53  82 119 161 200 237 284 351
#     4  10  19  33  55  83 121 161 196 236 287 351
#     4  10  22  35  54  80 122 163 204 240 288 347
#     4  10  21  39  59  87 120 162 198 249 300 358
#
# _framework density 20.767731999999999
#
# number of rings (size 3 to 8) (size 9 to 14) (size 15 to 20)
#    0.000    1.833    1.667    3.500    0.000    3.333 
#    0.000    7.500    0.000   12.000    0.000    0.000 
#    0.000    0.000    0.000    0.000    0.000    0.000 
#
# Total GULP energy -594969.150604 kJ/mol
# GULP energy per Si atom -12395.190638 kJ/mol
# Density = 2.072046 g / cm^3
# Si number density = 20.767732 Si / 1000 Ang^3
#
#
#
# Elastic Constant Matrix: (Units=GPa)
#
#
# Indices 1 2 3 4 5 6 
#
# 1 77.8806 21.0744 -2.4501 0.0000 0.0000 0.0000
# 2 21.0744 70.9563 20.2730 0.0000 0.0000 0.0000
# 3 -2.4501 20.2730 79.9936 0.0000 0.0000 0.0000
# 4 0.0000 0.0000 0.0000 21.3012 0.0000 0.0000
# 5 0.0000 0.0000 0.0000 0.0000 18.0779 0.0000
# 6 0.0000 0.0000 0.0000 0.0000 0.0000 28.3375
#
#
#
# Elastic Compliance Matrix: (Units=1/GPa)
#
#
# Indices 1 2 3 4 5 6 
#
# 1 0.014153 -0.004665 0.001616 0.000000 0.000000 0.000000
# 2 -0.004665 0.016731 -0.004383 0.000000 0.000000 0.000000
# 3 0.001616 -0.004383 0.013661 0.000000 0.000000 0.000000
# 4 0.000000 0.000000 0.000000 0.046946 0.000000 0.000000
# 5 0.000000 0.000000 0.000000 0.000000 0.055316 0.000000
# 6 0.000000 0.000000 0.000000 0.000000 0.000000 0.035289
#
#
# Mechanical properties :
#
#
# Convention : Reuss Voigt Hill
#
# Bulk Modulus (GPa) = 33.69191 34.06945 33.88068
# Shear Modulus (GPa) = 24.17148 26.20554 25.18851
#
# Velocity S-wave (km/s) = 3.41529 3.55609 3.48640
# Velocity P-wave (km/s) = 5.64010 5.77076 5.70580
#
# Compressibility (1/GPa) = 0.02968072
#
# Stress axis : x y z
#
# Youngs Moduli (GPa) = 70.65420 59.76892 73.19942
#
# Poissons Ratio (x) = 0.27884 -0.11828
# Poissons Ratio (y) = 0.32962 0.32084
# Poissons Ratio (z) = -0.11417 0.26197
#
# Static dielectric constant tensor:
#      x y z
#    x 4.326300 0.000000 0.000000 
#    y 0.000000 3.785290 0.000000 
#    z 0.000000 0.000000 3.308260 
# 
# 
# High freq. dielectric constant tensor:
#      x y z
#    x 1.842420 0.000000 0.000000 
#    y 0.000000 1.803940 0.000000 
#    z 0.000000 0.000000 1.770390 
# 
# From -- ./inp_files/15603.got.cif
#   From: 2010.03.12/outbox.cif.g09.slc.cpg/sg55_8_cif.got.tgz:15603.got - 2010.04.16 15:19:21.
