data_PCOD8225035
_publ_section_title
;
Structure prediction by ZEFSAII (Michael W. Deem and Ramdas Pophale) SiO2 
 PCOD8225035
Probable space group: P B A M
;
_chemical_formula_sum "Si O2"
_cell_formula_units_Z 40
_cell_length_a 19.196426
_cell_length_b 8.917026
_cell_length_c 12.714947
_cell_angle_alpha 90.000000
_cell_angle_beta 90.000000
_cell_angle_gamma 90.000000
_cell_volume 2176.481431
_symmetry_space_group_name_H-M "P B A M"
_symmetry_group_IT_number 55
_symmetry_cell_setting 'orthorhombic'
loop_
_space_group_symop_operation_xyz
x,y,z
-x,-y,z
1/2+x,1/2-y,-z
1/2-x,1/2+y,-z
-x,-y,-z
x,y,-z
1/2-x,1/2+y,z
1/2+x,1/2-y,z
loop_
_atom_site_type_symbol
_atom_site_label
_atom_site_fract_x
_atom_site_fract_y
_atom_site_fract_z
Si Si1 0.596374 0.128563 0.121056
Si Si2 0.299921 0.705425 0.271941
Si Si3 0.787117 0.831559 0.500000
Si Si4 0.057912 0.709234 0.879631
Si Si5 0.656801 0.630955 0.270852
Si Si6 0.839768 0.148941 0.500000
O O1 0.655373 0.191473 0.196110
O O2 0.524556 0.216964 0.141725
O O3 0.586528 0.954684 0.148359
O O4 0.619499 0.148465 0.000000
O O5 0.323138 0.733527 0.393895
O O6 0.311272 0.531313 0.243636
O O7 0.218638 0.747466 0.259169
O O8 0.705058 0.799377 0.500000
O O9 0.785808 0.010742 0.500000
O O10 0.095350 0.834291 0.809869
O O11 0.074111 0.748217 0.000000
O O12 0.619967 0.638796 0.388023
#
# Coordination Sequence:
#
# PCOD8225035 Si02
#       6
#     8   8   4   8   8   4
#     4   9  19  36  54  71  96 130 165 203 247 291
#     4  10  19  32  52  76 101 129 163 202 242 288
#     4   8  16  30  47  70  99 129 159 195 241 286
#     4   9  19  36  54  71  96 130 165 203 247 291
#     4  10  19  32  52  76 101 129 163 202 242 288
#     4   8  16  30  47  70  99 129 159 195 241 286
#
# _framework density 18.378288000000001
#
# number of rings (size 3 to 8) (size 9 to 14) (size 15 to 20)
#    0.000    2.800    0.000    2.400    0.000    4.000 
#    0.000    3.000    0.000    6.000    0.000    0.000 
#    0.000    0.000    0.000    0.000    0.000    0.000 
#
# Total GULP energy -495639.457132 kJ/mol
# GULP energy per Si atom -12390.986428 kJ/mol
# Density = 1.833646 g / cm^3
# Si number density = 18.378288 Si / 1000 Ang^3
#
#
#
# Elastic Constant Matrix: (Units=GPa)
#
#
# Indices 1 2 3 4 5 6 
#
# 1 40.1335 -0.6049 28.7859 0.0000 0.0000 0.0000
# 2 -0.6049 27.5094 13.8397 0.0000 0.0000 0.0000
# 3 28.7859 13.8397 82.9029 0.0000 0.0000 0.0000
# 4 0.0000 0.0000 0.0000 29.4376 0.0000 0.0000
# 5 0.0000 0.0000 0.0000 0.0000 9.0878 0.0000
# 6 0.0000 0.0000 0.0000 0.0000 0.0000 29.5294
#
#
#
# Elastic Compliance Matrix: (Units=1/GPa)
#
#
# Indices 1 2 3 4 5 6 
#
# 1 0.034511 0.007410 -0.013220 0.000000 0.000000 0.000000
# 2 0.007410 0.041275 -0.009463 0.000000 0.000000 0.000000
# 3 -0.013220 -0.009463 0.018232 0.000000 0.000000 0.000000
# 4 0.000000 0.000000 0.000000 0.033970 0.000000 0.000000
# 5 0.000000 0.000000 0.000000 0.000000 0.110038 0.000000
# 6 0.000000 0.000000 0.000000 0.000000 0.000000 0.033865
#
#
# Mechanical properties :
#
#
# Convention : Reuss Voigt Hill
#
# Bulk Modulus (GPa) = 15.75522 26.06525 20.91023
# Shear Modulus (GPa) = 15.45143 20.84595 18.14869
#
# Velocity S-wave (km/s) = 2.90270 3.37155 3.14587
# Velocity P-wave (km/s) = 4.45259 5.41940 4.95961
#
# Compressibility (1/GPa) = 0.06347104
#
# Stress axis : x y z
#
# Youngs Moduli (GPa) = 28.97666 24.22772 54.84754
#
# Poissons Ratio (x) = -0.17952 0.72508
# Poissons Ratio (y) = -0.21471 0.51904
# Poissons Ratio (z) = 0.38307 0.22927
#
# Static dielectric constant tensor:
#      x y z
#    x 3.021300 0.000000 0.000000 
#    y 0.000000 3.340430 0.000000 
#    z 0.000000 0.000000 3.624500 
# 
# 
# High freq. dielectric constant tensor:
#      x y z
#    x 1.674060 0.000000 0.000000 
#    y 0.000000 1.714960 0.000000 
#    z 0.000000 0.000000 1.726960 
# 
# From -- ./inp_files/11929.got.cif
#   From: 2010.03.12/outbox.cif.g09.slc.cpg/sg55_6_cif.got.tgz:11929.got - 2010.04.16 15:19:21.
