data_PCOD8225334
_publ_section_title
;
Structure prediction by ZEFSAII (Michael W. Deem and Ramdas Pophale) SiO2 
 PCOD8225334
Probable space group: P B A M
;
_chemical_formula_sum "Si O2"
_cell_formula_units_Z 64
_cell_length_a 14.177547
_cell_length_b 18.815264
_cell_length_c 12.696264
_cell_angle_alpha 90.000000
_cell_angle_beta 90.000000
_cell_angle_gamma 90.000000
_cell_volume 3386.782885
_symmetry_space_group_name_H-M "P B A M"
_symmetry_group_IT_number 55
_symmetry_cell_setting 'orthorhombic'
loop_
_space_group_symop_operation_xyz
x,y,z
-x,-y,z
1/2+x,1/2-y,-z
1/2-x,1/2+y,-z
-x,-y,-z
x,y,-z
1/2-x,1/2+y,z
1/2+x,1/2-y,z
loop_
_atom_site_type_symbol
_atom_site_label
_atom_site_fract_x
_atom_site_fract_y
_atom_site_fract_z
Si Si1 0.317825 0.621392 0.620655
Si Si2 0.436070 0.902238 0.620282
Si Si3 0.006076 0.805222 0.879856
Si Si4 0.721078 0.671001 0.877093
Si Si5 0.770653 0.512360 0.882045
Si Si6 0.132317 0.548163 0.687466
Si Si7 0.084461 0.053697 0.810239
Si Si8 0.633835 0.235099 0.731873
O O1 0.348020 0.611003 0.500000
O O2 0.208293 0.600501 0.634813
O O3 0.381085 0.569690 0.691849
O O4 0.337951 0.702449 0.652455
O O5 0.463695 0.887068 0.500000
O O6 0.531753 0.912713 0.686958
O O7 0.378066 0.836160 0.664883
O O8 0.372381 0.973385 0.624938
O O9 0.112367 0.821620 0.843580
O O10 0.945888 0.876767 0.873153
O O11 0.961713 0.748785 0.798527
O O12 0.002389 0.776412 0.000000
O O13 0.762299 0.594101 0.846364
O O14 0.779993 0.729208 0.813558
O O15 0.733316 0.686345 0.000000
O O16 0.841820 0.468871 0.808384
O O17 0.666502 0.480089 0.879576
O O18 0.810798 0.506459 0.000000
O O19 0.000000 0.000000 0.799495
#
# Coordination Sequence:
#
# PCOD8225334 Si02
#       8
#     8   8   8   8   8   8   8   8
#     4  10  22  39  59  83 116 152 192 249 300 341
#     4  11  22  39  63  84 112 156 203 245 290 353
#     4  10  21  36  56  83 116 157 193 232 294 358
#     4  10  20  36  58  83 117 156 191 233 292 352
#     4  10  19  34  58  87 117 147 186 237 290 346
#     4  10  21  40  60  86 113 151 197 240 295 350
#     4  10  19  33  58  85 115 149 190 237 284 358
#     4  11  23  38  59  86 120 151 202 246 295 350
#
# _framework density 18.896989000000001
#
# number of rings (size 3 to 8) (size 9 to 14) (size 15 to 20)
#    0.000    1.750    2.500    2.625    1.750    0.750 
#    0.000    3.125    0.000    0.750    0.000    0.000 
#    0.000    0.000    0.000    0.000    0.000    0.000 
#
# Total GULP energy -793758.163148 kJ/mol
# GULP energy per Si atom -12402.471299 kJ/mol
# Density = 1.885398 g / cm^3
# Si number density = 18.896989 Si / 1000 Ang^3
#
#
#
# Elastic Constant Matrix: (Units=GPa)
#
#
# Indices 1 2 3 4 5 6 
#
# 1 79.0124 14.3003 36.6449 0.0000 0.0000 0.0000
# 2 14.3003 61.4470 21.6444 0.0000 0.0000 0.0000
# 3 36.6449 21.6444 96.1595 0.0000 0.0000 0.0000
# 4 0.0000 0.0000 0.0000 25.8193 0.0000 0.0000
# 5 0.0000 0.0000 0.0000 0.0000 29.5628 0.0000
# 6 0.0000 0.0000 0.0000 0.0000 0.0000 30.0500
#
#
#
# Elastic Compliance Matrix: (Units=1/GPa)
#
#
# Indices 1 2 3 4 5 6 
#
# 1 0.015528 -0.001661 -0.005544 0.000000 0.000000 0.000000
# 2 -0.001661 0.017853 -0.003386 0.000000 0.000000 0.000000
# 3 -0.005544 -0.003386 0.013274 0.000000 0.000000 0.000000
# 4 0.000000 0.000000 0.000000 0.038731 0.000000 0.000000
# 5 0.000000 0.000000 0.000000 0.000000 0.033826 0.000000
# 6 0.000000 0.000000 0.000000 0.000000 0.000000 0.033278
#
#
# Mechanical properties :
#
#
# Convention : Reuss Voigt Hill
#
# Bulk Modulus (GPa) = 39.25442 42.42203 40.83823
# Shear Modulus (GPa) = 27.44807 28.02169 27.73488
#
# Velocity S-wave (km/s) = 3.81532 3.85498 3.83520
# Velocity P-wave (km/s) = 6.34246 6.50479 6.42414
#
# Compressibility (1/GPa) = 0.02547484
#
# Stress axis : x y z
#
# Youngs Moduli (GPa) = 64.40018 56.01205 75.33522
#
# Poissons Ratio (x) = 0.09304 0.41763
# Poissons Ratio (y) = 0.10697 0.25505
# Poissons Ratio (z) = 0.35701 0.18963
#
# Static dielectric constant tensor:
#      x y z
#    x 3.416610 0.000000 0.000000 
#    y 0.000000 3.450640 0.000000 
#    z 0.000000 0.000000 3.381840 
# 
# 
# High freq. dielectric constant tensor:
#      x y z
#    x 1.733600 0.000000 0.000000 
#    y 0.000000 1.734610 0.000000 
#    z 0.000000 0.000000 1.735230 
# 
# From -- ./inp_files/14408.got.cif
#   From: 2010.03.12/outbox.cif.g09.slc.cpg/sg55_8_cif.got.tgz:14408.got - 2010.04.16 15:19:21.
