data_PCOD8225646
_publ_section_title
;
Structure prediction by ZEFSAII (Michael W. Deem and Ramdas Pophale) SiO2 
 PCOD8225646
Probable space group: P B A M
;
_chemical_formula_sum "Si O2"
_cell_formula_units_Z 56
_cell_length_a 13.868985
_cell_length_b 9.760471
_cell_length_c 19.142429
_cell_angle_alpha 90.000000
_cell_angle_beta 90.000000
_cell_angle_gamma 90.000000
_cell_volume 2591.268996
_symmetry_space_group_name_H-M "P B A M"
_symmetry_group_IT_number 55
_symmetry_cell_setting 'orthorhombic'
loop_
_space_group_symop_operation_xyz
x,y,z
-x,-y,z
1/2+x,1/2-y,-z
1/2-x,1/2+y,-z
-x,-y,-z
x,y,-z
1/2-x,1/2+y,z
1/2+x,1/2-y,z
loop_
_atom_site_type_symbol
_atom_site_label
_atom_site_fract_x
_atom_site_fract_y
_atom_site_fract_z
Si Si1 0.040301 0.356055 0.581522
Si Si2 0.204406 0.026400 0.000000
Si Si3 0.441758 0.284136 0.848348
Si Si4 0.806834 0.373191 0.243119
Si Si5 0.770889 0.631055 0.666191
Si Si6 0.915764 0.099327 0.581686
Si Si7 0.864621 0.922034 0.146888
Si Si8 0.133524 0.734104 0.000000
O O1 0.064855 0.357674 0.500000
O O2 0.139993 0.318892 0.619194
O O3 0.000000 0.500000 0.608596
O O4 0.953899 0.251465 0.598291
O O5 0.142272 0.081377 0.063981
O O6 0.311568 0.088802 0.000000
O O7 0.210271 0.860429 0.000000
O O8 0.408161 0.167116 0.793625
O O9 0.383643 0.422431 0.828772
O O10 0.552876 0.314784 0.831635
O O11 0.430450 0.241123 0.929615
O O12 0.773696 0.265056 0.300011
O O13 0.810963 0.522466 0.277716
O O14 0.733240 0.368598 0.179139
O O15 0.684549 0.565607 0.620212
O O16 0.896847 0.075387 0.500000
O O17 0.000000 0.000000 0.609341
#
# Coordination Sequence:
#
# PCOD8225646 Si02
#       8
#     8   4   8   8   8   8   8   4
#     4  10  22  42  66  92 123 158 205 263 311 359
#     4  10  19  35  67  88 116 152 203 269 313 358
#     4  10  21  40  63  89 118 162 212 256 311 371
#     4  12  24  39  60  89 128 169 200 249 309 374
#     4  12  25  40  63  92 129 167 210 250 314 377
#     4  10  22  42  68  95 122 160 210 261 312 366
#     4  10  21  40  63  89 119 161 211 258 308 371
#     4  10  19  35  67  88 116 152 205 269 313 362
#
# _framework density 21.611034
#
# number of rings (size 3 to 8) (size 9 to 14) (size 15 to 20)
#    0.000    1.429    2.857    2.571    0.000    5.143 
#    0.000    5.714    0.000    0.857    0.000    0.000 
#    0.000    0.000    0.000    0.000    0.000    0.000 
#
# Total GULP energy -694476.710437 kJ/mol
# GULP energy per Si atom -12401.369829 kJ/mol
# Density = 2.156185 g / cm^3
# Si number density = 21.611034 Si / 1000 Ang^3
#
#
#
# Elastic Constant Matrix: (Units=GPa)
#
#
# Indices 1 2 3 4 5 6 
#
# 1 61.5140 -6.1714 24.4872 0.0000 0.0000 0.0000
# 2 -6.1714 49.0638 6.1715 0.0000 0.0000 0.0000
# 3 24.4872 6.1715 68.6303 0.0000 0.0000 0.0000
# 4 0.0000 0.0000 0.0000 31.3888 0.0000 0.0000
# 5 0.0000 0.0000 0.0000 0.0000 27.4625 0.0000
# 6 0.0000 0.0000 0.0000 0.0000 0.0000 27.6703
#
#
#
# Elastic Compliance Matrix: (Units=1/GPa)
#
#
# Indices 1 2 3 4 5 6 
#
# 1 0.019481 0.003363 -0.007253 0.000000 0.000000 0.000000
# 2 0.003363 0.021195 -0.003106 0.000000 0.000000 0.000000
# 3 -0.007253 -0.003106 0.017438 0.000000 0.000000 0.000000
# 4 0.000000 0.000000 0.000000 0.031858 0.000000 0.000000
# 5 0.000000 0.000000 0.000000 0.000000 0.036413 0.000000
# 6 0.000000 0.000000 0.000000 0.000000 0.000000 0.036140
#
#
# Mechanical properties :
#
#
# Convention : Reuss Voigt Hill
#
# Bulk Modulus (GPa) = 22.66446 25.35364 24.00905
# Shear Modulus (GPa) = 26.14707 27.61904 26.88306
#
# Velocity S-wave (km/s) = 3.48213 3.57880 3.53079
# Velocity P-wave (km/s) = 5.16499 5.36976 5.26837
#
# Compressibility (1/GPa) = 0.04412193
#
# Stress axis : x y z
#
# Youngs Moduli (GPa) = 51.33161 47.18032 57.34584
#
# Poissons Ratio (x) = -0.15866 0.41594
# Poissons Ratio (y) = -0.17262 0.17810
# Poissons Ratio (z) = 0.37232 0.14653
#
# Static dielectric constant tensor:
#      x y z
#    x 3.794760 0.000000 0.000000 
#    y 0.000000 3.932680 0.000000 
#    z 0.000000 0.000000 3.894970 
# 
# 
# High freq. dielectric constant tensor:
#      x y z
#    x 1.842030 0.000000 0.000000 
#    y 0.000000 1.845060 0.000000 
#    z 0.000000 0.000000 1.856880 
# 
# From -- ./inp_files/22999.got.cif
#   From: 2010.03.12/outbox.cif.g09.slc.cpg/sg55_12_cif.got.tgz:22999.got - 2010.04.16 15:19:21.
