data_PCOD8225579
_publ_section_title
;
Structure prediction by ZEFSAII (Michael W. Deem and Ramdas Pophale) SiO2 
 PCOD8225579
Probable space group: P B A M
;
_chemical_formula_sum "Si O2"
_cell_formula_units_Z 56
_cell_length_a 22.258066
_cell_length_b 14.379220
_cell_length_c 8.636113
_cell_angle_alpha 90.000000
_cell_angle_beta 90.000000
_cell_angle_gamma 90.000000
_cell_volume 2764.019296
_symmetry_space_group_name_H-M "P B A M"
_symmetry_group_IT_number 55
_symmetry_cell_setting 'orthorhombic'
loop_
_space_group_symop_operation_xyz
x,y,z
-x,-y,z
1/2+x,1/2-y,-z
1/2-x,1/2+y,-z
-x,-y,-z
x,y,-z
1/2-x,1/2+y,z
1/2+x,1/2-y,z
loop_
_atom_site_type_symbol
_atom_site_label
_atom_site_fract_x
_atom_site_fract_y
_atom_site_fract_z
Si Si1 0.717491 0.101532 0.681291
Si Si2 0.275392 0.105980 0.680525
Si Si3 0.992268 0.392740 0.319645
Si Si4 0.147231 0.897184 0.316520
Si Si5 0.617173 0.786179 0.180614
Si Si6 0.852776 0.906544 0.181068
Si Si7 0.609615 0.224014 0.682684
O O1 0.718405 0.117909 0.500000
O O2 0.784515 0.119250 0.745233
O O3 0.668313 0.171207 0.752685
O O4 0.697976 0.995818 0.718885
O O5 0.259385 0.116092 0.500000
O O6 0.324118 0.181491 0.726803
O O7 0.214514 0.123341 0.773949
O O8 0.975779 0.382782 0.500000
O O9 0.939025 0.350312 0.219368
O O10 0.000000 0.500000 0.273580
O O11 0.052521 0.338396 0.276165
O O12 0.141973 0.888818 0.500000
O O13 0.105129 0.819899 0.235632
O O14 0.125978 0.999684 0.266826
O O15 0.630214 0.790861 0.000000
O O16 0.896879 0.823352 0.233669
O O17 0.858065 0.923423 0.000000
O O18 0.615171 0.239599 0.500000
#
# Coordination Sequence:
#
# PCOD8225579 Si02
#       7
#     8   8   8   8   8   8   8
#     4   8  16  31  56  86 111 141 185 237 280 323
#     4  10  19  35  58  84 116 155 198 237 280 340
#     4  10  22  41  64  87 112 148 195 239 278 335
#     4  10  20  37  60  84 113 151 193 234 282 345
#     4  12  24  37  56  85 119 152 189 239 298 346
#     4  11  22  36  55  85 122 152 185 235 293 343
#     4  10  19  35  59  84 111 148 194 235 279 341
#
# _framework density 20.260349000000001
#
# number of rings (size 3 to 8) (size 9 to 14) (size 15 to 20)
#    0.000    1.857    0.000    6.000    0.000    4.286 
#    0.000    5.714    0.000    4.286    0.000    0.000 
#    0.000    0.000    0.000    0.000    0.000    0.000 
#
# Total GULP energy -694520.360653 kJ/mol
# GULP energy per Si atom -12402.149297 kJ/mol
# Density = 2.021424 g / cm^3
# Si number density = 20.260349 Si / 1000 Ang^3
#
#
#
# Elastic Constant Matrix: (Units=GPa)
#
#
# Indices 1 2 3 4 5 6 
#
# 1 50.3778 47.5788 23.7691 0.0000 0.0000 0.0000
# 2 47.5788 147.8233 29.5363 0.0000 0.0000 0.0000
# 3 23.7691 29.5363 68.8969 0.0000 0.0000 0.0000
# 4 0.0000 0.0000 0.0000 21.0206 0.0000 0.0000
# 5 0.0000 0.0000 0.0000 0.0000 23.3545 0.0000
# 6 0.0000 0.0000 0.0000 0.0000 0.0000 31.5260
#
#
#
# Elastic Compliance Matrix: (Units=1/GPa)
#
#
# Indices 1 2 3 4 5 6 
#
# 1 0.031412 -0.008689 -0.007112 0.000000 0.000000 0.000000
# 2 -0.008689 0.009802 -0.001204 0.000000 0.000000 0.000000
# 3 -0.007112 -0.001204 0.017484 0.000000 0.000000 0.000000
# 4 0.000000 0.000000 0.000000 0.047572 0.000000 0.000000
# 5 0.000000 0.000000 0.000000 0.000000 0.042818 0.000000
# 6 0.000000 0.000000 0.000000 0.000000 0.000000 0.031720
#
#
# Mechanical properties :
#
#
# Convention : Reuss Voigt Hill
#
# Bulk Modulus (GPa) = 40.50664 52.09627 46.30146
# Shear Modulus (GPa) = 22.41651 26.26113 24.33882
#
# Velocity S-wave (km/s) = 3.32990 3.60416 3.46974
# Velocity P-wave (km/s) = 5.90091 6.56424 6.24139
#
# Compressibility (1/GPa) = 0.02468731
#
# Stress axis : x y z
#
# Youngs Moduli (GPa) = 31.83487 102.01708 57.19397
#
# Poissons Ratio (x) = 0.88646 0.40676
# Poissons Ratio (y) = 0.27663 0.06889
# Poissons Ratio (z) = 0.22641 0.12288
#
# Static dielectric constant tensor:
#      x y z
#    x 3.591310 0.000000 0.000000 
#    y 0.000000 3.979700 0.000000 
#    z 0.000000 0.000000 3.415480 
# 
# 
# High freq. dielectric constant tensor:
#      x y z
#    x 1.767090 0.000000 0.000000 
#    y 0.000000 1.813650 0.000000 
#    z 0.000000 0.000000 1.772870 
# 
# From -- ./inp_files/8777.got.cif
#   From: 2010.03.12/outbox.cif.g09.slc.cpg/sg55_5_cif.got.tgz:8777.got - 2010.04.16 15:19:21.
