data_PCOD8225738
_publ_section_title
;
Structure prediction by ZEFSAII (Michael W. Deem and Ramdas Pophale) SiO2 
 PCOD8225738
Probable space group: P B A M
;
_chemical_formula_sum "Si O2"
_cell_formula_units_Z 56
_cell_length_a 8.951745
_cell_length_b 19.338525
_cell_length_c 16.246992
_cell_angle_alpha 90.000000
_cell_angle_beta 90.000000
_cell_angle_gamma 90.000000
_cell_volume 2812.574372
_symmetry_space_group_name_H-M "P B A M"
_symmetry_group_IT_number 55
_symmetry_cell_setting 'orthorhombic'
loop_
_space_group_symop_operation_xyz
x,y,z
-x,-y,z
1/2+x,1/2-y,-z
1/2-x,1/2+y,-z
-x,-y,-z
x,y,-z
1/2-x,1/2+y,z
1/2+x,1/2-y,z
loop_
_atom_site_type_symbol
_atom_site_label
_atom_site_fract_x
_atom_site_fract_y
_atom_site_fract_z
Si Si1 0.886330 0.562546 0.153716
Si Si2 0.133211 0.757064 0.748738
Si Si3 0.332577 0.519594 0.745093
Si Si4 0.659257 0.032125 0.589571
Si Si5 0.904991 0.656042 0.306768
Si Si6 0.362242 0.663988 0.172409
Si Si7 0.466293 0.690882 0.000000
Si Si8 0.682367 0.160105 0.000000
O O1 0.729823 0.530185 0.183497
O O2 0.949194 0.608125 0.228753
O O3 0.856784 0.613110 0.078215
O O4 0.000000 0.500000 0.131878
O O5 0.250129 0.803333 0.700688
O O6 0.223164 0.716033 0.819441
O O7 0.045790 0.707715 0.683785
O O8 0.014781 0.804705 0.793760
O O9 0.500000 0.500000 0.727195
O O10 0.248682 0.510316 0.658491
O O11 0.317262 0.597221 0.776087
O O12 0.741413 0.029702 0.500000
O O13 0.626620 0.111465 0.612814
O O14 0.500000 0.000000 0.580030
O O15 0.391382 0.650466 0.076400
O O16 0.645154 0.682808 0.000000
O O17 0.423500 0.772341 0.000000
#
# Coordination Sequence:
#
# PCOD8225738 Si02
#       8
#     8   8   8   8   8   8   4   4
#     4  11  23  39  59  81 115 158 200 244 292 350
#     4  10  20  34  58  81 112 153 193 234 282 341
#     4  11  22  38  61  88 118 150 189 243 298 345
#     4  10  21  39  63  87 114 151 192 234 284 352
#     4  10  19  37  58  85 113 148 191 233 284 345
#     4  11  21  36  55  83 112 152 195 236 289 344
#     4  12  24  37  57  81 117 154 195 250 296 346
#     4  12  25  41  57  85 116 154 205 248 296 352
#
# _framework density 19.910584
#
# number of rings (size 3 to 8) (size 9 to 14) (size 15 to 20)
#    0.000    1.286    0.000    9.643    0.000    2.000 
#    0.000    2.143    0.000    3.429    0.000    0.000 
#    0.000    0.000    0.000    0.000    0.000    0.000 
#
# Total GULP energy -694234.368268 kJ/mol
# GULP energy per Si atom -12397.042291 kJ/mol
# Density = 1.986527 g / cm^3
# Si number density = 19.910584 Si / 1000 Ang^3
#
#
#
# Elastic Constant Matrix: (Units=GPa)
#
#
# Indices 1 2 3 4 5 6 
#
# 1 105.8987 43.9144 45.9237 0.0000 0.0000 0.0000
# 2 43.9144 111.4598 67.9500 0.0000 0.0000 0.0000
# 3 45.9237 67.9500 136.1123 0.0000 0.0000 0.0000
# 4 0.0000 0.0000 0.0000 59.0334 0.0000 0.0000
# 5 0.0000 0.0000 0.0000 0.0000 20.0529 0.0000
# 6 0.0000 0.0000 0.0000 0.0000 0.0000 74.8176
#
#
#
# Elastic Compliance Matrix: (Units=1/GPa)
#
#
# Indices 1 2 3 4 5 6 
#
# 1 0.011803 -0.003195 -0.002387 0.000000 0.000000 0.000000
# 2 -0.003195 0.013762 -0.005792 0.000000 0.000000 0.000000
# 3 -0.002387 -0.005792 0.011044 0.000000 0.000000 0.000000
# 4 0.000000 0.000000 0.000000 0.016940 0.000000 0.000000
# 5 0.000000 0.000000 0.000000 0.000000 0.049868 0.000000
# 6 0.000000 0.000000 0.000000 0.000000 0.000000 0.013366
#
#
# Mechanical properties :
#
#
# Convention : Reuss Voigt Hill
#
# Bulk Modulus (GPa) = 72.15067 74.33855 73.24461
# Shear Modulus (GPa) = 34.68576 43.82630 39.25603
#
# Velocity S-wave (km/s) = 4.17835 4.69674 4.44511
# Velocity P-wave (km/s) = 7.71972 8.17494 7.95059
#
# Compressibility (1/GPa) = 0.01385988
#
# Stress axis : x y z
#
# Youngs Moduli (GPa) = 84.72299 72.66520 90.54749
#
# Poissons Ratio (x) = 0.23216 0.21617
# Poissons Ratio (y) = 0.27069 0.52447
# Poissons Ratio (z) = 0.20226 0.42089
#
# Static dielectric constant tensor:
#      x y z
#    x 3.776180 0.000000 0.000000 
#    y 0.000000 3.289400 0.000000 
#    z 0.000000 0.000000 3.740100 
# 
# 
# High freq. dielectric constant tensor:
#      x y z
#    x 1.792570 0.000000 0.000000 
#    y 0.000000 1.790840 0.000000 
#    z 0.000000 0.000000 1.753970 
# 
# From -- ./inp_files/17698.got.cif
#   From: 2010.03.12/outbox.cif.g09.slc.cpg/sg55_9_cif.got.tgz:17698.got - 2010.04.16 15:19:21.
