data_PCOD8225598
_publ_section_title
;
Structure prediction by ZEFSAII (Michael W. Deem and Ramdas Pophale) SiO2 
 PCOD8225598
Probable space group: P B A M
;
_chemical_formula_sum "Si O2"
_cell_formula_units_Z 56
_cell_length_a 21.260758
_cell_length_b 14.794987
_cell_length_c 9.114622
_cell_angle_alpha 90.000000
_cell_angle_beta 90.000000
_cell_angle_gamma 90.000000
_cell_volume 2867.028396
_symmetry_space_group_name_H-M "P B A M"
_symmetry_group_IT_number 55
_symmetry_cell_setting 'orthorhombic'
loop_
_space_group_symop_operation_xyz
x,y,z
-x,-y,z
1/2+x,1/2-y,-z
1/2-x,1/2+y,-z
-x,-y,-z
x,y,-z
1/2-x,1/2+y,z
1/2+x,1/2-y,z
loop_
_atom_site_type_symbol
_atom_site_label
_atom_site_fract_x
_atom_site_fract_y
_atom_site_fract_z
Si Si1 0.091872 0.531463 0.172313
Si Si2 0.070265 0.026841 0.828672
Si Si3 0.598613 0.288924 0.326623
Si Si4 0.264434 0.774868 0.672810
Si Si5 0.806283 0.066183 0.833224
Si Si6 0.476192 0.855958 0.827107
Si Si7 0.277427 0.101181 0.830595
O O1 0.067280 0.436846 0.237045
O O2 0.161497 0.548969 0.230196
O O3 0.047726 0.616818 0.211943
O O4 0.089609 0.517406 0.000000
O O5 0.096117 0.110749 0.736814
O O6 0.118601 0.942377 0.800728
O O7 0.070358 0.053252 0.000000
O O8 0.000000 0.000000 0.776886
O O9 0.592680 0.295270 0.500000
O O10 0.662727 0.236721 0.279078
O O11 0.539930 0.234640 0.260142
O O12 0.257929 0.775567 0.500000
O O13 0.231665 0.865619 0.730849
O O14 0.226871 0.690338 0.735138
O O15 0.781351 0.964496 0.808062
O O16 0.794046 0.097629 0.000000
O O17 0.466863 0.838511 0.000000
O O18 0.285831 0.129553 0.000000
#
# Coordination Sequence:
#
# PCOD8225598 Si02
#       7
#     8   8   8   8   8   8   8
#     4   8  16  31  54  85 112 141 183 237 290 333
#     4  10  22  41  64  88 114 148 195 248 298 346
#     4  11  23  38  56  82 116 155 197 234 284 353
#     4  11  24  38  56  83 116 154 191 235 292 349
#     4  10  21  38  62  89 114 148 195 246 294 344
#     4   9  17  33  57  81 111 147 186 232 285 339
#     4  10  19  35  59  84 111 143 188 239 284 337
#
# _framework density 19.532418
#
# number of rings (size 3 to 8) (size 9 to 14) (size 15 to 20)
#    0.000    2.143    1.429    2.571    0.000    5.429 
#    0.000    8.571    0.000    0.000    0.000    0.000 
#    0.000    0.000    0.000    0.000    0.000    0.000 
#
# Total GULP energy -694261.817805 kJ/mol
# GULP energy per Si atom -12397.532461 kJ/mol
# Density = 1.948796 g / cm^3
# Si number density = 19.532418 Si / 1000 Ang^3
#
#
#
# Elastic Constant Matrix: (Units=GPa)
#
#
# Indices 1 2 3 4 5 6 
#
# 1 111.5399 26.5457 35.0418 0.0000 0.0000 0.0000
# 2 26.5457 79.1592 39.6800 0.0000 0.0000 0.0000
# 3 35.0418 39.6800 65.0303 0.0000 0.0000 0.0000
# 4 0.0000 0.0000 0.0000 4.9858 0.0000 0.0000
# 5 0.0000 0.0000 0.0000 0.0000 19.1740 0.0000
# 6 0.0000 0.0000 0.0000 0.0000 0.0000 28.9456
#
#
#
# Elastic Compliance Matrix: (Units=1/GPa)
#
#
# Indices 1 2 3 4 5 6 
#
# 1 0.010849 -0.001020 -0.005224 0.000000 0.000000 0.000000
# 2 -0.001020 0.018295 -0.010614 0.000000 0.000000 0.000000
# 3 -0.005224 -0.010614 0.024669 0.000000 0.000000 0.000000
# 4 0.000000 0.000000 0.000000 0.200571 0.000000 0.000000
# 5 0.000000 0.000000 0.000000 0.000000 0.052154 0.000000
# 6 0.000000 0.000000 0.000000 0.000000 0.000000 0.034548
#
#
# Mechanical properties :
#
#
# Convention : Reuss Voigt Hill
#
# Bulk Modulus (GPa) = 49.75576 50.91827 50.33702
# Shear Modulus (GPa) = 13.10617 20.91853 17.01235
#
# Velocity S-wave (km/s) = 2.59317 3.27611 2.95444
# Velocity P-wave (km/s) = 5.87322 6.35891 6.12089
#
# Compressibility (1/GPa) = 0.02009817
#
# Stress axis : x y z
#
# Youngs Moduli (GPa) = 92.17215 54.65957 40.53713
#
# Poissons Ratio (x) = 0.05573 0.21177
# Poissons Ratio (y) = 0.09398 0.43025
# Poissons Ratio (z) = 0.48151 0.58015
#
# Static dielectric constant tensor:
#      x y z
#    x 3.985700 0.000000 0.000000 
#    y 0.000000 3.500270 0.000000 
#    z 0.000000 0.000000 3.282110 
# 
# 
# High freq. dielectric constant tensor:
#      x y z
#    x 1.772910 0.000000 0.000000 
#    y 0.000000 1.756830 0.000000 
#    z 0.000000 0.000000 1.734020 
# 
# From -- ./inp_files/8671.got.cif
#   From: 2010.03.12/outbox.cif.g09.slc.cpg/sg55_5_cif.got.tgz:8671.got - 2010.04.16 15:19:21.
