data_PCOD8225304
_publ_section_title
;
Structure prediction by ZEFSAII (Michael W. Deem and Ramdas Pophale) SiO2 
 PCOD8225304
Probable space group: P B A M
;
_chemical_formula_sum "Si O2"
_cell_formula_units_Z 56
_cell_length_a 23.654143
_cell_length_b 13.412233
_cell_length_c 9.173820
_cell_angle_alpha 90.000000
_cell_angle_beta 90.000000
_cell_angle_gamma 90.000000
_cell_volume 2910.439139
_symmetry_space_group_name_H-M "P B A M"
_symmetry_group_IT_number 55
_symmetry_cell_setting 'orthorhombic'
loop_
_space_group_symop_operation_xyz
x,y,z
-x,-y,z
1/2+x,1/2-y,-z
1/2-x,1/2+y,-z
-x,-y,-z
x,y,-z
1/2-x,1/2+y,z
1/2+x,1/2-y,z
loop_
_atom_site_type_symbol
_atom_site_label
_atom_site_fract_x
_atom_site_fract_y
_atom_site_fract_z
Si Si1 0.046652 0.233682 0.668990
Si Si2 0.172087 0.541645 0.168619
Si Si3 0.945303 0.561176 0.830550
Si Si4 0.173812 0.768724 0.834355
Si Si5 0.726830 0.557644 0.329203
Si Si6 0.054809 0.870436 0.833009
Si Si7 0.888510 0.959127 0.667370
O O1 0.033002 0.251396 0.500000
O O2 0.062593 0.337642 0.741628
O O3 0.099665 0.158198 0.688932
O O4 0.992697 0.185523 0.743564
O O5 0.108493 0.507531 0.200391
O O6 0.178114 0.655453 0.218090
O O7 0.214751 0.476842 0.261832
O O8 0.187452 0.527935 0.000000
O O9 0.000000 0.500000 0.776407
O O10 0.951709 0.589321 0.000000
O O11 0.213860 0.832411 0.730022
O O12 0.109315 0.801308 0.820023
O O13 0.194913 0.781936 0.000000
O O14 0.734921 0.564532 0.500000
O O15 0.675955 0.482255 0.284978
O O16 0.067274 0.979079 0.765455
O O17 0.035777 0.884645 0.000000
O O18 0.898020 0.992017 0.500000
#
# Coordination Sequence:
#
# PCOD8225304 Si02
#       7
#     8   8   8   8   8   8   8
#     4  11  22  35  54  81 115 150 183 225 276 328
#     4  10  21  38  60  83 108 141 181 226 275 326
#     4  10  22  41  61  81 108 141 181 229 277 326
#     4   9  19  37  59  81 108 145 188 231 274 324
#     4  10  21  37  57  82 113 146 182 225 272 325
#     4  10  19  33  56  84 112 145 188 231 273 325
#     4   9  20  37  53  76 113 151 184 223 272 323
#
# _framework density 19.241081999999999
#
# number of rings (size 3 to 8) (size 9 to 14) (size 15 to 20)
#    0.000    2.143    0.000    2.571    0.000    8.857 
#    0.000    4.286    0.000    0.000    0.000    0.000 
#    0.000    0.000    0.000    0.000    0.000    0.000 
#
# Total GULP energy -694610.326070 kJ/mol
# GULP energy per Si atom -12403.755823 kJ/mol
# Density = 1.919729 g / cm^3
# Si number density = 19.241082 Si / 1000 Ang^3
#
#
#
# Elastic Constant Matrix: (Units=GPa)
#
#
# Indices 1 2 3 4 5 6 
#
# 1 95.6574 60.4801 54.3650 0.0000 0.0000 0.0000
# 2 60.4801 137.6637 66.8484 0.0000 0.0000 0.0000
# 3 54.3650 66.8484 95.3999 0.0000 0.0000 0.0000
# 4 0.0000 0.0000 0.0000 30.5215 0.0000 0.0000
# 5 0.0000 0.0000 0.0000 0.0000 28.7678 0.0000
# 6 0.0000 0.0000 0.0000 0.0000 0.0000 20.6014
#
#
#
# Elastic Compliance Matrix: (Units=1/GPa)
#
#
# Indices 1 2 3 4 5 6 
#
# 1 0.016904 -0.004166 -0.006713 0.000000 0.000000 0.000000
# 2 -0.004166 0.012037 -0.006061 0.000000 0.000000 0.000000
# 3 -0.006713 -0.006061 0.018555 0.000000 0.000000 0.000000
# 4 0.000000 0.000000 0.000000 0.032764 0.000000 0.000000
# 5 0.000000 0.000000 0.000000 0.000000 0.034761 0.000000
# 6 0.000000 0.000000 0.000000 0.000000 0.000000 0.048540
#
#
# Mechanical properties :
#
#
# Convention : Reuss Voigt Hill
#
# Bulk Modulus (GPa) = 73.44763 76.90088 75.17425
# Shear Modulus (GPa) = 24.75496 25.77998 25.26747
#
# Velocity S-wave (km/s) = 3.59077 3.66435 3.62775
# Velocity P-wave (km/s) = 7.44625 7.61296 7.53006
#
# Compressibility (1/GPa) = 0.01361514
#
# Stress axis : x y z
#
# Youngs Moduli (GPa) = 59.15918 83.07380 53.89492
#
# Poissons Ratio (x) = 0.34612 0.36181
# Poissons Ratio (y) = 0.24648 0.32664
# Poissons Ratio (z) = 0.39715 0.50348
#
# Static dielectric constant tensor:
#      x y z
#    x 3.485920 0.000000 0.000000 
#    y 0.000000 3.617200 0.000000 
#    z 0.000000 0.000000 3.606450 
# 
# 
# High freq. dielectric constant tensor:
#      x y z
#    x 1.747350 0.000000 0.000000 
#    y 0.000000 1.753570 0.000000 
#    z 0.000000 0.000000 1.751080 
# 
# From -- ./inp_files/8729.got.cif
#   From: 2010.03.12/outbox.cif.g09.slc.cpg/sg55_5_cif.got.tgz:8729.got - 2010.04.16 15:19:21.
