data_PCOD8225435
_publ_section_title
;
Structure prediction by ZEFSAII (Michael W. Deem and Ramdas Pophale) SiO2 
 PCOD8225435
Probable space group: P B A M
;
_chemical_formula_sum "Si O2"
_cell_formula_units_Z 40
_cell_length_a 13.456007
_cell_length_b 18.323318
_cell_length_c 8.981861
_cell_angle_alpha 90.000000
_cell_angle_beta 90.000000
_cell_angle_gamma 90.000000
_cell_volume 2214.555929
_symmetry_space_group_name_H-M "P B A M"
_symmetry_group_IT_number 55
_symmetry_cell_setting 'orthorhombic'
loop_
_space_group_symop_operation_xyz
x,y,z
-x,-y,z
1/2+x,1/2-y,-z
1/2-x,1/2+y,-z
-x,-y,-z
x,y,-z
1/2-x,1/2+y,z
1/2+x,1/2-y,z
loop_
_atom_site_type_symbol
_atom_site_label
_atom_site_fract_x
_atom_site_fract_y
_atom_site_fract_z
Si Si1 0.717637 0.145443 0.827814
Si Si2 0.397623 0.288841 0.325640
Si Si3 0.385179 0.006438 0.172491
Si Si4 0.605951 0.291162 0.174298
Si Si5 0.212198 0.641898 0.674483
O O1 0.816314 0.152781 0.729177
O O2 0.666708 0.069506 0.788391
O O3 0.639463 0.208914 0.787035
O O4 0.748467 0.150822 0.000000
O O5 0.413268 0.298082 0.500000
O O6 0.499707 0.306342 0.244750
O O7 0.361684 0.207722 0.282186
O O8 0.500000 0.000000 0.214373
O O9 0.337067 0.067132 0.275604
O O10 0.371429 0.027909 0.000000
O O11 0.683420 0.348762 0.241891
O O12 0.598868 0.305080 0.000000
O O13 0.233521 0.640599 0.500000
#
# Coordination Sequence:
#
# PCOD8225435 Si02
#       5
#     8   8   8   8   8
#     4   9  19  34  53  78 105 135 173 214 256 305
#     4  10  20  34  53  77 106 138 172 213 258 306
#     4  10  20  35  55  79 107 137 172 215 259 305
#     4  10  19  34  57  79 102 136 176 217 259 304
#     4  10  21  35  52  78 110 140 172 211 258 312
#
# _framework density 18.062311999999999
#
# number of rings (size 3 to 8) (size 9 to 14) (size 15 to 20)
#    0.000    2.200    0.000    3.000    0.000    6.000 
#    0.000    1.000    0.000    6.000    0.000    0.000 
#    0.000    0.000    0.000    0.000    0.000    0.000 
#
# Total GULP energy -496201.144796 kJ/mol
# GULP energy per Si atom -12405.028620 kJ/mol
# Density = 1.802120 g / cm^3
# Si number density = 18.062312 Si / 1000 Ang^3
#
#
#
# Elastic Constant Matrix: (Units=GPa)
#
#
# Indices 1 2 3 4 5 6 
#
# 1 155.0281 54.2890 67.5821 0.0000 0.0000 0.0000
# 2 54.2890 90.7017 37.7774 0.0000 0.0000 0.0000
# 3 67.5821 37.7774 81.6848 0.0000 0.0000 0.0000
# 4 0.0000 0.0000 0.0000 29.8870 0.0000 0.0000
# 5 0.0000 0.0000 0.0000 0.0000 27.3695 0.0000
# 6 0.0000 0.0000 0.0000 0.0000 0.0000 18.9745
#
#
#
# Elastic Compliance Matrix: (Units=1/GPa)
#
#
# Indices 1 2 3 4 5 6 
#
# 1 0.010885 -0.003424 -0.007422 0.000000 0.000000 0.000000
# 2 -0.003424 0.014732 -0.003981 0.000000 0.000000 0.000000
# 3 -0.007422 -0.003981 0.020224 0.000000 0.000000 0.000000
# 4 0.000000 0.000000 0.000000 0.033459 0.000000 0.000000
# 5 0.000000 0.000000 0.000000 0.000000 0.036537 0.000000
# 6 0.000000 0.000000 0.000000 0.000000 0.000000 0.052702
#
#
# Mechanical properties :
#
#
# Convention : Reuss Voigt Hill
#
# Bulk Modulus (GPa) = 61.77486 71.85684 66.81585
# Shear Modulus (GPa) = 24.55914 26.43059 25.49487
#
# Velocity S-wave (km/s) = 3.69140 3.82946 3.76106
# Velocity P-wave (km/s) = 7.24181 7.70858 7.47883
#
# Compressibility (1/GPa) = 0.01618781
#
# Stress axis : x y z
#
# Youngs Moduli (GPa) = 91.86887 67.87751 49.44594
#
# Poissons Ratio (x) = 0.23240 0.36701
# Poissons Ratio (y) = 0.31454 0.19683
# Poissons Ratio (z) = 0.68189 0.27020
#
# Static dielectric constant tensor:
#      x y z
#    x 3.375680 0.000000 0.000000 
#    y 0.000000 3.241090 0.000000 
#    z 0.000000 0.000000 3.358390 
# 
# 
# High freq. dielectric constant tensor:
#      x y z
#    x 1.707430 0.000000 0.000000 
#    y 0.000000 1.687520 0.000000 
#    z 0.000000 0.000000 1.707080 
# 
# From -- ./inp_files/3593.got.cif
#   From: 2010.03.12/outbox.cif.g09.slc.cpg/sg55_2_cif.got.tgz:3593.got - 2010.04.16 15:19:21.
