data_PCOD8225062
_publ_section_title
;
Structure prediction by ZEFSAII (Michael W. Deem and Ramdas Pophale) SiO2 
 PCOD8225062
Probable space group: P B A M
;
_chemical_formula_sum "Si O2"
_cell_formula_units_Z 64
_cell_length_a 23.226306
_cell_length_b 19.001063
_cell_length_c 8.644740
_cell_angle_alpha 90.000000
_cell_angle_beta 90.000000
_cell_angle_gamma 90.000000
_cell_volume 3815.135589
_symmetry_space_group_name_H-M "P B A M"
_symmetry_group_IT_number 55
_symmetry_cell_setting 'orthorhombic'
loop_
_space_group_symop_operation_xyz
x,y,z
-x,-y,z
1/2+x,1/2-y,-z
1/2-x,1/2+y,-z
-x,-y,-z
x,y,-z
1/2-x,1/2+y,z
1/2+x,1/2-y,z
loop_
_atom_site_type_symbol
_atom_site_label
_atom_site_fract_x
_atom_site_fract_y
_atom_site_fract_z
Si Si1 0.121363 0.502390 0.179165
Si Si2 0.056439 0.645481 0.818476
Si Si3 0.828186 0.721399 0.678200
Si Si4 0.227456 0.865904 0.180877
Si Si5 0.338077 0.232340 0.182015
Si Si6 0.226404 0.152127 0.182522
Si Si7 0.435572 0.870096 0.322722
Si Si8 0.246200 0.508429 0.320077
O O1 0.084126 0.570401 0.221200
O O2 0.082501 0.435070 0.215564
O O3 0.179344 0.500819 0.277910
O O4 0.139314 0.502812 0.000000
O O5 0.100113 0.706205 0.756804
O O6 0.998447 0.656283 0.723705
O O7 0.043355 0.652471 0.000000
O O8 0.809090 0.715267 0.500000
O O9 0.787603 0.671521 0.780519
O O10 0.823853 0.801994 0.736601
O O11 0.893409 0.695992 0.702240
O O12 0.174775 0.813497 0.226617
O O13 0.220021 0.937225 0.276792
O O14 0.227167 0.883792 0.000000
O O15 0.287363 0.182087 0.246041
O O16 0.337331 0.222055 0.000000
O O17 0.221996 0.071019 0.229706
O O18 0.219780 0.160056 0.000000
O O19 0.434791 0.895544 0.500000
O O20 0.252010 0.523033 0.500000
#
# Coordination Sequence:
#
# PCOD8225062 Si02
#       8
#     8   8   8   8   8   8   8   8
#     4  11  21  34  51  70  98 138 180 214 245 292
#     4  10  20  35  52  71  97 133 176 213 247 293
#     4  10  20  34  49  72 103 132 166 211 256 295
#     4  10  19  32  53  74  98 133 171 208 251 304
#     4   8  16  32  51  73  96 124 165 213 249 287
#     4  10  19  34  54  74  98 130 170 208 251 307
#     4  11  23  35  48  71 104 137 172 211 251 297
#     4  12  22  32  49  76 107 136 165 207 259 307
#
# _framework density 16.775288
#
# number of rings (size 3 to 8) (size 9 to 14) (size 15 to 20)
#    0.000    1.750    2.500    4.125    0.000    4.000 
#    0.000    1.250    0.000    0.000    0.000    0.875 
#    0.000    7.000    0.000    0.000    0.000    0.000 
#
# Total GULP energy -793684.154074 kJ/mol
# GULP energy per Si atom -12401.314907 kJ/mol
# Density = 1.673711 g / cm^3
# Si number density = 16.775288 Si / 1000 Ang^3
#
#
#
# Elastic Constant Matrix: (Units=GPa)
#
#
# Indices 1 2 3 4 5 6 
#
# 1 80.6453 50.7822 24.7416 0.0000 0.0000 0.0000
# 2 50.7822 102.7990 18.0990 0.0000 0.0000 0.0000
# 3 24.7416 18.0990 47.6808 0.0000 0.0000 0.0000
# 4 0.0000 0.0000 0.0000 25.2573 0.0000 0.0000
# 5 0.0000 0.0000 0.0000 0.0000 22.6518 0.0000
# 6 0.0000 0.0000 0.0000 0.0000 0.0000 23.1506
#
#
#
# Elastic Compliance Matrix: (Units=1/GPa)
#
#
# Indices 1 2 3 4 5 6 
#
# 1 0.020021 -0.008638 -0.007110 0.000000 0.000000 0.000000
# 2 -0.008638 0.014152 -0.000889 0.000000 0.000000 0.000000
# 3 -0.007110 -0.000889 0.025000 0.000000 0.000000 0.000000
# 4 0.000000 0.000000 0.000000 0.039593 0.000000 0.000000
# 5 0.000000 0.000000 0.000000 0.000000 0.044147 0.000000
# 6 0.000000 0.000000 0.000000 0.000000 0.000000 0.043195
#
#
# Mechanical properties :
#
#
# Convention : Reuss Voigt Hill
#
# Bulk Modulus (GPa) = 38.61439 46.48563 42.55001
# Shear Modulus (GPa) = 21.92848 23.37876 22.65362
#
# Velocity S-wave (km/s) = 3.61943 3.73720 3.67879
# Velocity P-wave (km/s) = 6.36676 6.81125 6.59275
#
# Compressibility (1/GPa) = 0.02589708
#
# Stress axis : x y z
#
# Youngs Moduli (GPa) = 49.94799 70.66321 40.00065
#
# Poissons Ratio (x) = 0.61042 0.28439
# Poissons Ratio (y) = 0.43147 0.03557
# Poissons Ratio (z) = 0.35512 0.06284
#
# Static dielectric constant tensor:
#      x y z
#    x 3.074540 0.000000 0.000000 
#    y 0.000000 3.311430 0.000000 
#    z 0.000000 0.000000 3.130610 
# 
# 
# High freq. dielectric constant tensor:
#      x y z
#    x 1.616430 0.000000 0.000000 
#    y 0.000000 1.644890 0.000000 
#    z 0.000000 0.000000 1.650890 
# 
# From -- ./inp_files/8185.got.cif
#   From: 2010.03.12/outbox.cif.g09.slc.cpg/sg55_5_cif.got.tgz:8185.got - 2010.04.16 15:19:21.
