data_PCOD8225450
_publ_section_title
;
Structure prediction by ZEFSAII (Michael W. Deem and Ramdas Pophale) SiO2 
 PCOD8225450
Probable space group: P B A M
;
_chemical_formula_sum "Si O2"
_cell_formula_units_Z 40
_cell_length_a 21.510092
_cell_length_b 10.471878
_cell_length_c 8.565231
_cell_angle_alpha 90.000000
_cell_angle_beta 90.000000
_cell_angle_gamma 90.000000
_cell_volume 1929.327355
_symmetry_space_group_name_H-M "P B A M"
_symmetry_group_IT_number 55
_symmetry_cell_setting 'orthorhombic'
loop_
_space_group_symop_operation_xyz
x,y,z
-x,-y,z
1/2+x,1/2-y,-z
1/2-x,1/2+y,-z
-x,-y,-z
x,y,-z
1/2-x,1/2+y,z
1/2+x,1/2-y,z
loop_
_atom_site_type_symbol
_atom_site_label
_atom_site_fract_x
_atom_site_fract_y
_atom_site_fract_z
Si Si1 0.035668 0.173251 0.819027
Si Si2 0.715167 0.692931 0.685558
Si Si3 0.936768 0.567351 0.316949
Si Si4 0.585872 0.575515 0.317247
Si Si5 0.196012 0.526920 0.315538
O O1 0.071787 0.301474 0.775894
O O2 0.972146 0.167330 0.719574
O O3 0.080464 0.056143 0.776723
O O4 0.018588 0.168129 0.000000
O O5 0.719344 0.696500 0.500000
O O6 0.647933 0.644506 0.739694
O O7 0.766817 0.595245 0.754968
O O8 0.723262 0.838305 0.750181
O O9 0.939324 0.597189 0.500000
O O10 0.877101 0.481210 0.273584
O O11 0.000000 0.500000 0.260039
O O12 0.587381 0.544314 0.500000
O O13 0.205069 0.525017 0.500000
#
# Coordination Sequence:
#
# PCOD8225450 Si02
#       5
#     8   8   8   8   8
#     4  11  22  35  54  82 114 149 189 232 287 342
#     4   9  18  31  52  83 116 145 180 232 287 340
#     4  10  20  35  57  83 113 147 190 239 286 336
#     4  10  19  34  57  83 111 146 190 235 287 339
#     4   9  18  31  51  83 118 146 180 231 289 338
#
# _framework density 20.732616
#
# number of rings (size 3 to 8) (size 9 to 14) (size 15 to 20)
#    0.000    2.200    0.000    4.800    2.800    3.600 
#    0.000    0.000    0.000    2.400    0.000    0.000 
#    0.000    0.000    0.000    0.000    0.000    0.000 
#
# Total GULP energy -495949.441719 kJ/mol
# GULP energy per Si atom -12398.736043 kJ/mol
# Density = 2.068543 g / cm^3
# Si number density = 20.732616 Si / 1000 Ang^3
#
#
#
# Elastic Constant Matrix: (Units=GPa)
#
#
# Indices 1 2 3 4 5 6 
#
# 1 113.7796 81.0462 9.8155 0.0000 0.0000 0.0000
# 2 81.0462 170.6774 14.1240 0.0000 0.0000 0.0000
# 3 9.8155 14.1240 33.1828 0.0000 0.0000 0.0000
# 4 0.0000 0.0000 0.0000 3.0190 0.0000 0.0000
# 5 0.0000 0.0000 0.0000 0.0000 2.3377 0.0000
# 6 0.0000 0.0000 0.0000 0.0000 0.0000 28.8478
#
#
#
# Elastic Compliance Matrix: (Units=1/GPa)
#
#
# Indices 1 2 3 4 5 6 
#
# 1 0.013335 -0.006225 -0.001295 0.000000 0.000000 0.000000
# 2 -0.006225 0.008979 -0.001980 0.000000 0.000000 0.000000
# 3 -0.001295 -0.001980 0.031362 0.000000 0.000000 0.000000
# 4 0.000000 0.000000 0.000000 0.331234 0.000000 0.000000
# 5 0.000000 0.000000 0.000000 0.000000 0.427779 0.000000
# 6 0.000000 0.000000 0.000000 0.000000 0.000000 0.034665
#
#
# Mechanical properties :
#
#
# Convention : Reuss Voigt Hill
#
# Bulk Modulus (GPa) = 28.83901 58.62347 43.73124
# Shear Modulus (GPa) = 5.69533 21.01784 13.35659
#
# Velocity S-wave (km/s) = 1.65922 3.18741 2.54092
# Velocity P-wave (km/s) = 4.19653 6.47174 5.45409
#
# Compressibility (1/GPa) = 0.03467526
#
# Stress axis : x y z
#
# Youngs Moduli (GPa) = 74.99287 111.37425 31.88566
#
# Poissons Ratio (x) = 0.69328 0.04129
# Poissons Ratio (y) = 0.46681 0.06315
# Poissons Ratio (z) = 0.09710 0.22057
#
# Static dielectric constant tensor:
#      x y z
#    x 3.806140 0.000000 0.000000 
#    y 0.000000 4.029630 0.000000 
#    z 0.000000 0.000000 3.226640 
# 
# 
# High freq. dielectric constant tensor:
#      x y z
#    x 1.811020 0.000000 0.000000 
#    y 0.000000 1.826910 0.000000 
#    z 0.000000 0.000000 1.758420 
# 
# From -- ./inp_files/10000.got.cif
#   From: 2010.03.12/outbox.cif.g09.slc.cpg/sg55_5_cif.got.tgz:10000.got - 2010.04.16 15:19:21.
