data_PCOD8225637
_publ_section_title
;
Structure prediction by ZEFSAII (Michael W. Deem and Ramdas Pophale) SiO2 
 PCOD8225637
Probable space group: P B A M
;
_chemical_formula_sum "Si O2"
_cell_formula_units_Z 32
_cell_length_a 5.294851
_cell_length_b 14.962128
_cell_length_c 18.410897
_cell_angle_alpha 90.000000
_cell_angle_beta 90.000000
_cell_angle_gamma 90.000000
_cell_volume 1458.552471
_symmetry_space_group_name_H-M "P B A M"
_symmetry_group_IT_number 55
_symmetry_cell_setting 'orthorhombic'
loop_
_space_group_symop_operation_xyz
x,y,z
-x,-y,z
1/2+x,1/2-y,-z
1/2-x,1/2+y,-z
-x,-y,-z
x,y,-z
1/2-x,1/2+y,z
1/2+x,1/2-y,z
loop_
_atom_site_type_symbol
_atom_site_label
_atom_site_fract_x
_atom_site_fract_y
_atom_site_fract_z
Si Si1 0.252632 0.057457 0.206736
Si Si2 0.807240 0.655941 0.415375
Si Si3 0.807083 0.853375 0.354791
Si Si4 0.719946 0.805187 0.083983
O O1 0.221417 0.131926 0.269125
O O2 0.292460 0.104427 0.129636
O O3 0.500000 0.000000 0.224656
O O4 0.000000 0.000000 0.203089
O O5 0.772650 0.675735 0.500000
O O6 0.835237 0.748603 0.371680
O O7 0.566491 0.600826 0.384584
O O8 0.068035 0.603598 0.398123
O O9 0.476729 0.746154 0.103857
O O10 0.715174 0.833384 0.000000
#
# Coordination Sequence:
#
# PCOD8225637 Si02
#       4
#     8   8   8   8
#     4  12  26  41  61  93 136 174 203 249 318 390
#     4  10  19  35  62  90 111 153 215 268 310 361
#     4  10  20  33  57  85 119 153 201 261 301 361
#     4  10  23  43  70  98 126 162 215 268 303 356
#
# _framework density 21.939561999999999
#
# number of rings (size 3 to 8) (size 9 to 14) (size 15 to 20)
#    0.000    1.500    0.000    6.750    7.000    1.000 
#    0.000    0.000    0.000   25.500    0.000    0.000 
#    0.000    0.000    0.000    0.000    0.000    0.000 
#
# Total GULP energy -396744.769241 kJ/mol
# GULP energy per Si atom -12398.274039 kJ/mol
# Density = 2.188963 g / cm^3
# Si number density = 21.939562 Si / 1000 Ang^3
#
#
#
# Elastic Constant Matrix: (Units=GPa)
#
#
# Indices 1 2 3 4 5 6 
#
# 1 200.9717 0.6420 27.6292 0.0000 0.0000 0.0000
# 2 0.6420 23.4686 32.2370 0.0000 0.0000 0.0000
# 3 27.6292 32.2370 114.0013 0.0000 0.0000 0.0000
# 4 0.0000 0.0000 0.0000 15.1716 0.0000 0.0000
# 5 0.0000 0.0000 0.0000 0.0000 21.4209 0.0000
# 6 0.0000 0.0000 0.0000 0.0000 0.0000 16.5462
#
#
#
# Elastic Compliance Matrix: (Units=1/GPa)
#
#
# Indices 1 2 3 4 5 6 
#
# 1 0.005244 0.002620 -0.002012 0.000000 0.000000 0.000000
# 2 0.002620 0.070983 -0.020707 0.000000 0.000000 0.000000
# 3 -0.002012 -0.020707 0.015115 0.000000 0.000000 0.000000
# 4 0.000000 0.000000 0.000000 0.065913 0.000000 0.000000
# 5 0.000000 0.000000 0.000000 0.000000 0.046683 0.000000
# 6 0.000000 0.000000 0.000000 0.000000 0.000000 0.060437
#
#
# Mechanical properties :
#
#
# Convention : Reuss Voigt Hill
#
# Bulk Modulus (GPa) = 19.55282 51.05088 35.30185
# Shear Modulus (GPa) = 15.54626 29.15662 22.35144
#
# Velocity S-wave (km/s) = 2.66483 3.64943 3.19529
# Velocity P-wave (km/s) = 4.28951 6.40915 5.45331
#
# Compressibility (1/GPa) = 0.05114352
#
# Stress axis : x y z
#
# Youngs Moduli (GPa) = 190.69266 14.08794 66.15944
#
# Poissons Ratio (x) = -0.03691 0.13310
# Poissons Ratio (y) = -0.49963 1.36999
# Poissons Ratio (z) = 0.38364 0.29172
#
# Static dielectric constant tensor:
#      x y z
#    x 5.643250 0.000000 0.000000 
#    y 0.000000 3.395640 0.000000 
#    z 0.000000 0.000000 3.918520 
# 
# 
# High freq. dielectric constant tensor:
#      x y z
#    x 1.909030 0.000000 0.000000 
#    y 0.000000 1.821010 0.000000 
#    z 0.000000 0.000000 1.867150 
# 
# From -- ./inp_files/20268.got.cif
#   From: 2010.03.12/outbox.cif.g09.slc.cpg/sg55_11_cif.got.tgz:20268.got - 2010.04.16 15:19:21.
