data_PCOD8225284
_publ_section_title
;
Structure prediction by ZEFSAII (Michael W. Deem and Ramdas Pophale) SiO2 
 PCOD8225284
Probable space group: P B A M
;
_chemical_formula_sum "Si O2"
_cell_formula_units_Z 56
_cell_length_a 16.893264
_cell_length_b 5.307356
_cell_length_c 25.061515
_cell_angle_alpha 90.000000
_cell_angle_beta 90.000000
_cell_angle_gamma 90.000000
_cell_volume 2246.979498
_symmetry_space_group_name_H-M "P B A M"
_symmetry_group_IT_number 55
_symmetry_cell_setting 'orthorhombic'
loop_
_space_group_symop_operation_xyz
x,y,z
-x,-y,z
1/2+x,1/2-y,-z
1/2-x,1/2+y,-z
-x,-y,-z
x,y,-z
1/2-x,1/2+y,z
1/2+x,1/2-y,z
loop_
_atom_site_type_symbol
_atom_site_label
_atom_site_fract_x
_atom_site_fract_y
_atom_site_fract_z
Si Si1 0.462192 0.252104 0.197594
Si Si2 0.778508 0.173179 0.814904
Si Si3 0.407037 0.998252 0.380566
Si Si4 0.706125 0.351052 0.063301
Si Si5 0.405777 0.499027 0.560006
Si Si6 0.287546 0.881457 0.699901
Si Si7 0.029848 0.248098 0.079973
O O1 0.500000 0.500000 0.225854
O O2 0.367305 0.269155 0.203112
O O3 0.482941 0.251944 0.135647
O O4 0.500000 0.000000 0.224251
O O5 0.734884 0.405266 0.846747
O O6 0.721529 0.114293 0.763985
O O7 0.375289 0.258640 0.406137
O O8 0.500000 0.000000 0.375622
O O9 0.375709 0.763764 0.415851
O O10 0.374660 0.961800 0.320142
O O11 0.727662 0.640794 0.080067
O O12 0.623391 0.263722 0.089498
O O13 0.694147 0.335251 0.000000
O O14 0.500000 0.500000 0.559385
O O15 0.372583 0.474389 0.500000
O O16 0.268518 0.604934 0.676670
O O17 0.000000 0.500000 0.049150
O O18 0.000000 0.000000 0.047890
#
# Coordination Sequence:
#
# PCOD8225284 Si02
#       7
#     8   8   8   8   8   8   8
#     4  10  21  40  61  88 122 154 199 250 299 361
#     4  10  21  40  63  87 115 153 195 239 304 368
#     4  10  19  33  56  82 109 143 188 235 275 328
#     4  10  21  38  60  87 121 162 207 253 304 363
#     4   9  17  30  52  83 114 145 184 231 279 327
#     4  10  21  38  57  80 110 149 185 228 289 345
#     4  10  21  38  58  88 122 158 202 252 302 353
#
# _framework density 24.922345
#
# number of rings (size 3 to 8) (size 9 to 14) (size 15 to 20)
#    0.000    2.143    0.000    3.000    0.000    2.286 
#    0.000   25.714    0.000    8.571    0.000    0.000 
#    0.000    0.000    0.000    0.000    0.000    0.000 
#
# Total GULP energy -694008.471805 kJ/mol
# GULP energy per Si atom -12393.008425 kJ/mol
# Density = 2.486562 g / cm^3
# Si number density = 24.922345 Si / 1000 Ang^3
#
#
#
# Elastic Constant Matrix: (Units=GPa)
#
#
# Indices 1 2 3 4 5 6 
#
# 1 101.0899 62.7821 13.7609 0.0000 0.0000 0.0000
# 2 62.7821 264.8104 30.4919 0.0000 0.0000 0.0000
# 3 13.7609 30.4919 77.4218 0.0000 0.0000 0.0000
# 4 0.0000 0.0000 0.0000 59.7501 0.0000 0.0000
# 5 0.0000 0.0000 0.0000 0.0000 72.9666 0.0000
# 6 0.0000 0.0000 0.0000 0.0000 0.0000 43.2620
#
#
#
# Elastic Compliance Matrix: (Units=1/GPa)
#
#
# Indices 1 2 3 4 5 6 
#
# 1 0.011678 -0.002650 -0.001032 0.000000 0.000000 0.000000
# 2 -0.002650 0.004557 -0.001324 0.000000 0.000000 0.000000
# 3 -0.001032 -0.001324 0.013621 0.000000 0.000000 0.000000
# 4 0.000000 0.000000 0.000000 0.016736 0.000000 0.000000
# 5 0.000000 0.000000 0.000000 0.000000 0.013705 0.000000
# 6 0.000000 0.000000 0.000000 0.000000 0.000000 0.023115
#
#
# Mechanical properties :
#
#
# Convention : Reuss Voigt Hill
#
# Bulk Modulus (GPa) = 50.39056 73.04356 61.71706
# Shear Modulus (GPa) = 49.98047 57.61489 53.79768
#
# Velocity S-wave (km/s) = 4.48308 4.81331 4.65113
# Velocity P-wave (km/s) = 6.86005 7.76290 7.32540
#
# Compressibility (1/GPa) = 0.01984499
#
# Stress axis : x y z
#
# Youngs Moduli (GPa) = 85.62807 219.44450 73.41585
#
# Poissons Ratio (x) = 0.58151 0.07577
# Poissons Ratio (y) = 0.22691 0.09718
# Poissons Ratio (z) = 0.08837 0.29048
#
# Static dielectric constant tensor:
#      x y z
#    x 4.084360 0.000000 0.000000 
#    y 0.000000 7.335280 0.000000 
#    z 0.000000 0.000000 4.329380 
# 
# 
# High freq. dielectric constant tensor:
#      x y z
#    x 1.966420 0.000000 0.000000 
#    y 0.000000 2.038820 0.000000 
#    z 0.000000 0.000000 1.979990 
# 
# From -- ./inp_files/24186.got.cif
#   From: 2010.03.12/outbox.cif.g09.slc.cpg/sg55_13_cif.got.tgz:24186.got - 2010.04.16 15:19:21.
