data_PCOD8225208
_publ_section_title
;
Structure prediction by ZEFSAII (Michael W. Deem and Ramdas Pophale) SiO2 
 PCOD8225208
Probable space group: P B A M
;
_chemical_formula_sum "Si O2"
_cell_formula_units_Z 64
_cell_length_a 17.991155
_cell_length_b 18.204861
_cell_length_c 9.602162
_cell_angle_alpha 90.000000
_cell_angle_beta 90.000000
_cell_angle_gamma 90.000000
_cell_volume 3144.962282
_symmetry_space_group_name_H-M "P B A M"
_symmetry_group_IT_number 55
_symmetry_cell_setting 'orthorhombic'
loop_
_space_group_symop_operation_xyz
x,y,z
-x,-y,z
1/2+x,1/2-y,-z
1/2-x,1/2+y,-z
-x,-y,-z
x,y,-z
1/2-x,1/2+y,z
1/2+x,1/2-y,z
loop_
_atom_site_type_symbol
_atom_site_label
_atom_site_fract_x
_atom_site_fract_y
_atom_site_fract_z
Si Si1 0.073507 0.757238 0.156800
Si Si2 0.677190 0.614244 0.835080
Si Si3 0.933957 0.453305 0.347148
Si Si4 0.326528 0.112854 0.155391
Si Si5 0.163290 0.328848 0.834097
Si Si6 0.330913 0.660487 0.835132
Si Si7 0.967999 0.682378 0.345670
Si Si8 0.081337 0.021460 0.165515
O O1 0.122185 0.822896 0.221586
O O2 0.123484 0.685030 0.151204
O O3 0.999868 0.749607 0.252224
O O4 0.045540 0.776225 0.000000
O O5 0.761202 0.630960 0.784138
O O6 0.645145 0.535888 0.783064
O O7 0.678340 0.620011 0.000000
O O8 0.912974 0.486213 0.500000
O O9 0.862812 0.452389 0.246502
O O10 0.000000 0.500000 0.277409
O O11 0.962396 0.370775 0.366275
O O12 0.247321 0.130869 0.224020
O O13 0.317171 0.080503 0.000000
O O14 0.159372 0.243597 0.783314
O O15 0.096110 0.361591 0.741265
O O16 0.149805 0.337416 0.000000
O O17 0.395705 0.603881 0.785684
O O18 0.324334 0.662242 0.000000
O O19 0.940624 0.708273 0.500000
O O20 0.077690 0.017852 0.000000
O O21 0.000000 0.000000 0.226808
#
# Coordination Sequence:
#
# PCOD8225208 Si02
#       8
#     8   8   8   8   8   8   8   8
#     4   9  16  30  52  75  98 130 169 211 261 312
#     4   9  17  30  49  75 105 134 173 218 262 314
#     4   9  19  35  51  69 100 138 170 204 252 316
#     4   9  16  29  50  75 101 127 163 212 259 299
#     4  10  19  33  54  78 105 138 173 215 263 311
#     4   9  17  30  47  73 106 136 167 211 262 307
#     4  10  21  34  49  75 105 132 171 216 258 308
#     4   9  18  29  44  74 110 140 171 211 260 313
#
# _framework density 20.350006
#
# number of rings (size 3 to 8) (size 9 to 14) (size 15 to 20)
#    0.000    2.750    1.250    0.375    1.750    1.750 
#    0.000    2.500    0.000    0.000    0.000    3.500 
#    0.000    0.000    0.000    0.000    0.000    0.000 
#
# Total GULP energy -793039.868103 kJ/mol
# GULP energy per Si atom -12391.247939 kJ/mol
# Density = 2.030369 g / cm^3
# Si number density = 20.350006 Si / 1000 Ang^3
#
#
#
# Elastic Constant Matrix: (Units=GPa)
#
#
# Indices 1 2 3 4 5 6 
#
# 1 92.6351 4.0625 24.8001 0.0000 0.0000 0.0000
# 2 4.0625 37.1035 -0.0838 0.0000 0.0000 0.0000
# 3 24.8001 -0.0838 57.9952 0.0000 0.0000 0.0000
# 4 0.0000 0.0000 0.0000 9.3711 0.0000 0.0000
# 5 0.0000 0.0000 0.0000 0.0000 4.0619 0.0000
# 6 0.0000 0.0000 0.0000 0.0000 0.0000 32.2920
#
#
#
# Elastic Compliance Matrix: (Units=1/GPa)
#
#
# Indices 1 2 3 4 5 6 
#
# 1 0.012258 -0.001354 -0.005244 0.000000 0.000000 0.000000
# 2 -0.001354 0.027101 0.000618 0.000000 0.000000 0.000000
# 3 -0.005244 0.000618 0.019486 0.000000 0.000000 0.000000
# 4 0.000000 0.000000 0.000000 0.106711 0.000000 0.000000
# 5 0.000000 0.000000 0.000000 0.000000 0.246192 0.000000
# 6 0.000000 0.000000 0.000000 0.000000 0.000000 0.030967
#
#
# Mechanical properties :
#
#
# Convention : Reuss Voigt Hill
#
# Bulk Modulus (GPa) = 21.32823 27.25459 24.29141
# Shear Modulus (GPa) = 10.63142 19.74199 15.18671
#
# Velocity S-wave (km/s) = 2.28815 3.11806 2.73477
# Velocity P-wave (km/s) = 4.18142 5.13664 4.68345
#
# Compressibility (1/GPa) = 0.04688622
#
# Stress axis : x y z
#
# Youngs Moduli (GPa) = 81.57727 36.89861 51.31855
#
# Poissons Ratio (x) = 0.04996 0.26911
# Poissons Ratio (y) = 0.11046 -0.03172
# Poissons Ratio (z) = 0.42778 -0.02281
#
# Static dielectric constant tensor:
#      x y z
#    x 3.846290 0.000000 0.000000 
#    y 0.000000 3.683390 0.000000 
#    z 0.000000 0.000000 3.474840 
# 
# 
# High freq. dielectric constant tensor:
#      x y z
#    x 1.803300 0.000000 0.000000 
#    y 0.000000 1.787420 0.000000 
#    z 0.000000 0.000000 1.734700 
# 
# From -- ./inp_files/7945.got.cif
#   From: 2010.03.12/outbox.cif.g09.slc.cpg/sg55_4_cif.got.tgz:7945.got - 2010.04.16 15:19:21.
