data_PCOD8225293
_publ_section_title
;
Structure prediction by ZEFSAII (Michael W. Deem and Ramdas Pophale) SiO2 
 PCOD8225293
Probable space group: P B A M
;
_chemical_formula_sum "Si O2"
_cell_formula_units_Z 64
_cell_length_a 19.938684
_cell_length_b 18.780031
_cell_length_c 8.731186
_cell_angle_alpha 90.000000
_cell_angle_beta 90.000000
_cell_angle_gamma 90.000000
_cell_volume 3269.384771
_symmetry_space_group_name_H-M "P B A M"
_symmetry_group_IT_number 55
_symmetry_cell_setting 'orthorhombic'
loop_
_space_group_symop_operation_xyz
x,y,z
-x,-y,z
1/2+x,1/2-y,-z
1/2-x,1/2+y,-z
-x,-y,-z
x,y,-z
1/2-x,1/2+y,z
1/2+x,1/2-y,z
loop_
_atom_site_type_symbol
_atom_site_label
_atom_site_fract_x
_atom_site_fract_y
_atom_site_fract_z
Si Si1 0.448306 0.060257 0.680099
Si Si2 0.623457 0.256263 0.182504
Si Si3 0.125139 0.828722 0.182447
Si Si4 0.522625 0.787989 0.181891
Si Si5 0.772369 0.641227 0.181995
Si Si6 0.308617 0.016913 0.819259
Si Si7 0.324588 0.593769 0.181205
Si Si8 0.572278 0.521814 0.817201
O O1 0.450947 0.070536 0.500000
O O2 0.470279 0.133029 0.757485
O O3 0.374397 0.038456 0.729300
O O4 0.500000 0.000000 0.736006
O O5 0.547467 0.245638 0.240413
O O6 0.668609 0.191406 0.246027
O O7 0.653964 0.329716 0.249318
O O8 0.625829 0.257478 0.000000
O O9 0.083968 0.760516 0.244314
O O10 0.201452 0.828457 0.244538
O O11 0.089023 0.899687 0.243985
O O12 0.124774 0.828304 0.000000
O O13 0.523381 0.790716 0.000000
O O14 0.784564 0.560697 0.237874
O O15 0.770649 0.642012 0.000000
O O16 0.251806 0.074688 0.775589
O O17 0.323467 0.016917 0.000000
O O18 0.373421 0.533433 0.249275
O O19 0.332852 0.595078 0.000000
O O20 0.500000 0.500000 0.752898
O O21 0.573362 0.520774 0.000000
#
# Coordination Sequence:
#
# PCOD8225293 Si02
#       8
#     8   8   8   8   8   8   8   8
#     4  11  25  42  58  76 104 142 182 230 285 330
#     4   9  17  27  43  71 108 141 173 218 267 312
#     4   9  16  26  42  72 108 139 169 208 260 310
#     4  10  20  34  55  83 109 138 179 223 267 321
#     4   9  16  27  44  70 107 141 170 213 266 312
#     4  10  19  33  56  83 108 140 182 224 266 320
#     4   9  16  26  43  76 113 144 176 214 264 316
#     4   9  14  22  38  64 107 148 171 201 253 315
#
# _framework density 19.575548000000001
#
# number of rings (size 3 to 8) (size 9 to 14) (size 15 to 20)
#    0.000    2.500    1.250    1.875    1.750    5.000 
#    0.000    0.000    0.000    1.500    0.000    0.000 
#    0.000    2.000    0.000    0.000    0.000    0.000 
#
# Total GULP energy -793481.516509 kJ/mol
# GULP energy per Si atom -12398.148695 kJ/mol
# Density = 1.953099 g / cm^3
# Si number density = 19.575548 Si / 1000 Ang^3
#
#
#
# Elastic Constant Matrix: (Units=GPa)
#
#
# Indices 1 2 3 4 5 6 
#
# 1 158.1124 74.9563 12.5581 0.0000 0.0000 0.0000
# 2 74.9563 156.4006 5.6932 0.0000 0.0000 0.0000
# 3 12.5581 5.6932 -0.7734 0.0000 0.0000 0.0000
# 4 0.0000 0.0000 0.0000 2.9063 0.0000 0.0000
# 5 0.0000 0.0000 0.0000 0.0000 4.3540 0.0000
# 6 0.0000 0.0000 0.0000 0.0000 0.0000 44.8407
#
#
#
# Elastic Compliance Matrix: (Units=1/GPa)
#
#
# Indices 1 2 3 4 5 6 
#
# 1 0.004531 -0.003825 0.045414 0.000000 0.000000 0.000000
# 2 -0.003825 0.008271 -0.001215 0.000000 0.000000 0.000000
# 3 0.045414 -0.001215 -0.564534 0.000000 0.000000 0.000000
# 4 0.000000 0.000000 0.000000 0.344086 0.000000 0.000000
# 5 0.000000 0.000000 0.000000 0.000000 0.229676 0.000000
# 6 0.000000 0.000000 0.000000 0.000000 0.000000 0.022301
#
#
# Mechanical properties :
#
#
# Convention : Reuss Voigt Hill
#
# Bulk Modulus (GPa) = -2.12322 55.57274 26.72476
# Shear Modulus (GPa) = -25.85152 25.12232 -0.36460
#
# Velocity S-wave (km/s) = -3.63795 3.58628 -0.43204
# Velocity P-wave (km/s) = 4.32819 6.75270 3.66509
#
# Compressibility (1/GPa) = -0.47098313
#
# Stress axis : x y z
#
# Youngs Moduli (GPa) = 220.71692 120.90438 -1.77137
#
# Poissons Ratio (x) = 0.46240 0.08045
# Poissons Ratio (y) = 0.84413 -0.00215
# Poissons Ratio (z) = -10.02366 0.14692
#
# Static dielectric constant tensor:
#      x y z
#    x 3.892680 0.000000 0.000000 
#    y 0.000000 3.873770 0.000000 
#    z 0.000000 0.000000 2.802190 
# 
# 
# High freq. dielectric constant tensor:
#      x y z
#    x 1.783050 0.000000 0.000000 
#    y 0.000000 1.779110 0.000000 
#    z 0.000000 0.000000 1.679800 
# 
# From -- ./inp_files/8970.got.cif
#   From: 2010.03.12/outbox.cif.g09.slc.cpg/sg55_5_cif.got.tgz:8970.got - 2010.04.16 15:19:21.
