data_PCOD8225576
_publ_section_title
;
Structure prediction by ZEFSAII (Michael W. Deem and Ramdas Pophale) SiO2 
 PCOD8225576
Probable space group: P B A M
;
_chemical_formula_sum "Si O2"
_cell_formula_units_Z 64
_cell_length_a 14.624085
_cell_length_b 24.346477
_cell_length_c 8.752686
_cell_angle_alpha 90.000000
_cell_angle_beta 90.000000
_cell_angle_gamma 90.000000
_cell_volume 3116.349641
_symmetry_space_group_name_H-M "P B A M"
_symmetry_group_IT_number 55
_symmetry_cell_setting 'orthorhombic'
loop_
_space_group_symop_operation_xyz
x,y,z
-x,-y,z
1/2+x,1/2-y,-z
1/2-x,1/2+y,-z
-x,-y,-z
x,y,-z
1/2-x,1/2+y,z
1/2+x,1/2-y,z
loop_
_atom_site_type_symbol
_atom_site_label
_atom_site_fract_x
_atom_site_fract_y
_atom_site_fract_z
Si Si1 0.045119 0.430341 0.174680
Si Si2 0.138351 0.341938 0.668387
Si Si3 0.672003 0.605782 0.678382
Si Si4 0.730815 0.008396 0.820681
Si Si5 0.643552 0.284841 0.672349
Si Si6 0.161172 0.701925 0.819131
Si Si7 0.955471 0.191908 0.819256
Si Si8 0.135140 0.585220 0.679464
O O1 0.068470 0.366754 0.208201
O O2 0.134921 0.463420 0.222304
O O3 0.956733 0.448237 0.272432
O O4 0.017803 0.439384 0.000000
O O5 0.118009 0.367215 0.500000
O O6 0.242028 0.355216 0.714072
O O7 0.119627 0.278485 0.667310
O O8 0.648732 0.602051 0.500000
O O9 0.688716 0.544060 0.742617
O O10 0.590062 0.634859 0.767531
O O11 0.723242 0.946802 0.750794
O O12 0.749679 0.005351 0.000000
O O13 0.658869 0.307684 0.500000
O O14 0.733464 0.293329 0.771984
O O15 0.556471 0.312935 0.749417
O O16 0.102105 0.754585 0.760714
O O17 0.123333 0.646402 0.744207
O O18 0.154522 0.696751 0.000000
O O19 0.962651 0.193827 0.000000
O O20 0.147322 0.587182 0.500000
#
# Coordination Sequence:
#
# PCOD8225576 Si02
#       8
#     8   8   8   8   8   8   8   8
#     4  10  20  33  53  81 114 152 194 239 288 346
#     4   9  18  32  52  79 112 149 187 232 284 341
#     4  10  19  35  58  84 113 147 190 238 287 339
#     4  10  21  37  57  82 114 153 195 242 293 348
#     4  11  22  37  58  85 118 156 196 243 297 352
#     4  11  24  41  61  86 120 159 199 245 295 353
#     4  11  23  38  59  88 119 156 198 242 294 352
#     4  12  24  37  55  80 114 154 197 242 293 352
#
# _framework density 20.536847000000002
#
# number of rings (size 3 to 8) (size 9 to 14) (size 15 to 20)
#    0.000    1.500    1.250    4.500    0.000    8.000 
#    0.000    0.000    0.000    0.750    0.000    5.250 
#    0.000    0.000    0.000    0.000    0.000    0.000 
#
# Total GULP energy -793503.609408 kJ/mol
# GULP energy per Si atom -12398.493897 kJ/mol
# Density = 2.049010 g / cm^3
# Si number density = 20.536847 Si / 1000 Ang^3
#
#
#
# Elastic Constant Matrix: (Units=GPa)
#
#
# Indices 1 2 3 4 5 6 
#
# 1 60.1263 -6.5259 9.6588 0.0000 0.0000 0.0000
# 2 -6.5259 34.3886 7.8420 0.0000 0.0000 0.0000
# 3 9.6588 7.8420 83.1566 0.0000 0.0000 0.0000
# 4 0.0000 0.0000 0.0000 29.6746 0.0000 0.0000
# 5 0.0000 0.0000 0.0000 0.0000 29.5592 0.0000
# 6 0.0000 0.0000 0.0000 0.0000 0.0000 18.2661
#
#
#
# Elastic Compliance Matrix: (Units=1/GPa)
#
#
# Indices 1 2 3 4 5 6 
#
# 1 0.017434 0.003853 -0.002388 0.000000 0.000000 0.000000
# 2 0.003853 0.030570 -0.003330 0.000000 0.000000 0.000000
# 3 -0.002388 -0.003330 0.012617 0.000000 0.000000 0.000000
# 4 0.000000 0.000000 0.000000 0.033699 0.000000 0.000000
# 5 0.000000 0.000000 0.000000 0.000000 0.033830 0.000000
# 6 0.000000 0.000000 0.000000 0.000000 0.000000 0.054746
#
#
# Mechanical properties :
#
#
# Convention : Reuss Voigt Hill
#
# Bulk Modulus (GPa) = 17.57807 22.18014 19.87911
# Shear Modulus (GPa) = 24.32020 26.61309 25.46665
#
# Velocity S-wave (km/s) = 3.44499 3.60373 3.52525
# Velocity P-wave (km/s) = 4.93982 5.30466 5.12548
#
# Compressibility (1/GPa) = 0.05688905
#
# Stress axis : x y z
#
# Youngs Moduli (GPa) = 57.36081 32.71182 79.25837
#
# Poissons Ratio (x) = -0.12604 0.18929
# Poissons Ratio (y) = -0.22101 0.26396
# Poissons Ratio (z) = 0.13699 0.10894
#
# Static dielectric constant tensor:
#      x y z
#    x 3.575510 0.000000 0.000000 
#    y 0.000000 3.817020 0.000000 
#    z 0.000000 0.000000 3.786020 
# 
# 
# High freq. dielectric constant tensor:
#      x y z
#    x 1.784370 0.000000 0.000000 
#    y 0.000000 1.798540 0.000000 
#    z 0.000000 0.000000 1.810320 
# 
# From -- ./inp_files/6585.got.cif
#   From: 2010.03.12/outbox.cif.g09.slc.cpg/sg55_4_cif.got.tgz:6585.got - 2010.04.16 15:19:21.
