data_PCOD8225480
_publ_section_title
;
Structure prediction by ZEFSAII (Michael W. Deem and Ramdas Pophale) SiO2 
 PCOD8225480
Probable space group: P B A M
;
_chemical_formula_sum "Si O2"
_cell_formula_units_Z 64
_cell_length_a 19.566462
_cell_length_b 20.495215
_cell_length_c 8.655620
_cell_angle_alpha 90.000000
_cell_angle_beta 90.000000
_cell_angle_gamma 90.000000
_cell_volume 3471.066739
_symmetry_space_group_name_H-M "P B A M"
_symmetry_group_IT_number 55
_symmetry_cell_setting 'orthorhombic'
loop_
_space_group_symop_operation_xyz
x,y,z
-x,-y,z
1/2+x,1/2-y,-z
1/2-x,1/2+y,-z
-x,-y,-z
x,y,-z
1/2-x,1/2+y,z
1/2+x,1/2-y,z
loop_
_atom_site_type_symbol
_atom_site_label
_atom_site_fract_x
_atom_site_fract_y
_atom_site_fract_z
Si Si1 0.798868 0.184062 0.682422
Si Si2 0.784621 0.801590 0.820600
Si Si3 0.209873 0.579690 0.320559
Si Si4 0.434057 0.882920 0.321678
Si Si5 0.923006 0.770045 0.323069
Si Si6 0.064124 0.773321 0.179472
Si Si7 0.707568 0.066687 0.681434
Si Si8 0.574409 0.878274 0.821488
O O1 0.809973 0.181713 0.500000
O O2 0.754468 0.247537 0.721244
O O3 0.872284 0.184194 0.763581
O O4 0.760792 0.119627 0.747730
O O5 0.753975 0.872444 0.784679
O O6 0.864434 0.803418 0.779293
O O7 0.773594 0.785903 0.000000
O O8 0.222229 0.595443 0.500000
O O9 0.233081 0.505963 0.279485
O O10 0.129679 0.585423 0.283516
O O11 0.449009 0.899239 0.500000
O O12 0.418416 0.806975 0.298540
O O13 0.368843 0.921381 0.252590
O O14 0.499652 0.904808 0.223076
O O15 0.911458 0.789977 0.500000
O O16 0.996416 0.796741 0.268661
O O17 0.080250 0.698201 0.216560
O O18 0.051383 0.784802 0.000000
O O19 0.701496 0.078867 0.500000
O O20 0.589146 0.892718 0.000000
#
# Coordination Sequence:
#
# PCOD8225480 Si02
#       8
#     8   8   8   8   8   8   8   8
#     4  11  20  36  60  84 109 143 188 232 275 328
#     4  12  23  36  55  83 115 145 182 231 281 327
#     4  11  22  37  57  78 107 149 190 228 275 326
#     4   9  17  33  54  77 107 144 186 226 266 321
#     4  10  19  34  58  84 109 143 186 227 275 329
#     4  10  20  34  53  83 118 145 177 225 280 328
#     4   9  20  37  56  81 109 141 187 236 273 320
#     4  10  20  33  49  76 114 148 183 224 268 324
#
# _framework density 18.438136
#
# number of rings (size 3 to 8) (size 9 to 14) (size 15 to 20)
#    0.000    1.750    2.500    3.000    0.000    2.000 
#    0.000    6.250    0.000    0.750    0.000    5.250 
#    0.000    0.000    0.000    0.000    0.000    0.000 
#
# Total GULP energy -793822.443033 kJ/mol
# GULP energy per Si atom -12403.475672 kJ/mol
# Density = 1.839617 g / cm^3
# Si number density = 18.438136 Si / 1000 Ang^3
#
#
#
# Elastic Constant Matrix: (Units=GPa)
#
#
# Indices 1 2 3 4 5 6 
#
# 1 98.9680 33.9912 13.7466 0.0000 0.0000 0.0000
# 2 33.9912 73.3608 17.1532 0.0000 0.0000 0.0000
# 3 13.7466 17.1532 49.6834 0.0000 0.0000 0.0000
# 4 0.0000 0.0000 0.0000 14.3215 0.0000 0.0000
# 5 0.0000 0.0000 0.0000 0.0000 29.4278 0.0000
# 6 0.0000 0.0000 0.0000 0.0000 0.0000 22.7612
#
#
#
# Elastic Compliance Matrix: (Units=1/GPa)
#
#
# Indices 1 2 3 4 5 6 
#
# 1 0.012124 -0.005258 -0.001539 0.000000 0.000000 0.000000
# 2 -0.005258 0.017108 -0.004452 0.000000 0.000000 0.000000
# 3 -0.001539 -0.004452 0.022090 0.000000 0.000000 0.000000
# 4 0.000000 0.000000 0.000000 0.069825 0.000000 0.000000
# 5 0.000000 0.000000 0.000000 0.000000 0.033981 0.000000
# 6 0.000000 0.000000 0.000000 0.000000 0.000000 0.043934
#
#
# Mechanical properties :
#
#
# Convention : Reuss Voigt Hill
#
# Bulk Modulus (GPa) = 34.69227 39.08824 36.89026
# Shear Modulus (GPa) = 21.62916 23.77685 22.70301
#
# Velocity S-wave (km/s) = 3.42872 3.59492 3.51281
# Velocity P-wave (km/s) = 5.87632 6.20298 6.04186
#
# Compressibility (1/GPa) = 0.02882486
#
# Stress axis : x y z
#
# Youngs Moduli (GPa) = 82.48219 58.45124 45.26856
#
# Poissons Ratio (x) = 0.30731 0.06968
# Poissons Ratio (y) = 0.43366 0.20153
# Poissons Ratio (z) = 0.12696 0.26022
#
# Static dielectric constant tensor:
#      x y z
#    x 3.533920 0.000000 0.000000 
#    y 0.000000 3.231850 0.000000 
#    z 0.000000 0.000000 3.303840 
# 
# 
# High freq. dielectric constant tensor:
#      x y z
#    x 1.722030 0.000000 0.000000 
#    y 0.000000 1.686090 0.000000 
#    z 0.000000 0.000000 1.713360 
# 
# From -- ./inp_files/8012.got.cif
#   From: 2010.03.12/outbox.cif.g09.slc.cpg/sg55_5_cif.got.tgz:8012.got - 2010.04.16 15:19:21.
