data_PCOD8225613
_publ_section_title
;
Structure prediction by ZEFSAII (Michael W. Deem and Ramdas Pophale) SiO2 
 PCOD8225613
Probable space group: P B A M
;
_chemical_formula_sum "Si O2"
_cell_formula_units_Z 48
_cell_length_a 29.437761
_cell_length_b 10.126256
_cell_length_c 8.514576
_cell_angle_alpha 90.000000
_cell_angle_beta 90.000000
_cell_angle_gamma 90.000000
_cell_volume 2538.146606
_symmetry_space_group_name_H-M "P B A M"
_symmetry_group_IT_number 55
_symmetry_cell_setting 'orthorhombic'
loop_
_space_group_symop_operation_xyz
x,y,z
-x,-y,z
1/2+x,1/2-y,-z
1/2-x,1/2+y,-z
-x,-y,-z
x,y,-z
1/2-x,1/2+y,z
1/2+x,1/2-y,z
loop_
_atom_site_type_symbol
_atom_site_label
_atom_site_fract_x
_atom_site_fract_y
_atom_site_fract_z
Si Si1 0.120755 0.526207 0.184141
Si Si2 0.020498 0.140470 0.816088
Si Si3 0.215889 0.215588 0.185516
Si Si4 0.216050 0.503580 0.317117
Si Si5 0.115748 0.230997 0.815426
Si Si6 0.531289 0.881718 0.317088
O O1 0.167226 0.564729 0.271218
O O2 0.105991 0.380136 0.240858
O O3 0.079927 0.623226 0.230821
O O4 0.130234 0.535159 0.000000
O O5 0.073447 0.140510 0.761296
O O6 0.992941 0.244173 0.714395
O O7 0.016296 0.176048 0.000000
O O8 0.000000 0.000000 0.775571
O O9 0.226964 0.368630 0.223553
O O10 0.164643 0.182012 0.247295
O O11 0.247704 0.115809 0.277644
O O12 0.221835 0.194386 0.000000
O O13 0.217688 0.470675 0.500000
O O14 0.119909 0.231148 0.000000
O O15 0.540032 0.902126 0.500000
O O16 0.500000 0.000000 0.249332
#
# Coordination Sequence:
#
# PCOD8225613 Si02
#       6
#     8   8   8   8   8   8
#     4  10  19  35  60  84 109 148 193 238 283 338
#     4  10  20  36  57  82 113 149 190 234 281 335
#     4  10  20  38  61  84 112 154 199 235 281 351
#     4  11  22  38  59  87 120 149 186 243 300 344
#     4   8  16  32  56  82 107 142 189 234 273 328
#     4  11  22  35  55  84 115 149 187 232 283 334
#
# _framework density 18.911438
#
# number of rings (size 3 to 8) (size 9 to 14) (size 15 to 20)
#    0.000    2.000    1.667    4.000    0.000    1.000 
#    3.000    0.833    0.000    0.000    0.000    0.000 
#    0.000    0.000    0.000    0.000    0.000    0.000 
#
# Total GULP energy -595160.509322 kJ/mol
# GULP energy per Si atom -12399.177278 kJ/mol
# Density = 1.886839 g / cm^3
# Si number density = 18.911438 Si / 1000 Ang^3
#
#
#
# Elastic Constant Matrix: (Units=GPa)
#
#
# Indices 1 2 3 4 5 6 
#
# 1 151.5159 61.3990 22.8962 0.0000 0.0000 0.0000
# 2 61.3990 77.3763 13.0486 0.0000 0.0000 0.0000
# 3 22.8962 13.0486 60.4977 0.0000 0.0000 0.0000
# 4 0.0000 0.0000 0.0000 24.5278 0.0000 0.0000
# 5 0.0000 0.0000 0.0000 0.0000 23.7003 0.0000
# 6 0.0000 0.0000 0.0000 0.0000 0.0000 36.6250
#
#
#
# Elastic Compliance Matrix: (Units=1/GPa)
#
#
# Indices 1 2 3 4 5 6 
#
# 1 0.009990 -0.007565 -0.002149 0.000000 0.000000 0.000000
# 2 -0.007565 0.019140 -0.001265 0.000000 0.000000 0.000000
# 3 -0.002149 -0.001265 0.017616 0.000000 0.000000 0.000000
# 4 0.000000 0.000000 0.000000 0.040770 0.000000 0.000000
# 5 0.000000 0.000000 0.000000 0.000000 0.042194 0.000000
# 6 0.000000 0.000000 0.000000 0.000000 0.000000 0.027304
#
#
# Mechanical properties :
#
#
# Convention : Reuss Voigt Hill
#
# Bulk Modulus (GPa) = 40.34325 53.78640 47.06482
# Shear Modulus (GPa) = 26.70439 29.77369 28.23904
#
# Velocity S-wave (km/s) = 3.76184 3.97214 3.86842
# Velocity P-wave (km/s) = 6.34410 7.03848 6.70029
#
# Compressibility (1/GPa) = 0.02478730
#
# Stress axis : x y z
#
# Youngs Moduli (GPa) = 100.09689 52.24630 56.76701
#
# Poissons Ratio (x) = 0.39524 0.12201
# Poissons Ratio (y) = 0.75723 0.07182
# Poissons Ratio (z) = 0.21514 0.06610
#
# Static dielectric constant tensor:
#      x y z
#    x 4.021690 0.000000 0.000000 
#    y 0.000000 3.286050 0.000000 
#    z 0.000000 0.000000 3.301280 
# 
# 
# High freq. dielectric constant tensor:
#      x y z
#    x 1.750830 0.000000 0.000000 
#    y 0.000000 1.712250 0.000000 
#    z 0.000000 0.000000 1.726860 
# 
# From -- ./inp_files/2906.got.cif
#   From: 2010.03.12/outbox.cif.g09.slc.cpg/sg55_2_cif.got.tgz:2906.got - 2010.04.16 15:19:21.
