data_PCOD8225201
_publ_section_title
;
Structure prediction by ZEFSAII (Michael W. Deem and Ramdas Pophale) SiO2 
 PCOD8225201
Probable space group: P B A M
;
_chemical_formula_sum "Si O2"
_cell_formula_units_Z 40
_cell_length_a 5.048450
_cell_length_b 28.704545
_cell_length_c 13.143998
_cell_angle_alpha 90.000000
_cell_angle_beta 90.000000
_cell_angle_gamma 90.000000
_cell_volume 1904.742231
_symmetry_space_group_name_H-M "P B A M"
_symmetry_group_IT_number 55
_symmetry_cell_setting 'orthorhombic'
loop_
_space_group_symop_operation_xyz
x,y,z
-x,-y,z
1/2+x,1/2-y,-z
1/2-x,1/2+y,-z
-x,-y,-z
x,y,-z
1/2-x,1/2+y,z
1/2+x,1/2-y,z
loop_
_atom_site_type_symbol
_atom_site_label
_atom_site_fract_x
_atom_site_fract_y
_atom_site_fract_z
Si Si1 0.920809 0.438748 0.615755
Si Si2 0.413644 0.452273 0.745307
Si Si3 0.409039 0.350045 0.808398
Si Si4 0.081636 0.661411 0.318489
Si Si5 0.362191 0.225211 0.500000
Si Si6 0.968985 0.215632 0.000000
O O1 0.941487 0.457007 0.500000
O O2 0.624421 0.444527 0.655852
O O3 0.136443 0.463948 0.688445
O O4 0.993635 0.384553 0.619383
O O5 0.500000 0.500000 0.805596
O O6 0.402600 0.407199 0.821264
O O7 0.119855 0.332381 0.775351
O O8 0.482866 0.320756 0.907401
O O9 0.620192 0.338153 0.722016
O O10 0.038252 0.702196 0.397002
O O11 0.544015 0.271575 0.500000
O O12 0.212416 0.251523 0.000000
#
# Coordination Sequence:
#
# PCOD8225201 Si02
#       6
#     8   8   8   8   4   4
#     4  10  19  33  54  77 117 162 199 235 276 330
#     4  10  21  35  55  85 118 155 196 238 287 350
#     4  10  23  41  63  85 119 154 188 250 303 346
#     4  10  21  39  56  81 119 159 191 232 297 350
#     4  12  24  34  54  84 113 152 201 238 282 358
#     4  12  26  44  69  94 113 144 202 254 304 364
#
# _framework density 21.000218
#
# number of rings (size 3 to 8) (size 9 to 14) (size 15 to 20)
#    0.000    1.600    1.000    3.600    0.000    7.200 
#    0.000    0.500    0.000    0.000    0.000    9.800 
#    0.000    0.000    0.000    0.000    0.000    0.000 
#
# Total GULP energy -495660.189271 kJ/mol
# GULP energy per Si atom -12391.504732 kJ/mol
# Density = 2.095242 g / cm^3
# Si number density = 21.000218 Si / 1000 Ang^3
#
#
#
# Elastic Constant Matrix: (Units=GPa)
#
#
# Indices 1 2 3 4 5 6 
#
# 1 112.0525 28.3630 10.7045 0.0000 0.0000 0.0000
# 2 28.3630 107.5298 53.1893 0.0000 0.0000 0.0000
# 3 10.7045 53.1893 70.8038 0.0000 0.0000 0.0000
# 4 0.0000 0.0000 0.0000 38.3432 0.0000 0.0000
# 5 0.0000 0.0000 0.0000 0.0000 26.0957 0.0000
# 6 0.0000 0.0000 0.0000 0.0000 0.0000 32.4934
#
#
#
# Elastic Compliance Matrix: (Units=1/GPa)
#
#
# Indices 1 2 3 4 5 6 
#
# 1 0.009586 -0.002883 0.000716 0.000000 0.000000 0.000000
# 2 -0.002883 0.015666 -0.011333 0.000000 0.000000 0.000000
# 3 0.000716 -0.011333 0.022529 0.000000 0.000000 0.000000
# 4 0.000000 0.000000 0.000000 0.026080 0.000000 0.000000
# 5 0.000000 0.000000 0.000000 0.000000 0.038320 0.000000
# 6 0.000000 0.000000 0.000000 0.000000 0.000000 0.030776
#
#
# Mechanical properties :
#
#
# Convention : Reuss Voigt Hill
#
# Bulk Modulus (GPa) = 48.11869 52.76663 50.44266
# Shear Modulus (GPa) = 28.26753 32.59508 30.43130
#
# Velocity S-wave (km/s) = 3.67285 3.94398 3.81083
# Velocity P-wave (km/s) = 6.39919 6.77652 6.59056
#
# Compressibility (1/GPa) = 0.02078195
#
# Stress axis : x y z
#
# Youngs Moduli (GPa) = 104.32273 63.83347 44.38819
#
# Poissons Ratio (x) = 0.18402 -0.03180
# Poissons Ratio (y) = 0.30074 0.50303
# Poissons Ratio (z) = -0.07473 0.72340
#
# Static dielectric constant tensor:
#      x y z
#    x 3.968660 0.000000 0.000000 
#    y 0.000000 4.249770 0.000000 
#    z 0.000000 0.000000 3.342940 
# 
# 
# High freq. dielectric constant tensor:
#      x y z
#    x 1.844190 0.000000 0.000000 
#    y 0.000000 1.845630 0.000000 
#    z 0.000000 0.000000 1.774620 
# 
# From -- ./inp_files/11350.got.cif
#   From: 2010.03.12/outbox.cif.g09.slc.cpg/sg55_6_cif.got.tgz:11350.got - 2010.04.16 15:19:21.
