data_PCOD8225247
_publ_section_title
;
Structure prediction by ZEFSAII (Michael W. Deem and Ramdas Pophale) SiO2 
 PCOD8225247
Probable space group: P B A M
;
_chemical_formula_sum "Si O2"
_cell_formula_units_Z 48
_cell_length_a 29.109893
_cell_length_b 10.280628
_cell_length_c 8.835596
_cell_angle_alpha 90.000000
_cell_angle_beta 90.000000
_cell_angle_gamma 90.000000
_cell_volume 2644.210976
_symmetry_space_group_name_H-M "P B A M"
_symmetry_group_IT_number 55
_symmetry_cell_setting 'orthorhombic'
loop_
_space_group_symop_operation_xyz
x,y,z
-x,-y,z
1/2+x,1/2-y,-z
1/2-x,1/2+y,-z
-x,-y,-z
x,y,-z
1/2-x,1/2+y,z
1/2+x,1/2-y,z
loop_
_atom_site_type_symbol
_atom_site_label
_atom_site_fract_x
_atom_site_fract_y
_atom_site_fract_z
Si Si1 0.778414 0.488580 0.322897
Si Si2 0.521702 0.369481 0.179333
Si Si3 0.474388 0.131293 0.673450
Si Si4 0.382613 0.001894 0.328440
Si Si5 0.385054 0.737409 0.177558
Si Si6 0.282654 0.733755 0.180418
O O1 0.766047 0.487564 0.500000
O O2 0.831324 0.448576 0.292788
O O3 0.749105 0.382461 0.234812
O O4 0.767104 0.630839 0.256248
O O5 0.500000 0.500000 0.250408
O O6 0.490058 0.248827 0.222840
O O7 0.573982 0.353408 0.242913
O O8 0.522577 0.378339 0.000000
O O9 0.486838 0.162798 0.500000
O O10 0.419348 0.116899 0.696346
O O11 0.500000 0.000000 0.724874
O O12 0.385156 0.949059 0.500000
O O13 0.396794 0.884766 0.220150
O O14 0.334416 0.698712 0.237213
O O15 0.385172 0.726199 0.000000
O O16 0.279767 0.749190 0.000000
#
# Coordination Sequence:
#
# PCOD8225247 Si02
#       6
#     8   8   8   8   8   8
#     4  10  20  36  57  80 109 141 178 222 271 322
#     4  10  21  36  52  75 109 142 176 215 259 311
#     4  10  19  33  55  80 105 134 174 217 259 307
#     4   9  18  33  54  79 106 134 172 221 263 309
#     4   9  18  33  54  76 103 139 178 215 257 312
#     4  10  20  36  57  80 107 140 180 224 271 320
#
# _framework density 18.152864000000001
#
# number of rings (size 3 to 8) (size 9 to 14) (size 15 to 20)
#    0.000    2.333    1.667    1.000    0.000    2.667 
#    3.000    0.000    0.000    0.000    0.000    0.000 
#    0.000    0.000    0.000    0.000    0.000    0.000 
#
# Total GULP energy -595053.815641 kJ/mol
# GULP energy per Si atom -12396.954493 kJ/mol
# Density = 1.811155 g / cm^3
# Si number density = 18.152864 Si / 1000 Ang^3
#
#
#
# Elastic Constant Matrix: (Units=GPa)
#
#
# Indices 1 2 3 4 5 6 
#
# 1 122.1976 66.2091 20.5584 0.0000 0.0000 0.0000
# 2 66.2091 100.7179 13.2428 0.0000 0.0000 0.0000
# 3 20.5584 13.2428 19.1746 0.0000 0.0000 0.0000
# 4 0.0000 0.0000 0.0000 10.0561 0.0000 0.0000
# 5 0.0000 0.0000 0.0000 0.0000 23.9304 0.0000
# 6 0.0000 0.0000 0.0000 0.0000 0.0000 30.5965
#
#
#
# Elastic Compliance Matrix: (Units=1/GPa)
#
#
# Indices 1 2 3 4 5 6 
#
# 1 0.014161 -0.008043 -0.009628 0.000000 0.000000 0.000000
# 2 -0.008043 0.015489 -0.002073 0.000000 0.000000 0.000000
# 3 -0.009628 -0.002073 0.063908 0.000000 0.000000 0.000000
# 4 0.000000 0.000000 0.000000 0.099442 0.000000 0.000000
# 5 0.000000 0.000000 0.000000 0.000000 0.041788 0.000000
# 6 0.000000 0.000000 0.000000 0.000000 0.000000 0.032683
#
#
# Mechanical properties :
#
#
# Convention : Reuss Voigt Hill
#
# Bulk Modulus (GPa) = 18.49537 49.12341 33.80939
# Shear Modulus (GPa) = 15.38538 22.38857 18.88698
#
# Velocity S-wave (km/s) = 2.91442 3.51570 3.22909
# Velocity P-wave (km/s) = 4.64068 6.60302 5.70683
#
# Compressibility (1/GPa) = 0.05406759
#
# Stress axis : x y z
#
# Youngs Moduli (GPa) = 70.61472 64.56278 15.64760
#
# Poissons Ratio (x) = 0.51930 0.15066
# Poissons Ratio (y) = 0.56798 0.03244
# Poissons Ratio (z) = 0.67990 0.13387
#
# Static dielectric constant tensor:
#      x y z
#    x 3.843690 0.000000 0.000000 
#    y 0.000000 3.222150 0.000000 
#    z 0.000000 0.000000 3.301030 
# 
# 
# High freq. dielectric constant tensor:
#      x y z
#    x 1.719160 0.000000 0.000000 
#    y 0.000000 1.681950 0.000000 
#    z 0.000000 0.000000 1.699720 
# 
# From -- ./inp_files/2796.got.cif
#   From: 2010.03.12/outbox.cif.g09.slc.cpg/sg55_2_cif.got.tgz:2796.got - 2010.04.16 15:19:21.
