data_PCOD8225666
_publ_section_title
;
Structure prediction by ZEFSAII (Michael W. Deem and Ramdas Pophale) SiO2 
 PCOD8225666
Probable space group: P B A M
;
_chemical_formula_sum "Si O2"
_cell_formula_units_Z 44
_cell_length_a 4.992210
_cell_length_b 14.865226
_cell_length_c 27.992907
_cell_angle_alpha 90.000000
_cell_angle_beta 90.000000
_cell_angle_gamma 90.000000
_cell_volume 2077.362863
_symmetry_space_group_name_H-M "P B A M"
_symmetry_group_IT_number 55
_symmetry_cell_setting 'orthorhombic'
loop_
_space_group_symop_operation_xyz
x,y,z
-x,-y,z
1/2+x,1/2-y,-z
1/2-x,1/2+y,-z
-x,-y,-z
x,y,-z
1/2-x,1/2+y,z
1/2+x,1/2-y,z
loop_
_atom_site_type_symbol
_atom_site_label
_atom_site_fract_x
_atom_site_fract_y
_atom_site_fract_z
Si Si1 0.401694 0.307364 0.000000
Si Si2 0.206600 0.811684 0.102170
Si Si3 0.733750 0.189772 0.724692
Si Si4 0.253761 0.439681 0.188255
Si Si5 0.208549 0.809408 0.445749
Si Si6 0.744685 0.560201 0.362233
O O1 0.331023 0.358532 0.049618
O O2 0.715619 0.282734 0.000000
O O3 0.502502 0.771418 0.108426
O O4 0.152235 0.887514 0.141103
O O5 0.537300 0.275201 0.725602
O O6 0.672223 0.129103 0.770439
O O7 0.678263 0.133554 0.677124
O O8 0.500000 0.500000 0.206476
O O9 0.000000 0.500000 0.175354
O O10 0.177027 0.844342 0.500000
O O11 0.503254 0.771403 0.435524
O O12 0.152139 0.892652 0.411147
O O13 0.500000 0.500000 0.342999
O O14 0.000000 0.500000 0.373357
#
# Coordination Sequence:
#
# PCOD8225666 Si02
#       6
#     4   8   8   8   8   8
#     4   8  16  30  54  80 106 140 188 234 264 316
#     4  10  19  36  58  82 109 148 192 228 272 331
#     4  12  24  42  64  84 110 151 195 231 275 340
#     4  12  24  39  57  85 118 146 181 234 289 333
#     4  10  21  39  61  85 116 156 198 234 272 330
#     4  12  24  39  60  89 121 149 184 237 292 336
#
# _framework density 21.180699000000001
#
# number of rings (size 3 to 8) (size 9 to 14) (size 15 to 20)
#    0.000    1.091    0.000    7.636    0.000    0.727 
#    0.000    0.909    0.000    0.000    0.000    0.000 
#    0.000    0.000    0.000    0.000    0.000    0.000 
#
# Total GULP energy -545851.469309 kJ/mol
# GULP energy per Si atom -12405.715212 kJ/mol
# Density = 2.113249 g / cm^3
# Si number density = 21.180699 Si / 1000 Ang^3
#
#
#
# Elastic Constant Matrix: (Units=GPa)
#
#
# Indices 1 2 3 4 5 6 
#
# 1 81.4310 9.4386 5.9366 0.0000 0.0000 0.0000
# 2 9.4386 71.3095 46.6942 0.0000 0.0000 0.0000
# 3 5.9366 46.6942 135.0797 0.0000 0.0000 0.0000
# 4 0.0000 0.0000 0.0000 -1.7735 0.0000 0.0000
# 5 0.0000 0.0000 0.0000 0.0000 28.8929 0.0000
# 6 0.0000 0.0000 0.0000 0.0000 0.0000 25.7698
#
#
#
# Elastic Compliance Matrix: (Units=1/GPa)
#
#
# Indices 1 2 3 4 5 6 
#
# 1 0.012472 -0.001670 0.000029 0.000000 0.000000 0.000000
# 2 -0.001670 0.018350 -0.006270 0.000000 0.000000 0.000000
# 3 0.000029 -0.006270 0.009569 0.000000 0.000000 0.000000
# 4 0.000000 0.000000 0.000000 -0.563848 0.000000 0.000000
# 5 0.000000 0.000000 0.000000 0.000000 0.034611 0.000000
# 6 0.000000 0.000000 0.000000 0.000000 0.000000 0.038805
#
#
# Mechanical properties :
#
#
# Convention : Reuss Voigt Hill
#
# Bulk Modulus (GPa) = 40.70050 45.77324 43.23687
# Shear Modulus (GPa) = -11.73626 25.62789 6.94581
#
# Velocity S-wave (km/s) = -2.35649 3.48223 1.81285
# Velocity P-wave (km/s) = 3.44289 6.15025 4.98393
#
# Compressibility (1/GPa) = 0.02456972
#
# Stress axis : x y z
#
# Youngs Moduli (GPa) = 80.18117 54.49614 104.50307
#
# Poissons Ratio (x) = 0.09100 -0.00304
# Poissons Ratio (y) = 0.13389 0.65521
# Poissons Ratio (z) = -0.00233 0.34168
#
# Static dielectric constant tensor:
#      x y z
#    x 3.941650 0.000000 0.000000 
#    y 0.000000 3.576550 0.000000 
#    z 0.000000 0.000000 4.048570 
# 
# 
# High freq. dielectric constant tensor:
#      x y z
#    x 1.847830 0.000000 0.000000 
#    y 0.000000 1.804950 0.000000 
#    z 0.000000 0.000000 1.849340 
# 
# From -- ./inp_files/23777.got.cif
#   From: 2010.03.12/outbox.cif.g09.slc.cpg/sg55_12_cif.got.tgz:23777.got - 2010.04.16 15:19:21.
