data_PCOD8225196
_publ_section_title
;
Structure prediction by ZEFSAII (Michael W. Deem and Ramdas Pophale) SiO2 
 PCOD8225196
Probable space group: P B A M
;
_chemical_formula_sum "Si O2"
_cell_formula_units_Z 64
_cell_length_a 30.567223
_cell_length_b 11.332546
_cell_length_c 9.350586
_cell_angle_alpha 90.000000
_cell_angle_beta 90.000000
_cell_angle_gamma 90.000000
_cell_volume 3239.084701
_symmetry_space_group_name_H-M "P B A M"
_symmetry_group_IT_number 55
_symmetry_cell_setting 'orthorhombic'
loop_
_space_group_symop_operation_xyz
x,y,z
-x,-y,z
1/2+x,1/2-y,-z
1/2-x,1/2+y,-z
-x,-y,-z
x,y,-z
1/2-x,1/2+y,z
1/2+x,1/2-y,z
loop_
_atom_site_type_symbol
_atom_site_label
_atom_site_fract_x
_atom_site_fract_y
_atom_site_fract_z
Si Si1 0.688706 0.011181 0.838988
Si Si2 0.725908 0.260340 0.842257
Si Si3 0.528556 0.118505 0.166401
Si Si4 0.809438 0.199958 0.660392
Si Si5 0.726349 0.452501 0.341467
Si Si6 0.482157 0.368677 0.167798
Si Si7 0.406952 0.262768 0.336396
Si Si8 0.399141 0.000650 0.334339
O O1 0.694556 0.150075 0.851253
O O2 0.730527 0.963311 0.755679
O O3 0.646622 0.983472 0.745408
O O4 0.684503 0.958078 0.000000
O O5 0.773578 0.242700 0.771906
O O6 0.699530 0.349068 0.738077
O O7 0.733689 0.313105 0.000000
O O8 0.509768 0.249224 0.209486
O O9 0.500000 0.000000 0.197539
O O10 0.572258 0.101456 0.260262
O O11 0.541197 0.120730 0.000000
O O12 0.801839 0.251952 0.500000
O O13 0.857032 0.233260 0.719424
O O14 0.806516 0.059772 0.653776
O O15 0.741350 0.416414 0.500000
O O16 0.500000 0.500000 0.214403
O O17 0.435627 0.352896 0.244124
O O18 0.474188 0.368980 0.000000
O O19 0.409110 0.305731 0.500000
O O20 0.423675 0.127550 0.321859
O O21 0.391115 0.967329 0.500000
#
# Coordination Sequence:
#
# PCOD8225196 Si02
#       8
#     8   8   8   8   8   8   8   8
#     4  10  21  36  54  79 112 148 191 238 286 338
#     4  10  20  34  53  78 109 147 189 234 283 337
#     4  10  20  38  63  87 115 152 189 231 290 349
#     4   9  19  35  54  78 108 145 186 231 282 336
#     4  10  19  33  54  76 107 149 190 232 283 341
#     4  10  22  41  63  87 115 149 190 234 287 350
#     4  10  21  37  58  85 116 146 186 236 284 339
#     4  11  22  35  58  90 118 147 190 240 290 344
#
# _framework density 19.758666999999999
#
# number of rings (size 3 to 8) (size 9 to 14) (size 15 to 20)
#    0.000    2.000    1.250    2.250    0.000    5.000 
#    2.250    0.000    0.000    0.000    0.000    0.000 
#    0.000    0.000    0.000    0.000    0.000    0.000 
#
# Total GULP energy -792841.168371 kJ/mol
# GULP energy per Si atom -12388.143256 kJ/mol
# Density = 1.971370 g / cm^3
# Si number density = 19.758667 Si / 1000 Ang^3
#
#
#
# Elastic Constant Matrix: (Units=GPa)
#
#
# Indices 1 2 3 4 5 6 
#
# 1 61.8266 28.5614 27.9888 0.0000 0.0000 0.0000
# 2 28.5614 114.7571 42.0607 0.0000 0.0000 0.0000
# 3 27.9888 42.0607 113.7849 0.0000 0.0000 0.0000
# 4 0.0000 0.0000 0.0000 30.6779 0.0000 0.0000
# 5 0.0000 0.0000 0.0000 0.0000 36.4622 0.0000
# 6 0.0000 0.0000 0.0000 0.0000 0.0000 566.5612
#
#
#
# Elastic Compliance Matrix: (Units=1/GPa)
#
#
# Indices 1 2 3 4 5 6 
#
# 1 0.019381 -0.003558 -0.003452 0.000000 0.000000 0.000000
# 2 -0.003558 0.010733 -0.003092 0.000000 0.000000 0.000000
# 3 -0.003452 -0.003092 0.010781 0.000000 0.000000 0.000000
# 4 0.000000 0.000000 0.000000 0.032597 0.000000 0.000000
# 5 0.000000 0.000000 0.000000 0.000000 0.027426 0.000000
# 6 0.000000 0.000000 0.000000 0.000000 0.000000 0.001765
#
#
# Mechanical properties :
#
#
# Convention : Reuss Voigt Hill
#
# Bulk Modulus (GPa) = 48.33380 54.17672 51.25526
# Shear Modulus (GPa) = 38.52571 139.52410 89.02490
#
# Velocity S-wave (km/s) = 4.42046 8.41234 6.71967
# Velocity P-wave (km/s) = 7.11120 11.03790 9.28451
#
# Compressibility (1/GPa) = 0.02068945
#
# Stress axis : x y z
#
# Youngs Moduli (GPa) = 51.59747 93.17024 92.75884
#
# Poissons Ratio (x) = 0.33154 0.32020
# Poissons Ratio (y) = 0.18361 0.28683
# Poissons Ratio (z) = 0.17811 0.28810
#
# Static dielectric constant tensor:
#      x y z
#    x 3.271400 0.000000 0.000000 
#    y 0.000000 4.141260 0.000000 
#    z 0.000000 0.000000 3.852720 
# 
# 
# High freq. dielectric constant tensor:
#      x y z
#    x 1.742100 0.000000 0.000000 
#    y 0.000000 1.781540 0.000000 
#    z 0.000000 0.000000 1.781310 
# 
# From -- ./inp_files/10869.got.cif
#   From: 2010.03.12/outbox.cif.g09.slc.cpg/sg55_6_cif.got.tgz:10869.got - 2010.04.16 15:19:21.
