data_PCOD8225766
_publ_section_title
;
Structure prediction by ZEFSAII (Michael W. Deem and Ramdas Pophale) SiO2 
 PCOD8225766
Probable space group: P B A M
;
_chemical_formula_sum "Si O2"
_cell_formula_units_Z 52
_cell_length_a 15.106315
_cell_length_b 8.326700
_cell_length_c 20.698615
_cell_angle_alpha 90.000000
_cell_angle_beta 90.000000
_cell_angle_gamma 90.000000
_cell_volume 2603.590876
_symmetry_space_group_name_H-M "P B A M"
_symmetry_group_IT_number 55
_symmetry_cell_setting 'orthorhombic'
loop_
_space_group_symop_operation_xyz
x,y,z
-x,-y,z
1/2+x,1/2-y,-z
1/2-x,1/2+y,-z
-x,-y,-z
x,y,-z
1/2-x,1/2+y,z
1/2+x,1/2-y,z
loop_
_atom_site_type_symbol
_atom_site_label
_atom_site_fract_x
_atom_site_fract_y
_atom_site_fract_z
Si Si1 0.000000 0.000000 0.842748
Si Si2 0.348107 0.708234 0.788030
Si Si3 0.135318 0.809020 0.924925
Si Si4 0.476397 0.312937 0.571266
Si Si5 0.212436 0.504563 0.862436
Si Si6 0.704573 0.565483 0.575483
Si Si7 0.357154 0.755163 0.360249
O O1 0.935889 0.897710 0.796732
O O2 0.050563 0.874304 0.887503
O O3 0.262974 0.599164 0.805070
O O4 0.349936 0.866134 0.833084
O O5 0.342101 0.771654 0.715572
O O6 0.152188 0.627098 0.902350
O O7 0.218440 0.924545 0.911776
O O8 0.113099 0.809468 0.000000
O O9 0.500000 0.500000 0.572462
O O10 0.496630 0.243148 0.500000
O O11 0.370980 0.296184 0.586527
O O12 0.538713 0.218445 0.622194
O O13 0.710810 0.518924 0.500000
O O14 0.799820 0.614889 0.601581
O O15 0.674560 0.416547 0.617104
#
# Coordination Sequence:
#
# PCOD8225766 Si02
#       7
#     4   8   8   8   8   8   8
#     4  10  23  36  56  86 125 152 192 250 292 336
#     4  10  21  37  55  81 115 156 193 238 292 361
#     4  10  19  37  63  89 116 155 198 240 294 350
#     4   8  16  31  50  76 106 137 181 232 282 337
#     4   9  20  38  57  84 119 152 191 246 291 340
#     4  10  20  34  55  83 109 140 190 249 293 342
#     4  11  20  34  58  78 108 152 194 227 295 357
#
# _framework density 19.972415999999999
#
# number of rings (size 3 to 8) (size 9 to 14) (size 15 to 20)
#    0.000    2.308    0.000    3.923    3.231    0.615 
#    0.000    3.846    3.385    2.769    0.000    0.000 
#    0.000    0.000    0.000    0.000    0.000    0.000 
#
# Total GULP energy -644722.650867 kJ/mol
# GULP energy per Si atom -12398.512517 kJ/mol
# Density = 1.992696 g / cm^3
# Si number density = 19.972416 Si / 1000 Ang^3
#
#
#
# Elastic Constant Matrix: (Units=GPa)
#
#
# Indices 1 2 3 4 5 6 
#
# 1 45.1276 17.2648 20.8547 0.0000 0.0000 0.0000
# 2 17.2648 60.8392 -4.5481 0.0000 0.0000 0.0000
# 3 20.8547 -4.5481 62.5461 0.0000 0.0000 0.0000
# 4 0.0000 0.0000 0.0000 29.9535 0.0000 0.0000
# 5 0.0000 0.0000 0.0000 0.0000 16.0052 0.0000
# 6 0.0000 0.0000 0.0000 0.0000 0.0000 30.3841
#
#
#
# Elastic Compliance Matrix: (Units=1/GPa)
#
#
# Indices 1 2 3 4 5 6 
#
# 1 0.030917 -0.009596 -0.011006 0.000000 0.000000 0.000000
# 2 -0.009596 0.019505 0.004618 0.000000 0.000000 0.000000
# 3 -0.011006 0.004618 0.019994 0.000000 0.000000 0.000000
# 4 0.000000 0.000000 0.000000 0.033385 0.000000 0.000000
# 5 0.000000 0.000000 0.000000 0.000000 0.062480 0.000000
# 6 0.000000 0.000000 0.000000 0.000000 0.000000 0.032912
#
#
# Mechanical properties :
#
#
# Convention : Reuss Voigt Hill
#
# Bulk Modulus (GPa) = 26.01008 26.18397 26.09703
# Shear Modulus (GPa) = 20.49366 24.26469 22.37917
#
# Velocity S-wave (km/s) = 3.20675 3.48934 3.35102
# Velocity P-wave (km/s) = 5.17323 5.41964 5.29787
#
# Compressibility (1/GPa) = 0.03844663
#
# Stress axis : x y z
#
# Youngs Moduli (GPa) = 32.34453 51.26826 50.01530
#
# Poissons Ratio (x) = 0.49199 0.55049
# Poissons Ratio (y) = 0.31039 -0.23097
# Poissons Ratio (z) = 0.35600 -0.23676
#
# Static dielectric constant tensor:
#      x y z
#    x 4.058500 0.000000 0.000000 
#    y 0.000000 3.314330 0.000000 
#    z 0.000000 0.000000 3.465080 
# 
# 
# High freq. dielectric constant tensor:
#      x y z
#    x 1.781850 0.000000 0.000000 
#    y 0.000000 1.767190 0.000000 
#    z 0.000000 0.000000 1.773920 
# 
# From -- ./inp_files/22932.got.cif
#   From: 2010.03.12/outbox.cif.g09.slc.cpg/sg55_12_cif.got.tgz:22932.got - 2010.04.16 15:19:21.
