data_PCOD8225042
_publ_section_title
;
Structure prediction by ZEFSAII (Michael W. Deem and Ramdas Pophale) SiO2 
 PCOD8225042
Probable space group: P B A M
;
_chemical_formula_sum "Si O2"
_cell_formula_units_Z 64
_cell_length_a 20.627840
_cell_length_b 18.538443
_cell_length_c 9.122480
_cell_angle_alpha 90.000000
_cell_angle_beta 90.000000
_cell_angle_gamma 90.000000
_cell_volume 3488.509661
_symmetry_space_group_name_H-M "P B A M"
_symmetry_group_IT_number 55
_symmetry_cell_setting 'orthorhombic'
loop_
_space_group_symop_operation_xyz
x,y,z
-x,-y,z
1/2+x,1/2-y,-z
1/2-x,1/2+y,-z
-x,-y,-z
x,y,-z
1/2-x,1/2+y,z
1/2+x,1/2-y,z
loop_
_atom_site_type_symbol
_atom_site_label
_atom_site_fract_x
_atom_site_fract_y
_atom_site_fract_z
Si Si1 0.378708 0.575155 0.330832
Si Si2 0.891420 0.073692 0.174005
Si Si3 0.251826 0.586586 0.164473
Si Si4 0.504674 0.668348 0.331765
Si Si5 0.000816 0.332949 0.673624
Si Si6 0.374892 0.083690 0.327631
Si Si7 0.875389 0.583467 0.328704
Si Si8 0.750838 0.584813 0.161709
O O1 0.363015 0.557489 0.500000
O O2 0.403069 0.502471 0.252984
O O3 0.315440 0.609646 0.254868
O O4 0.434135 0.634398 0.315549
O O5 0.945244 0.129123 0.226042
O O6 0.821009 0.107369 0.216682
O O7 0.895831 0.060722 0.000000
O O8 0.187784 0.616082 0.245396
O O9 0.248734 0.501045 0.159768
O O10 0.255366 0.618672 0.000000
O O11 0.528916 0.663360 0.500000
O O12 0.500184 0.750308 0.276675
O O13 0.002924 0.340706 0.500000
O O14 0.936788 0.372911 0.732747
O O15 0.064648 0.371830 0.739294
O O16 0.364125 0.094525 0.500000
O O17 0.386034 0.000017 0.288634
O O18 0.870678 0.595653 0.500000
O O19 0.807794 0.614305 0.264945
O O20 0.763893 0.615914 0.000000
#
# Coordination Sequence:
#
# PCOD8225042 Si02
#       8
#     8   8   8   8   8   8   8   8
#     4  10  19  32  52  76  99 126 165 206 246 297
#     4  10  20  34  53  75 100 129 162 203 249 295
#     4   9  17  30  49  74 102 128 159 203 251 295
#     4  10  21  35  50  70  99 133 166 203 245 292
#     4   9  18  33  50  71 101 132 164 204 248 292
#     4   9  16  29  52  77  99 127 164 205 247 293
#     4   9  16  28  51  78  98 123 162 204 243 287
#     4   8  16  30  47  70  98 124 152 194 245 291
#
# _framework density 18.345943999999999
#
# number of rings (size 3 to 8) (size 9 to 14) (size 15 to 20)
#    0.000    2.750    0.000    2.625    0.000    7.500 
#    0.000    3.125    0.000    9.000    0.000    0.000 
#    0.000    0.000    0.000    0.000    0.000    0.000 
#
# Total GULP energy -793500.897225 kJ/mol
# GULP energy per Si atom -12398.451519 kJ/mol
# Density = 1.830419 g / cm^3
# Si number density = 18.345944 Si / 1000 Ang^3
#
#
#
# Elastic Constant Matrix: (Units=GPa)
#
#
# Indices 1 2 3 4 5 6 
#
# 1 140.6870 46.3447 55.5928 0.0000 0.0000 0.0000
# 2 46.3447 66.4755 34.2789 0.0000 0.0000 0.0000
# 3 55.5928 34.2789 77.4317 0.0000 0.0000 0.0000
# 4 0.0000 0.0000 0.0000 10.5023 0.0000 0.0000
# 5 0.0000 0.0000 0.0000 0.0000 22.0584 0.0000
# 6 0.0000 0.0000 0.0000 0.0000 0.0000 1.3234
#
#
#
# Elastic Compliance Matrix: (Units=1/GPa)
#
#
# Indices 1 2 3 4 5 6 
#
# 1 0.010921 -0.004627 -0.005793 0.000000 0.000000 0.000000
# 2 -0.004627 0.021453 -0.006175 0.000000 0.000000 0.000000
# 3 -0.005793 -0.006175 0.019807 0.000000 0.000000 0.000000
# 4 0.000000 0.000000 0.000000 0.095217 0.000000 0.000000
# 5 0.000000 0.000000 0.000000 0.000000 0.045334 0.000000
# 6 0.000000 0.000000 0.000000 0.000000 0.000000 0.755624
#
#
# Mechanical properties :
#
#
# Convention : Reuss Voigt Hill
#
# Bulk Modulus (GPa) = 52.65402 61.89189 57.27296
# Shear Modulus (GPa) = 5.06136 16.66866 10.86501
#
# Velocity S-wave (km/s) = 1.66278 3.01753 2.43622
# Velocity P-wave (km/s) = 5.69644 6.77863 6.26096
#
# Compressibility (1/GPa) = 0.01899190
#
# Stress axis : x y z
#
# Youngs Moduli (GPa) = 91.56584 46.61300 50.48632
#
# Poissons Ratio (x) = 0.21567 0.29245
# Poissons Ratio (y) = 0.42366 0.31178
# Poissons Ratio (z) = 0.53041 0.28786
#
# Static dielectric constant tensor:
#      x y z
#    x 3.745090 0.000000 0.000000 
#    y 0.000000 3.070950 0.000000 
#    z 0.000000 0.000000 3.357500 
# 
# 
# High freq. dielectric constant tensor:
#      x y z
#    x 1.730060 0.000000 0.000000 
#    y 0.000000 1.674120 0.000000 
#    z 0.000000 0.000000 1.699830 
# 
# From -- ./inp_files/9043.got.cif
#   From: 2010.03.12/outbox.cif.g09.slc.cpg/sg55_5_cif.got.tgz:9043.got - 2010.04.16 15:19:21.
