data_PCOD8225337
_publ_section_title
;
Structure prediction by ZEFSAII (Michael W. Deem and Ramdas Pophale) SiO2 
 PCOD8225337
Probable space group: P B A M
;
_chemical_formula_sum "Si O2"
_cell_formula_units_Z 52
_cell_length_a 14.677938
_cell_length_b 24.520330
_cell_length_c 7.813433
_cell_angle_alpha 90.000000
_cell_angle_beta 90.000000
_cell_angle_gamma 90.000000
_cell_volume 2812.116134
_symmetry_space_group_name_H-M "P B A M"
_symmetry_group_IT_number 55
_symmetry_cell_setting 'orthorhombic'
loop_
_space_group_symop_operation_xyz
x,y,z
-x,-y,z
1/2+x,1/2-y,-z
1/2-x,1/2+y,-z
-x,-y,-z
x,y,-z
1/2-x,1/2+y,z
1/2+x,1/2-y,z
loop_
_atom_site_type_symbol
_atom_site_label
_atom_site_fract_x
_atom_site_fract_y
_atom_site_fract_z
Si Si1 0.947110 0.112074 0.000000
Si Si2 0.860067 0.529715 0.701490
Si Si3 0.951365 0.419428 0.300364
Si Si4 0.820795 0.835903 0.307668
Si Si5 0.997245 0.789884 0.186281
Si Si6 0.121852 0.692566 0.302578
Si Si7 0.644386 0.416722 0.000000
Si Si8 0.225117 0.964466 0.000000
O O1 0.950952 0.151490 0.831197
O O2 0.035997 0.073316 0.000000
O O3 0.859091 0.075802 0.000000
O O4 0.831348 0.530157 0.500000
O O5 0.892286 0.470275 0.768449
O O6 0.941824 0.572282 0.734944
O O7 0.778672 0.548388 0.824639
O O8 0.932339 0.418944 0.500000
O O9 0.917513 0.362827 0.214179
O O10 0.812080 0.860614 0.500000
O O11 0.729440 0.801542 0.263849
O O12 0.908366 0.795495 0.306458
O O13 0.828862 0.884208 0.171477
O O14 0.070473 0.745966 0.241791
O O15 0.957792 0.773418 0.000000
O O16 0.100658 0.687221 0.500000
O O17 0.694713 0.473435 0.000000
#
# Coordination Sequence:
#
# PCOD8225337 Si02
#       8
#     4   8   8   8   8   8   4   4
#     4   8  21  41  53  74 109 150 178 230 291 317
#     4   9  19  36  54  80 119 151 175 220 280 333
#     4   8  16  34  54  77 118 150 178 227 274 325
#     4  10  20  37  60  85 111 142 187 236 283 329
#     4   9  20  39  56  76 112 154 182 230 286 327
#     4  10  19  33  58  87 108 145 194 232 273 328
#     4  10  21  37  60  83 107 141 185 234 285 325
#     4  12  21  35  59  83 108 142 189 229 269 353
#
# _framework density 18.491413000000001
#
# number of rings (size 3 to 8) (size 9 to 14) (size 15 to 20)
#    0.462    2.154    0.769    2.538    1.077    3.077 
#    5.538    3.846    0.000    4.615    0.000    0.000 
#    0.000    0.000    0.000    0.000    0.000    0.000 
#
# Total GULP energy -644262.875372 kJ/mol
# GULP energy per Si atom -12389.670680 kJ/mol
# Density = 1.844933 g / cm^3
# Si number density = 18.491413 Si / 1000 Ang^3
#
#
#
# Elastic Constant Matrix: (Units=GPa)
#
#
# Indices 1 2 3 4 5 6 
#
# 1 110.0368 50.3788 62.5108 0.0000 0.0000 0.0000
# 2 50.3788 59.2060 33.9983 0.0000 0.0000 0.0000
# 3 62.5108 33.9983 82.6293 0.0000 0.0000 0.0000
# 4 0.0000 0.0000 0.0000 14.5405 0.0000 0.0000
# 5 0.0000 0.0000 0.0000 0.0000 28.5896 0.0000
# 6 0.0000 0.0000 0.0000 0.0000 0.0000 31.3566
#
#
#
# Elastic Compliance Matrix: (Units=1/GPa)
#
#
# Indices 1 2 3 4 5 6 
#
# 1 0.020284 -0.011062 -0.010794 0.000000 0.000000 0.000000
# 2 -0.011062 0.028148 -0.003213 0.000000 0.000000 0.000000
# 3 -0.010794 -0.003213 0.021590 0.000000 0.000000 0.000000
# 4 0.000000 0.000000 0.000000 0.068773 0.000000 0.000000
# 5 0.000000 0.000000 0.000000 0.000000 0.034978 0.000000
# 6 0.000000 0.000000 0.000000 0.000000 0.000000 0.031891
#
#
# Mechanical properties :
#
#
# Convention : Reuss Voigt Hill
#
# Bulk Modulus (GPa) = 50.29053 60.62752 55.45902
# Shear Modulus (GPa) = 19.05265 21.89630 20.47447
#
# Velocity S-wave (km/s) = 3.21339 3.44486 3.33113
# Velocity P-wave (km/s) = 6.40496 6.97716 6.69718
#
# Compressibility (1/GPa) = 0.01988446
#
# Stress axis : x y z
#
# Youngs Moduli (GPa) = 49.29912 35.52677 46.31708
#
# Poissons Ratio (x) = 0.39299 0.49995
# Poissons Ratio (y) = 0.54533 0.14882
# Poissons Ratio (z) = 0.53214 0.11415
#
# Static dielectric constant tensor:
#      x y z
#    x 3.396700 0.000000 0.000000 
#    y 0.000000 3.739770 0.000000 
#    z 0.000000 0.000000 3.331920 
# 
# 
# High freq. dielectric constant tensor:
#      x y z
#    x 1.720240 0.000000 0.000000 
#    y 0.000000 1.698940 0.000000 
#    z 0.000000 0.000000 1.710430 
# 
# From -- ./inp_files/6378.got.cif
#   From: 2010.03.12/outbox.cif.g09.slc.cpg/sg55_4_cif.got.tgz:6378.got - 2010.04.16 15:19:21.
