data_PCOD8225996
_publ_section_title
;
Structure prediction by ZEFSAII (Michael W. Deem and Ramdas Pophale) SiO2 
 PCOD8225996
Probable space group: P B A M
;
_chemical_formula_sum "Si O2"
_cell_formula_units_Z 64
_cell_length_a 24.746907
_cell_length_b 14.766778
_cell_length_c 8.674258
_cell_angle_alpha 90.000000
_cell_angle_beta 90.000000
_cell_angle_gamma 90.000000
_cell_volume 3169.852159
_symmetry_space_group_name_H-M "P B A M"
_symmetry_group_IT_number 55
_symmetry_cell_setting 'orthorhombic'
loop_
_space_group_symop_operation_xyz
x,y,z
-x,-y,z
1/2+x,1/2-y,-z
1/2-x,1/2+y,-z
-x,-y,-z
x,y,-z
1/2-x,1/2+y,z
1/2+x,1/2-y,z
loop_
_atom_site_type_symbol
_atom_site_label
_atom_site_fract_x
_atom_site_fract_y
_atom_site_fract_z
Si Si1 0.385651 0.189072 0.182110
Si Si2 0.083394 0.130955 0.321603
Si Si3 0.278191 0.872248 0.821480
Si Si4 0.330838 0.357723 0.323276
Si Si5 0.205432 0.176563 0.319582
Si Si6 0.076279 0.951208 0.173693
Si Si7 0.005877 0.775942 0.827113
Si Si8 0.808494 0.444992 0.681310
O O1 0.348653 0.257341 0.278575
O O2 0.448879 0.202790 0.229925
O O3 0.361649 0.092344 0.229321
O O4 0.379936 0.208866 0.000000
O O5 0.075014 0.112057 0.500000
O O6 0.146599 0.136915 0.278631
O O7 0.048934 0.221722 0.275778
O O8 0.055906 0.050306 0.222371
O O9 0.215565 0.890103 0.790858
O O10 0.291858 0.771610 0.766843
O O11 0.309245 0.949607 0.726195
O O12 0.292408 0.882921 0.000000
O O13 0.310885 0.359390 0.500000
O O14 0.378318 0.428849 0.299811
O O15 0.210988 0.195853 0.500000
O O16 0.253088 0.107272 0.266386
O O17 0.030421 0.876216 0.183695
O O18 0.099513 0.953263 0.000000
O O19 0.988460 0.750960 0.000000
O O20 0.816902 0.434797 0.500000
#
# Coordination Sequence:
#
# PCOD8225996 Si02
#       8
#     8   8   8   8   8   8   8   8
#     4  10  20  36  57  83 113 145 190 237 281 336
#     4  11  22  35  54  81 114 151 194 240 289 350
#     4  12  24  37  58  85 116 154 196 239 288 350
#     4  11  20  33  53  79 113 149 187 233 285 339
#     4  10  23  41  58  83 119 156 193 238 291 345
#     4  10  20  34  53  79 113 152 194 238 287 345
#     4   9  20  36  54  78 113 154 191 238 289 341
#     4  11  22  38  62  87 117 154 191 238 295 349
#
# _framework density 20.190217000000001
#
# number of rings (size 3 to 8) (size 9 to 14) (size 15 to 20)
#    0.000    1.500    1.250    5.625    0.000    7.000 
#    0.000    0.000    0.000    0.750    0.000    5.250 
#    0.000    0.000    0.000    0.000    0.000    0.000 
#
# Total GULP energy -793281.502064 kJ/mol
# GULP energy per Si atom -12395.023470 kJ/mol
# Density = 2.014426 g / cm^3
# Si number density = 20.190217 Si / 1000 Ang^3
#
#
#
# Elastic Constant Matrix: (Units=GPa)
#
#
# Indices 1 2 3 4 5 6 
#
# 1 31.3671 -6.6766 22.4714 0.0000 0.0000 0.0000
# 2 -6.6766 61.0587 19.6885 0.0000 0.0000 0.0000
# 3 22.4714 19.6885 75.0944 0.0000 0.0000 0.0000
# 4 0.0000 0.0000 0.0000 22.6645 0.0000 0.0000
# 5 0.0000 0.0000 0.0000 0.0000 26.4216 0.0000
# 6 0.0000 0.0000 0.0000 0.0000 0.0000 15.2144
#
#
#
# Elastic Compliance Matrix: (Units=1/GPa)
#
#
# Indices 1 2 3 4 5 6 
#
# 1 0.045836 0.010306 -0.016418 0.000000 0.000000 0.000000
# 2 0.010306 0.020207 -0.008382 0.000000 0.000000 0.000000
# 3 -0.016418 -0.008382 0.020427 0.000000 0.000000 0.000000
# 4 0.000000 0.000000 0.000000 0.044122 0.000000 0.000000
# 5 0.000000 0.000000 0.000000 0.000000 0.037848 0.000000
# 6 0.000000 0.000000 0.000000 0.000000 0.000000 0.065727
#
#
# Mechanical properties :
#
#
# Convention : Reuss Voigt Hill
#
# Bulk Modulus (GPa) = 17.39652 26.49852 21.94752
# Shear Modulus (GPa) = 17.71056 21.66255 19.68656
#
# Velocity S-wave (km/s) = 2.96494 3.27910 3.12597
# Velocity P-wave (km/s) = 4.51179 5.24305 4.89111
#
# Compressibility (1/GPa) = 0.05748277
#
# Stress axis : x y z
#
# Youngs Moduli (GPa) = 21.81673 49.48661 48.95421
#
# Poissons Ratio (x) = -0.51002 0.80374
# Poissons Ratio (y) = -0.22485 0.41034
# Poissons Ratio (z) = 0.35819 0.41480
#
# Static dielectric constant tensor:
#      x y z
#    x 3.765350 0.000000 0.000000 
#    y 0.000000 3.545730 0.000000 
#    z 0.000000 0.000000 3.580410 
# 
# 
# High freq. dielectric constant tensor:
#      x y z
#    x 1.782690 0.000000 0.000000 
#    y 0.000000 1.767720 0.000000 
#    z 0.000000 0.000000 1.790680 
# 
# From -- ./inp_files/9806.got.cif
#   From: 2010.03.12/outbox.cif.g09.slc.cpg/sg55_5_cif.got.tgz:9806.got - 2010.04.16 15:19:21.
