data_PCOD8225482
_publ_section_title
;
Structure prediction by ZEFSAII (Michael W. Deem and Ramdas Pophale) SiO2 
 PCOD8225482
Probable space group: P B A M
;
_chemical_formula_sum "Si O2"
_cell_formula_units_Z 56
_cell_length_a 21.878057
_cell_length_b 14.752550
_cell_length_c 8.820810
_cell_angle_alpha 90.000000
_cell_angle_beta 90.000000
_cell_angle_gamma 90.000000
_cell_volume 2846.979318
_symmetry_space_group_name_H-M "P B A M"
_symmetry_group_IT_number 55
_symmetry_cell_setting 'orthorhombic'
loop_
_space_group_symop_operation_xyz
x,y,z
-x,-y,z
1/2+x,1/2-y,-z
1/2-x,1/2+y,-z
-x,-y,-z
x,y,-z
1/2-x,1/2+y,z
1/2+x,1/2-y,z
loop_
_atom_site_type_symbol
_atom_site_label
_atom_site_fract_x
_atom_site_fract_y
_atom_site_fract_z
Si Si1 0.177765 0.449640 0.176198
Si Si2 0.756250 0.885841 0.180640
Si Si3 0.100656 0.888099 0.321512
Si Si4 0.607692 0.422841 0.821223
Si Si5 0.043377 0.419744 0.819270
Si Si6 0.780787 0.189306 0.176140
Si Si7 0.005804 0.221426 0.821279
O O1 0.213524 0.534967 0.248908
O O2 0.110940 0.437066 0.249701
O O3 0.215740 0.358310 0.202064
O O4 0.169543 0.470728 0.000000
O O5 0.825048 0.898626 0.242455
O O6 0.727216 0.791490 0.235309
O O7 0.759266 0.888630 0.000000
O O8 0.095954 0.892858 0.500000
O O9 0.168921 0.862111 0.273458
O O10 0.054990 0.812110 0.260314
O O11 0.082633 0.985756 0.254754
O O12 0.563225 0.340867 0.776431
O O13 0.608847 0.439409 0.000000
O O14 0.018651 0.322998 0.762009
O O15 0.000000 0.500000 0.759152
O O16 0.046185 0.418519 0.000000
O O17 0.800212 0.184854 0.000000
O O18 0.994028 0.219549 0.000000
#
# Coordination Sequence:
#
# PCOD8225482 Si02
#       7
#     8   8   8   8   8   8   8
#     4   9  16  29  51  84 116 139 172 225 279 329
#     4   9  17  29  55  88 113 140 177 226 284 339
#     4  12  25  38  54  80 115 152 194 236 282 335
#     4  10  19  37  60  87 114 144 186 235 289 342
#     4   9  18  31  52  87 122 145 177 229 283 335
#     4  10  19  34  58  84 113 146 186 232 282 333
#     4  10  21  36  58  84 113 147 187 234 285 338
#
# _framework density 19.669969999999999
#
# number of rings (size 3 to 8) (size 9 to 14) (size 15 to 20)
#    0.000    2.143    1.429    2.571    2.000    5.714 
#    0.000    0.714    0.000    3.000    0.000    0.000 
#    0.000    0.000    0.000    0.000    0.000    0.000 
#
# Total GULP energy -694488.519774 kJ/mol
# GULP energy per Si atom -12401.580710 kJ/mol
# Density = 1.962520 g / cm^3
# Si number density = 19.669970 Si / 1000 Ang^3
#
#
#
# Elastic Constant Matrix: (Units=GPa)
#
#
# Indices 1 2 3 4 5 6 
#
# 1 125.5071 53.7910 23.3691 0.0000 0.0000 0.0000
# 2 53.7910 155.9003 20.8166 0.0000 0.0000 0.0000
# 3 23.3691 20.8166 25.1203 0.0000 0.0000 0.0000
# 4 0.0000 0.0000 0.0000 1.9628 0.0000 0.0000
# 5 0.0000 0.0000 0.0000 0.0000 4.8469 0.0000
# 6 0.0000 0.0000 0.0000 0.0000 0.0000 36.0935
#
#
#
# Elastic Compliance Matrix: (Units=1/GPa)
#
#
# Indices 1 2 3 4 5 6 
#
# 1 0.010502 -0.002608 -0.007609 0.000000 0.000000 0.000000
# 2 -0.002608 0.007860 -0.004087 0.000000 0.000000 0.000000
# 3 -0.007609 -0.004087 0.050274 0.000000 0.000000 0.000000
# 4 0.000000 0.000000 0.000000 0.509480 0.000000 0.000000
# 5 0.000000 0.000000 0.000000 0.000000 0.206317 0.000000
# 6 0.000000 0.000000 0.000000 0.000000 0.000000 0.027706
#
#
# Mechanical properties :
#
#
# Convention : Reuss Voigt Hill
#
# Bulk Modulus (GPa) = 24.98255 55.83125 40.40690
# Shear Modulus (GPa) = 5.85418 22.48404 14.16911
#
# Velocity S-wave (km/s) = 1.72704 3.38459 2.68683
# Velocity P-wave (km/s) = 4.08721 6.61208 5.49658
#
# Compressibility (1/GPa) = 0.04002794
#
# Stress axis : x y z
#
# Youngs Moduli (GPa) = 95.21956 127.22905 19.89085
#
# Poissons Ratio (x) = 0.33176 0.15135
# Poissons Ratio (y) = 0.24829 0.08130
# Poissons Ratio (z) = 0.72454 0.52005
#
# Static dielectric constant tensor:
#      x y z
#    x 3.770940 0.000000 0.000000 
#    y 0.000000 3.845630 0.000000 
#    z 0.000000 0.000000 2.980360 
# 
# 
# High freq. dielectric constant tensor:
#      x y z
#    x 1.780570 0.000000 0.000000 
#    y 0.000000 1.784100 0.000000 
#    z 0.000000 0.000000 1.698720 
# 
# From -- ./inp_files/8713.got.cif
#   From: 2010.03.12/outbox.cif.g09.slc.cpg/sg55_5_cif.got.tgz:8713.got - 2010.04.16 15:19:21.
