data_PCOD8225032
_publ_section_title
;
Structure prediction by ZEFSAII (Michael W. Deem and Ramdas Pophale) SiO2 
 PCOD8225032
Probable space group: P B A M
;
_chemical_formula_sum "Si O2"
_cell_formula_units_Z 56
_cell_length_a 17.400182
_cell_length_b 5.034093
_cell_length_c 34.143895
_cell_angle_alpha 90.000000
_cell_angle_beta 90.000000
_cell_angle_gamma 90.000000
_cell_volume 2990.804928
_symmetry_space_group_name_H-M "P B A M"
_symmetry_group_IT_number 55
_symmetry_cell_setting 'orthorhombic'
loop_
_space_group_symop_operation_xyz
x,y,z
-x,-y,z
1/2+x,1/2-y,-z
1/2-x,1/2+y,-z
-x,-y,-z
x,y,-z
1/2-x,1/2+y,z
1/2+x,1/2-y,z
loop_
_atom_site_type_symbol
_atom_site_label
_atom_site_fract_x
_atom_site_fract_y
_atom_site_fract_z
Si Si1 0.701507 0.795322 0.817210
Si Si2 0.589544 0.505879 0.385685
Si Si3 0.302283 0.153353 0.096710
Si Si4 0.910284 0.503962 0.663712
Si Si5 0.949463 0.241944 0.044991
Si Si6 0.803028 0.445562 0.735916
Si Si7 0.699831 0.504494 0.544161
O O1 0.722407 0.483910 0.815286
O O2 0.661102 0.840962 0.859251
O O3 0.654612 0.887520 0.778208
O O4 0.500000 0.500000 0.395091
O O5 0.613827 0.290516 0.352903
O O6 0.631028 0.445476 0.426331
O O7 0.612974 0.792587 0.369431
O O8 0.233342 0.362662 0.089958
O O9 0.369778 0.219257 0.067070
O O10 0.867053 0.422092 0.703001
O O11 0.000000 0.500000 0.673718
O O12 0.000000 0.500000 0.050024
O O13 0.928189 0.183604 0.000000
O O14 0.000000 0.000000 0.062364
O O15 0.765857 0.734937 0.731961
O O16 0.667650 0.472837 0.500000
O O17 0.768737 0.299033 0.551514
#
# Coordination Sequence:
#
# PCOD8225032 Si02
#       7
#     8   8   8   8   8   8   8
#     4   8  16  30  48  72 100 127 161 209 254 291
#     4  10  21  36  53  73 100 134 166 198 242 295
#     4  10  19  33  55  78 101 134 177 220 258 305
#     4  10  21  35  50  73 104 131 161 206 250 285
#     4  10  21  36  52  74 108 142 170 212 269 318
#     4  10  19  32  52  75  98 130 170 203 243 301
#     4  10  21  36  54  77 103 128 159 204 248 285
#
# _framework density 18.724056999999998
#
# number of rings (size 3 to 8) (size 9 to 14) (size 15 to 20)
#    0.000    2.286    0.000    2.571    0.000    4.286 
#    0.000    0.714    0.000    7.714    0.000    0.000 
#    0.000    0.000    0.000    0.000    0.000    0.000 
#
# Total GULP energy -694128.926552 kJ/mol
# GULP energy per Si atom -12395.159403 kJ/mol
# Density = 1.868144 g / cm^3
# Si number density = 18.724057 Si / 1000 Ang^3
#
#
#
# Elastic Constant Matrix: (Units=GPa)
#
#
# Indices 1 2 3 4 5 6 
#
# 1 58.4501 15.7623 64.0251 0.0000 0.0000 0.0000
# 2 15.7623 82.1296 19.9351 0.0000 0.0000 0.0000
# 3 64.0251 19.9351 128.8883 0.0000 0.0000 0.0000
# 4 0.0000 0.0000 0.0000 24.8400 0.0000 0.0000
# 5 0.0000 0.0000 0.0000 0.0000 2.4573 0.0000
# 6 0.0000 0.0000 0.0000 0.0000 0.0000 18.9269
#
#
#
# Elastic Compliance Matrix: (Units=1/GPa)
#
#
# Indices 1 2 3 4 5 6 
#
# 1 0.038151 -0.002828 -0.018514 0.000000 0.000000 0.000000
# 2 -0.002828 0.012860 -0.000584 0.000000 0.000000 0.000000
# 3 -0.018514 -0.000584 0.017046 0.000000 0.000000 0.000000
# 4 0.000000 0.000000 0.000000 0.040258 0.000000 0.000000
# 5 0.000000 0.000000 0.000000 0.000000 0.406954 0.000000
# 6 0.000000 0.000000 0.000000 0.000000 0.000000 0.052835
#
#
# Mechanical properties :
#
#
# Convention : Reuss Voigt Hill
#
# Bulk Modulus (GPa) = 41.31446 52.10146 46.70796
# Shear Modulus (GPa) = 8.06418 20.56120 14.31269
#
# Velocity S-wave (km/s) = 2.07755 3.31738 2.76778
# Velocity P-wave (km/s) = 5.27899 6.52378 5.93411
#
# Compressibility (1/GPa) = 0.02420460
#
# Stress axis : x y z
#
# Youngs Moduli (GPa) = 26.21138 77.75769 58.66495
#
# Poissons Ratio (x) = 0.21990 1.08614
# Poissons Ratio (y) = 0.07413 0.03428
# Poissons Ratio (z) = 0.48528 0.04543
#
# Static dielectric constant tensor:
#      x y z
#    x 2.973120 0.000000 0.000000 
#    y 0.000000 3.712480 0.000000 
#    z 0.000000 0.000000 3.679820 
# 
# 
# High freq. dielectric constant tensor:
#      x y z
#    x 1.682180 0.000000 0.000000 
#    y 0.000000 1.752760 0.000000 
#    z 0.000000 0.000000 1.740360 
# 
# From -- ./inp_files/24179.got.cif
#   From: 2010.03.12/outbox.cif.g09.slc.cpg/sg55_13_cif.got.tgz:24179.got - 2010.04.16 15:19:21.
