data_PCOD8225243
_publ_section_title
;
Structure prediction by ZEFSAII (Michael W. Deem and Ramdas Pophale) SiO2 
 PCOD8225243
Probable space group: P B A M
;
_chemical_formula_sum "Si O2"
_cell_formula_units_Z 48
_cell_length_a 14.852205
_cell_length_b 19.573816
_cell_length_c 9.318461
_cell_angle_alpha 90.000000
_cell_angle_beta 90.000000
_cell_angle_gamma 90.000000
_cell_volume 2709.010126
_symmetry_space_group_name_H-M "P B A M"
_symmetry_group_IT_number 55
_symmetry_cell_setting 'orthorhombic'
loop_
_space_group_symop_operation_xyz
x,y,z
-x,-y,z
1/2+x,1/2-y,-z
1/2-x,1/2+y,-z
-x,-y,-z
x,y,-z
1/2-x,1/2+y,z
1/2+x,1/2-y,z
loop_
_atom_site_type_symbol
_atom_site_label
_atom_site_fract_x
_atom_site_fract_y
_atom_site_fract_z
Si Si1 0.617368 0.191839 0.167952
Si Si2 0.292351 0.328988 0.665333
Si Si3 0.005315 0.796218 0.331103
Si Si4 0.261280 0.484603 0.664931
Si Si5 0.437830 0.558932 0.668947
Si Si6 0.590169 0.034145 0.833809
O O1 0.715493 0.205770 0.237040
O O2 0.540794 0.236247 0.242769
O O3 0.588183 0.114380 0.197723
O O4 0.622559 0.208945 0.000000
O O5 0.265571 0.317057 0.500000
O O6 0.387944 0.294302 0.700394
O O7 0.301183 0.409602 0.698824
O O8 0.985969 0.786893 0.500000
O O9 0.963556 0.866907 0.270608
O O10 0.233555 0.489862 0.500000
O O11 0.334671 0.541700 0.705753
O O12 0.173705 0.501626 0.756560
O O13 0.500000 0.500000 0.739039
O O14 0.456189 0.559652 0.500000
O O15 0.500000 0.000000 0.771656
O O16 0.600949 0.017600 0.000000
#
# Coordination Sequence:
#
# PCOD8225243 Si02
#       6
#     8   8   8   8   8   8
#     4  10  21  36  53  74 103 139 175 213 257 308
#     4   9  17  32  55  77  99 134 173 210 254 302
#     4  10  19  33  55  79 106 137 170 212 257 307
#     4   9  16  29  53  81 103 126 164 211 252 299
#     4   9  15  28  52  81 108 132 161 202 256 306
#     4   9  19  37  56  71  96 137 176 211 257 305
#
# _framework density 17.71865
#
# number of rings (size 3 to 8) (size 9 to 14) (size 15 to 20)
#    0.000    2.667    1.667    0.500    0.000    1.667 
#    3.000    0.833    0.000    1.000    0.000    0.000 
#    0.000    0.000    0.000    0.000    0.000    0.000 
#
# Total GULP energy -595194.468531 kJ/mol
# GULP energy per Si atom -12399.884761 kJ/mol
# Density = 1.767832 g / cm^3
# Si number density = 17.718650 Si / 1000 Ang^3
#
#
#
# Elastic Constant Matrix: (Units=GPa)
#
#
# Indices 1 2 3 4 5 6 
#
# 1 137.5335 55.8521 61.3090 0.0000 0.0000 0.0000
# 2 55.8521 55.2593 34.5814 0.0000 0.0000 0.0000
# 3 61.3090 34.5814 62.8726 0.0000 0.0000 0.0000
# 4 0.0000 0.0000 0.0000 16.2024 0.0000 0.0000
# 5 0.0000 0.0000 0.0000 0.0000 6.2430 0.0000
# 6 0.0000 0.0000 0.0000 0.0000 0.0000 33.7744
#
#
#
# Elastic Compliance Matrix: (Units=1/GPa)
#
#
# Indices 1 2 3 4 5 6 
#
# 1 0.015568 -0.009507 -0.009952 0.000000 0.000000 0.000000
# 2 -0.009507 0.033401 -0.009100 0.000000 0.000000 0.000000
# 3 -0.009952 -0.009100 0.030615 0.000000 0.000000 0.000000
# 4 0.000000 0.000000 0.000000 0.061719 0.000000 0.000000
# 5 0.000000 0.000000 0.000000 0.000000 0.160181 0.000000
# 6 0.000000 0.000000 0.000000 0.000000 0.000000 0.029608
#
#
# Mechanical properties :
#
#
# Convention : Reuss Voigt Hill
#
# Bulk Modulus (GPa) = 44.51370 62.12783 53.32077
# Shear Modulus (GPa) = 12.63587 18.17213 15.40400
#
# Velocity S-wave (km/s) = 2.67336 3.20596 2.95170
# Velocity P-wave (km/s) = 5.89120 6.98884 6.46336
#
# Compressibility (1/GPa) = 0.02246499
#
# Stress axis : x y z
#
# Youngs Moduli (GPa) = 64.23405 29.93931 32.66391
#
# Poissons Ratio (x) = 0.28464 0.32506
# Poissons Ratio (y) = 0.61069 0.29726
# Poissons Ratio (z) = 0.63924 0.27246
#
# Static dielectric constant tensor:
#      x y z
#    x 3.376620 0.000000 0.000000 
#    y 0.000000 3.198330 0.000000 
#    z 0.000000 0.000000 3.086960 
# 
# 
# High freq. dielectric constant tensor:
#      x y z
#    x 1.695720 0.000000 0.000000 
#    y 0.000000 1.670810 0.000000 
#    z 0.000000 0.000000 1.662410 
# 
# From -- ./inp_files/5689.got.cif
#   From: 2010.03.12/outbox.cif.g09.slc.cpg/sg55_3_cif.got.tgz:5689.got - 2010.04.16 15:19:21.
