data_PCOD8225875
_publ_section_title
;
Structure prediction by ZEFSAII (Michael W. Deem and Ramdas Pophale) SiO2 
 PCOD8225875
Probable space group: P B A M
;
_chemical_formula_sum "Si O2"
_cell_formula_units_Z 40
_cell_length_a 34.141813
_cell_length_b 5.070453
_cell_length_c 12.281808
_cell_angle_alpha 90.000000
_cell_angle_beta 90.000000
_cell_angle_gamma 90.000000
_cell_volume 2126.158537
_symmetry_space_group_name_H-M "P B A M"
_symmetry_group_IT_number 55
_symmetry_cell_setting 'orthorhombic'
loop_
_space_group_symop_operation_xyz
x,y,z
-x,-y,z
1/2+x,1/2-y,-z
1/2-x,1/2+y,-z
-x,-y,-z
x,y,-z
1/2-x,1/2+y,z
1/2+x,1/2-y,z
loop_
_atom_site_type_symbol
_atom_site_label
_atom_site_fract_x
_atom_site_fract_y
_atom_site_fract_z
Si Si1 0.775371 0.008450 0.624763
Si Si2 0.380069 0.990721 0.873622
Si Si3 0.145851 0.990503 0.248654
Si Si4 0.456739 0.947473 0.252616
Si Si5 0.568900 0.552684 0.374057
O O1 0.789609 0.031441 0.500000
O O2 0.758138 0.721255 0.649587
O O3 0.811552 0.061714 0.703459
O O4 0.363679 0.277817 0.844252
O O5 0.426283 0.972096 0.846723
O O6 0.355671 0.778188 0.804962
O O7 0.373888 0.936951 0.000000
O O8 0.114860 0.970908 0.346893
O O9 0.446217 0.155495 0.347007
O O10 0.500000 0.000000 0.205396
O O11 0.455694 0.656940 0.304118
O O12 0.562233 0.494417 0.500000
#
# Coordination Sequence:
#
# PCOD8225875 Si02
#       5
#     8   8   8   8   8
#     4  10  20  34  56  85 113 140 167 202 254 308
#     4  10  21  37  57  76  98 137 180 220 264 301
#     4  10  20  36  56  78 106 135 174 217 252 307
#     4  10  21  34  50  76 104 133 174 218 260 307
#     4  10  20  33  51  75 105 141 172 204 254 313
#
# _framework density 18.813271
#
# number of rings (size 3 to 8) (size 9 to 14) (size 15 to 20)
#    0.000    2.000    0.000    3.600    0.000    2.800 
#    0.000    6.000    0.000   19.200    0.000    0.000 
#    0.000    0.000    0.000    0.000    0.000    0.000 
#
# Total GULP energy -496198.446187 kJ/mol
# GULP energy per Si atom -12404.961155 kJ/mol
# Density = 1.877045 g / cm^3
# Si number density = 18.813271 Si / 1000 Ang^3
#
#
#
# Elastic Constant Matrix: (Units=GPa)
#
#
# Indices 1 2 3 4 5 6 
#
# 1 86.7159 5.4343 35.5390 0.0000 0.0000 0.0000
# 2 5.4343 80.9784 4.3410 0.0000 0.0000 0.0000
# 3 35.5390 4.3410 67.5559 0.0000 0.0000 0.0000
# 4 0.0000 0.0000 0.0000 11.7889 0.0000 0.0000
# 5 0.0000 0.0000 0.0000 0.0000 12.7492 0.0000
# 6 0.0000 0.0000 0.0000 0.0000 0.0000 14.6820
#
#
#
# Elastic Compliance Matrix: (Units=1/GPa)
#
#
# Indices 1 2 3 4 5 6 
#
# 1 0.014728 -0.000575 -0.007711 0.000000 0.000000 0.000000
# 2 -0.000575 0.012414 -0.000495 0.000000 0.000000 0.000000
# 3 -0.007711 -0.000495 0.018891 0.000000 0.000000 0.000000
# 4 0.000000 0.000000 0.000000 0.084826 0.000000 0.000000
# 5 0.000000 0.000000 0.000000 0.000000 0.078436 0.000000
# 6 0.000000 0.000000 0.000000 0.000000 0.000000 0.068111
#
#
# Mechanical properties :
#
#
# Convention : Reuss Voigt Hill
#
# Bulk Modulus (GPa) = 35.12391 36.20874 35.66633
# Shear Modulus (GPa) = 16.42258 20.50641 18.46450
#
# Velocity S-wave (km/s) = 2.95774 3.30509 3.13623
# Velocity P-wave (km/s) = 5.51131 5.81833 5.66690
#
# Compressibility (1/GPa) = 0.02847063
#
# Stress axis : x y z
#
# Youngs Moduli (GPa) = 67.89706 80.55352 52.93553
#
# Poissons Ratio (x) = 0.04632 0.40819
# Poissons Ratio (y) = 0.03904 0.02621
# Poissons Ratio (z) = 0.52356 0.03989
#
# Static dielectric constant tensor:
#      x y z
#    x 3.346200 0.000000 0.000000 
#    y 0.000000 3.615180 0.000000 
#    z 0.000000 0.000000 3.109100 
# 
# 
# High freq. dielectric constant tensor:
#      x y z
#    x 1.726670 0.000000 0.000000 
#    y 0.000000 1.752620 0.000000 
#    z 0.000000 0.000000 1.708400 
# 
# From -- ./inp_files/11316.got.cif
#   From: 2010.03.12/outbox.cif.g09.slc.cpg/sg55_6_cif.got.tgz:11316.got - 2010.04.16 15:19:21.
