data_PCOD8225310
_publ_section_title
;
Structure prediction by ZEFSAII (Michael W. Deem and Ramdas Pophale) SiO2 
 PCOD8225310
Probable space group: P B A M
;
_chemical_formula_sum "Si O2"
_cell_formula_units_Z 40
_cell_length_a 26.986502
_cell_length_b 10.173658
_cell_length_c 7.777195
_cell_angle_alpha 90.000000
_cell_angle_beta 90.000000
_cell_angle_gamma 90.000000
_cell_volume 2135.240102
_symmetry_space_group_name_H-M "P B A M"
_symmetry_group_IT_number 55
_symmetry_cell_setting 'orthorhombic'
loop_
_space_group_symop_operation_xyz
x,y,z
-x,-y,z
1/2+x,1/2-y,-z
1/2-x,1/2+y,-z
-x,-y,-z
x,y,-z
1/2-x,1/2+y,z
1/2+x,1/2-y,z
loop_
_atom_site_type_symbol
_atom_site_label
_atom_site_fract_x
_atom_site_fract_y
_atom_site_fract_z
Si Si1 0.298688 0.785488 0.000000
Si Si2 0.206249 0.977268 0.000000
Si Si3 0.366574 0.472137 0.305520
Si Si4 0.028890 0.376448 0.804934
Si Si5 0.027311 0.871098 0.699631
Si Si6 0.370111 0.773409 0.309613
O O1 0.254338 0.887853 0.000000
O O2 0.330328 0.818502 0.169469
O O3 0.280646 0.633133 0.000000
O O4 0.176171 0.937475 0.170778
O O5 0.346471 0.450209 0.500000
O O6 0.413821 0.380586 0.269833
O O7 0.384398 0.621690 0.279198
O O8 0.079292 0.355047 0.700446
O O9 0.000000 0.500000 0.722638
O O10 0.992349 0.252745 0.803299
O O11 0.044119 0.407269 0.000000
O O12 0.014072 0.852478 0.500000
O O13 0.000000 0.000000 0.772036
O O14 0.347203 0.794918 0.500000
#
# Coordination Sequence:
#
# PCOD8225310 Si02
#       6
#     4   4   8   8   8   8
#     4  10  22  42  60  86 106 141 192 235 291 342
#     4  10  22  40  62  79 110 147 178 242 295 330
#     4   9  19  35  58  88 112 142 192 233 276 339
#     4  11  23  36  52  84 124 159 191 228 275 342
#     4  10  19  33  56  85 115 147 188 233 271 329
#     4  10  19  37  62  82 112 153 189 226 278 344
#
# _framework density 18.733256999999998
#
# number of rings (size 3 to 8) (size 9 to 14) (size 15 to 20)
#    0.000    2.000    3.000    0.600    1.400    2.800 
#    3.600    0.000    0.000    0.000    0.000    0.000 
#    0.000    0.000    0.000    0.000    0.000    0.000 
#
# Total GULP energy -496051.964522 kJ/mol
# GULP energy per Si atom -12401.299113 kJ/mol
# Density = 1.869062 g / cm^3
# Si number density = 18.733257 Si / 1000 Ang^3
#
#
#
# Elastic Constant Matrix: (Units=GPa)
#
#
# Indices 1 2 3 4 5 6 
#
# 1 125.2623 59.1993 62.6843 0.0000 0.0000 0.0000
# 2 59.1993 91.9026 30.2298 0.0000 0.0000 0.0000
# 3 62.6843 30.2298 114.0732 0.0000 0.0000 0.0000
# 4 0.0000 0.0000 0.0000 21.0827 0.0000 0.0000
# 5 0.0000 0.0000 0.0000 0.0000 -19.7899 0.0000
# 6 0.0000 0.0000 0.0000 0.0000 0.0000 37.8125
#
#
#
# Elastic Compliance Matrix: (Units=1/GPa)
#
#
# Indices 1 2 3 4 5 6 
#
# 1 0.014452 -0.007336 -0.005997 0.000000 0.000000 0.000000
# 2 -0.007336 0.015644 -0.000114 0.000000 0.000000 0.000000
# 3 -0.005997 -0.000114 0.012092 0.000000 0.000000 0.000000
# 4 0.000000 0.000000 0.000000 0.047432 0.000000 0.000000
# 5 0.000000 0.000000 0.000000 0.000000 -0.050531 0.000000
# 6 0.000000 0.000000 0.000000 0.000000 0.000000 0.026446
#
#
# Mechanical properties :
#
#
# Convention : Reuss Voigt Hill
#
# Bulk Modulus (GPa) = 65.39239 70.60722 67.99980
# Shear Modulus (GPa) = 51.26686 19.76270 35.51478
#
# Velocity S-wave (km/s) = 5.23700 3.25153 4.35882
# Velocity P-wave (km/s) = 8.45879 7.20203 7.85558
#
# Compressibility (1/GPa) = 0.01529230
#
# Stress axis : x y z
#
# Youngs Moduli (GPa) = 69.19695 63.92049 82.69868
#
# Poissons Ratio (x) = 0.46894 0.49595
# Poissons Ratio (y) = 0.50765 0.00947
# Poissons Ratio (z) = 0.41498 0.00732
#
# Static dielectric constant tensor:
#      x y z
#    x 3.209700 0.000000 0.000000 
#    y 0.000000 3.304430 0.000000 
#    z 0.000000 0.000000 3.595710 
# 
# 
# High freq. dielectric constant tensor:
#      x y z
#    x 1.712190 0.000000 0.000000 
#    y 0.000000 1.708610 0.000000 
#    z 0.000000 0.000000 1.740450 
# 
# From -- ./inp_files/2357.got.cif
#   From: 2010.03.12/outbox.cif.g09.slc.cpg/sg55_2_cif.got.tgz:2357.got - 2010.04.16 15:19:21.
