data_PCOD8225174
_publ_section_title
;
Structure prediction by ZEFSAII (Michael W. Deem and Ramdas Pophale) SiO2 
 PCOD8225174
Probable space group: P B A M
;
_chemical_formula_sum "Si O2"
_cell_formula_units_Z 48
_cell_length_a 16.256943
_cell_length_b 18.400569
_cell_length_c 8.978607
_cell_angle_alpha 90.000000
_cell_angle_beta 90.000000
_cell_angle_gamma 90.000000
_cell_volume 2685.833575
_symmetry_space_group_name_H-M "P B A M"
_symmetry_group_IT_number 55
_symmetry_cell_setting 'orthorhombic'
loop_
_space_group_symop_operation_xyz
x,y,z
-x,-y,z
1/2+x,1/2-y,-z
1/2-x,1/2+y,-z
-x,-y,-z
x,y,-z
1/2-x,1/2+y,z
1/2+x,1/2-y,z
loop_
_atom_site_type_symbol
_atom_site_label
_atom_site_fract_x
_atom_site_fract_y
_atom_site_fract_z
Si Si1 0.416532 0.955150 0.167612
Si Si2 0.836469 0.913098 0.824242
Si Si3 0.830649 0.420802 0.324987
Si Si4 0.006375 0.665125 0.673715
Si Si5 0.913347 0.039555 0.336201
Si Si6 0.983891 0.830535 0.324709
O O1 0.433683 0.876650 0.239856
O O2 0.500000 0.000000 0.170042
O O3 0.348887 0.998402 0.263020
O O4 0.383418 0.944787 0.000000
O O5 0.750075 0.888885 0.753724
O O6 0.905028 0.857863 0.765377
O O7 0.855161 0.996952 0.778585
O O8 0.831554 0.907824 0.000000
O O9 0.816025 0.426040 0.500000
O O10 0.904345 0.366068 0.283783
O O11 0.989117 0.654562 0.500000
O O12 0.003651 0.748685 0.722719
O O13 0.871077 0.039334 0.500000
O O14 0.934535 0.121882 0.283906
O O15 0.000000 0.000000 0.347002
O O16 0.964486 0.838146 0.500000
#
# Coordination Sequence:
#
# PCOD8225174 Si02
#       6
#     8   8   8   8   8   8
#     4   9  17  30  49  73 100 128 159 198 244 294
#     4  11  21  32  49  74 102 132 167 209 257 303
#     4  10  19  33  53  74  98 131 171 213 252 293
#     4   9  18  33  54  77  99 129 169 206 244 298
#     4   8  15  30  51  71  93 125 163 201 241 290
#     4   9  18  34  54  75 100 131 167 205 248 301
#
# _framework density 17.871548000000001
#
# number of rings (size 3 to 8) (size 9 to 14) (size 15 to 20)
#    0.000    2.667    0.000    3.500    0.000    6.333 
#    0.000    1.667    0.000    8.000    0.000    0.000 
#    0.000    0.000    0.000    0.000    0.000    0.000 
#
# Total GULP energy -595090.077768 kJ/mol
# GULP energy per Si atom -12397.709954 kJ/mol
# Density = 1.783087 g / cm^3
# Si number density = 17.871548 Si / 1000 Ang^3
#
#
#
# Elastic Constant Matrix: (Units=GPa)
#
#
# Indices 1 2 3 4 5 6 
#
# 1 76.6873 39.2527 49.7264 0.0000 0.0000 0.0000
# 2 39.2527 136.9913 50.0360 0.0000 0.0000 0.0000
# 3 49.7264 50.0360 108.5215 0.0000 0.0000 0.0000
# 4 0.0000 0.0000 0.0000 17.1233 0.0000 0.0000
# 5 0.0000 0.0000 0.0000 0.0000 24.2665 0.0000
# 6 0.0000 0.0000 0.0000 0.0000 0.0000 17.6871
#
#
#
# Elastic Compliance Matrix: (Units=1/GPa)
#
#
# Indices 1 2 3 4 5 6 
#
# 1 0.019394 -0.002779 -0.007605 0.000000 0.000000 0.000000
# 2 -0.002779 0.009176 -0.002957 0.000000 0.000000 0.000000
# 3 -0.007605 -0.002957 0.014063 0.000000 0.000000 0.000000
# 4 0.000000 0.000000 0.000000 0.058400 0.000000 0.000000
# 5 0.000000 0.000000 0.000000 0.000000 0.041209 0.000000
# 6 0.000000 0.000000 0.000000 0.000000 0.000000 0.056538
#
#
# Mechanical properties :
#
#
# Convention : Reuss Voigt Hill
#
# Bulk Modulus (GPa) = 62.69712 66.69224 64.69468
# Shear Modulus (GPa) = 21.66556 24.02773 22.84665
#
# Velocity S-wave (km/s) = 3.48558 3.67068 3.57932
# Velocity P-wave (km/s) = 7.16640 7.44068 7.30483
#
# Compressibility (1/GPa) = 0.01594970
#
# Stress axis : x y z
#
# Youngs Moduli (GPa) = 51.56234 108.97672 71.10769
#
# Poissons Ratio (x) = 0.30287 0.54079
# Poissons Ratio (y) = 0.14330 0.21029
# Poissons Ratio (z) = 0.39214 0.32229
#
# Static dielectric constant tensor:
#      x y z
#    x 3.167010 0.000000 0.000000 
#    y 0.000000 3.545550 0.000000 
#    z 0.000000 0.000000 3.307330 
# 
# 
# High freq. dielectric constant tensor:
#      x y z
#    x 1.670720 0.000000 0.000000 
#    y 0.000000 1.683820 0.000000 
#    z 0.000000 0.000000 1.692360 
# 
# From -- ./inp_files/7566.got.cif
#   From: 2010.03.12/outbox.cif.g09.slc.cpg/sg55_4_cif.got.tgz:7566.got - 2010.04.16 15:19:21.
