data_PCOD8225396
_publ_section_title
;
Structure prediction by ZEFSAII (Michael W. Deem and Ramdas Pophale) SiO2 
 PCOD8225396
Probable space group: P B A M
;
_chemical_formula_sum "Si O2"
_cell_formula_units_Z 48
_cell_length_a 8.529746
_cell_length_b 22.987193
_cell_length_c 12.584408
_cell_angle_alpha 90.000000
_cell_angle_beta 90.000000
_cell_angle_gamma 90.000000
_cell_volume 2467.486761
_symmetry_space_group_name_H-M "P B A M"
_symmetry_group_IT_number 55
_symmetry_cell_setting 'orthorhombic'
loop_
_space_group_symop_operation_xyz
x,y,z
-x,-y,z
1/2+x,1/2-y,-z
1/2-x,1/2+y,-z
-x,-y,-z
x,y,-z
1/2-x,1/2+y,z
1/2+x,1/2-y,z
loop_
_atom_site_type_symbol
_atom_site_label
_atom_site_fract_x
_atom_site_fract_y
_atom_site_fract_z
Si Si1 0.823025 0.094062 0.613809
Si Si2 0.333516 0.024598 0.382198
Si Si3 0.430884 0.677672 0.877661
Si Si4 0.166605 0.741554 0.243976
Si Si5 0.096630 0.309492 0.623536
Si Si6 0.077637 0.063196 0.767164
O O1 0.876251 0.120348 0.500000
O O2 0.662544 0.125931 0.648014
O O3 0.966701 0.101860 0.692003
O O4 0.790082 0.026449 0.601687
O O5 0.353412 0.055336 0.500000
O O6 0.249417 0.062111 0.289740
O O7 0.500000 0.000000 0.341547
O O8 0.575666 0.705120 0.811995
O O9 0.268936 0.707754 0.842651
O O10 0.413238 0.606987 0.867093
O O11 0.460807 0.691835 0.000000
O O12 0.269935 0.764434 0.341730
O O13 0.051370 0.695685 0.299589
O O14 0.053270 0.299855 0.500000
O O15 0.000000 0.000000 0.797009
#
# Coordination Sequence:
#
# PCOD8225396 Si02
#       6
#     8   8   8   8   8   8
#     4   9  17  31  51  78 114 149 179 216 270 347
#     4   9  18  31  51  81 112 148 188 223 272 342
#     4  11  23  41  62  83 108 150 203 251 292 334
#     4  10  22  38  58  83 115 150 192 238 290 343
#     4  10  19  34  55  85 120 148 180 224 287 356
#     4  10  20  36  57  83 115 151 187 239 291 348
#
# _framework density 19.452991999999998
#
# number of rings (size 3 to 8) (size 9 to 14) (size 15 to 20)
#    0.000    2.167    1.667    1.500    2.333    2.333 
#    0.000    1.667    0.000    0.500    0.000    0.000 
#    0.000    0.000    0.000    0.000    0.000    0.000 
#
# Total GULP energy -594697.576991 kJ/mol
# GULP energy per Si atom -12389.532854 kJ/mol
# Density = 1.940872 g / cm^3
# Si number density = 19.452992 Si / 1000 Ang^3
#
#
#
# Elastic Constant Matrix: (Units=GPa)
#
#
# Indices 1 2 3 4 5 6 
#
# 1 81.2746 12.7640 26.7451 0.0000 0.0000 0.0000
# 2 12.7640 76.8155 21.5403 0.0000 0.0000 0.0000
# 3 26.7451 21.5403 72.9986 0.0000 0.0000 0.0000
# 4 0.0000 0.0000 0.0000 24.5015 0.0000 0.0000
# 5 0.0000 0.0000 0.0000 0.0000 17.5428 0.0000
# 6 0.0000 0.0000 0.0000 0.0000 0.0000 26.0716
#
#
#
# Elastic Compliance Matrix: (Units=1/GPa)
#
#
# Indices 1 2 3 4 5 6 
#
# 1 0.014057 -0.000972 -0.004863 0.000000 0.000000 0.000000
# 2 -0.000972 0.014260 -0.003852 0.000000 0.000000 0.000000
# 3 -0.004863 -0.003852 0.016617 0.000000 0.000000 0.000000
# 4 0.000000 0.000000 0.000000 0.040814 0.000000 0.000000
# 5 0.000000 0.000000 0.000000 0.000000 0.057004 0.000000
# 6 0.000000 0.000000 0.000000 0.000000 0.000000 0.038356
#
#
# Mechanical properties :
#
#
# Convention : Reuss Voigt Hill
#
# Bulk Modulus (GPa) = 39.12357 39.24305 39.18331
# Shear Modulus (GPa) = 23.92330 24.95914 24.44122
#
# Velocity S-wave (km/s) = 3.51066 3.58585 3.54845
# Velocity P-wave (km/s) = 6.04884 6.11241 6.08071
#
# Compressibility (1/GPa) = 0.02556004
#
# Stress axis : x y z
#
# Youngs Moduli (GPa) = 71.13889 70.12736 60.17843
#
# Poissons Ratio (x) = 0.06816 0.29267
# Poissons Ratio (y) = 0.06915 0.23179
# Poissons Ratio (z) = 0.34597 0.27010
#
# Static dielectric constant tensor:
#      x y z
#    x 3.564730 0.000000 0.000000 
#    y 0.000000 3.504870 0.000000 
#    z 0.000000 0.000000 3.413960 
# 
# 
# High freq. dielectric constant tensor:
#      x y z
#    x 1.763250 0.000000 0.000000 
#    y 0.000000 1.753800 0.000000 
#    z 0.000000 0.000000 1.731370 
# 
# From -- ./inp_files/12215.got.cif
#   From: 2010.03.12/outbox.cif.g09.slc.cpg/sg55_7_cif.got.tgz:12215.got - 2010.04.16 15:19:21.
