data_PCOD8225589
_publ_section_title
;
Structure prediction by ZEFSAII (Michael W. Deem and Ramdas Pophale) SiO2 
 PCOD8225589
Probable space group: P B A M
;
_chemical_formula_sum "Si O2"
_cell_formula_units_Z 64
_cell_length_a 19.824211
_cell_length_b 18.793832
_cell_length_c 9.215961
_cell_angle_alpha 90.000000
_cell_angle_beta 90.000000
_cell_angle_gamma 90.000000
_cell_volume 3433.617234
_symmetry_space_group_name_H-M "P B A M"
_symmetry_group_IT_number 55
_symmetry_cell_setting 'orthorhombic'
loop_
_space_group_symop_operation_xyz
x,y,z
-x,-y,z
1/2+x,1/2-y,-z
1/2-x,1/2+y,-z
-x,-y,-z
x,y,-z
1/2-x,1/2+y,z
1/2+x,1/2-y,z
loop_
_atom_site_type_symbol
_atom_site_label
_atom_site_fract_x
_atom_site_fract_y
_atom_site_fract_z
Si Si1 0.229511 0.185572 0.167049
Si Si2 0.202405 0.543832 0.829719
Si Si3 0.148602 0.790338 0.167932
Si Si4 0.531439 0.791345 0.671592
Si Si5 0.948080 0.438358 0.171457
Si Si6 0.321499 0.449160 0.170142
Si Si7 0.567880 0.463878 0.331416
Si Si8 0.405660 0.696399 0.333098
O O1 0.259970 0.113135 0.236973
O O2 0.282838 0.247834 0.189027
O O3 0.161652 0.210311 0.243946
O O4 0.211493 0.173173 0.000000
O O5 0.125949 0.537577 0.771630
O O6 0.244437 0.472442 0.791586
O O7 0.197926 0.556632 0.000000
O O8 0.090771 0.757271 0.266050
O O9 0.163765 0.869840 0.224894
O O10 0.125539 0.789132 0.000000
O O11 0.542103 0.798661 0.500000
O O12 0.530162 0.867858 0.745434
O O13 0.460506 0.755065 0.710626
O O14 0.000000 0.500000 0.213586
O O15 0.948738 0.422576 0.000000
O O16 0.369207 0.505539 0.246134
O O17 0.334073 0.455184 0.000000
O O18 0.500000 0.500000 0.271955
O O19 0.578251 0.481179 0.500000
O O20 0.562265 0.380397 0.299295
O O21 0.385492 0.702481 0.500000
#
# Coordination Sequence:
#
# PCOD8225589 Si02
#       8
#     8   8   8   8   8   8   8   8
#     4  10  19  35  59  81 109 148 188 236 289 343
#     4   9  17  34  57  83 114 144 183 236 291 343
#     4  10  21  37  58  85 114 148 193 241 288 348
#     4  11  23  39  59  83 119 160 195 239 288 341
#     4  10  21  39  65  91 117 153 196 242 292 348
#     4  10  20  34  55  82 111 142 184 238 286 335
#     4  10  20  35  53  74 108 148 184 224 275 336
#     4  10  22  37  54  81 115 150 192 235 278 340
#
# _framework density 18.639234999999999
#
# number of rings (size 3 to 8) (size 9 to 14) (size 15 to 20)
#    0.000    2.000    2.500    1.125    0.000    4.500 
#    0.000    3.125    0.000    0.000    0.000    0.000 
#    0.000    0.000    0.000    0.000    0.000    0.000 
#
# Total GULP energy -793676.564142 kJ/mol
# GULP energy per Si atom -12401.196315 kJ/mol
# Density = 1.859681 g / cm^3
# Si number density = 18.639235 Si / 1000 Ang^3
#
#
#
# Elastic Constant Matrix: (Units=GPa)
#
#
# Indices 1 2 3 4 5 6 
#
# 1 156.5696 75.4307 56.1955 0.0000 0.0000 0.0000
# 2 75.4307 138.0014 47.6755 0.0000 0.0000 0.0000
# 3 56.1955 47.6755 52.7705 0.0000 0.0000 0.0000
# 4 0.0000 0.0000 0.0000 23.5435 0.0000 0.0000
# 5 0.0000 0.0000 0.0000 0.0000 26.4245 0.0000
# 6 0.0000 0.0000 0.0000 0.0000 0.0000 31.4948
#
#
#
# Elastic Compliance Matrix: (Units=1/GPa)
#
#
# Indices 1 2 3 4 5 6 
#
# 1 0.011072 -0.002876 -0.009192 0.000000 0.000000 0.000000
# 2 -0.002876 0.011281 -0.007129 0.000000 0.000000 0.000000
# 3 -0.009192 -0.007129 0.035179 0.000000 0.000000 0.000000
# 4 0.000000 0.000000 0.000000 0.042474 0.000000 0.000000
# 5 0.000000 0.000000 0.000000 0.000000 0.037844 0.000000
# 6 0.000000 0.000000 0.000000 0.000000 0.000000 0.031751
#
#
# Mechanical properties :
#
#
# Convention : Reuss Voigt Hill
#
# Bulk Modulus (GPa) = 52.25252 78.43834 65.34543
# Shear Modulus (GPa) = 23.32355 27.49522 25.40939
#
# Velocity S-wave (km/s) = 3.54123 3.84490 3.69619
# Velocity P-wave (km/s) = 6.69439 7.86669 7.30410
#
# Compressibility (1/GPa) = 0.01913783
#
# Stress axis : x y z
#
# Youngs Moduli (GPa) = 90.32029 88.64153 28.42583
#
# Poissons Ratio (x) = 0.25495 0.26128
# Poissons Ratio (y) = 0.25978 0.20266
# Poissons Ratio (z) = 0.83020 0.63195
#
# Static dielectric constant tensor:
#      x y z
#    x 3.545150 0.000000 0.000000 
#    y 0.000000 3.539380 0.000000 
#    z 0.000000 0.000000 3.270730 
# 
# 
# High freq. dielectric constant tensor:
#      x y z
#    x 1.734270 0.000000 0.000000 
#    y 0.000000 1.731280 0.000000 
#    z 0.000000 0.000000 1.702770 
# 
# From -- ./inp_files/9030.got.cif
#   From: 2010.03.12/outbox.cif.g09.slc.cpg/sg55_5_cif.got.tgz:9030.got - 2010.04.16 15:19:21.
