data_PCOD8225376
_publ_section_title
;
Structure prediction by ZEFSAII (Michael W. Deem and Ramdas Pophale) SiO2 
 PCOD8225376
Probable space group: P B A M
;
_chemical_formula_sum "Si O2"
_cell_formula_units_Z 56
_cell_length_a 16.410327
_cell_length_b 12.517312
_cell_length_c 14.010234
_cell_angle_alpha 90.000000
_cell_angle_beta 90.000000
_cell_angle_gamma 90.000000
_cell_volume 2877.886762
_symmetry_space_group_name_H-M "P B A M"
_symmetry_group_IT_number 55
_symmetry_cell_setting 'orthorhombic'
loop_
_space_group_symop_operation_xyz
x,y,z
-x,-y,z
1/2+x,1/2-y,-z
1/2-x,1/2+y,-z
-x,-y,-z
x,y,-z
1/2-x,1/2+y,z
1/2+x,1/2-y,z
loop_
_atom_site_type_symbol
_atom_site_label
_atom_site_fract_x
_atom_site_fract_y
_atom_site_fract_z
Si Si1 0.951477 0.898792 0.894769
Si Si2 0.795965 0.152706 0.269507
Si Si3 0.607155 0.736641 0.105105
Si Si4 0.874463 0.769187 0.738637
Si Si5 0.973061 0.386156 0.759252
Si Si6 0.860053 0.337620 0.604993
Si Si7 0.687647 0.443138 0.607102
O O1 0.879102 0.852252 0.828288
O O2 0.016921 0.806659 0.908263
O O3 0.915603 0.929981 0.000000
O O4 0.000000 0.000000 0.849156
O O5 0.835036 0.154549 0.163361
O O6 0.702679 0.190197 0.257518
O O7 0.847043 0.228869 0.338003
O O8 0.809129 0.037555 0.315881
O O9 0.594859 0.845356 0.165085
O O10 0.645647 0.758480 0.000000
O O11 0.868507 0.845292 0.645174
O O12 0.954446 0.696826 0.737934
O O13 0.928790 0.406621 0.658333
O O14 0.000000 0.500000 0.800336
O O15 0.892024 0.308339 0.500000
O O16 0.779494 0.406195 0.598245
O O17 0.657057 0.476333 0.500000
#
# Coordination Sequence:
#
# PCOD8225376 Si02
#       7
#     8   8   8   8   8   8   8
#     4   9  17  32  54  78 108 145 182 224 276 329
#     4  10  19  34  55  76 107 141 176 224 274 321
#     4   9  19  34  53  77 106 142 180 219 269 327
#     4  10  21  34  54  83 110 139 186 232 271 325
#     4  10  20  35  54  77 108 144 181 225 274 322
#     4   9  19  34  51  74 104 139 179 220 266 321
#     4  10  20  35  55  78 107 144 182 223 273 326
#
# _framework density 19.458722999999999
#
# number of rings (size 3 to 8) (size 9 to 14) (size 15 to 20)
#    0.000    2.429    0.000    2.143    0.000    2.286 
#    0.000    0.000    0.000   19.286    0.000    0.000 
#    0.000    0.000    0.000    0.000    0.000    0.000 
#
# Total GULP energy -693912.197652 kJ/mol
# GULP energy per Si atom -12391.289244 kJ/mol
# Density = 1.941443 g / cm^3
# Si number density = 19.458723 Si / 1000 Ang^3
#
#
#
# Elastic Constant Matrix: (Units=GPa)
#
#
# Indices 1 2 3 4 5 6 
#
# 1 39.1966 20.1715 44.0902 0.0000 0.0000 0.0000
# 2 20.1715 93.9266 44.2982 0.0000 0.0000 0.0000
# 3 44.0902 44.2982 156.3700 0.0000 0.0000 0.0000
# 4 0.0000 0.0000 0.0000 22.8130 0.0000 0.0000
# 5 0.0000 0.0000 0.0000 0.0000 25.3887 0.0000
# 6 0.0000 0.0000 0.0000 0.0000 0.0000 18.8568
#
#
#
# Elastic Compliance Matrix: (Units=1/GPa)
#
#
# Indices 1 2 3 4 5 6 
#
# 1 0.038403 -0.003625 -0.009801 0.000000 0.000000 0.000000
# 2 -0.003625 0.012631 -0.002556 0.000000 0.000000 0.000000
# 3 -0.009801 -0.002556 0.009883 0.000000 0.000000 0.000000
# 4 0.000000 0.000000 0.000000 0.043835 0.000000 0.000000
# 5 0.000000 0.000000 0.000000 0.000000 0.039388 0.000000
# 6 0.000000 0.000000 0.000000 0.000000 0.000000 0.053031
#
#
# Mechanical properties :
#
#
# Convention : Reuss Voigt Hill
#
# Bulk Modulus (GPa) = 34.54006 56.29033 45.41519
# Shear Modulus (GPa) = 20.93941 25.47391 23.20666
#
# Velocity S-wave (km/s) = 3.28395 3.62211 3.45716
# Velocity P-wave (km/s) = 5.67169 6.81790 6.27104
#
# Compressibility (1/GPa) = 0.02895189
#
# Stress axis : x y z
#
# Youngs Moduli (GPa) = 26.03989 79.17289 101.18650
#
# Poissons Ratio (x) = 0.28699 0.99174
# Poissons Ratio (y) = 0.09439 0.25864
# Poissons Ratio (z) = 0.25522 0.20237
#
# Static dielectric constant tensor:
#      x y z
#    x 3.400450 0.000000 0.000000 
#    y 0.000000 3.469930 0.000000 
#    z 0.000000 0.000000 4.095860 
# 
# 
# High freq. dielectric constant tensor:
#      x y z
#    x 1.738860 0.000000 0.000000 
#    y 0.000000 1.754160 0.000000 
#    z 0.000000 0.000000 1.765220 
# 
# From -- ./inp_files/18959.got.cif
#   From: 2010.03.12/outbox.cif.g09.slc.cpg/sg55_10_cif.got.tgz:18959.got - 2010.04.16 15:19:21.
