data_PCOD8225072
_publ_section_title
;
Structure prediction by ZEFSAII (Michael W. Deem and Ramdas Pophale) SiO2 
 PCOD8225072
Probable space group: P B A M
;
_chemical_formula_sum "Si O2"
_cell_formula_units_Z 64
_cell_length_a 22.715217
_cell_length_b 15.734842
_cell_length_c 9.695870
_cell_angle_alpha 90.000000
_cell_angle_beta 90.000000
_cell_angle_gamma 90.000000
_cell_volume 3465.501254
_symmetry_space_group_name_H-M "P B A M"
_symmetry_group_IT_number 55
_symmetry_cell_setting 'orthorhombic'
loop_
_space_group_symop_operation_xyz
x,y,z
-x,-y,z
1/2+x,1/2-y,-z
1/2-x,1/2+y,-z
-x,-y,-z
x,y,-z
1/2-x,1/2+y,z
1/2+x,1/2-y,z
loop_
_atom_site_type_symbol
_atom_site_label
_atom_site_fract_x
_atom_site_fract_y
_atom_site_fract_z
Si Si1 0.940916 0.763668 0.161757
Si Si2 0.666890 0.988671 0.154995
Si Si3 0.989704 0.097039 0.661749
Si Si4 0.954657 0.570079 0.837253
Si Si5 0.761056 0.588153 0.340895
Si Si6 0.316915 0.201108 0.151700
Si Si7 0.137330 0.840105 0.344437
Si Si8 0.307472 0.762606 0.842253
O O1 0.962543 0.668815 0.210823
O O2 0.871148 0.777458 0.189422
O O3 0.972463 0.836194 0.250606
O O4 0.955456 0.776463 0.000000
O O5 0.652460 0.889670 0.159251
O O6 0.610404 0.041148 0.205628
O O7 0.719741 0.002329 0.263725
O O8 0.685703 0.015568 0.000000
O O9 0.004424 0.109769 0.500000
O O10 0.921612 0.111901 0.696683
O O11 0.000000 0.000000 0.707991
O O12 0.000000 0.500000 0.772253
O O13 0.961845 0.567534 0.000000
O O14 0.780059 0.587633 0.500000
O O15 0.691164 0.595177 0.322691
O O16 0.796757 0.661102 0.262410
O O17 0.354219 0.256975 0.254891
O O18 0.246341 0.196223 0.182438
O O19 0.325426 0.240937 0.000000
O O20 0.135065 0.806883 0.500000
O O21 0.307650 0.796879 0.000000
#
# Coordination Sequence:
#
# PCOD8225072 Si02
#       8
#     8   8   8   8   8   8   8   8
#     4  10  20  35  59  83 110 145 183 232 279 321
#     4  10  19  33  52  79 112 143 177 219 270 326
#     4  10  23  42  59  77 107 147 189 232 280 331
#     4   9  18  32  52  78 111 149 183 215 265 332
#     4  10  19  32  53  78 105 141 181 221 267 325
#     4   9  19  32  54  83 109 141 180 219 269 336
#     4   9  20  38  56  75 106 144 181 225 278 325
#     4   9  17  34  53  77 109 139 174 223 278 323
#
# _framework density 18.467746000000002
#
# number of rings (size 3 to 8) (size 9 to 14) (size 15 to 20)
#    0.000    2.500    1.250    0.375    1.750    3.250 
#    0.000    0.000    0.000    0.750    0.000    0.000 
#    0.000    0.000    0.000    0.000    0.000    0.000 
#
# Total GULP energy -793154.130629 kJ/mol
# GULP energy per Si atom -12393.033291 kJ/mol
# Density = 1.842571 g / cm^3
# Si number density = 18.467746 Si / 1000 Ang^3
#
#
#
# Elastic Constant Matrix: (Units=GPa)
#
#
# Indices 1 2 3 4 5 6 
#
# 1 114.3468 69.4967 66.7340 0.0000 0.0000 0.0000
# 2 69.4967 120.8764 51.2248 0.0000 0.0000 0.0000
# 3 66.7340 51.2248 84.2412 0.0000 0.0000 0.0000
# 4 0.0000 0.0000 0.0000 31.7106 0.0000 0.0000
# 5 0.0000 0.0000 0.0000 0.0000 22.9412 0.0000
# 6 0.0000 0.0000 0.0000 0.0000 0.0000 25.9065
#
#
#
# Elastic Compliance Matrix: (Units=1/GPa)
#
#
# Indices 1 2 3 4 5 6 
#
# 1 0.019171 -0.006178 -0.011430 0.000000 0.000000 0.000000
# 2 -0.006178 0.013136 -0.003093 0.000000 0.000000 0.000000
# 3 -0.011430 -0.003093 0.022806 0.000000 0.000000 0.000000
# 4 0.000000 0.000000 0.000000 0.031535 0.000000 0.000000
# 5 0.000000 0.000000 0.000000 0.000000 0.043590 0.000000
# 6 0.000000 0.000000 0.000000 0.000000 0.000000 0.038600
#
#
# Mechanical properties :
#
#
# Convention : Reuss Voigt Hill
#
# Bulk Modulus (GPa) = 72.93960 77.15280 75.04620
# Shear Modulus (GPa) = 23.27621 24.91225 24.09423
#
# Velocity S-wave (km/s) = 3.55402 3.67680 3.61593
# Velocity P-wave (km/s) = 7.51151 7.73905 7.62613
#
# Compressibility (1/GPa) = 0.01370997
#
# Stress axis : x y z
#
# Youngs Moduli (GPa) = 52.16202 76.12679 43.84790
#
# Poissons Ratio (x) = 0.47035 0.50118
# Poissons Ratio (y) = 0.32228 0.13563
# Poissons Ratio (z) = 0.59621 0.23548
#
# Static dielectric constant tensor:
#      x y z
#    x 3.589520 0.000000 0.000000 
#    y 0.000000 3.383940 0.000000 
#    z 0.000000 0.000000 3.409580 
# 
# 
# High freq. dielectric constant tensor:
#      x y z
#    x 1.722100 0.000000 0.000000 
#    y 0.000000 1.707950 0.000000 
#    z 0.000000 0.000000 1.701130 
# 
# From -- ./inp_files/9800.got.cif
#   From: 2010.03.12/outbox.cif.g09.slc.cpg/sg55_5_cif.got.tgz:9800.got - 2010.04.16 15:19:21.
