data_PCOD8225019
_publ_section_title
;
Structure prediction by ZEFSAII (Michael W. Deem and Ramdas Pophale) SiO2 
 PCOD8225019
Probable space group: P B A M
;
_chemical_formula_sum "Si O2"
_cell_formula_units_Z 48
_cell_length_a 11.031800
_cell_length_b 19.794008
_cell_length_c 12.302426
_cell_angle_alpha 90.000000
_cell_angle_beta 90.000000
_cell_angle_gamma 90.000000
_cell_volume 2686.401261
_symmetry_space_group_name_H-M "P B A M"
_symmetry_group_IT_number 55
_symmetry_cell_setting 'orthorhombic'
loop_
_space_group_symop_operation_xyz
x,y,z
-x,-y,z
1/2+x,1/2-y,-z
1/2-x,1/2+y,-z
-x,-y,-z
x,y,-z
1/2-x,1/2+y,z
1/2+x,1/2-y,z
loop_
_atom_site_type_symbol
_atom_site_label
_atom_site_fract_x
_atom_site_fract_y
_atom_site_fract_z
Si Si1 0.625979 0.988296 0.376606
Si Si2 0.015330 0.789473 0.126499
Si Si3 0.489266 0.578150 0.752668
Si Si4 0.223795 0.134142 0.622750
Si Si5 0.281438 0.391054 0.627701
Si Si6 0.230391 0.262750 0.240238
O O1 0.612144 0.013751 0.500000
O O2 0.726952 0.038226 0.328557
O O3 0.500000 0.000000 0.313105
O O4 0.653008 0.908823 0.372948
O O5 0.008188 0.870494 0.146315
O O6 0.146208 0.761569 0.167978
O O7 0.896430 0.752386 0.177802
O O8 0.009790 0.774438 0.000000
O O9 0.500000 0.500000 0.790710
O O10 0.359446 0.589816 0.700926
O O11 0.577944 0.601853 0.656351
O O12 0.172557 0.138458 0.500000
O O13 0.250460 0.208000 0.665948
O O14 0.268243 0.375751 0.500000
O O15 0.215625 0.333220 0.697546
#
# Coordination Sequence:
#
# PCOD8225019 Si02
#       6
#     8   8   8   8   8   8
#     4   9  18  29  45  69 102 146 177 199 241 297
#     4  10  22  40  59  77 101 136 182 237 282 312
#     4  10  19  33  54  81 106 138 179 216 264 320
#     4  10  19  32  51  78 113 144 172 208 253 316
#     4  10  19  32  51  78 113 144 172 208 253 316
#     4  10  22  36  56  82 104 138 180 220 268 322
#
# _framework density 17.86777
#
# number of rings (size 3 to 8) (size 9 to 14) (size 15 to 20)
#    0.000    2.167    1.667    1.500    2.333    1.000 
#    0.000    1.667    0.000    0.000    0.000    1.167 
#    0.000    0.000    0.000    0.000    0.000    0.000 
#
# Total GULP energy -594649.813248 kJ/mol
# GULP energy per Si atom -12388.537776 kJ/mol
# Density = 1.782710 g / cm^3
# Si number density = 17.867770 Si / 1000 Ang^3
#
#
#
# Elastic Constant Matrix: (Units=GPa)
#
#
# Indices 1 2 3 4 5 6 
#
# 1 83.1602 11.3623 19.2280 0.0000 0.0000 0.0000
# 2 11.3623 91.3495 17.1339 0.0000 0.0000 0.0000
# 3 19.2280 17.1339 61.0123 0.0000 0.0000 0.0000
# 4 0.0000 0.0000 0.0000 15.3363 0.0000 0.0000
# 5 0.0000 0.0000 0.0000 0.0000 15.9486 0.0000
# 6 0.0000 0.0000 0.0000 0.0000 0.0000 25.7417
#
#
#
# Elastic Compliance Matrix: (Units=1/GPa)
#
#
# Indices 1 2 3 4 5 6 
#
# 1 0.013040 -0.000898 -0.003857 0.000000 0.000000 0.000000
# 2 -0.000898 0.011618 -0.002979 0.000000 0.000000 0.000000
# 3 -0.003857 -0.002979 0.018442 0.000000 0.000000 0.000000
# 4 0.000000 0.000000 0.000000 0.065205 0.000000 0.000000
# 5 0.000000 0.000000 0.000000 0.000000 0.062702 0.000000
# 6 0.000000 0.000000 0.000000 0.000000 0.000000 0.038848
#
#
# Mechanical properties :
#
#
# Convention : Reuss Voigt Hill
#
# Bulk Modulus (GPa) = 36.19301 36.77449 36.48375
# Shear Modulus (GPa) = 21.31895 23.92516 22.62206
#
# Velocity S-wave (km/s) = 3.45795 3.66322 3.56206
# Velocity P-wave (km/s) = 6.02023 6.20632 6.11399
#
# Compressibility (1/GPa) = 0.02762965
#
# Stress axis : x y z
#
# Youngs Moduli (GPa) = 76.68969 86.07673 54.22289
#
# Poissons Ratio (x) = 0.07734 0.20914
# Poissons Ratio (y) = 0.06890 0.16155
# Poissons Ratio (z) = 0.29580 0.25645
#
# Static dielectric constant tensor:
#      x y z
#    x 3.499040 0.000000 0.000000 
#    y 0.000000 3.433850 0.000000 
#    z 0.000000 0.000000 2.989620 
# 
# 
# High freq. dielectric constant tensor:
#      x y z
#    x 1.702960 0.000000 0.000000 
#    y 0.000000 1.701640 0.000000 
#    z 0.000000 0.000000 1.657660 
# 
# From -- ./inp_files/13191.got.cif
#   From: 2010.03.12/outbox.cif.g09.slc.cpg/sg55_7_cif.got.tgz:13191.got - 2010.04.16 15:19:21.
