data_PCOD8225844
_publ_section_title
;
Structure prediction by ZEFSAII (Michael W. Deem and Ramdas Pophale) SiO2 
 PCOD8225844
Probable space group: P B A M
;
_chemical_formula_sum "Si O2"
_cell_formula_units_Z 64
_cell_length_a 28.160808
_cell_length_b 10.064177
_cell_length_c 14.078184
_cell_angle_alpha 90.000000
_cell_angle_beta 90.000000
_cell_angle_gamma 90.000000
_cell_volume 3989.973533
_symmetry_space_group_name_H-M "P B A M"
_symmetry_group_IT_number 55
_symmetry_cell_setting 'orthorhombic'
loop_
_space_group_symop_operation_xyz
x,y,z
-x,-y,z
1/2+x,1/2-y,-z
1/2-x,1/2+y,-z
-x,-y,-z
x,y,-z
1/2-x,1/2+y,z
1/2+x,1/2-y,z
loop_
_atom_site_type_symbol
_atom_site_label
_atom_site_fract_x
_atom_site_fract_y
_atom_site_fract_z
Si Si1 0.550155 0.150919 0.611811
Si Si2 0.148544 0.700493 0.701388
Si Si3 0.195429 0.654955 0.894030
Si Si4 0.445705 0.151470 0.387742
Si Si5 0.794312 0.528968 0.389311
Si Si6 0.227747 0.940515 0.104824
Si Si7 0.355468 0.719579 0.611940
Si Si8 0.193053 0.976006 0.298731
O O1 0.555964 0.145755 0.500000
O O2 0.498096 0.210138 0.637389
O O3 0.593012 0.238912 0.654190
O O4 0.555232 0.000548 0.647268
O O5 0.154808 0.668374 0.813728
O O6 0.093461 0.727159 0.675669
O O7 0.166659 0.580520 0.636274
O O8 0.177604 0.829817 0.669503
O O9 0.222088 0.514575 0.878718
O O10 0.232611 0.779543 0.884940
O O11 0.172300 0.657560 0.000000
O O12 0.434940 0.166887 0.500000
O O13 0.782362 0.520420 0.500000
O O14 0.815520 0.672169 0.361683
O O15 0.746749 0.499391 0.331735
O O16 0.190828 0.990993 0.184278
O O17 0.208041 0.977476 0.000000
O O18 0.357971 0.699593 0.500000
O O19 0.342997 0.580697 0.658655
#
# Coordination Sequence:
#
# PCOD8225844 Si02
#       8
#     8   8   8   8   8   8   8   8
#     4   8  15  30  50  69  89 119 161 203 235 268
#     4  11  20  31  48  71  94 121 161 195 233 282
#     4   9  18  32  49  68  92 121 157 198 238 277
#     4   9  16  29  50  72  91 117 159 202 235 274
#     4  11  21  32  45  64  95 134 166 187 214 271
#     4   9  18  32  48  66  89 122 160 198 233 269
#     4  10  20  33  47  67  97 130 161 193 230 272
#     4  11  22  31  44  68 100 130 153 190 235 282
#
# _framework density 16.040206000000001
#
# number of rings (size 3 to 8) (size 9 to 14) (size 15 to 20)
#    0.000    2.250    2.500    2.250    1.750    3.000 
#    0.000    0.625    0.000    2.250    0.000    2.625 
#    0.000    4.000    0.000    0.000    0.000    0.000 
#
# Total GULP energy -793202.264035 kJ/mol
# GULP energy per Si atom -12393.785376 kJ/mol
# Density = 1.600370 g / cm^3
# Si number density = 16.040206 Si / 1000 Ang^3
#
#
#
# Elastic Constant Matrix: (Units=GPa)
#
#
# Indices 1 2 3 4 5 6 
#
# 1 86.5352 11.4820 39.2785 0.0000 0.0000 0.0000
# 2 11.4820 45.4664 29.8070 0.0000 0.0000 0.0000
# 3 39.2785 29.8070 63.6218 0.0000 0.0000 0.0000
# 4 0.0000 0.0000 0.0000 20.0253 0.0000 0.0000
# 5 0.0000 0.0000 0.0000 0.0000 12.4355 0.0000
# 6 0.0000 0.0000 0.0000 0.0000 0.0000 12.9968
#
#
#
# Elastic Compliance Matrix: (Units=1/GPa)
#
#
# Indices 1 2 3 4 5 6 
#
# 1 0.016457 0.003615 -0.011854 0.000000 0.000000 0.000000
# 2 0.003615 0.032538 -0.017476 0.000000 0.000000 0.000000
# 3 -0.011854 -0.017476 0.031224 0.000000 0.000000 0.000000
# 4 0.000000 0.000000 0.000000 0.049937 0.000000 0.000000
# 5 0.000000 0.000000 0.000000 0.000000 0.080415 0.000000
# 6 0.000000 0.000000 0.000000 0.000000 0.000000 0.076942
#
#
# Mechanical properties :
#
#
# Convention : Reuss Voigt Hill
#
# Bulk Modulus (GPa) = 34.73513 39.63981 37.18747
# Shear Modulus (GPa) = 14.34561 16.76192 15.55376
#
# Velocity S-wave (km/s) = 2.99382 3.23614 3.11734
# Velocity P-wave (km/s) = 5.80109 6.22334 6.01592
#
# Compressibility (1/GPa) = 0.02878929
#
# Stress axis : x y z
#
# Youngs Moduli (GPa) = 60.76544 30.73292 32.02692
#
# Poissons Ratio (x) = -0.11110 0.37964
# Poissons Ratio (y) = -0.21967 0.55971
# Poissons Ratio (z) = 0.72029 0.53710
#
# Static dielectric constant tensor:
#      x y z
#    x 3.071760 0.000000 0.000000 
#    y 0.000000 3.080880 0.000000 
#    z 0.000000 0.000000 3.036020 
# 
# 
# High freq. dielectric constant tensor:
#      x y z
#    x 1.594420 0.000000 0.000000 
#    y 0.000000 1.614510 0.000000 
#    z 0.000000 0.000000 1.602030 
# 
# From -- ./inp_files/20199.got.cif
#   From: 2010.03.12/outbox.cif.g09.slc.cpg/sg55_11_cif.got.tgz:20199.got - 2010.04.16 15:19:21.
