data_PCOD8225714
_publ_section_title
;
Structure prediction by ZEFSAII (Michael W. Deem and Ramdas Pophale) SiO2 
 PCOD8225714
Probable space group: P B A M
;
_chemical_formula_sum "Si O2"
_cell_formula_units_Z 64
_cell_length_a 14.391011
_cell_length_b 24.193396
_cell_length_c 8.883901
_cell_angle_alpha 90.000000
_cell_angle_beta 90.000000
_cell_angle_gamma 90.000000
_cell_volume 3093.084961
_symmetry_space_group_name_H-M "P B A M"
_symmetry_group_IT_number 55
_symmetry_cell_setting 'orthorhombic'
loop_
_space_group_symop_operation_xyz
x,y,z
-x,-y,z
1/2+x,1/2-y,-z
1/2-x,1/2+y,-z
-x,-y,-z
x,y,-z
1/2-x,1/2+y,z
1/2+x,1/2-y,z
loop_
_atom_site_type_symbol
_atom_site_label
_atom_site_fract_x
_atom_site_fract_y
_atom_site_fract_z
Si Si1 0.200338 0.197665 0.174886
Si Si2 0.474052 0.939053 0.179908
Si Si3 0.215134 0.014050 0.167027
Si Si4 0.844205 0.389007 0.831395
Si Si5 0.816213 0.192063 0.825956
Si Si6 0.279918 0.910792 0.323512
Si Si7 0.495797 0.677190 0.325155
Si Si8 0.051572 0.055672 0.328227
O O1 0.271848 0.152574 0.249742
O O2 0.248791 0.256335 0.195517
O O3 0.103200 0.197688 0.263142
O O4 0.179530 0.184254 0.000000
O O5 0.552141 0.894501 0.237610
O O6 0.377712 0.916835 0.241611
O O7 0.500000 0.000000 0.241628
O O8 0.469360 0.939671 0.000000
O O9 0.215925 0.963206 0.282353
O O10 0.311531 0.047049 0.166620
O O11 0.140222 0.059428 0.219814
O O12 0.192631 0.991693 0.000000
O O13 0.852315 0.365238 0.000000
O O14 0.772320 0.143506 0.728926
O O15 0.919539 0.206011 0.763891
O O16 0.823865 0.174818 0.000000
O O17 0.295535 0.908395 0.500000
O O18 0.501728 0.693517 0.500000
O O19 0.508475 0.610895 0.303148
O O20 0.085014 0.051524 0.500000
O O21 0.000000 0.000000 0.278246
#
# Coordination Sequence:
#
# PCOD8225714 Si02
#       8
#     8   8   8   8   8   8   8   8
#     4  10  22  43  68  93 122 163 215 266 307 361
#     4  10  19  36  61  90 126 167 208 251 308 377
#     4  11  20  35  61  89 119 159 205 253 307 371
#     4   9  18  35  61  90 120 155 202 257 306 359
#     4  11  25  44  67  92 122 167 222 268 310 363
#     4  12  25  40  59  89 131 168 207 262 324 384
#     4  11  23  40  65  96 132 168 201 253 321 380
#     4  10  21  36  55  86 127 167 201 245 310 375
#
# _framework density 20.691317000000002
#
# number of rings (size 3 to 8) (size 9 to 14) (size 15 to 20)
#    0.000    1.500    2.500    3.000    0.000    4.000 
#    0.000    3.125    0.000    0.000    0.000    0.000 
#    0.000    0.000    0.000    0.000    0.000    0.000 
#
# Total GULP energy -793463.859336 kJ/mol
# GULP energy per Si atom -12397.872802 kJ/mol
# Density = 2.064422 g / cm^3
# Si number density = 20.691317 Si / 1000 Ang^3
#
#
#
# Elastic Constant Matrix: (Units=GPa)
#
#
# Indices 1 2 3 4 5 6 
#
# 1 110.5417 16.3429 28.2857 0.0000 0.0000 0.0000
# 2 16.3429 58.1664 9.5842 0.0000 0.0000 0.0000
# 3 28.2857 9.5842 53.8870 0.0000 0.0000 0.0000
# 4 0.0000 0.0000 0.0000 19.2814 0.0000 0.0000
# 5 0.0000 0.0000 0.0000 0.0000 19.5828 0.0000
# 6 0.0000 0.0000 0.0000 0.0000 0.0000 30.6295
#
#
#
# Elastic Compliance Matrix: (Units=1/GPa)
#
#
# Indices 1 2 3 4 5 6 
#
# 1 0.010703 -0.002144 -0.005237 0.000000 0.000000 0.000000
# 2 -0.002144 0.018141 -0.002101 0.000000 0.000000 0.000000
# 3 -0.005237 -0.002101 0.021680 0.000000 0.000000 0.000000
# 4 0.000000 0.000000 0.000000 0.051863 0.000000 0.000000
# 5 0.000000 0.000000 0.000000 0.000000 0.051065 0.000000
# 6 0.000000 0.000000 0.000000 0.000000 0.000000 0.032648
#
#
# Mechanical properties :
#
#
# Convention : Reuss Voigt Hill
#
# Bulk Modulus (GPa) = 31.68596 36.78007 34.23302
# Shear Modulus (GPa) = 23.19270 25.12423 24.15847
#
# Velocity S-wave (km/s) = 3.35160 3.48838 3.42067
# Velocity P-wave (km/s) = 5.50677 5.83431 5.67291
#
# Compressibility (1/GPa) = 0.03155972
#
# Stress axis : x y z
#
# Youngs Moduli (GPa) = 93.42790 55.12453 46.12568
#
# Poissons Ratio (x) = 0.11821 0.24156
# Poissons Ratio (y) = 0.20035 0.09690
# Poissons Ratio (z) = 0.48927 0.11581
#
# Static dielectric constant tensor:
#      x y z
#    x 3.886610 0.000000 0.000000 
#    y 0.000000 3.690410 0.000000 
#    z 0.000000 0.000000 3.562220 
# 
# 
# High freq. dielectric constant tensor:
#      x y z
#    x 1.825390 0.000000 0.000000 
#    y 0.000000 1.802950 0.000000 
#    z 0.000000 0.000000 1.791370 
# 
# From -- ./inp_files/6701.got.cif
#   From: 2010.03.12/outbox.cif.g09.slc.cpg/sg55_4_cif.got.tgz:6701.got - 2010.04.16 15:19:21.
