data_PCOD8225248
_publ_section_title
;
Structure prediction by ZEFSAII (Michael W. Deem and Ramdas Pophale) SiO2 
 PCOD8225248
Probable space group: P B A M
;
_chemical_formula_sum "Si O2"
_cell_formula_units_Z 56
_cell_length_a 16.527476
_cell_length_b 19.933875
_cell_length_c 9.134075
_cell_angle_alpha 90.000000
_cell_angle_beta 90.000000
_cell_angle_gamma 90.000000
_cell_volume 3009.281665
_symmetry_space_group_name_H-M "P B A M"
_symmetry_group_IT_number 55
_symmetry_cell_setting 'orthorhombic'
loop_
_space_group_symop_operation_xyz
x,y,z
-x,-y,z
1/2+x,1/2-y,-z
1/2-x,1/2+y,-z
-x,-y,-z
x,y,-z
1/2-x,1/2+y,z
1/2+x,1/2-y,z
loop_
_atom_site_type_symbol
_atom_site_label
_atom_site_fract_x
_atom_site_fract_y
_atom_site_fract_z
Si Si1 0.430750 0.692134 0.329082
Si Si2 0.933990 0.944697 0.172503
Si Si3 0.745545 0.254748 0.329064
Si Si4 0.244184 0.016053 0.173562
Si Si5 0.476983 0.819922 0.832859
Si Si6 0.694679 0.126007 0.172062
Si Si7 0.847322 0.359499 0.830753
O O1 0.448139 0.685815 0.500000
O O2 0.458454 0.623965 0.251577
O O3 0.336775 0.705370 0.293938
O O4 0.482944 0.753849 0.267045
O O5 0.846578 0.969758 0.229478
O O6 0.932633 0.931131 0.000000
O O7 0.000000 0.000000 0.215683
O O8 0.759056 0.244597 0.500000
O O9 0.746219 0.182363 0.253859
O O10 0.819131 0.295950 0.261955
O O11 0.275624 0.945204 0.235434
O O12 0.304871 0.073569 0.231322
O O13 0.246518 0.013617 0.000000
O O14 0.400301 0.865819 0.790483
O O15 0.556178 0.865806 0.810309
O O16 0.469532 0.795072 0.000000
O O17 0.711497 0.132519 0.000000
O O18 0.823496 0.348065 0.000000
#
# Coordination Sequence:
#
# PCOD8225248 Si02
#       7
#     8   8   8   8   8   8   8
#     4  10  20  35  54  75 104 140 178 220 266 316
#     4  10  20  34  54  79 108 141 177 220 270 323
#     4  10  20  34  53  77 104 141 184 223 265 317
#     4   9  18  33  54  79 107 140 177 219 269 321
#     4   9  19  33  53  80 105 136 178 223 268 316
#     4   9  18  34  54  77 108 142 177 221 271 321
#     4  10  19  33  55  80 105 138 180 222 269 324
#
# _framework density 18.609090999999999
#
# number of rings (size 3 to 8) (size 9 to 14) (size 15 to 20)
#    0.000    2.429    1.429    0.857    0.000    3.714 
#    0.000    7.143    0.000    0.000    0.000    5.000 
#    0.000    0.000    0.000    0.000    0.000    0.000 
#
# Total GULP energy -694535.550774 kJ/mol
# GULP energy per Si atom -12402.420550 kJ/mol
# Density = 1.856674 g / cm^3
# Si number density = 18.609091 Si / 1000 Ang^3
#
#
#
# Elastic Constant Matrix: (Units=GPa)
#
#
# Indices 1 2 3 4 5 6 
#
# 1 84.2629 63.7237 24.0807 0.0000 0.0000 0.0000
# 2 63.7237 149.7220 42.2689 0.0000 0.0000 0.0000
# 3 24.0807 42.2689 49.9662 0.0000 0.0000 0.0000
# 4 0.0000 0.0000 0.0000 7.1088 0.0000 0.0000
# 5 0.0000 0.0000 0.0000 0.0000 17.2266 0.0000
# 6 0.0000 0.0000 0.0000 0.0000 0.0000 29.8339
#
#
#
# Elastic Compliance Matrix: (Units=1/GPa)
#
#
# Indices 1 2 3 4 5 6 
#
# 1 0.017804 -0.006773 -0.002851 0.000000 0.000000 0.000000
# 2 -0.006773 0.011351 -0.006338 0.000000 0.000000 0.000000
# 3 -0.002851 -0.006338 0.026750 0.000000 0.000000 0.000000
# 4 0.000000 0.000000 0.000000 0.140671 0.000000 0.000000
# 5 0.000000 0.000000 0.000000 0.000000 0.058050 0.000000
# 6 0.000000 0.000000 0.000000 0.000000 0.000000 0.033519
#
#
# Mechanical properties :
#
#
# Convention : Reuss Voigt Hill
#
# Bulk Modulus (GPa) = 41.70086 60.45531 51.07808
# Shear Modulus (GPa) = 15.24100 21.09240 18.16670
#
# Velocity S-wave (km/s) = 2.86494 3.37032 3.12785
# Velocity P-wave (km/s) = 5.77939 6.90673 6.36805
#
# Compressibility (1/GPa) = 0.02398032
#
# Stress axis : x y z
#
# Youngs Moduli (GPa) = 56.16589 88.09730 37.38387
#
# Poissons Ratio (x) = 0.59667 0.10659
# Poissons Ratio (y) = 0.38040 0.23695
# Poissons Ratio (z) = 0.16014 0.55839
#
# Static dielectric constant tensor:
#      x y z
#    x 3.417540 0.000000 0.000000 
#    y 0.000000 3.468470 0.000000 
#    z 0.000000 0.000000 3.181620 
# 
# 
# High freq. dielectric constant tensor:
#      x y z
#    x 1.720420 0.000000 0.000000 
#    y 0.000000 1.724020 0.000000 
#    z 0.000000 0.000000 1.700620 
# 
# From -- ./inp_files/6027.got.cif
#   From: 2010.03.12/outbox.cif.g09.slc.cpg/sg55_4_cif.got.tgz:6027.got - 2010.04.16 15:19:21.
