data_PCOD8225796
_publ_section_title
;
Structure prediction by ZEFSAII (Michael W. Deem and Ramdas Pophale) SiO2 
 PCOD8225796
Probable space group: P B A M
;
_chemical_formula_sum "Si O2"
_cell_formula_units_Z 56
_cell_length_a 19.941494
_cell_length_b 9.215291
_cell_length_c 15.018171
_cell_angle_alpha 90.000000
_cell_angle_beta 90.000000
_cell_angle_gamma 90.000000
_cell_volume 2759.839277
_symmetry_space_group_name_H-M "P B A M"
_symmetry_group_IT_number 55
_symmetry_cell_setting 'orthorhombic'
loop_
_space_group_symop_operation_xyz
x,y,z
-x,-y,z
1/2+x,1/2-y,-z
1/2-x,1/2+y,-z
-x,-y,-z
x,y,-z
1/2-x,1/2+y,z
1/2+x,1/2-y,z
loop_
_atom_site_type_symbol
_atom_site_label
_atom_site_fract_x
_atom_site_fract_y
_atom_site_fract_z
Si Si1 0.515584 0.842052 0.865340
Si Si2 0.810814 0.164551 0.283375
Si Si3 0.435422 0.152916 0.333332
Si Si4 0.924046 0.663336 0.600970
Si Si5 0.884172 0.837931 0.900220
Si Si6 0.861010 0.165188 0.904838
Si Si7 0.178705 0.174530 0.282525
O O1 0.528589 0.853313 0.761158
O O2 0.455024 0.735627 0.885617
O O3 0.581180 0.784018 0.913941
O O4 0.500000 0.000000 0.905211
O O5 0.874882 0.231544 0.334946
O O6 0.813179 0.201933 0.177819
O O7 0.742696 0.236798 0.318506
O O8 0.808056 0.994201 0.300472
O O9 0.495880 0.196960 0.399693
O O10 0.406995 0.995527 0.359620
O O11 0.897960 0.672898 0.500000
O O12 0.885946 0.781523 0.660449
O O13 0.832854 0.788748 0.822403
O O14 0.895738 0.009663 0.889031
O O15 0.856284 0.801199 0.000000
O O16 0.821356 0.167086 0.000000
#
# Coordination Sequence:
#
# PCOD8225796 Si02
#       7
#     8   8   8   8   8   8   8
#     4  11  18  30  52  85 120 154 190 247 291 345
#     4  10  23  38  65  83 124 163 200 250 303 351
#     4  10  19  39  62  93 120 155 193 241 299 359
#     4  11  22  41  68  93 121 154 194 247 308 365
#     4  10  20  35  55  80 118 163 202 244 292 350
#     4   9  20  35  52  80 117 161 207 243 291 351
#     4  11  22  42  59  91 119 161 204 248 299 359
#
# _framework density 20.291036999999999
#
# number of rings (size 3 to 8) (size 9 to 14) (size 15 to 20)
#    0.000    1.714    2.857    2.571    0.000    4.571 
#    0.000    5.714    0.000    0.000    0.000    0.000 
#    0.000    0.000    0.000    0.000    0.000    0.000 
#
# Total GULP energy -694225.681783 kJ/mol
# GULP energy per Si atom -12396.887175 kJ/mol
# Density = 2.024485 g / cm^3
# Si number density = 20.291037 Si / 1000 Ang^3
#
#
#
# Elastic Constant Matrix: (Units=GPa)
#
#
# Indices 1 2 3 4 5 6 
#
# 1 80.0543 39.7279 15.8754 0.0000 0.0000 0.0000
# 2 39.7279 81.3605 32.9917 0.0000 0.0000 0.0000
# 3 15.8754 32.9917 97.3922 0.0000 0.0000 0.0000
# 4 0.0000 0.0000 0.0000 26.7826 0.0000 0.0000
# 5 0.0000 0.0000 0.0000 0.0000 -16.3262 0.0000
# 6 0.0000 0.0000 0.0000 0.0000 0.0000 34.8317
#
#
#
# Elastic Compliance Matrix: (Units=1/GPa)
#
#
# Indices 1 2 3 4 5 6 
#
# 1 0.016487 -0.008069 0.000046 0.000000 0.000000 0.000000
# 2 -0.008069 0.018197 -0.004849 0.000000 0.000000 0.000000
# 3 0.000046 -0.004849 0.011903 0.000000 0.000000 0.000000
# 4 0.000000 0.000000 0.000000 0.037338 0.000000 0.000000
# 5 0.000000 0.000000 0.000000 0.000000 -0.061251 0.000000
# 6 0.000000 0.000000 0.000000 0.000000 0.000000 0.028710
#
#
# Mechanical properties :
#
#
# Convention : Reuss Voigt Hill
#
# Bulk Modulus (GPa) = 47.97839 48.44412 48.21125
# Shear Modulus (GPa) = 59.47073 20.40507 39.93790
#
# Velocity S-wave (km/s) = 5.41964 3.17459 4.44131
# Velocity P-wave (km/s) = 7.92842 6.11260 7.07897
#
# Compressibility (1/GPa) = 0.02084272
#
# Stress axis : x y z
#
# Youngs Moduli (GPa) = 60.65467 54.95303 84.01318
#
# Poissons Ratio (x) = 0.44342 -0.00386
# Poissons Ratio (y) = 0.48943 0.40739
# Poissons Ratio (z) = -0.00279 0.26647
#
# Static dielectric constant tensor:
#      x y z
#    x 3.436950 0.000000 0.000000 
#    y 0.000000 3.699610 0.000000 
#    z 0.000000 0.000000 3.743140 
# 
# 
# High freq. dielectric constant tensor:
#      x y z
#    x 1.775710 0.000000 0.000000 
#    y 0.000000 1.793670 0.000000 
#    z 0.000000 0.000000 1.790270 
# 
# From -- ./inp_files/19749.got.cif
#   From: 2010.03.12/outbox.cif.g09.slc.cpg/sg55_10_cif.got.tgz:19749.got - 2010.04.16 15:19:21.
