data_PCOD8225250
_publ_section_title
;
Structure prediction by ZEFSAII (Michael W. Deem and Ramdas Pophale) SiO2 
 PCOD8225250
Probable space group: P B A M
;
_chemical_formula_sum "Si O2"
_cell_formula_units_Z 56
_cell_length_a 12.406553
_cell_length_b 15.544903
_cell_length_c 14.063647
_cell_angle_alpha 90.000000
_cell_angle_beta 90.000000
_cell_angle_gamma 90.000000
_cell_volume 2712.296157
_symmetry_space_group_name_H-M "P B A M"
_symmetry_group_IT_number 55
_symmetry_cell_setting 'orthorhombic'
loop_
_space_group_symop_operation_xyz
x,y,z
-x,-y,z
1/2+x,1/2-y,-z
1/2-x,1/2+y,-z
-x,-y,-z
x,y,-z
1/2-x,1/2+y,z
1/2+x,1/2-y,z
loop_
_atom_site_type_symbol
_atom_site_label
_atom_site_fract_x
_atom_site_fract_y
_atom_site_fract_z
Si Si1 0.731483 0.603143 0.893186
Si Si2 0.751581 0.834453 0.286502
Si Si3 0.395271 0.819799 0.234742
Si Si4 0.040534 0.721476 0.388860
Si Si5 0.451288 0.591927 0.611935
Si Si6 0.481926 0.302317 0.109827
Si Si7 0.192046 0.091229 0.105113
O O1 0.835012 0.603765 0.822161
O O2 0.635609 0.665400 0.857951
O O3 0.679610 0.510123 0.895668
O O4 0.769381 0.629776 0.000000
O O5 0.800022 0.744964 0.255307
O O6 0.655076 0.814628 0.357502
O O7 0.834839 0.896970 0.340709
O O8 0.721152 0.880226 0.185561
O O9 0.451435 0.839696 0.336220
O O10 0.491963 0.782489 0.170102
O O11 0.024894 0.707066 0.500000
O O12 0.024512 0.823400 0.361736
O O13 0.500000 0.500000 0.647584
O O14 0.434600 0.588111 0.500000
O O15 0.573906 0.372967 0.132428
O O16 0.482472 0.277683 0.000000
O O17 0.228585 0.124536 0.000000
#
# Coordination Sequence:
#
# PCOD8225250 Si02
#       7
#     8   8   8   8   8   8   8
#     4  10  19  33  55  80 108 143 183 229 279 329
#     4  10  20  34  57  81 110 149 186 227 279 338
#     4  10  20  33  51  79 109 142 183 224 274 333
#     4  10  21  38  58  80 109 145 185 229 282 341
#     4   9  19  36  60  90 117 141 182 242 295 335
#     4   9  17  31  52  80 113 143 175 220 274 334
#     4   9  19  34  53  80 110 141 181 229 278 328
#
# _framework density 20.646712999999998
#
# number of rings (size 3 to 8) (size 9 to 14) (size 15 to 20)
#    0.000    2.429    0.000    2.143    0.000    7.429 
#    0.000    2.143    0.000    5.143    0.000    0.000 
#    0.000    0.000    0.000    0.000    0.000    0.000 
#
# Total GULP energy -693848.068748 kJ/mol
# GULP energy per Si atom -12390.144085 kJ/mol
# Density = 2.059972 g / cm^3
# Si number density = 20.646713 Si / 1000 Ang^3
#
#
#
# Elastic Constant Matrix: (Units=GPa)
#
#
# Indices 1 2 3 4 5 6 
#
# 1 89.6920 41.9114 68.7328 0.0000 0.0000 0.0000
# 2 41.9114 43.4766 36.4287 0.0000 0.0000 0.0000
# 3 68.7328 36.4287 110.8157 0.0000 0.0000 0.0000
# 4 0.0000 0.0000 0.0000 27.9452 0.0000 0.0000
# 5 0.0000 0.0000 0.0000 0.0000 36.4227 0.0000
# 6 0.0000 0.0000 0.0000 0.0000 0.0000 21.8720
#
#
#
# Elastic Compliance Matrix: (Units=1/GPa)
#
#
# Indices 1 2 3 4 5 6 
#
# 1 0.028396 -0.017413 -0.011889 0.000000 0.000000 0.000000
# 2 -0.017413 0.042422 -0.003145 0.000000 0.000000 0.000000
# 3 -0.011889 -0.003145 0.017432 0.000000 0.000000 0.000000
# 4 0.000000 0.000000 0.000000 0.035784 0.000000 0.000000
# 5 0.000000 0.000000 0.000000 0.000000 0.027455 0.000000
# 6 0.000000 0.000000 0.000000 0.000000 0.000000 0.045720
#
#
# Mechanical properties :
#
#
# Convention : Reuss Voigt Hill
#
# Bulk Modulus (GPa) = 42.81375 59.79225 51.30300
# Shear Modulus (GPa) = 18.52611 23.70877 21.11744
#
# Velocity S-wave (km/s) = 2.99873 3.39234 3.20159
# Velocity P-wave (km/s) = 5.72462 6.66082 6.21039
#
# Compressibility (1/GPa) = 0.02335698
#
# Stress axis : x y z
#
# Youngs Moduli (GPa) = 35.21587 23.57256 57.36649
#
# Poissons Ratio (x) = 0.41046 0.68200
# Poissons Ratio (y) = 0.61320 0.18044
# Poissons Ratio (z) = 0.41866 0.07415
#
# Static dielectric constant tensor:
#      x y z
#    x 3.573800 0.000000 0.000000 
#    y 0.000000 3.538600 0.000000 
#    z 0.000000 0.000000 4.163840 
# 
# 
# High freq. dielectric constant tensor:
#      x y z
#    x 1.791020 0.000000 0.000000 
#    y 0.000000 1.774760 0.000000 
#    z 0.000000 0.000000 1.829720 
# 
# From -- ./inp_files/18350.got.cif
#   From: 2010.03.12/outbox.cif.g09.slc.cpg/sg55_10_cif.got.tgz:18350.got - 2010.04.16 15:19:21.
