data_PCOD8225509
_publ_section_title
;
Structure prediction by ZEFSAII (Michael W. Deem and Ramdas Pophale) SiO2 
 PCOD8225509
Probable space group: P B A M
;
_chemical_formula_sum "Si O2"
_cell_formula_units_Z 56
_cell_length_a 19.948871
_cell_length_b 16.385310
_cell_length_c 8.680212
_cell_angle_alpha 90.000000
_cell_angle_beta 90.000000
_cell_angle_gamma 90.000000
_cell_volume 2837.287316
_symmetry_space_group_name_H-M "P B A M"
_symmetry_group_IT_number 55
_symmetry_cell_setting 'orthorhombic'
loop_
_space_group_symop_operation_xyz
x,y,z
-x,-y,z
1/2+x,1/2-y,-z
1/2-x,1/2+y,-z
-x,-y,-z
x,y,-z
1/2-x,1/2+y,z
1/2+x,1/2-y,z
loop_
_atom_site_type_symbol
_atom_site_label
_atom_site_fract_x
_atom_site_fract_y
_atom_site_fract_z
Si Si1 0.167204 0.532001 0.321099
Si Si2 0.193854 0.990456 0.181315
Si Si3 0.879102 0.307520 0.181487
Si Si4 0.446202 0.564233 0.816788
Si Si5 0.520851 0.257561 0.181026
Si Si6 0.866697 0.651103 0.676496
Si Si7 0.715753 0.678736 0.319937
O O1 0.163996 0.555211 0.500000
O O2 0.244585 0.530519 0.271289
O O3 0.125898 0.597264 0.222241
O O4 0.132848 0.445180 0.288448
O O5 0.183970 0.895727 0.224309
O O6 0.127919 0.038605 0.235676
O O7 0.206360 0.998467 0.000000
O O8 0.819453 0.261774 0.269502
O O9 0.949726 0.273785 0.245296
O O10 0.871302 0.294459 0.000000
O O11 0.500000 0.500000 0.749492
O O12 0.462398 0.653683 0.747572
O O13 0.450804 0.565173 0.000000
O O14 0.578253 0.193003 0.218369
O O15 0.515701 0.265510 0.000000
O O16 0.884898 0.668449 0.500000
O O17 0.794264 0.688052 0.718659
O O18 0.705790 0.660516 0.500000
#
# Coordination Sequence:
#
# PCOD8225509 Si02
#       7
#     8   8   8   8   8   8   8
#     4  10  22  40  59  82 116 154 195 244 300 354
#     4  10  19  34  59  88 115 149 196 243 289 349
#     4  11  23  38  59  87 116 151 199 245 295 351
#     4   9  18  34  56  83 118 153 187 232 291 347
#     4  10  22  38  58  86 117 152 193 245 298 350
#     4   9  21  40  59  82 113 153 194 237 294 356
#     4  10  21  38  59  85 119 157 194 238 296 351
#
# _framework density 19.737162000000001
#
# number of rings (size 3 to 8) (size 9 to 14) (size 15 to 20)
#    0.000    2.143    0.000    3.429    2.000    7.429 
#    0.000    3.571    0.000    3.000    0.000    0.000 
#    0.000    0.000    0.000    0.000    0.000    0.000 
#
# Total GULP energy -694611.081410 kJ/mol
# GULP energy per Si atom -12403.769311 kJ/mol
# Density = 1.969224 g / cm^3
# Si number density = 19.737162 Si / 1000 Ang^3
#
#
#
# Elastic Constant Matrix: (Units=GPa)
#
#
# Indices 1 2 3 4 5 6 
#
# 1 102.1484 65.9984 23.8414 0.0000 0.0000 0.0000
# 2 65.9984 116.3058 14.6642 0.0000 0.0000 0.0000
# 3 23.8414 14.6642 31.9904 0.0000 0.0000 0.0000
# 4 0.0000 0.0000 0.0000 30.4378 0.0000 0.0000
# 5 0.0000 0.0000 0.0000 0.0000 16.6510 0.0000
# 6 0.0000 0.0000 0.0000 0.0000 0.0000 36.8805
#
#
#
# Elastic Compliance Matrix: (Units=1/GPa)
#
#
# Indices 1 2 3 4 5 6 
#
# 1 0.017635 -0.008862 -0.009080 0.000000 0.000000 0.000000
# 2 -0.008862 0.013579 0.000380 0.000000 0.000000 0.000000
# 3 -0.009080 0.000380 0.037852 0.000000 0.000000 0.000000
# 4 0.000000 0.000000 0.000000 0.032854 0.000000 0.000000
# 5 0.000000 0.000000 0.000000 0.000000 0.060056 0.000000
# 6 0.000000 0.000000 0.000000 0.000000 0.000000 0.027115
#
#
# Mechanical properties :
#
#
# Convention : Reuss Voigt Hill
#
# Bulk Modulus (GPa) = 29.46241 51.05028 40.25634
# Shear Modulus (GPa) = 21.22876 26.52323 23.87599
#
# Velocity S-wave (km/s) = 3.28315 3.66979 3.48184
# Velocity P-wave (km/s) = 5.41589 6.62403 6.05019
#
# Compressibility (1/GPa) = 0.03394156
#
# Stress axis : x y z
#
# Youngs Moduli (GPa) = 56.70585 73.64330 26.41842
#
# Poissons Ratio (x) = 0.65264 0.23989
# Poissons Ratio (y) = 0.50253 -0.01004
# Poissons Ratio (z) = 0.51491 -0.02799
#
# Static dielectric constant tensor:
#      x y z
#    x 3.629830 0.000000 0.000000 
#    y 0.000000 3.724260 0.000000 
#    z 0.000000 0.000000 3.373700 
# 
# 
# High freq. dielectric constant tensor:
#      x y z
#    x 1.773750 0.000000 0.000000 
#    y 0.000000 1.778120 0.000000 
#    z 0.000000 0.000000 1.755580 
# 
# From -- ./inp_files/5998.got.cif
#   From: 2010.03.12/outbox.cif.g09.slc.cpg/sg55_3_cif.got.tgz:5998.got - 2010.04.16 15:19:21.
