data_PCOD8225369
_publ_section_title
;
Structure prediction by ZEFSAII (Michael W. Deem and Ramdas Pophale) SiO2 
 PCOD8225369
Probable space group: P B A M
;
_chemical_formula_sum "Si O2"
_cell_formula_units_Z 48
_cell_length_a 29.503575
_cell_length_b 9.368023
_cell_length_c 9.218287
_cell_angle_alpha 90.000000
_cell_angle_beta 90.000000
_cell_angle_gamma 90.000000
_cell_volume 2547.843904
_symmetry_space_group_name_H-M "P B A M"
_symmetry_group_IT_number 55
_symmetry_cell_setting 'orthorhombic'
loop_
_space_group_symop_operation_xyz
x,y,z
-x,-y,z
1/2+x,1/2-y,-z
1/2-x,1/2+y,-z
-x,-y,-z
x,y,-z
1/2-x,1/2+y,z
1/2+x,1/2-y,z
loop_
_atom_site_type_symbol
_atom_site_label
_atom_site_fract_x
_atom_site_fract_y
_atom_site_fract_z
Si Si1 0.383600 0.309008 0.172314
Si Si2 0.788762 0.693770 0.826780
Si Si3 0.024742 0.851174 0.662971
Si Si4 0.467629 0.866422 0.161422
Si Si5 0.703226 0.516367 0.172298
Si Si6 0.373121 0.987609 0.172238
O O1 0.430144 0.360420 0.242136
O O2 0.344503 0.417834 0.223406
O O3 0.370482 0.150630 0.227771
O O4 0.390127 0.310704 0.000000
O O5 0.743385 0.617425 0.768133
O O6 0.831149 0.603182 0.765668
O O7 0.791345 0.855635 0.766147
O O8 0.789365 0.696209 0.000000
O O9 0.037459 0.803494 0.500000
O O10 0.988523 0.743320 0.727653
O O11 0.000000 0.000000 0.663546
O O12 0.419375 0.914804 0.226485
O O13 0.500000 0.000000 0.147947
O O14 0.461905 0.798432 0.000000
O O15 0.705721 0.513071 0.000000
O O16 0.371942 0.988840 0.000000
#
# Coordination Sequence:
#
# PCOD8225369 Si02
#       6
#     8   8   8   8   8   8
#     4  10  19  34  54  78 105 139 179 223 269 314
#     4   9  16  27  43  73 111 142 169 209 265 320
#     4  11  25  40  53  75 109 147 183 223 272 324
#     4  10  19  35  57  82 108 139 180 225 269 317
#     4   9  17  27  45  73 107 141 172 211 264 317
#     4   9  17  29  48  75 109 139 170 216 266 314
#
# _framework density 18.839459000000002
#
# number of rings (size 3 to 8) (size 9 to 14) (size 15 to 20)
#    0.000    2.333    1.667    1.500    2.333    5.667 
#    0.000    0.000    0.000    0.000    0.000    5.833 
#    0.000    0.000    0.000    0.000    0.000    0.000 
#
# Total GULP energy -595144.765517 kJ/mol
# GULP energy per Si atom -12398.849282 kJ/mol
# Density = 1.879658 g / cm^3
# Si number density = 18.839459 Si / 1000 Ang^3
#
#
#
# Elastic Constant Matrix: (Units=GPa)
#
#
# Indices 1 2 3 4 5 6 
#
# 1 137.5045 72.0734 26.4135 0.0000 0.0000 0.0000
# 2 72.0734 132.8355 29.7982 0.0000 0.0000 0.0000
# 3 26.4135 29.7982 36.7972 0.0000 0.0000 0.0000
# 4 0.0000 0.0000 0.0000 10.4878 0.0000 0.0000
# 5 0.0000 0.0000 0.0000 0.0000 6.6629 0.0000
# 6 0.0000 0.0000 0.0000 0.0000 0.0000 38.0726
#
#
#
# Elastic Compliance Matrix: (Units=1/GPa)
#
#
# Indices 1 2 3 4 5 6 
#
# 1 0.010536 -0.004912 -0.003585 0.000000 0.000000 0.000000
# 2 -0.004912 0.011490 -0.005778 0.000000 0.000000 0.000000
# 3 -0.003585 -0.005778 0.034428 0.000000 0.000000 0.000000
# 4 0.000000 0.000000 0.000000 0.095349 0.000000 0.000000
# 5 0.000000 0.000000 0.000000 0.000000 0.150086 0.000000
# 6 0.000000 0.000000 0.000000 0.000000 0.000000 0.026266
#
#
# Mechanical properties :
#
#
# Convention : Reuss Voigt Hill
#
# Bulk Modulus (GPa) = 35.83808 62.63415 49.23611
# Shear Modulus (GPa) = 13.66100 22.96812 18.31456
#
# Velocity S-wave (km/s) = 2.69574 3.49542 3.12130
# Velocity P-wave (km/s) = 5.36223 7.04337 6.25950
#
# Compressibility (1/GPa) = 0.02790328
#
# Stress axis : x y z
#
# Youngs Moduli (GPa) = 94.91310 87.03504 29.04595
#
# Poissons Ratio (x) = 0.42755 0.10412
# Poissons Ratio (y) = 0.46625 0.16783
# Poissons Ratio (z) = 0.34024 0.50289
#
# Static dielectric constant tensor:
#      x y z
#    x 3.685510 0.000000 0.000000 
#    y 0.000000 3.612180 0.000000 
#    z 0.000000 0.000000 2.987960 
# 
# 
# High freq. dielectric constant tensor:
#      x y z
#    x 1.750000 0.000000 0.000000 
#    y 0.000000 1.743980 0.000000 
#    z 0.000000 0.000000 1.663700 
# 
# From -- ./inp_files/2779.got.cif
#   From: 2010.03.12/outbox.cif.g09.slc.cpg/sg55_2_cif.got.tgz:2779.got - 2010.04.16 15:19:21.
