data_PCOD8225922
_publ_section_title
;
Structure prediction by ZEFSAII (Michael W. Deem and Ramdas Pophale) SiO2 
 PCOD8225922
Probable space group: P B A M
;
_chemical_formula_sum "Si O2"
_cell_formula_units_Z 52
_cell_length_a 20.178669
_cell_length_b 8.738422
_cell_length_c 14.634184
_cell_angle_alpha 90.000000
_cell_angle_beta 90.000000
_cell_angle_gamma 90.000000
_cell_volume 2580.441642
_symmetry_space_group_name_H-M "P B A M"
_symmetry_group_IT_number 55
_symmetry_cell_setting 'orthorhombic'
loop_
_space_group_symop_operation_xyz
x,y,z
-x,-y,z
1/2+x,1/2-y,-z
1/2-x,1/2+y,-z
-x,-y,-z
x,y,-z
1/2-x,1/2+y,z
1/2+x,1/2-y,z
loop_
_atom_site_type_symbol
_atom_site_label
_atom_site_fract_x
_atom_site_fract_y
_atom_site_fract_z
Si Si1 0.147840 0.031214 0.723532
Si Si2 0.888154 0.720169 0.597820
Si Si3 0.389664 0.190506 0.273177
Si Si4 0.693204 0.302245 0.101914
Si Si5 0.282878 0.025901 0.607397
Si Si6 0.000000 0.500000 0.353309
Si Si7 0.668015 0.953845 0.898582
O O1 0.099110 0.152972 0.674698
O O2 0.157253 0.088107 0.826676
O O3 0.109220 0.872873 0.730893
O O4 0.214852 0.020306 0.663908
O O5 0.886096 0.804104 0.500000
O O6 0.816768 0.640776 0.616131
O O7 0.944537 0.590186 0.589829
O O8 0.462610 0.132048 0.297656
O O9 0.381973 0.114275 0.174178
O O10 0.332161 0.147120 0.345239
O O11 0.770035 0.341218 0.101891
O O12 0.687793 0.125359 0.131710
O O13 0.663409 0.329319 0.000000
O O14 0.271685 0.069074 0.500000
O O15 0.635899 0.955691 0.000000
#
# Coordination Sequence:
#
# PCOD8225922 Si02
#       7
#     8   8   8   8   8   4   8
#     4  12  22  34  59  92 122 147 190 241 301 353
#     4  10  22  40  61  84 117 159 200 244 288 346
#     4  11  23  38  60  85 115 157 196 243 290 348
#     4  10  20  33  55  87 124 156 186 229 288 355
#     4  10  21  37  57  85 121 155 186 231 297 357
#     4  10  23  44  61  76 112 162 209 244 289 336
#     4  10  20  36  57  85 119 157 194 233 286 348
#
# _framework density 20.151591
#
# number of rings (size 3 to 8) (size 9 to 14) (size 15 to 20)
#    0.000    1.538    1.538    4.385    0.000    5.538 
#    0.000    1.154    0.000    0.923    0.000    4.308 
#    0.000    0.000    0.000    0.000    0.000    0.000 
#
# Total GULP energy -644553.581348 kJ/mol
# GULP energy per Si atom -12395.261180 kJ/mol
# Density = 2.010572 g / cm^3
# Si number density = 20.151591 Si / 1000 Ang^3
#
#
#
# Elastic Constant Matrix: (Units=GPa)
#
#
# Indices 1 2 3 4 5 6 
#
# 1 61.8323 26.5629 22.5161 0.0000 0.0000 0.0000
# 2 26.5629 116.8698 49.1661 0.0000 0.0000 0.0000
# 3 22.5161 49.1661 131.3770 0.0000 0.0000 0.0000
# 4 0.0000 0.0000 0.0000 30.1545 0.0000 0.0000
# 5 0.0000 0.0000 0.0000 0.0000 1.8035 0.0000
# 6 0.0000 0.0000 0.0000 0.0000 0.0000 21.7139
#
#
#
# Elastic Compliance Matrix: (Units=1/GPa)
#
#
# Indices 1 2 3 4 5 6 
#
# 1 0.018304 -0.003371 -0.001875 0.000000 0.000000 0.000000
# 2 -0.003371 0.010776 -0.003455 0.000000 0.000000 0.000000
# 3 -0.001875 -0.003455 0.009226 0.000000 0.000000 0.000000
# 4 0.000000 0.000000 0.000000 0.033163 0.000000 0.000000
# 5 0.000000 0.000000 0.000000 0.000000 0.554479 0.000000
# 6 0.000000 0.000000 0.000000 0.000000 0.000000 0.046054
#
#
# Mechanical properties :
#
#
# Convention : Reuss Voigt Hill
#
# Bulk Modulus (GPa) = 47.84029 56.28548 52.06288
# Shear Modulus (GPa) = 7.18006 24.85664 16.01835
#
# Velocity S-wave (km/s) = 1.88965 3.51591 2.82244
# Velocity P-wave (km/s) = 5.34348 6.66887 6.04262
#
# Compressibility (1/GPa) = 0.02090288
#
# Stress axis : x y z
#
# Youngs Moduli (GPa) = 54.63289 92.79607 108.38789
#
# Poissons Ratio (x) = 0.31284 0.20327
# Poissons Ratio (y) = 0.18418 0.37449
# Poissons Ratio (z) = 0.10246 0.32062
#
# Static dielectric constant tensor:
#      x y z
#    x 3.306470 0.000000 0.000000 
#    y 0.000000 3.744570 0.000000 
#    z 0.000000 0.000000 3.971530 
# 
# 
# High freq. dielectric constant tensor:
#      x y z
#    x 1.748110 0.000000 0.000000 
#    y 0.000000 1.796980 0.000000 
#    z 0.000000 0.000000 1.802230 
# 
# From -- ./inp_files/19701.got.cif
#   From: 2010.03.12/outbox.cif.g09.slc.cpg/sg55_10_cif.got.tgz:19701.got - 2010.04.16 15:19:21.
