data_PCOD8225594
_publ_section_title
;
Structure prediction by ZEFSAII (Michael W. Deem and Ramdas Pophale) SiO2 
 PCOD8225594
Probable space group: P B A M
;
_chemical_formula_sum "Si O2"
_cell_formula_units_Z 64
_cell_length_a 17.208369
_cell_length_b 22.058336
_cell_length_c 8.587347
_cell_angle_alpha 90.000000
_cell_angle_beta 90.000000
_cell_angle_gamma 90.000000
_cell_volume 3259.653748
_symmetry_space_group_name_H-M "P B A M"
_symmetry_group_IT_number 55
_symmetry_cell_setting 'orthorhombic'
loop_
_space_group_symop_operation_xyz
x,y,z
-x,-y,z
1/2+x,1/2-y,-z
1/2-x,1/2+y,-z
-x,-y,-z
x,y,-z
1/2-x,1/2+y,z
1/2+x,1/2-y,z
loop_
_atom_site_type_symbol
_atom_site_label
_atom_site_fract_x
_atom_site_fract_y
_atom_site_fract_z
Si Si1 0.927573 0.571132 0.819213
Si Si2 0.353173 0.470393 0.316077
Si Si3 0.166992 0.785915 0.819034
Si Si4 0.132429 0.104898 0.315309
Si Si5 0.207795 0.661076 0.318205
Si Si6 0.778423 0.618720 0.317325
Si Si7 0.912981 0.442668 0.680272
Si Si8 0.462903 0.363800 0.684119
O O1 0.860118 0.617795 0.771814
O O2 0.900387 0.503046 0.780407
O O3 0.005329 0.588625 0.724950
O O4 0.946015 0.577161 0.000000
O O5 0.351296 0.476250 0.500000
O O6 0.360494 0.537278 0.241243
O O7 0.273709 0.438214 0.260217
O O8 0.425986 0.428512 0.266549
O O9 0.173014 0.715012 0.783479
O O10 0.234154 0.819345 0.722036
O O11 0.081712 0.809144 0.768998
O O12 0.179636 0.798444 0.000000
O O13 0.132094 0.097933 0.500000
O O14 0.204315 0.146674 0.262808
O O15 0.052416 0.136301 0.260014
O O16 0.204237 0.678312 0.500000
O O17 0.157233 0.601952 0.282143
O O18 0.794424 0.616055 0.500000
O O19 0.913764 0.461284 0.500000
O O20 0.454559 0.353663 0.500000
#
# Coordination Sequence:
#
# PCOD8225594 Si02
#       8
#     8   8   8   8   8   8   8   8
#     4  11  21  34  55  86 120 147 181 229 287 344
#     4   8  14  26  51  86 116 139 169 214 267 320
#     4  11  23  39  56  75 107 148 187 232 284 331
#     4   9  16  29  54  87 113 135 172 223 270 319
#     4  10  21  38  58  80 107 145 193 238 277 324
#     4  10  19  35  59  83 109 145 189 232 272 326
#     4  10  20  36  58  82 112 150 191 233 279 333
#     4   9  17  32  56  83 111 144 178 216 264 327
#
# _framework density 19.633987000000001
#
# number of rings (size 3 to 8) (size 9 to 14) (size 15 to 20)
#    0.000    2.250    0.000    5.625    0.000    4.500 
#    2.250    0.625    0.000    7.500    0.000    0.000 
#    0.000    0.000    0.000    0.000    0.000    0.000 
#
# Total GULP energy -793646.909272 kJ/mol
# GULP energy per Si atom -12400.732957 kJ/mol
# Density = 1.958930 g / cm^3
# Si number density = 19.633987 Si / 1000 Ang^3
#
#
#
# Elastic Constant Matrix: (Units=GPa)
#
#
# Indices 1 2 3 4 5 6 
#
# 1 122.8163 27.1674 16.9583 0.0000 0.0000 0.0000
# 2 27.1674 61.2456 15.7848 0.0000 0.0000 0.0000
# 3 16.9583 15.7848 44.7261 0.0000 0.0000 0.0000
# 4 0.0000 0.0000 0.0000 16.4192 0.0000 0.0000
# 5 0.0000 0.0000 0.0000 0.0000 13.7037 0.0000
# 6 0.0000 0.0000 0.0000 0.0000 0.0000 19.0437
#
#
#
# Elastic Compliance Matrix: (Units=1/GPa)
#
#
# Indices 1 2 3 4 5 6 
#
# 1 0.009231 -0.003512 -0.002261 0.000000 0.000000 0.000000
# 2 -0.003512 0.019298 -0.005479 0.000000 0.000000 0.000000
# 3 -0.002261 -0.005479 0.025149 0.000000 0.000000 0.000000
# 4 0.000000 0.000000 0.000000 0.060904 0.000000 0.000000
# 5 0.000000 0.000000 0.000000 0.000000 0.072973 0.000000
# 6 0.000000 0.000000 0.000000 0.000000 0.000000 0.052511
#
#
# Mechanical properties :
#
#
# Convention : Reuss Voigt Hill
#
# Bulk Modulus (GPa) = 32.07731 38.73431 35.40581
# Shear Modulus (GPa) = 18.31763 21.09182 19.70473
#
# Velocity S-wave (km/s) = 3.05775 3.28113 3.17141
# Velocity P-wave (km/s) = 5.37024 5.84170 5.61093
#
# Compressibility (1/GPa) = 0.03117469
#
# Stress axis : x y z
#
# Youngs Moduli (GPa) = 108.32721 51.81961 39.76293
#
# Poissons Ratio (x) = 0.18200 0.08989
# Poissons Ratio (y) = 0.38047 0.21786
# Poissons Ratio (z) = 0.24488 0.28391
#
# Static dielectric constant tensor:
#      x y z
#    x 3.825280 0.000000 0.000000 
#    y 0.000000 3.442010 0.000000 
#    z 0.000000 0.000000 3.268820 
# 
# 
# High freq. dielectric constant tensor:
#      x y z
#    x 1.776390 0.000000 0.000000 
#    y 0.000000 1.749290 0.000000 
#    z 0.000000 0.000000 1.736390 
# 
# From -- ./inp_files/8077.got.cif
#   From: 2010.03.12/outbox.cif.g09.slc.cpg/sg55_5_cif.got.tgz:8077.got - 2010.04.16 15:19:21.
