data_PCOD8225744
_publ_section_title
;
Structure prediction by ZEFSAII (Michael W. Deem and Ramdas Pophale) SiO2 
 PCOD8225744
Probable space group: P B A M
;
_chemical_formula_sum "Si O2"
_cell_formula_units_Z 40
_cell_length_a 9.357698
_cell_length_b 27.025119
_cell_length_c 7.659267
_cell_angle_alpha 90.000000
_cell_angle_beta 90.000000
_cell_angle_gamma 90.000000
_cell_volume 1936.974259
_symmetry_space_group_name_H-M "P B A M"
_symmetry_group_IT_number 55
_symmetry_cell_setting 'orthorhombic'
loop_
_space_group_symop_operation_xyz
x,y,z
-x,-y,z
1/2+x,1/2-y,-z
1/2-x,1/2+y,-z
-x,-y,-z
x,y,-z
1/2-x,1/2+y,z
1/2+x,1/2-y,z
loop_
_atom_site_type_symbol
_atom_site_label
_atom_site_fract_x
_atom_site_fract_y
_atom_site_fract_z
Si Si1 0.699542 0.284192 0.801440
Si Si2 0.311553 0.898226 0.198591
Si Si3 0.987061 0.695424 0.208013
Si Si4 0.099264 0.046701 0.500000
Si Si5 0.347572 0.976670 0.500000
Si Si6 0.009993 0.866891 0.306414
O O1 0.619809 0.237245 0.713511
O O2 0.853464 0.295968 0.712382
O O3 0.596814 0.331468 0.795775
O O4 0.731784 0.270595 0.000000
O O5 0.430069 0.858652 0.262985
O O6 0.315437 0.944841 0.327313
O O7 0.156836 0.872085 0.200775
O O8 0.342486 0.915731 0.000000
O O9 0.990106 0.699388 0.000000
O O10 0.066998 0.079520 0.326968
O O11 0.258761 0.027178 0.500000
O O12 0.000000 0.000000 0.500000
O O13 0.500000 0.000000 0.500000
O O14 0.043057 0.845141 0.500000
#
# Coordination Sequence:
#
# PCOD8225744 Si02
#       6
#     8   8   8   4   4   8
#     4  10  19  37  60  90 124 163 203 251 305 365
#     4  11  22  42  66  94 124 164 210 252 310 377
#     4   9  20  36  60  89 126 162 205 252 304 369
#     4  10  20  44  63  82 123 158 205 254 307 364
#     4  12  26  44  67  90 127 166 199 266 323 358
#     4  10  21  37  63  87 122 161 203 256 302 366
#
# _framework density 20.650763999999999
#
# number of rings (size 3 to 8) (size 9 to 14) (size 15 to 20)
#    0.600    1.200    3.000    1.800    2.800    3.600 
#    1.800    3.000    0.000    0.000    0.000    0.000 
#    0.000    0.000    0.000    0.000    0.000    0.000 
#
# Total GULP energy -495782.960213 kJ/mol
# GULP energy per Si atom -12394.574005 kJ/mol
# Density = 2.060376 g / cm^3
# Si number density = 20.650764 Si / 1000 Ang^3
#
#
#
# Elastic Constant Matrix: (Units=GPa)
#
#
# Indices 1 2 3 4 5 6 
#
# 1 145.0536 31.6801 12.0799 0.0000 0.0000 0.0000
# 2 31.6801 78.8329 16.3889 0.0000 0.0000 0.0000
# 3 12.0799 16.3889 60.2288 0.0000 0.0000 0.0000
# 4 0.0000 0.0000 0.0000 21.3178 0.0000 0.0000
# 5 0.0000 0.0000 0.0000 0.0000 18.2207 0.0000
# 6 0.0000 0.0000 0.0000 0.0000 0.0000 48.7419
#
#
#
# Elastic Compliance Matrix: (Units=1/GPa)
#
#
# Indices 1 2 3 4 5 6 
#
# 1 0.007588 -0.002897 -0.000734 0.000000 0.000000 0.000000
# 2 -0.002897 0.014552 -0.003379 0.000000 0.000000 0.000000
# 3 -0.000734 -0.003379 0.017670 0.000000 0.000000 0.000000
# 4 0.000000 0.000000 0.000000 0.046909 0.000000 0.000000
# 5 0.000000 0.000000 0.000000 0.000000 0.054883 0.000000
# 6 0.000000 0.000000 0.000000 0.000000 0.000000 0.020516
#
#
# Mechanical properties :
#
#
# Convention : Reuss Voigt Hill
#
# Bulk Modulus (GPa) = 38.77293 44.93477 41.85385
# Shear Modulus (GPa) = 27.06621 32.58718 29.82670
#
# Velocity S-wave (km/s) = 3.62424 3.97673 3.80457
# Velocity P-wave (km/s) = 6.02742 6.54923 6.29374
#
# Compressibility (1/GPa) = 0.02579119
#
# Stress axis : x y z
#
# Youngs Moduli (GPa) = 131.79138 68.72122 56.59354
#
# Poissons Ratio (x) = 0.19907 0.04152
# Poissons Ratio (y) = 0.38176 0.19121
# Poissons Ratio (z) = 0.09669 0.23218
#
# Static dielectric constant tensor:
#      x y z
#    x 3.929510 0.000000 0.000000 
#    y 0.000000 3.250770 0.000000 
#    z 0.000000 0.000000 3.440740 
# 
# 
# High freq. dielectric constant tensor:
#      x y z
#    x 1.822490 0.000000 0.000000 
#    y 0.000000 1.804870 0.000000 
#    z 0.000000 0.000000 1.781110 
# 
# From -- ./inp_files/2537.got.cif
#   From: 2010.03.12/outbox.cif.g09.slc.cpg/sg55_2_cif.got.tgz:2537.got - 2010.04.16 15:19:21.
