data_PCOD8225894
_publ_section_title
;
Structure prediction by ZEFSAII (Michael W. Deem and Ramdas Pophale) SiO2 
 PCOD8225894
Probable space group: P B A M
;
_chemical_formula_sum "Si O2"
_cell_formula_units_Z 64
_cell_length_a 22.136138
_cell_length_b 16.029925
_cell_length_c 9.255087
_cell_angle_alpha 90.000000
_cell_angle_beta 90.000000
_cell_angle_gamma 90.000000
_cell_volume 3284.080920
_symmetry_space_group_name_H-M "P B A M"
_symmetry_group_IT_number 55
_symmetry_cell_setting 'orthorhombic'
loop_
_space_group_symop_operation_xyz
x,y,z
-x,-y,z
1/2+x,1/2-y,-z
1/2-x,1/2+y,-z
-x,-y,-z
x,y,-z
1/2-x,1/2+y,z
1/2+x,1/2-y,z
loop_
_atom_site_type_symbol
_atom_site_label
_atom_site_fract_x
_atom_site_fract_y
_atom_site_fract_z
Si Si1 0.652193 0.723526 0.837128
Si Si2 0.715002 0.580672 0.661226
Si Si3 0.977617 0.911066 0.671781
Si Si4 0.463378 0.236253 0.327106
Si Si5 0.345935 0.591834 0.657796
Si Si6 0.827854 0.606895 0.169335
Si Si7 0.032412 0.412583 0.169599
Si Si8 0.718506 0.285108 0.842481
O O1 0.674398 0.641307 0.756797
O O2 0.602221 0.773075 0.744708
O O3 0.709511 0.783269 0.847916
O O4 0.628799 0.702758 0.000000
O O5 0.727894 0.617179 0.500000
O O6 0.671322 0.503397 0.645504
O O7 0.778560 0.554890 0.738109
O O8 0.975904 0.918778 0.500000
O O9 0.910607 0.897628 0.734895
O O10 0.015786 0.829779 0.718241
O O11 0.000000 0.000000 0.736531
O O12 0.460581 0.225563 0.500000
O O13 0.505965 0.163935 0.262254
O O14 0.349630 0.633092 0.500000
O O15 0.294269 0.637445 0.743399
O O16 0.896227 0.580060 0.207010
O O17 0.814112 0.701971 0.217298
O O18 0.813943 0.594109 0.000000
O O19 0.000000 0.500000 0.211474
O O20 0.023124 0.393147 0.000000
O O21 0.691442 0.302353 0.000000
#
# Coordination Sequence:
#
# PCOD8225894 Si02
#       8
#     8   8   8   8   8   8   8   8
#     4  10  21  38  57  78 108 146 185 224 275 337
#     4  10  20  34  55  82 109 139 178 225 274 325
#     4   9  18  34  55  80 114 151 182 215 267 337
#     4  11  22  36  59  87 114 148 188 236 287 332
#     4  10  20  33  52  80 111 141 175 218 270 327
#     4   9  19  37  57  77 105 142 184 227 276 332
#     4  10  22  40  60  81 110 152 196 237 285 342
#     4   9  19  34  53  76 102 136 176 221 269 321
#
# _framework density 19.487949
#
# number of rings (size 3 to 8) (size 9 to 14) (size 15 to 20)
#    0.000    2.250    0.000    3.375    0.000    7.250 
#    0.000    4.375    0.000    2.625    0.000    0.000 
#    0.000    0.000    0.000    0.000    0.000    0.000 
#
# Total GULP energy -793220.020338 kJ/mol
# GULP energy per Si atom -12394.062818 kJ/mol
# Density = 1.944359 g / cm^3
# Si number density = 19.487949 Si / 1000 Ang^3
#
#
#
# Elastic Constant Matrix: (Units=GPa)
#
#
# Indices 1 2 3 4 5 6 
#
# 1 104.7307 22.3451 41.5950 0.0000 0.0000 0.0000
# 2 22.3451 69.7906 32.9255 0.0000 0.0000 0.0000
# 3 41.5950 32.9255 86.9727 0.0000 0.0000 0.0000
# 4 0.0000 0.0000 0.0000 42.3213 0.0000 0.0000
# 5 0.0000 0.0000 0.0000 0.0000 27.3651 0.0000
# 6 0.0000 0.0000 0.0000 0.0000 0.0000 23.6025
#
#
#
# Elastic Compliance Matrix: (Units=1/GPa)
#
#
# Indices 1 2 3 4 5 6 
#
# 1 0.011894 -0.001369 -0.005170 0.000000 0.000000 0.000000
# 2 -0.001369 0.017602 -0.006009 0.000000 0.000000 0.000000
# 3 -0.005170 -0.006009 0.016245 0.000000 0.000000 0.000000
# 4 0.000000 0.000000 0.000000 0.023629 0.000000 0.000000
# 5 0.000000 0.000000 0.000000 0.000000 0.036543 0.000000
# 6 0.000000 0.000000 0.000000 0.000000 0.000000 0.042368
#
#
# Mechanical properties :
#
#
# Convention : Reuss Voigt Hill
#
# Bulk Modulus (GPa) = 48.43766 50.58059 49.50912
# Shear Modulus (GPa) = 27.73804 29.63299 28.68551
#
# Velocity S-wave (km/s) = 3.77681 3.90369 3.84078
# Velocity P-wave (km/s) = 6.62784 6.80658 6.71781
#
# Compressibility (1/GPa) = 0.02064509
#
# Stress axis : x y z
#
# Youngs Moduli (GPa) = 84.07825 56.81275 61.55670
#
# Poissons Ratio (x) = 0.07778 0.31824
# Poissons Ratio (y) = 0.11510 0.36988
# Poissons Ratio (z) = 0.43468 0.34138
#
# Static dielectric constant tensor:
#      x y z
#    x 3.724320 0.000000 0.000000 
#    y 0.000000 3.372390 0.000000 
#    z 0.000000 0.000000 3.644010 
# 
# 
# High freq. dielectric constant tensor:
#      x y z
#    x 1.770010 0.000000 0.000000 
#    y 0.000000 1.745700 0.000000 
#    z 0.000000 0.000000 1.751780 
# 
# From -- ./inp_files/8947.got.cif
#   From: 2010.03.12/outbox.cif.g09.slc.cpg/sg55_5_cif.got.tgz:8947.got - 2010.04.16 15:19:21.
