data_PCOD8225596
_publ_section_title
;
Structure prediction by ZEFSAII (Michael W. Deem and Ramdas Pophale) SiO2 
 PCOD8225596
Probable space group: P B A M
;
_chemical_formula_sum "Si O2"
_cell_formula_units_Z 32
_cell_length_a 8.933899
_cell_length_b 20.724029
_cell_length_c 8.686382
_cell_angle_alpha 90.000000
_cell_angle_beta 90.000000
_cell_angle_gamma 90.000000
_cell_volume 1608.252200
_symmetry_space_group_name_H-M "P B A M"
_symmetry_group_IT_number 55
_symmetry_cell_setting 'orthorhombic'
loop_
_space_group_symop_operation_xyz
x,y,z
-x,-y,z
1/2+x,1/2-y,-z
1/2-x,1/2+y,-z
-x,-y,-z
x,y,-z
1/2-x,1/2+y,z
1/2+x,1/2-y,z
loop_
_atom_site_type_symbol
_atom_site_label
_atom_site_fract_x
_atom_site_fract_y
_atom_site_fract_z
Si Si1 0.424331 0.313712 0.682401
Si Si2 0.088177 0.313420 0.316915
Si Si3 0.084005 0.064364 0.820319
Si Si4 0.597159 0.936602 0.322079
O O1 0.418586 0.310033 0.500000
O O2 0.506626 0.250232 0.748396
O O3 0.256359 0.316450 0.750604
O O4 0.516287 0.376105 0.728935
O O5 0.094715 0.311927 0.500000
O O6 0.997921 0.375992 0.260718
O O7 0.257545 0.056864 0.782129
O O8 0.061349 0.076437 0.000000
O O9 0.000000 0.000000 0.765066
O O10 0.644127 0.927323 0.500000
O O11 0.500000 0.000000 0.299080
#
# Coordination Sequence:
#
# PCOD8225596 Si02
#       4
#     8   8   8   8
#     4  10  19  35  59  83 110 143 180 223 271 323
#     4   9  18  33  57  88 114 138 175 227 278 320
#     4  11  24  39  54  77 111 148 185 226 273 322
#     4  10  20  36  60  87 111 140 182 226 272 329
#
# _framework density 19.897376999999999
#
# number of rings (size 3 to 8) (size 9 to 14) (size 15 to 20)
#    0.000    2.000    0.000    3.750    0.000    8.500 
#    0.000    6.250    0.000    0.000    0.000    0.000 
#    0.000    0.000    0.000    0.000    0.000    0.000 
#
# Total GULP energy -396922.186818 kJ/mol
# GULP energy per Si atom -12403.818338 kJ/mol
# Density = 1.985209 g / cm^3
# Si number density = 19.897377 Si / 1000 Ang^3
#
#
#
# Elastic Constant Matrix: (Units=GPa)
#
#
# Indices 1 2 3 4 5 6 
#
# 1 142.2351 58.9699 11.4905 0.0000 0.0000 0.0000
# 2 58.9699 161.1829 12.0300 0.0000 0.0000 0.0000
# 3 11.4905 12.0300 10.9009 0.0000 0.0000 0.0000
# 4 0.0000 0.0000 0.0000 12.5746 0.0000 0.0000
# 5 0.0000 0.0000 0.0000 0.0000 11.0900 0.0000
# 6 0.0000 0.0000 0.0000 0.0000 0.0000 39.8437
#
#
#
# Elastic Compliance Matrix: (Units=1/GPa)
#
#
# Indices 1 2 3 4 5 6 
#
# 1 0.008648 -0.002706 -0.006129 0.000000 0.000000 0.000000
# 2 -0.002706 0.007608 -0.005543 0.000000 0.000000 0.000000
# 3 -0.006129 -0.005543 0.104313 0.000000 0.000000 0.000000
# 4 0.000000 0.000000 0.000000 0.079526 0.000000 0.000000
# 5 0.000000 0.000000 0.000000 0.000000 0.090171 0.000000
# 6 0.000000 0.000000 0.000000 0.000000 0.000000 0.025098
#
#
# Mechanical properties :
#
#
# Convention : Reuss Voigt Hill
#
# Bulk Modulus (GPa) = 10.89179 53.25552 32.07365
# Shear Modulus (GPa) = 13.34312 28.15689 20.75000
#
# Velocity S-wave (km/s) = 2.59240 3.76587 3.23282
# Velocity P-wave (km/s) = 3.80086 6.76256 5.48538
#
# Compressibility (1/GPa) = 0.09181230
#
# Stress axis : x y z
#
# Youngs Moduli (GPa) = 115.63635 131.44018 9.58650
#
# Poissons Ratio (x) = 0.35573 0.05875
# Poissons Ratio (y) = 0.31296 0.05314
# Poissons Ratio (z) = 0.70871 0.72860
#
# Static dielectric constant tensor:
#      x y z
#    x 4.264020 0.000000 0.000000 
#    y 0.000000 3.824980 0.000000 
#    z 0.000000 0.000000 3.190580 
# 
# 
# High freq. dielectric constant tensor:
#      x y z
#    x 1.795270 0.000000 0.000000 
#    y 0.000000 1.796870 0.000000 
#    z 0.000000 0.000000 1.734120 
# 
# From -- ./inp_files/1981.got.cif
#   From: 2010.03.12/outbox.cif.g09.slc.cpg/sg55_1_cif.got.tgz:1981.got - 2010.04.16 15:19:21.
