data_PCOD8225915
_publ_section_title
;
Structure prediction by ZEFSAII (Michael W. Deem and Ramdas Pophale) SiO2 
 PCOD8225915
Probable space group: P B A M
;
_chemical_formula_sum "Si O2"
_cell_formula_units_Z 64
_cell_length_a 12.147803
_cell_length_b 28.898863
_cell_length_c 9.003683
_cell_angle_alpha 90.000000
_cell_angle_beta 90.000000
_cell_angle_gamma 90.000000
_cell_volume 3160.812197
_symmetry_space_group_name_H-M "P B A M"
_symmetry_group_IT_number 55
_symmetry_cell_setting 'orthorhombic'
loop_
_space_group_symop_operation_xyz
x,y,z
-x,-y,z
1/2+x,1/2-y,-z
1/2-x,1/2+y,-z
-x,-y,-z
x,y,-z
1/2-x,1/2+y,z
1/2+x,1/2-y,z
loop_
_atom_site_type_symbol
_atom_site_label
_atom_site_fract_x
_atom_site_fract_y
_atom_site_fract_z
Si Si1 0.553749 0.940362 0.835474
Si Si2 0.250538 0.520842 0.673180
Si Si3 0.159233 0.115690 0.671135
Si Si4 0.696504 0.066136 0.830055
Si Si5 0.273699 0.836500 0.324357
Si Si6 0.142641 0.658212 0.167177
Si Si7 0.956968 0.725278 0.823767
Si Si8 0.024936 0.815799 0.671655
O O1 0.625795 0.963237 0.706411
O O2 0.426876 0.954633 0.816722
O O3 0.560248 0.885088 0.822942
O O4 0.596352 0.955906 0.000000
O O5 0.265710 0.510465 0.500000
O O6 0.330204 0.562709 0.731178
O O7 0.276805 0.473374 0.761668
O O8 0.190881 0.113765 0.500000
O O9 0.246782 0.151010 0.740831
O O10 0.037087 0.135183 0.699409
O O11 0.704472 0.112627 0.736916
O O12 0.729100 0.076245 0.000000
O O13 0.291604 0.837352 0.500000
O O14 0.353115 0.798818 0.252384
O O15 0.150409 0.821946 0.280232
O O16 0.071119 0.701156 0.227936
O O17 0.181255 0.667879 0.000000
O O18 0.964055 0.778073 0.772381
O O19 0.941231 0.721716 0.000000
O O20 0.014410 0.800931 0.500000
#
# Coordination Sequence:
#
# PCOD8225915 Si02
#       8
#     8   8   8   8   8   8   8   8
#     4   9  17  32  51  76 115 157 189 230 290 351
#     4  10  20  33  54  86 117 153 200 249 299 357
#     4   9  20  39  60  83 117 156 199 248 296 348
#     4  11  21  36  57  83 119 161 199 245 303 362
#     4  11  24  42  64  89 120 157 202 253 301 356
#     4   9  18  34  55  83 116 151 189 231 288 353
#     4  11  23  40  62  90 122 155 193 243 304 367
#     4  10  24  44  63  86 117 158 204 251 301 354
#
# _framework density 20.247961
#
# number of rings (size 3 to 8) (size 9 to 14) (size 15 to 20)
#    0.000    2.000    1.250    1.875    1.750    5.500 
#    0.000    0.625    0.000    3.750    0.000    0.000 
#    0.000    0.000    0.000    0.000    0.000    0.000 
#
# Total GULP energy -793551.836144 kJ/mol
# GULP energy per Si atom -12399.247440 kJ/mol
# Density = 2.020188 g / cm^3
# Si number density = 20.247961 Si / 1000 Ang^3
#
#
#
# Elastic Constant Matrix: (Units=GPa)
#
#
# Indices 1 2 3 4 5 6 
#
# 1 77.5498 19.5076 34.0000 0.0000 0.0000 0.0000
# 2 19.5076 66.9147 26.0911 0.0000 0.0000 0.0000
# 3 34.0000 26.0911 74.0586 0.0000 0.0000 0.0000
# 4 0.0000 0.0000 0.0000 31.7190 0.0000 0.0000
# 5 0.0000 0.0000 0.0000 0.0000 14.6370 0.0000
# 6 0.0000 0.0000 0.0000 0.0000 0.0000 11.4741
#
#
#
# Elastic Compliance Matrix: (Units=1/GPa)
#
#
# Indices 1 2 3 4 5 6 
#
# 1 0.016405 -0.002140 -0.006777 0.000000 0.000000 0.000000
# 2 -0.002140 0.017603 -0.005219 0.000000 0.000000 0.000000
# 3 -0.006777 -0.005219 0.018453 0.000000 0.000000 0.000000
# 4 0.000000 0.000000 0.000000 0.031527 0.000000 0.000000
# 5 0.000000 0.000000 0.000000 0.000000 0.068320 0.000000
# 6 0.000000 0.000000 0.000000 0.000000 0.000000 0.087153
#
#
# Mechanical properties :
#
#
# Convention : Reuss Voigt Hill
#
# Bulk Modulus (GPa) = 41.34297 41.96893 41.65595
# Shear Modulus (GPa) = 18.12931 20.82766 19.47848
#
# Velocity S-wave (km/s) = 2.99551 3.21071 3.10497
# Velocity P-wave (km/s) = 5.69445 5.87514 5.78550
#
# Compressibility (1/GPa) = 0.02418791
#
# Stress axis : x y z
#
# Youngs Moduli (GPa) = 60.95850 56.80745 54.19149
#
# Poissons Ratio (x) = 0.12156 0.36728
# Poissons Ratio (y) = 0.13044 0.28284
# Poissons Ratio (z) = 0.41314 0.29650
#
# Static dielectric constant tensor:
#      x y z
#    x 3.479380 0.000000 0.000000 
#    y 0.000000 3.806250 0.000000 
#    z 0.000000 0.000000 3.661390 
# 
# 
# High freq. dielectric constant tensor:
#      x y z
#    x 1.767570 0.000000 0.000000 
#    y 0.000000 1.804020 0.000000 
#    z 0.000000 0.000000 1.789100 
# 
# From -- ./inp_files/4681.got.cif
#   From: 2010.03.12/outbox.cif.g09.slc.cpg/sg55_3_cif.got.tgz:4681.got - 2010.04.16 15:19:21.
