data_PCOD8225024
_publ_section_title
;
Structure prediction by ZEFSAII (Michael W. Deem and Ramdas Pophale) SiO2 
 PCOD8225024
Probable space group: P B A M
;
_chemical_formula_sum "Si O2"
_cell_formula_units_Z 64
_cell_length_a 11.900671
_cell_length_b 29.003018
_cell_length_c 8.938063
_cell_angle_alpha 90.000000
_cell_angle_beta 90.000000
_cell_angle_gamma 90.000000
_cell_volume 3085.020489
_symmetry_space_group_name_H-M "P B A M"
_symmetry_group_IT_number 55
_symmetry_cell_setting 'orthorhombic'
loop_
_space_group_symop_operation_xyz
x,y,z
-x,-y,z
1/2+x,1/2-y,-z
1/2-x,1/2+y,-z
-x,-y,-z
x,y,-z
1/2-x,1/2+y,z
1/2+x,1/2-y,z
loop_
_atom_site_type_symbol
_atom_site_label
_atom_site_fract_x
_atom_site_fract_y
_atom_site_fract_z
Si Si1 0.536699 0.928175 0.827078
Si Si2 0.273312 0.523753 0.828386
Si Si3 0.140144 0.109327 0.673433
Si Si4 0.684139 0.058633 0.675529
Si Si5 0.282560 0.835406 0.326100
Si Si6 0.131780 0.656694 0.324437
Si Si7 0.976887 0.722757 0.823739
Si Si8 0.029673 0.813705 0.673118
O O1 0.647662 0.957850 0.805749
O O2 0.429835 0.955564 0.763049
O O3 0.543495 0.881902 0.728702
O O4 0.517363 0.915314 0.000000
O O5 0.360409 0.561562 0.764861
O O6 0.281350 0.475836 0.736488
O O7 0.303641 0.514463 0.000000
O O8 0.154266 0.096491 0.500000
O O9 0.242927 0.142473 0.724120
O O10 0.025608 0.136472 0.707462
O O11 0.668123 0.050883 0.500000
O O12 0.717575 0.110707 0.715931
O O13 0.311194 0.828449 0.500000
O O14 0.371254 0.806823 0.230890
O O15 0.160139 0.816021 0.285490
O O16 0.120325 0.664125 0.500000
O O17 0.094629 0.703725 0.243445
O O18 0.966026 0.775466 0.770980
O O19 0.981895 0.720478 0.000000
O O20 0.010563 0.801192 0.500000
#
# Coordination Sequence:
#
# PCOD8225024 Si02
#       8
#     8   8   8   8   8   8   8   8
#     4  10  19  32  51  81 119 157 193 240 302 356
#     4  10  21  35  55  84 121 161 199 245 304 365
#     4   9  20  39  63  88 115 153 203 253 298 352
#     4  11  21  34  56  85 117 158 205 251 300 359
#     4  10  23  43  65  89 120 159 205 254 302 357
#     4  10  19  34  57  86 117 153 195 239 292 354
#     4  12  25  39  60  91 124 157 195 243 305 370
#     4  10  23  44  67  88 116 157 205 255 303 355
#
# _framework density 20.745404000000001
#
# number of rings (size 3 to 8) (size 9 to 14) (size 15 to 20)
#    0.000    1.750    1.250    3.000    1.750    5.000 
#    0.000    0.625    0.000    3.750    0.000    0.000 
#    0.000    0.000    0.000    0.000    0.000    0.000 
#
# Total GULP energy -793780.029901 kJ/mol
# GULP energy per Si atom -12402.812967 kJ/mol
# Density = 2.069819 g / cm^3
# Si number density = 20.745404 Si / 1000 Ang^3
#
#
#
# Elastic Constant Matrix: (Units=GPa)
#
#
# Indices 1 2 3 4 5 6 
#
# 1 49.1662 17.9416 31.2926 0.0000 0.0000 0.0000
# 2 17.9416 95.2209 51.1228 0.0000 0.0000 0.0000
# 3 31.2926 51.1228 111.7688 0.0000 0.0000 0.0000
# 4 0.0000 0.0000 0.0000 25.5447 0.0000 0.0000
# 5 0.0000 0.0000 0.0000 0.0000 15.6883 0.0000
# 6 0.0000 0.0000 0.0000 0.0000 0.0000 17.7822
#
#
#
# Elastic Compliance Matrix: (Units=1/GPa)
#
#
# Indices 1 2 3 4 5 6 
#
# 1 0.024862 -0.001256 -0.006386 0.000000 0.000000 0.000000
# 2 -0.001256 0.013984 -0.006045 0.000000 0.000000 0.000000
# 3 -0.006386 -0.006045 0.013500 0.000000 0.000000 0.000000
# 4 0.000000 0.000000 0.000000 0.039147 0.000000 0.000000
# 5 0.000000 0.000000 0.000000 0.000000 0.063742 0.000000
# 6 0.000000 0.000000 0.000000 0.000000 0.000000 0.056236
#
#
# Mechanical properties :
#
#
# Convention : Reuss Voigt Hill
#
# Bulk Modulus (GPa) = 40.04438 50.76331 45.40384
# Shear Modulus (GPa) = 20.22914 22.18963 21.20939
#
# Velocity S-wave (km/s) = 3.12607 3.27405 3.20091
# Velocity P-wave (km/s) = 5.68985 6.23019 5.96614
#
# Compressibility (1/GPa) = 0.02497229
#
# Stress axis : x y z
#
# Youngs Moduli (GPa) = 40.22172 71.51161 74.07492
#
# Poissons Ratio (x) = 0.08980 0.47307
# Poissons Ratio (y) = 0.05051 0.44775
# Poissons Ratio (z) = 0.25687 0.43226
#
# Static dielectric constant tensor:
#      x y z
#    x 3.603070 0.000000 0.000000 
#    y 0.000000 3.851710 0.000000 
#    z 0.000000 0.000000 3.680390 
# 
# 
# High freq. dielectric constant tensor:
#      x y z
#    x 1.794010 0.000000 0.000000 
#    y 0.000000 1.818490 0.000000 
#    z 0.000000 0.000000 1.808540 
# 
# From -- ./inp_files/4682.got.cif
#   From: 2010.03.12/outbox.cif.g09.slc.cpg/sg55_3_cif.got.tgz:4682.got - 2010.04.16 15:19:21.
