data_PCOD8225263
_publ_section_title
;
Structure prediction by ZEFSAII (Michael W. Deem and Ramdas Pophale) SiO2 
 PCOD8225263
Probable space group: P B A M
;
_chemical_formula_sum "Si O2"
_cell_formula_units_Z 64
_cell_length_a 23.461853
_cell_length_b 15.035666
_cell_length_c 9.707429
_cell_angle_alpha 90.000000
_cell_angle_beta 90.000000
_cell_angle_gamma 90.000000
_cell_volume 3424.437167
_symmetry_space_group_name_H-M "P B A M"
_symmetry_group_IT_number 55
_symmetry_cell_setting 'orthorhombic'
loop_
_space_group_symop_operation_xyz
x,y,z
-x,-y,z
1/2+x,1/2-y,-z
1/2-x,1/2+y,-z
-x,-y,-z
x,y,-z
1/2-x,1/2+y,z
1/2+x,1/2-y,z
loop_
_atom_site_type_symbol
_atom_site_label
_atom_site_fract_x
_atom_site_fract_y
_atom_site_fract_z
Si Si1 0.251776 0.731798 0.662955
Si Si2 0.352460 0.491163 0.152946
Si Si3 0.034699 0.590373 0.657054
Si Si4 0.530978 0.584736 0.838718
Si Si5 0.643038 0.309737 0.847065
Si Si6 0.523010 0.236624 0.838835
Si Si7 0.247438 0.936916 0.661960
Si Si8 0.663960 0.918149 0.662350
O O1 0.260224 0.723715 0.500000
O O2 0.308659 0.697786 0.733678
O O3 0.198728 0.670054 0.713282
O O4 0.245251 0.834351 0.708844
O O5 0.401551 0.420697 0.190197
O O6 0.380414 0.589318 0.154671
O O7 0.303456 0.487701 0.264794
O O8 0.327768 0.470858 0.000000
O O9 0.036975 0.626209 0.500000
O O10 0.099115 0.580991 0.718390
O O11 0.000000 0.500000 0.662313
O O12 0.999515 0.654652 0.753623
O O13 0.500000 0.500000 0.768619
O O14 0.508449 0.676792 0.776438
O O15 0.516808 0.584449 0.000000
O O16 0.590619 0.244816 0.812813
O O17 0.667312 0.287481 0.000000
O O18 0.509496 0.222525 0.000000
O O19 0.237855 0.945782 0.500000
O O20 0.304968 0.989483 0.707609
O O21 0.661508 0.915373 0.500000
#
# Coordination Sequence:
#
# PCOD8225263 Si02
#       8
#     8   8   8   8   8   8   8   8
#     4  10  21  36  58  82 108 146 185 227 282 339
#     4  10  19  33  55  82 112 145 182 222 267 330
#     4  10  23  41  61  81 108 151 198 240 280 330
#     4   9  16  31  54  79 111 149 181 210 264 338
#     4  10  20  35  56  83 114 143 181 231 279 330
#     4  10  21  37  58  84 113 148 186 230 279 329
#     4  10  21  36  57  80 107 145 183 223 281 340
#     4   9  19  38  56  79 113 143 182 234 278 326
#
# _framework density 18.689202999999999
#
# number of rings (size 3 to 8) (size 9 to 14) (size 15 to 20)
#    0.000    2.250    2.500    0.000    3.500    1.250 
#    0.000    1.250    0.000    0.750    0.000    0.000 
#    0.000    0.000    0.000    0.000    0.000    0.000 
#
# Total GULP energy -793335.304003 kJ/mol
# GULP energy per Si atom -12395.864125 kJ/mol
# Density = 1.864667 g / cm^3
# Si number density = 18.689203 Si / 1000 Ang^3
#
#
#
# Elastic Constant Matrix: (Units=GPa)
#
#
# Indices 1 2 3 4 5 6 
#
# 1 116.4086 48.7521 35.5874 0.0000 0.0000 0.0000
# 2 48.7521 96.6180 28.2108 0.0000 0.0000 0.0000
# 3 35.5874 28.2108 38.2845 0.0000 0.0000 0.0000
# 4 0.0000 0.0000 0.0000 12.6431 0.0000 0.0000
# 5 0.0000 0.0000 0.0000 0.0000 25.9438 0.0000
# 6 0.0000 0.0000 0.0000 0.0000 0.0000 30.2778
#
#
#
# Elastic Compliance Matrix: (Units=1/GPa)
#
#
# Indices 1 2 3 4 5 6 
#
# 1 0.013049 -0.003877 -0.009273 0.000000 0.000000 0.000000
# 2 -0.003877 0.014339 -0.006962 0.000000 0.000000 0.000000
# 3 -0.009273 -0.006962 0.039870 0.000000 0.000000 0.000000
# 4 0.000000 0.000000 0.000000 0.079095 0.000000 0.000000
# 5 0.000000 0.000000 0.000000 0.000000 0.038545 0.000000
# 6 0.000000 0.000000 0.000000 0.000000 0.000000 0.033028
#
#
# Mechanical properties :
#
#
# Convention : Reuss Voigt Hill
#
# Bulk Modulus (GPa) = 36.99039 52.93462 44.96250
# Shear Modulus (GPa) = 18.71532 23.02364 20.86948
#
# Velocity S-wave (km/s) = 3.16792 3.51368 3.34527
# Velocity P-wave (km/s) = 5.76336 6.69675 6.24751
#
# Compressibility (1/GPa) = 0.02703405
#
# Stress axis : x y z
#
# Youngs Moduli (GPa) = 76.63522 69.73932 25.08133
#
# Poissons Ratio (x) = 0.27036 0.23258
# Poissons Ratio (y) = 0.29709 0.17463
# Poissons Ratio (z) = 0.71063 0.48556
#
# Static dielectric constant tensor:
#      x y z
#    x 3.504020 0.000000 0.000000 
#    y 0.000000 3.768010 0.000000 
#    z 0.000000 0.000000 3.122860 
# 
# 
# High freq. dielectric constant tensor:
#      x y z
#    x 1.729960 0.000000 0.000000 
#    y 0.000000 1.732030 0.000000 
#    z 0.000000 0.000000 1.693940 
# 
# From -- ./inp_files/6483.got.cif
#   From: 2010.03.12/outbox.cif.g09.slc.cpg/sg55_4_cif.got.tgz:6483.got - 2010.04.16 15:19:21.
