data_PCOD8225040
_publ_section_title
;
Structure prediction by ZEFSAII (Michael W. Deem and Ramdas Pophale) SiO2 
 PCOD8225040
Probable space group: P B A M
;
_chemical_formula_sum "Si O2"
_cell_formula_units_Z 56
_cell_length_a 13.891280
_cell_length_b 22.916805
_cell_length_c 9.653438
_cell_angle_alpha 90.000000
_cell_angle_beta 90.000000
_cell_angle_gamma 90.000000
_cell_volume 3073.111701
_symmetry_space_group_name_H-M "P B A M"
_symmetry_group_IT_number 55
_symmetry_cell_setting 'orthorhombic'
loop_
_space_group_symop_operation_xyz
x,y,z
-x,-y,z
1/2+x,1/2-y,-z
1/2-x,1/2+y,-z
-x,-y,-z
x,y,-z
1/2-x,1/2+y,z
1/2+x,1/2-y,z
loop_
_atom_site_type_symbol
_atom_site_label
_atom_site_fract_x
_atom_site_fract_y
_atom_site_fract_z
Si Si1 0.895441 0.473598 0.338001
Si Si2 0.407960 0.370636 0.839781
Si Si3 0.266546 0.467431 0.842206
Si Si4 0.179855 0.169046 0.656836
Si Si5 0.605541 0.426008 0.155071
Si Si6 0.892061 0.343046 0.341484
Si Si7 0.509644 0.730546 0.335885
O O1 0.867188 0.473779 0.500000
O O2 0.818886 0.514221 0.259465
O O3 0.894694 0.407617 0.273259
O O4 0.000000 0.500000 0.312541
O O5 0.306459 0.402635 0.806002
O O6 0.493662 0.416806 0.808339
O O7 0.420044 0.314566 0.741903
O O8 0.410450 0.350547 0.000000
O O9 0.361623 0.507549 0.826817
O O10 0.227661 0.469798 0.000000
O O11 0.158155 0.150642 0.500000
O O12 0.172870 0.110921 0.745058
O O13 0.289383 0.190181 0.675022
O O14 0.102049 0.217865 0.702681
O O15 0.625716 0.403743 0.000000
O O16 0.918172 0.354714 0.500000
O O17 0.968889 0.296404 0.281269
O O18 0.530258 0.725559 0.500000
#
# Coordination Sequence:
#
# PCOD8225040 Si02
#       7
#     8   8   8   8   8   8   8
#     4  10  21  37  55  76 101 134 176 219 260 304
#     4   9  18  32  49  74 109 136 160 204 255 307
#     4  10  19  32  52  76 103 137 168 204 255 306
#     4   9  16  29  50  71  96 130 166 208 254 300
#     4   9  16  28  49  75 100 130 166 199 243 305
#     4   9  17  33  53  73 100 130 166 214 258 300
#     4   9  18  32  50  74  99 131 173 211 254 306
#
# _framework density 18.222570999999999
#
# number of rings (size 3 to 8) (size 9 to 14) (size 15 to 20)
#    0.000    2.714    1.429    0.429    0.000    2.571 
#    2.571    1.429    0.000    4.286    0.000    0.000 
#    0.000    0.000    0.000    0.000    0.000    0.000 
#
# Total GULP energy -693920.864353 kJ/mol
# GULP energy per Si atom -12391.444006 kJ/mol
# Density = 1.818110 g / cm^3
# Si number density = 18.222571 Si / 1000 Ang^3
#
#
#
# Elastic Constant Matrix: (Units=GPa)
#
#
# Indices 1 2 3 4 5 6 
#
# 1 73.8744 48.0113 26.9117 0.0000 0.0000 0.0000
# 2 48.0113 80.9206 24.5707 0.0000 0.0000 0.0000
# 3 26.9117 24.5707 42.9239 0.0000 0.0000 0.0000
# 4 0.0000 0.0000 0.0000 -1.2957 0.0000 0.0000
# 5 0.0000 0.0000 0.0000 0.0000 21.0811 0.0000
# 6 0.0000 0.0000 0.0000 0.0000 0.0000 27.2213
#
#
#
# Elastic Compliance Matrix: (Units=1/GPa)
#
#
# Indices 1 2 3 4 5 6 
#
# 1 0.024331 -0.011867 -0.008462 0.000000 0.000000 0.000000
# 2 -0.011867 0.020745 -0.004435 0.000000 0.000000 0.000000
# 3 -0.008462 -0.004435 0.031141 0.000000 0.000000 0.000000
# 4 0.000000 0.000000 0.000000 -0.771781 0.000000 0.000000
# 5 0.000000 0.000000 0.000000 0.000000 0.047436 0.000000
# 6 0.000000 0.000000 0.000000 0.000000 0.000000 0.036736
#
#
# Mechanical properties :
#
#
# Convention : Reuss Voigt Hill
#
# Bulk Modulus (GPa) = 37.46718 44.07848 40.77283
# Shear Modulus (GPa) = -9.04212 15.94969 3.45378
#
# Velocity S-wave (km/s) = -2.22998 2.96171 1.37820
# Velocity P-wave (km/s) = 3.73833 5.99475 4.99561
#
# Compressibility (1/GPa) = 0.02669003
#
# Stress axis : x y z
#
# Youngs Moduli (GPa) = 41.09922 48.20410 32.11188
#
# Poissons Ratio (x) = 0.57202 0.27173
# Poissons Ratio (y) = 0.48771 0.14242
# Poissons Ratio (z) = 0.34778 0.21379
#
# Static dielectric constant tensor:
#      x y z
#    x 3.359800 0.000000 0.000000 
#    y 0.000000 3.409160 0.000000 
#    z 0.000000 0.000000 3.234060 
# 
# 
# High freq. dielectric constant tensor:
#      x y z
#    x 1.701550 0.000000 0.000000 
#    y 0.000000 1.695080 0.000000 
#    z 0.000000 0.000000 1.685580 
# 
# From -- ./inp_files/6052.got.cif
#   From: 2010.03.12/outbox.cif.g09.slc.cpg/sg55_4_cif.got.tgz:6052.got - 2010.04.16 15:19:21.
