data_PCOD8225374
_publ_section_title
;
Structure prediction by ZEFSAII (Michael W. Deem and Ramdas Pophale) SiO2 
 PCOD8225374
Probable space group: P B A M
;
_chemical_formula_sum "Si O2"
_cell_formula_units_Z 36
_cell_length_a 15.231149
_cell_length_b 4.944758
_cell_length_c 23.650220
_cell_angle_alpha 90.000000
_cell_angle_beta 90.000000
_cell_angle_gamma 90.000000
_cell_volume 1781.200849
_symmetry_space_group_name_H-M "P B A M"
_symmetry_group_IT_number 55
_symmetry_cell_setting 'orthorhombic'
loop_
_space_group_symop_operation_xyz
x,y,z
-x,-y,z
1/2+x,1/2-y,-z
1/2-x,1/2+y,-z
-x,-y,-z
x,y,-z
1/2-x,1/2+y,z
1/2+x,1/2-y,z
loop_
_atom_site_type_symbol
_atom_site_label
_atom_site_fract_x
_atom_site_fract_y
_atom_site_fract_z
Si Si1 0.058856 0.250312 0.220089
Si Si2 0.810531 0.711065 0.879203
Si Si3 0.693418 0.098790 0.000000
Si Si4 0.308287 0.599468 0.439661
Si Si5 0.189204 0.212032 0.680194
O O1 0.116827 0.348177 0.167479
O O2 0.118298 0.153341 0.272052
O O3 0.000000 0.500000 0.240364
O O4 0.000000 0.000000 0.200312
O O5 0.727739 0.511041 0.872076
O O6 0.856501 0.670860 0.941290
O O7 0.782372 0.282153 0.000000
O O8 0.359482 0.651818 0.500000
O O9 0.278704 0.287891 0.438424
O O10 0.359498 0.668504 0.381251
O O11 0.227708 0.512230 0.686448
#
# Coordination Sequence:
#
# PCOD8225374 Si02
#       5
#     8   8   4   8   8
#     4  12  24  36  50  75 108 137 167 209 255 293
#     4  10  19  36  58  78 100 132 172 207 246 300
#     4   8  16  30  54  80  98 122 164 212 246 286
#     4   8  14  25  45  73  97 117 155 210 252 284
#     4  10  19  34  55  75  97 133 174 207 246 300
#
# _framework density 20.211085000000001
#
# number of rings (size 3 to 8) (size 9 to 14) (size 15 to 20)
#    0.000    2.222    0.000    4.000    0.000    0.000 
#    0.000    1.111    0.000    1.333    0.000    0.000 
#    0.000    0.000    0.000    0.000    0.000    0.000 
#
# Total GULP energy -446052.915714 kJ/mol
# GULP energy per Si atom -12390.358770 kJ/mol
# Density = 2.016508 g / cm^3
# Si number density = 20.211085 Si / 1000 Ang^3
#
#
#
# Elastic Constant Matrix: (Units=GPa)
#
#
# Indices 1 2 3 4 5 6 
#
# 1 39.6589 4.7332 39.5230 0.0000 0.0000 0.0000
# 2 4.7332 79.0771 -2.0682 0.0000 0.0000 0.0000
# 3 39.5230 -2.0682 175.0445 0.0000 0.0000 0.0000
# 4 0.0000 0.0000 0.0000 27.1170 0.0000 0.0000
# 5 0.0000 0.0000 0.0000 0.0000 -3.0024 0.0000
# 6 0.0000 0.0000 0.0000 0.0000 0.0000 12.7748
#
#
#
# Elastic Compliance Matrix: (Units=1/GPa)
#
#
# Indices 1 2 3 4 5 6 
#
# 1 0.032902 -0.002164 -0.007455 0.000000 0.000000 0.000000
# 2 -0.002164 0.012792 0.000640 0.000000 0.000000 0.000000
# 3 -0.007455 0.000640 0.007404 0.000000 0.000000 0.000000
# 4 0.000000 0.000000 0.000000 0.036877 0.000000 0.000000
# 5 0.000000 0.000000 0.000000 0.000000 -0.333067 0.000000
# 6 0.000000 0.000000 0.000000 0.000000 0.000000 0.078279
#
#
# Mechanical properties :
#
#
# Convention : Reuss Voigt Hill
#
# Bulk Modulus (GPa) = 28.45765 42.01740 35.23752
# Shear Modulus (GPa) = -36.99856 24.15069 -6.42394
#
# Velocity S-wave (km/s) = -4.28320 3.46052 -1.78475
# Velocity P-wave (km/s) = 3.21719 6.06641 3.63669
#
# Compressibility (1/GPa) = 0.03513994
#
# Stress axis : x y z
#
# Youngs Moduli (GPa) = 30.39293 78.17277 135.07042
#
# Poissons Ratio (x) = 0.16919 1.00689
# Poissons Ratio (y) = 0.06578 -0.08642
# Poissons Ratio (z) = 0.22657 -0.05002
#
# Static dielectric constant tensor:
#      x y z
#    x 2.915720 0.000000 0.000000 
#    y 0.000000 3.776350 0.000000 
#    z 0.000000 0.000000 4.319470 
# 
# 
# High freq. dielectric constant tensor:
#      x y z
#    x 1.699430 0.000000 0.000000 
#    y 0.000000 1.813010 0.000000 
#    z 0.000000 0.000000 1.826280 
# 
# From -- ./inp_files/23229.got.cif
#   From: 2010.03.12/outbox.cif.g09.slc.cpg/sg55_12_cif.got.tgz:23229.got - 2010.04.16 15:19:21.
