data_PCOD8225548
_publ_section_title
;
Structure prediction by ZEFSAII (Michael W. Deem and Ramdas Pophale) SiO2 
 PCOD8225548
Probable space group: P B A M
;
_chemical_formula_sum "Si O2"
_cell_formula_units_Z 64
_cell_length_a 14.795800
_cell_length_b 24.721964
_cell_length_c 8.869198
_cell_angle_alpha 90.000000
_cell_angle_beta 90.000000
_cell_angle_gamma 90.000000
_cell_volume 3244.186197
_symmetry_space_group_name_H-M "P B A M"
_symmetry_group_IT_number 55
_symmetry_cell_setting 'orthorhombic'
loop_
_space_group_symop_operation_xyz
x,y,z
-x,-y,z
1/2+x,1/2-y,-z
1/2-x,1/2+y,-z
-x,-y,-z
x,y,-z
1/2-x,1/2+y,z
1/2+x,1/2-y,z
loop_
_atom_site_type_symbol
_atom_site_label
_atom_site_fract_x
_atom_site_fract_y
_atom_site_fract_z
Si Si1 0.771000 0.517094 0.177695
Si Si2 0.879435 0.782716 0.668537
Si Si3 0.937616 0.199334 0.822155
Si Si4 0.823964 0.297450 0.678807
Si Si5 0.630680 0.157747 0.664720
Si Si6 0.644343 0.910661 0.175833
Si Si7 0.321976 0.388849 0.675511
Si Si8 0.449428 0.930667 0.172346
O O1 0.771786 0.451889 0.208142
O O2 0.690893 0.549517 0.262276
O O3 0.866046 0.538161 0.251148
O O4 0.761434 0.528617 0.000000
O O5 0.889518 0.807872 0.500000
O O6 0.779749 0.794004 0.735511
O O7 0.893253 0.719476 0.658622
O O8 0.956699 0.804418 0.778945
O O9 0.886316 0.250867 0.750068
O O10 0.900378 0.141848 0.764776
O O11 0.927043 0.203919 0.000000
O O12 0.829777 0.289369 0.500000
O O13 0.855480 0.357542 0.722511
O O14 0.612839 0.131541 0.500000
O O15 0.734417 0.147713 0.709638
O O16 0.562823 0.132496 0.786930
O O17 0.552696 0.945647 0.214437
O O18 0.642326 0.893351 0.000000
O O19 0.346875 0.391727 0.500000
O O20 0.434122 0.942548 0.000000
#
# Coordination Sequence:
#
# PCOD8225548 Si02
#       8
#     8   8   8   8   8   8   8   8
#     4   9  18  33  53  78 110 149 190 235 283 331
#     4  10  21  38  57  78 110 150 189 230 281 337
#     4  12  24  37  58  87 115 146 187 233 287 342
#     4  11  23  40  59  82 116 155 192 232 282 340
#     4   9  17  31  50  73 103 140 180 221 267 320
#     4  10  20  34  52  78 113 150 189 232 283 338
#     4  10  19  35  56  79 108 143 186 229 275 328
#     4   9  17  29  48  76 109 146 185 224 271 326
#
# _framework density 19.727598
#
# number of rings (size 3 to 8) (size 9 to 14) (size 15 to 20)
#    0.000    2.000    1.250    3.000    0.000    6.500 
#    0.000    0.000    0.000    4.500    0.000    5.250 
#    0.000    0.000    0.000    0.000    0.000    0.000 
#
# Total GULP energy -792976.313499 kJ/mol
# GULP energy per Si atom -12390.254898 kJ/mol
# Density = 1.968270 g / cm^3
# Si number density = 19.727598 Si / 1000 Ang^3
#
#
#
# Elastic Constant Matrix: (Units=GPa)
#
#
# Indices 1 2 3 4 5 6 
#
# 1 67.4714 -2.6889 24.9644 0.0000 0.0000 0.0000
# 2 -2.6889 37.9776 9.9147 0.0000 0.0000 0.0000
# 3 24.9644 9.9147 64.7411 0.0000 0.0000 0.0000
# 4 0.0000 0.0000 0.0000 20.1367 0.0000 0.0000
# 5 0.0000 0.0000 0.0000 0.0000 24.4725 0.0000
# 6 0.0000 0.0000 0.0000 0.0000 0.0000 19.6962
#
#
#
# Elastic Compliance Matrix: (Units=1/GPa)
#
#
# Indices 1 2 3 4 5 6 
#
# 1 0.017642 0.003151 -0.007286 0.000000 0.000000 0.000000
# 2 0.003151 0.027991 -0.005502 0.000000 0.000000 0.000000
# 3 -0.007286 -0.005502 0.019098 0.000000 0.000000 0.000000
# 4 0.000000 0.000000 0.000000 0.049661 0.000000 0.000000
# 5 0.000000 0.000000 0.000000 0.000000 0.040862 0.000000
# 6 0.000000 0.000000 0.000000 0.000000 0.000000 0.050771
#
#
# Mechanical properties :
#
#
# Convention : Reuss Voigt Hill
#
# Bulk Modulus (GPa) = 21.99791 26.06340 24.03065
# Shear Modulus (GPa) = 20.79433 22.06107 21.42770
#
# Velocity S-wave (km/s) = 3.25017 3.34770 3.29930
# Velocity P-wave (km/s) = 5.02592 5.30878 5.16928
#
# Compressibility (1/GPa) = 0.04545887
#
# Stress axis : x y z
#
# Youngs Moduli (GPa) = 56.68189 35.72613 52.36150
#
# Poissons Ratio (x) = -0.11258 0.38148
# Poissons Ratio (y) = -0.17861 0.28808
# Poissons Ratio (z) = 0.41296 0.19655
#
# Static dielectric constant tensor:
#      x y z
#    x 3.594180 0.000000 0.000000 
#    y 0.000000 3.566450 0.000000 
#    z 0.000000 0.000000 3.594560 
# 
# 
# High freq. dielectric constant tensor:
#      x y z
#    x 1.751890 0.000000 0.000000 
#    y 0.000000 1.761810 0.000000 
#    z 0.000000 0.000000 1.759130 
# 
# From -- ./inp_files/6649.got.cif
#   From: 2010.03.12/outbox.cif.g09.slc.cpg/sg55_4_cif.got.tgz:6649.got - 2010.04.16 15:19:21.
