data_PCOD8225866
_publ_section_title
;
Structure prediction by ZEFSAII (Michael W. Deem and Ramdas Pophale) SiO2 
 PCOD8225866
Probable space group: P B A M
;
_chemical_formula_sum "Si O2"
_cell_formula_units_Z 56
_cell_length_a 20.914629
_cell_length_b 14.858384
_cell_length_c 8.683657
_cell_angle_alpha 90.000000
_cell_angle_beta 90.000000
_cell_angle_gamma 90.000000
_cell_volume 2698.512312
_symmetry_space_group_name_H-M "P B A M"
_symmetry_group_IT_number 55
_symmetry_cell_setting 'orthorhombic'
loop_
_space_group_symop_operation_xyz
x,y,z
-x,-y,z
1/2+x,1/2-y,-z
1/2-x,1/2+y,-z
-x,-y,-z
x,y,-z
1/2-x,1/2+y,z
1/2+x,1/2-y,z
loop_
_atom_site_type_symbol
_atom_site_label
_atom_site_fract_x
_atom_site_fract_y
_atom_site_fract_z
Si Si1 0.047634 0.573072 0.320870
Si Si2 0.529093 0.728397 0.683503
Si Si3 0.840226 0.171853 0.817341
Si Si4 0.370353 0.945710 0.829215
Si Si5 0.602322 0.251473 0.817382
Si Si6 0.236719 0.189301 0.318754
Si Si7 0.733474 0.500333 0.172436
O O1 0.035255 0.581141 0.500000
O O2 0.040113 0.671152 0.249910
O O3 0.116499 0.530981 0.282080
O O4 0.000000 0.500000 0.243599
O O5 0.530157 0.720778 0.500000
O O6 0.587638 0.673038 0.753249
O O7 0.459531 0.696841 0.746621
O O8 0.794278 0.249531 0.747980
O O9 0.820381 0.070071 0.769698
O O10 0.839198 0.184825 0.000000
O O11 0.402379 0.853531 0.768351
O O12 0.294548 0.933618 0.830605
O O13 0.395814 0.968036 0.000000
O O14 0.667451 0.289225 0.749137
O O15 0.603714 0.263768 0.000000
O O16 0.236652 0.205073 0.500000
O O17 0.246362 0.083778 0.283249
O O18 0.718411 0.463966 0.000000
#
# Coordination Sequence:
#
# PCOD8225866 Si02
#       7
#     8   8   8   8   8   8   8
#     4  10  20  33  50  79 120 160 194 238 303 371
#     4  11  23  39  59  90 128 167 208 261 321 374
#     4  11  23  43  67  93 127 169 213 261 315 378
#     4  10  20  35  58  86 115 154 203 252 302 361
#     4  11  22  40  63  89 122 166 212 256 308 373
#     4  12  25  41  65  97 129 166 209 263 322 375
#     4  10  22  42  65  90 121 161 211 263 312 372
#
# _framework density 20.752175000000001
#
# number of rings (size 3 to 8) (size 9 to 14) (size 15 to 20)
#    0.000    1.286    2.857    3.429    0.000    6.000 
#    0.000    0.714    0.000    4.286    0.000    0.000 
#    0.000    0.000    0.000    0.000    0.000    0.000 
#
# Total GULP energy -694098.962574 kJ/mol
# GULP energy per Si atom -12394.624332 kJ/mol
# Density = 2.070494 g / cm^3
# Si number density = 20.752175 Si / 1000 Ang^3
#
#
#
# Elastic Constant Matrix: (Units=GPa)
#
#
# Indices 1 2 3 4 5 6 
#
# 1 117.2487 13.6273 32.7269 0.0000 0.0000 0.0000
# 2 13.6273 55.5220 21.7454 0.0000 0.0000 0.0000
# 3 32.7269 21.7454 88.3268 0.0000 0.0000 0.0000
# 4 0.0000 0.0000 0.0000 24.5851 0.0000 0.0000
# 5 0.0000 0.0000 0.0000 0.0000 36.8344 0.0000
# 6 0.0000 0.0000 0.0000 0.0000 0.0000 30.3207
#
#
#
# Elastic Compliance Matrix: (Units=1/GPa)
#
#
# Indices 1 2 3 4 5 6 
#
# 1 0.009569 -0.001062 -0.003284 0.000000 0.000000 0.000000
# 2 -0.001062 0.020051 -0.004543 0.000000 0.000000 0.000000
# 3 -0.003284 -0.004543 0.013657 0.000000 0.000000 0.000000
# 4 0.000000 0.000000 0.000000 0.040675 0.000000 0.000000
# 5 0.000000 0.000000 0.000000 0.000000 0.027149 0.000000
# 6 0.000000 0.000000 0.000000 0.000000 0.000000 0.032981
#
#
# Mechanical properties :
#
#
# Convention : Reuss Voigt Hill
#
# Bulk Modulus (GPa) = 39.21819 44.14406 41.68112
# Shear Modulus (GPa) = 29.34987 31.21457 30.28222
#
# Velocity S-wave (km/s) = 3.76480 3.88256 3.82413
# Velocity P-wave (km/s) = 6.15123 6.43562 6.29503
#
# Compressibility (1/GPa) = 0.02549837
#
# Stress axis : x y z
#
# Youngs Moduli (GPa) = 104.50427 49.87334 73.22395
#
# Poissons Ratio (x) = 0.05299 0.24046
# Poissons Ratio (y) = 0.11103 0.33263
# Poissons Ratio (z) = 0.34319 0.22656
#
# Static dielectric constant tensor:
#      x y z
#    x 3.969390 0.000000 0.000000 
#    y 0.000000 3.704260 0.000000 
#    z 0.000000 0.000000 3.633500 
# 
# 
# High freq. dielectric constant tensor:
#      x y z
#    x 1.825090 0.000000 0.000000 
#    y 0.000000 1.796490 0.000000 
#    z 0.000000 0.000000 1.808410 
# 
# From -- ./inp_files/8708.got.cif
#   From: 2010.03.12/outbox.cif.g09.slc.cpg/sg55_5_cif.got.tgz:8708.got - 2010.04.16 15:19:21.
