data_PCOD8225274
_publ_section_title
;
Structure prediction by ZEFSAII (Michael W. Deem and Ramdas Pophale) SiO2 
 PCOD8225274
Probable space group: P B A M
;
_chemical_formula_sum "Si O2"
_cell_formula_units_Z 64
_cell_length_a 13.609079
_cell_length_b 24.489830
_cell_length_c 9.589828
_cell_angle_alpha 90.000000
_cell_angle_beta 90.000000
_cell_angle_gamma 90.000000
_cell_volume 3196.136534
_symmetry_space_group_name_H-M "P B A M"
_symmetry_group_IT_number 55
_symmetry_cell_setting 'orthorhombic'
loop_
_space_group_symop_operation_xyz
x,y,z
-x,-y,z
1/2+x,1/2-y,-z
1/2-x,1/2+y,-z
-x,-y,-z
x,y,-z
1/2-x,1/2+y,z
1/2+x,1/2-y,z
loop_
_atom_site_type_symbol
_atom_site_label
_atom_site_fract_x
_atom_site_fract_y
_atom_site_fract_z
Si Si1 0.548093 0.669447 0.841545
Si Si2 0.273534 0.505487 0.660226
Si Si3 0.170452 0.650833 0.849717
Si Si4 0.263290 0.400495 0.838730
Si Si5 0.911052 0.628533 0.650798
Si Si6 0.067521 0.548452 0.747268
Si Si7 0.368121 0.595296 0.842189
Si Si8 0.948902 0.274464 0.341538
O O1 0.658091 0.647498 0.822419
O O2 0.473084 0.620905 0.804908
O O3 0.529214 0.718688 0.737143
O O4 0.530664 0.689423 0.000000
O O5 0.303839 0.497172 0.500000
O O6 0.296321 0.451469 0.747190
O O7 0.158065 0.520866 0.665062
O O8 0.345032 0.550032 0.727448
O O9 0.114448 0.591921 0.854481
O O10 0.286248 0.642384 0.830680
O O11 0.139308 0.691989 0.729156
O O12 0.148703 0.678181 0.000000
O O13 0.159777 0.379017 0.781436
O O14 0.250121 0.417988 0.000000
O O15 0.856678 0.623133 0.500000
O O16 0.953407 0.689282 0.665592
O O17 0.997890 0.583600 0.645899
O O18 0.000000 0.500000 0.816357
O O19 0.368528 0.570698 0.000000
O O20 0.917665 0.261804 0.500000
#
# Coordination Sequence:
#
# PCOD8225274 Si02
#       8
#     8   8   8   8   8   8   8   8
#     4  10  23  43  63  80 107 152 200 244 288 335
#     4  11  22  37  59  87 120 155 188 232 288 345
#     4   9  19  35  57  87 117 146 184 232 281 336
#     4  11  24  39  57  85 117 152 195 238 283 337
#     4  10  21  38  58  86 121 155 188 227 284 346
#     4  10  19  33  55  88 119 155 188 221 274 338
#     4   9  20  40  62  84 111 148 195 241 285 338
#     4  10  22  39  60  87 118 150 186 234 289 346
#
# _framework density 20.024175
#
# number of rings (size 3 to 8) (size 9 to 14) (size 15 to 20)
#    0.000    2.000    1.250    1.500    0.000    9.750 
#    0.000    6.250    0.000    0.000    0.000    0.000 
#    0.000    0.000    0.000    0.000    0.000    0.000 
#
# Total GULP energy -793370.316440 kJ/mol
# GULP energy per Si atom -12396.411194 kJ/mol
# Density = 1.997860 g / cm^3
# Si number density = 20.024175 Si / 1000 Ang^3
#
#
#
# Elastic Constant Matrix: (Units=GPa)
#
#
# Indices 1 2 3 4 5 6 
#
# 1 49.9938 16.8430 24.9616 0.0000 0.0000 0.0000
# 2 16.8430 87.5511 56.3981 0.0000 0.0000 0.0000
# 3 24.9616 56.3981 151.2345 0.0000 0.0000 0.0000
# 4 0.0000 0.0000 0.0000 28.4627 0.0000 0.0000
# 5 0.0000 0.0000 0.0000 0.0000 20.0964 0.0000
# 6 0.0000 0.0000 0.0000 0.0000 0.0000 19.3193
#
#
#
# Elastic Compliance Matrix: (Units=1/GPa)
#
#
# Indices 1 2 3 4 5 6 
#
# 1 0.022212 -0.002516 -0.002728 0.000000 0.000000 0.000000
# 2 -0.002516 0.015318 -0.005297 0.000000 0.000000 0.000000
# 3 -0.002728 -0.005297 0.009038 0.000000 0.000000 0.000000
# 4 0.000000 0.000000 0.000000 0.035134 0.000000 0.000000
# 5 0.000000 0.000000 0.000000 0.000000 0.049760 0.000000
# 6 0.000000 0.000000 0.000000 0.000000 0.000000 0.051762
#
#
# Mechanical properties :
#
#
# Convention : Reuss Voigt Hill
#
# Bulk Modulus (GPa) = 39.23687 53.90942 46.57314
# Shear Modulus (GPa) = 23.49610 26.28080 24.88845
#
# Velocity S-wave (km/s) = 3.42919 3.62671 3.52933
# Velocity P-wave (km/s) = 5.94276 6.67218 6.31801
#
# Compressibility (1/GPa) = 0.02548623
#
# Stress axis : x y z
#
# Youngs Moduli (GPa) = 45.02047 65.28174 110.64498
#
# Poissons Ratio (x) = 0.16424 0.30183
# Poissons Ratio (y) = 0.11327 0.58611
# Poissons Ratio (z) = 0.12281 0.34581
#
# Static dielectric constant tensor:
#      x y z
#    x 3.565160 0.000000 0.000000 
#    y 0.000000 3.546750 0.000000 
#    z 0.000000 0.000000 3.656200 
# 
# 
# High freq. dielectric constant tensor:
#      x y z
#    x 1.773660 0.000000 0.000000 
#    y 0.000000 1.775880 0.000000 
#    z 0.000000 0.000000 1.782450 
# 
# From -- ./inp_files/6541.got.cif
#   From: 2010.03.12/outbox.cif.g09.slc.cpg/sg55_4_cif.got.tgz:6541.got - 2010.04.16 15:19:21.
