data_PCOD8225743
_publ_section_title
;
Structure prediction by ZEFSAII (Michael W. Deem and Ramdas Pophale) SiO2 
 PCOD8225743
Probable space group: P B A M
;
_chemical_formula_sum "Si O2"
_cell_formula_units_Z 64
_cell_length_a 13.782995
_cell_length_b 13.721795
_cell_length_c 16.408031
_cell_angle_alpha 90.000000
_cell_angle_beta 90.000000
_cell_angle_gamma 90.000000
_cell_volume 3103.208765
_symmetry_space_group_name_H-M "P B A M"
_symmetry_group_IT_number 55
_symmetry_cell_setting 'orthorhombic'
loop_
_space_group_symop_operation_xyz
x,y,z
-x,-y,z
1/2+x,1/2-y,-z
1/2-x,1/2+y,-z
-x,-y,-z
x,y,-z
1/2-x,1/2+y,z
1/2+x,1/2-y,z
loop_
_atom_site_type_symbol
_atom_site_label
_atom_site_fract_x
_atom_site_fract_y
_atom_site_fract_z
Si Si1 0.236879 0.939115 0.904715
Si Si2 0.111266 0.025045 0.368611
Si Si3 0.007056 0.252270 0.763611
Si Si4 0.794276 0.242355 0.201721
Si Si5 0.602391 0.051775 0.782515
Si Si6 0.269951 0.886063 0.350117
Si Si7 0.137601 0.089597 0.193005
Si Si8 0.584354 0.264203 0.411159
O O1 0.214357 0.829442 0.875842
O O2 0.333907 0.980292 0.860139
O O3 0.149989 0.015292 0.882700
O O4 0.255217 0.938911 0.000000
O O5 0.132859 0.021570 0.272284
O O6 0.136874 0.130416 0.405613
O O7 0.187156 0.943570 0.402211
O O8 0.000000 0.000000 0.390750
O O9 0.086804 0.331544 0.790029
O O10 0.037343 0.151125 0.808172
O O11 0.009118 0.242315 0.664436
O O12 0.902909 0.285706 0.794926
O O13 0.780261 0.183686 0.284452
O O14 0.726100 0.335083 0.195338
O O15 0.661626 0.035252 0.698297
O O16 0.500000 0.000000 0.779056
O O17 0.334584 0.820174 0.409644
O O18 0.532168 0.255493 0.500000
#
# Coordination Sequence:
#
# PCOD8225743 Si02
#       8
#     8   8   8   8   8   8   8   8
#     4  11  24  39  59  89 128 156 196 261 312 353
#     4  11  21  37  66  91 120 163 213 254 299 375
#     4  10  21  37  65  86 114 161 207 250 287 370
#     4  11  20  40  64  88 116 159 210 240 300 370
#     4  10  19  37  62  87 113 160 207 242 294 370
#     4  10  19  37  60  90 121 163 204 254 296 360
#     4  11  20  38  61  92 116 157 209 244 298 364
#     4  10  22  38  57  91 130 158 200 257 312 350
#
# _framework density 20.623813999999999
#
# number of rings (size 3 to 8) (size 9 to 14) (size 15 to 20)
#    0.000    1.500    7.500    2.250    0.000    1.500 
#    0.000    3.750    0.000    6.000    0.000    0.000 
#    0.000    0.000    0.000    0.000    0.000    0.000 
#
# Total GULP energy -793222.593735 kJ/mol
# GULP energy per Si atom -12394.103027 kJ/mol
# Density = 2.057687 g / cm^3
# Si number density = 20.623814 Si / 1000 Ang^3
#
#
#
# Elastic Constant Matrix: (Units=GPa)
#
#
# Indices 1 2 3 4 5 6 
#
# 1 95.7446 15.3986 23.7285 0.0000 0.0000 0.0000
# 2 15.3986 58.3377 20.8730 0.0000 0.0000 0.0000
# 3 23.7285 20.8730 97.1260 0.0000 0.0000 0.0000
# 4 0.0000 0.0000 0.0000 -95.2161 0.0000 0.0000
# 5 0.0000 0.0000 0.0000 0.0000 10.0184 0.0000
# 6 0.0000 0.0000 0.0000 0.0000 0.0000 35.1118
#
#
#
# Elastic Compliance Matrix: (Units=1/GPa)
#
#
# Indices 1 2 3 4 5 6 
#
# 1 0.011366 -0.002174 -0.002310 0.000000 0.000000 0.000000
# 2 -0.002174 0.018985 -0.003549 0.000000 0.000000 0.000000
# 3 -0.002310 -0.003549 0.011623 0.000000 0.000000 0.000000
# 4 0.000000 0.000000 0.000000 -0.010502 0.000000 0.000000
# 5 0.000000 0.000000 0.000000 0.000000 0.099816 0.000000
# 6 0.000000 0.000000 0.000000 0.000000 0.000000 0.028480
#
#
# Mechanical properties :
#
#
# Convention : Reuss Voigt Hill
#
# Bulk Modulus (GPa) = 38.59591 41.24539 39.92065
# Shear Modulus (GPa) = 27.10462 2.73004 14.91733
#
# Velocity S-wave (km/s) = 3.62918 1.15178 2.69235
# Velocity P-wave (km/s) = 6.02628 4.67024 5.39107
#
# Compressibility (1/GPa) = 0.02590948
#
# Stress axis : x y z
#
# Youngs Moduli (GPa) = 87.97784 52.67273 86.03724
#
# Poissons Ratio (x) = 0.11450 0.19872
# Poissons Ratio (y) = 0.19125 0.30534
# Poissons Ratio (z) = 0.20321 0.18693
#
# Static dielectric constant tensor:
#      x y z
#    x 3.765220 0.000000 0.000000 
#    y 0.000000 4.033540 0.000000 
#    z 0.000000 0.000000 3.349820 
# 
# 
# High freq. dielectric constant tensor:
#      x y z
#    x 1.805330 0.000000 0.000000 
#    y 0.000000 1.820910 0.000000 
#    z 0.000000 0.000000 1.763110 
# 
# From -- ./inp_files/21684.got.cif
#   From: 2010.03.12/outbox.cif.g09.slc.cpg/sg55_11_cif.got.tgz:21684.got - 2010.04.16 15:19:21.
