data_PCOD8225525
_publ_section_title
;
Structure prediction by ZEFSAII (Michael W. Deem and Ramdas Pophale) SiO2 
 PCOD8225525
Probable space group: P B A M
;
_chemical_formula_sum "Si O2"
_cell_formula_units_Z 56
_cell_length_a 21.714553
_cell_length_b 14.376598
_cell_length_c 9.156429
_cell_angle_alpha 90.000000
_cell_angle_beta 90.000000
_cell_angle_gamma 90.000000
_cell_volume 2858.466817
_symmetry_space_group_name_H-M "P B A M"
_symmetry_group_IT_number 55
_symmetry_cell_setting 'orthorhombic'
loop_
_space_group_symop_operation_xyz
x,y,z
-x,-y,z
1/2+x,1/2-y,-z
1/2-x,1/2+y,-z
-x,-y,-z
x,y,-z
1/2-x,1/2+y,z
1/2+x,1/2-y,z
loop_
_atom_site_type_symbol
_atom_site_label
_atom_site_fract_x
_atom_site_fract_y
_atom_site_fract_z
Si Si1 0.577738 0.586248 0.827644
Si Si2 0.303036 0.917882 0.328397
Si Si3 0.802762 0.192710 0.829365
Si Si4 0.058980 0.119740 0.827427
Si Si5 0.474602 0.102901 0.833946
Si Si6 0.665361 0.900978 0.169574
Si Si7 0.920458 0.701994 0.329165
O O1 0.632922 0.650540 0.768859
O O2 0.511851 0.622633 0.770354
O O3 0.588805 0.478992 0.781464
O O4 0.574329 0.591569 0.000000
O O5 0.292135 0.925291 0.500000
O O6 0.251889 0.851580 0.261215
O O7 0.369163 0.874136 0.289436
O O8 0.298703 0.020583 0.260075
O O9 0.801273 0.303064 0.802506
O O10 0.794568 0.168962 0.000000
O O11 0.097181 0.200158 0.745991
O O12 0.063798 0.135766 0.000000
O O13 0.404947 0.105944 0.776247
O O14 0.514001 0.169688 0.732041
O O15 0.500000 0.000000 0.822552
O O16 0.478209 0.140717 0.000000
O O17 0.667050 0.929403 0.000000
O O18 0.925712 0.717706 0.500000
#
# Coordination Sequence:
#
# PCOD8225525 Si02
#       7
#     8   8   8   8   8   8   8
#     4   8  16  34  59  87 112 139 180 233 287 333
#     4  11  25  41  55  77 115 157 193 230 275 336
#     4  10  21  38  61  85 112 146 192 242 283 332
#     4   9  17  33  60  86 112 144 180 227 283 340
#     4  10  19  34  61  90 114 143 182 234 290 346
#     4  10  21  39  63  90 115 144 188 241 292 342
#     4  11  23  36  52  80 118 154 187 229 281 337
#
# _framework density 19.590923
#
# number of rings (size 3 to 8) (size 9 to 14) (size 15 to 20)
#    0.000    2.143    1.429    2.571    0.000    6.571 
#    0.000    8.571    0.000    0.000    0.000    0.000 
#    0.000    0.000    0.000    0.000    0.000    0.000 
#
# Total GULP energy -694487.447461 kJ/mol
# GULP energy per Si atom -12401.561562 kJ/mol
# Density = 1.954633 g / cm^3
# Si number density = 19.590923 Si / 1000 Ang^3
#
#
#
# Elastic Constant Matrix: (Units=GPa)
#
#
# Indices 1 2 3 4 5 6 
#
# 1 74.6949 41.0293 39.6633 0.0000 0.0000 0.0000
# 2 41.0293 130.4072 56.0527 0.0000 0.0000 0.0000
# 3 39.6633 56.0527 67.4327 0.0000 0.0000 0.0000
# 4 0.0000 0.0000 0.0000 8.8190 0.0000 0.0000
# 5 0.0000 0.0000 0.0000 0.0000 15.1905 0.0000
# 6 0.0000 0.0000 0.0000 0.0000 0.0000 29.1067
#
#
#
# Elastic Compliance Matrix: (Units=1/GPa)
#
#
# Indices 1 2 3 4 5 6 
#
# 1 0.019767 -0.001901 -0.010047 0.000000 0.000000 0.000000
# 2 -0.001901 0.012114 -0.008952 0.000000 0.000000 0.000000
# 3 -0.010047 -0.008952 0.028180 0.000000 0.000000 0.000000
# 4 0.000000 0.000000 0.000000 0.113392 0.000000 0.000000
# 5 0.000000 0.000000 0.000000 0.000000 0.065831 0.000000
# 6 0.000000 0.000000 0.000000 0.000000 0.000000 0.034356
#
#
# Mechanical properties :
#
#
# Convention : Reuss Voigt Hill
#
# Bulk Modulus (GPa) = 54.75678 60.66948 57.71313
# Shear Modulus (GPa) = 15.55090 19.67587 17.61339
#
# Velocity S-wave (km/s) = 2.82047 3.17256 3.00168
# Velocity P-wave (km/s) = 6.21430 6.66750 6.44489
#
# Compressibility (1/GPa) = 0.01826258
#
# Stress axis : x y z
#
# Youngs Moduli (GPa) = 50.59027 82.54948 35.48648
#
# Poissons Ratio (x) = 0.15691 0.35652
# Poissons Ratio (y) = 0.09616 0.31766
# Poissons Ratio (z) = 0.50826 0.73895
#
# Static dielectric constant tensor:
#      x y z
#    x 3.697970 0.000000 0.000000 
#    y 0.000000 3.757520 0.000000 
#    z 0.000000 0.000000 3.288540 
# 
# 
# High freq. dielectric constant tensor:
#      x y z
#    x 1.755120 0.000000 0.000000 
#    y 0.000000 1.781000 0.000000 
#    z 0.000000 0.000000 1.735100 
# 
# From -- ./inp_files/6161.got.cif
#   From: 2010.03.12/outbox.cif.g09.slc.cpg/sg55_4_cif.got.tgz:6161.got - 2010.04.16 15:19:21.
