data_PCOD8225855
_publ_section_title
;
Structure prediction by ZEFSAII (Michael W. Deem and Ramdas Pophale) SiO2 
 PCOD8225855
Probable space group: P B A M
;
_chemical_formula_sum "Si O2"
_cell_formula_units_Z 32
_cell_length_a 20.458980
_cell_length_b 9.362391
_cell_length_c 8.692250
_cell_angle_alpha 90.000000
_cell_angle_beta 90.000000
_cell_angle_gamma 90.000000
_cell_volume 1664.956767
_symmetry_space_group_name_H-M "P B A M"
_symmetry_group_IT_number 55
_symmetry_cell_setting 'orthorhombic'
loop_
_space_group_symop_operation_xyz
x,y,z
-x,-y,z
1/2+x,1/2-y,-z
1/2-x,1/2+y,-z
-x,-y,-z
x,y,-z
1/2-x,1/2+y,z
1/2+x,1/2-y,z
loop_
_atom_site_type_symbol
_atom_site_label
_atom_site_fract_x
_atom_site_fract_y
_atom_site_fract_z
Si Si1 0.077818 0.103880 0.823871
Si Si2 0.279910 0.552015 0.176441
Si Si3 0.540906 0.688106 0.323558
Si Si4 0.818285 0.243570 0.320969
O O1 0.153633 0.146575 0.800173
O O2 0.024653 0.226930 0.776294
O O3 0.062505 0.974014 0.709926
O O4 0.066446 0.057409 0.000000
O O5 0.223369 0.616528 0.282131
O O6 0.292122 0.388178 0.220768
O O7 0.257093 0.556702 0.000000
O O8 0.521727 0.708447 0.500000
O O9 0.605544 0.780770 0.281401
O O10 0.811688 0.203899 0.500000
#
# Coordination Sequence:
#
# PCOD8225855 Si02
#       4
#     8   8   8   8
#     4   9  16  26  43  67  93 121 155 195 237 279
#     4  10  20  33  50  73 100 130 163 199 241 288
#     4   9  16  26  43  67  93 121 155 195 237 279
#     4  10  20  33  50  73 100 130 163 199 241 288
#
# _framework density 19.219718
#
# number of rings (size 3 to 8) (size 9 to 14) (size 15 to 20)
#    0.000    2.500    0.000    4.500    0.000    6.000 
#    0.000    0.000    0.000    1.500    0.000   10.500 
#    0.000    0.000    0.000    0.000    0.000    0.000 
#
# Total GULP energy -396442.067267 kJ/mol
# GULP energy per Si atom -12388.814602 kJ/mol
# Density = 1.917597 g / cm^3
# Si number density = 19.219718 Si / 1000 Ang^3
#
#
#
# Elastic Constant Matrix: (Units=GPa)
#
#
# Indices 1 2 3 4 5 6 
#
# 1 20.3063 -8.6380 13.5784 0.0000 0.0000 0.0000
# 2 -8.6380 15.3479 1.2349 0.0000 0.0000 0.0000
# 3 13.5784 1.2349 53.6307 0.0000 0.0000 0.0000
# 4 0.0000 0.0000 0.0000 19.8203 0.0000 0.0000
# 5 0.0000 0.0000 0.0000 0.0000 34.1250 0.0000
# 6 0.0000 0.0000 0.0000 0.0000 0.0000 24.9670
#
#
#
# Elastic Compliance Matrix: (Units=1/GPa)
#
#
# Indices 1 2 3 4 5 6 
#
# 1 0.085919 0.050200 -0.022909 0.000000 0.000000 0.000000
# 2 0.050200 0.094607 -0.014888 0.000000 0.000000 0.000000
# 3 -0.022909 -0.014888 0.024789 0.000000 0.000000 0.000000
# 4 0.000000 0.000000 0.000000 0.050453 0.000000 0.000000
# 5 0.000000 0.000000 0.000000 0.000000 0.029304 0.000000
# 6 0.000000 0.000000 0.000000 0.000000 0.000000 0.040053
#
#
# Mechanical properties :
#
#
# Convention : Reuss Voigt Hill
#
# Bulk Modulus (GPa) = 4.34556 11.29282 7.81919
# Shear Modulus (GPa) = 13.26167 21.32311 17.29239
#
# Velocity S-wave (km/s) = 2.62964 3.33444 3.00279
# Velocity P-wave (km/s) = 3.38909 4.55116 4.01242
#
# Compressibility (1/GPa) = 0.23011995
#
# Stress axis : x y z
#
# Youngs Moduli (GPa) = 11.63886 10.57008 40.34036
#
# Poissons Ratio (x) = -0.53062 0.92416
# Poissons Ratio (y) = -0.58427 0.60059
# Poissons Ratio (z) = 0.26664 0.15737
#
# Static dielectric constant tensor:
#      x y z
#    x 4.475520 0.000000 0.000000 
#    y 0.000000 2.753860 0.000000 
#    z 0.000000 0.000000 3.497560 
# 
# 
# High freq. dielectric constant tensor:
#      x y z
#    x 1.776220 0.000000 0.000000 
#    y 0.000000 1.661260 0.000000 
#    z 0.000000 0.000000 1.760540 
# 
# From -- ./inp_files/2005.got.cif
#   From: 2010.03.12/outbox.cif.g09.slc.cpg/sg55_2_cif.got.tgz:2005.got - 2010.04.16 15:19:21.
