data_PCOD8225246
_publ_section_title
;
Structure prediction by ZEFSAII (Michael W. Deem and Ramdas Pophale) SiO2 
 PCOD8225246
Probable space group: P B A M
;
_chemical_formula_sum "Si O2"
_cell_formula_units_Z 56
_cell_length_a 22.040746
_cell_length_b 14.596341
_cell_length_c 8.747446
_cell_angle_alpha 90.000000
_cell_angle_beta 90.000000
_cell_angle_gamma 90.000000
_cell_volume 2814.177981
_symmetry_space_group_name_H-M "P B A M"
_symmetry_group_IT_number 55
_symmetry_cell_setting 'orthorhombic'
loop_
_space_group_symop_operation_xyz
x,y,z
-x,-y,z
1/2+x,1/2-y,-z
1/2-x,1/2+y,-z
-x,-y,-z
x,y,-z
1/2-x,1/2+y,z
1/2+x,1/2-y,z
loop_
_atom_site_type_symbol
_atom_site_label
_atom_site_fract_x
_atom_site_fract_y
_atom_site_fract_z
Si Si1 0.572759 0.584552 0.180756
Si Si2 0.306086 0.914113 0.179988
Si Si3 0.809460 0.192959 0.818182
Si Si4 0.055379 0.102392 0.678166
Si Si5 0.471609 0.094749 0.676056
Si Si6 0.656650 0.889632 0.819266
Si Si7 0.909172 0.699687 0.326186
O O1 0.628760 0.645639 0.238532
O O2 0.586190 0.479426 0.227015
O O3 0.512952 0.620315 0.265103
O O4 0.563189 0.590982 0.000000
O O5 0.247592 0.862851 0.252021
O O6 0.365885 0.855808 0.214400
O O7 0.312966 0.017340 0.248557
O O8 0.298381 0.920658 0.000000
O O9 0.807972 0.298729 0.760114
O O10 0.806436 0.189983 0.000000
O O11 0.053091 0.076989 0.500000
O O12 0.096154 0.192223 0.707217
O O13 0.451787 0.085531 0.500000
O O14 0.413224 0.119478 0.773927
O O15 0.520979 0.173577 0.702441
O O16 0.500000 0.000000 0.735494
O O17 0.659209 0.893497 0.000000
O O18 0.890636 0.675898 0.500000
#
# Coordination Sequence:
#
# PCOD8225246 Si02
#       7
#     8   8   8   8   8   8   8
#     4  10  19  34  56  80 106 139 181 222 264 317
#     4  10  21  36  55  78 105 140 179 220 264 311
#     4   9  20  37  55  78 109 143 179 222 269 318
#     4  10  20  34  54  79 111 141 172 219 271 318
#     4  10  19  33  55  79 109 143 172 215 274 325
#     4  10  20  35  56  81 108 139 180 224 266 319
#     4  10  21  36  53  78 110 143 176 216 269 325
#
# _framework density 19.899236999999999
#
# number of rings (size 3 to 8) (size 9 to 14) (size 15 to 20)
#    0.000    2.143    1.429    2.571    0.000    3.143 
#    0.000    5.714    0.000    0.000    0.000    0.000 
#    0.000    0.000    0.000    0.000    0.000    0.000 
#
# Total GULP energy -694348.905835 kJ/mol
# GULP energy per Si atom -12399.087604 kJ/mol
# Density = 1.985395 g / cm^3
# Si number density = 19.899237 Si / 1000 Ang^3
#
#
#
# Elastic Constant Matrix: (Units=GPa)
#
#
# Indices 1 2 3 4 5 6 
#
# 1 94.2120 66.1127 10.7388 0.0000 0.0000 0.0000
# 2 66.1127 146.8074 12.3864 0.0000 0.0000 0.0000
# 3 10.7388 12.3864 19.1182 0.0000 0.0000 0.0000
# 4 0.0000 0.0000 0.0000 20.9507 0.0000 0.0000
# 5 0.0000 0.0000 0.0000 0.0000 5.7705 0.0000
# 6 0.0000 0.0000 0.0000 0.0000 0.0000 30.8627
#
#
#
# Elastic Compliance Matrix: (Units=1/GPa)
#
#
# Indices 1 2 3 4 5 6 
#
# 1 0.015882 -0.006769 -0.004535 0.000000 0.000000 0.000000
# 2 -0.006769 0.010091 -0.002735 0.000000 0.000000 0.000000
# 3 -0.004535 -0.002735 0.056626 0.000000 0.000000 0.000000
# 4 0.000000 0.000000 0.000000 0.047731 0.000000 0.000000
# 5 0.000000 0.000000 0.000000 0.000000 0.173294 0.000000
# 6 0.000000 0.000000 0.000000 0.000000 0.000000 0.032402
#
#
# Mechanical properties :
#
#
# Convention : Reuss Voigt Hill
#
# Bulk Modulus (GPa) = 18.34230 48.73481 33.53856
# Shear Modulus (GPa) = 13.07949 22.91012 17.99480
#
# Velocity S-wave (km/s) = 2.56654 3.39677 3.01041
# Velocity P-wave (km/s) = 4.24505 6.31886 5.38277
#
# Compressibility (1/GPa) = 0.05451878
#
# Stress axis : x y z
#
# Youngs Moduli (GPa) = 62.96544 99.09844 17.65982
#
# Poissons Ratio (x) = 0.67085 0.08009
# Poissons Ratio (y) = 0.42624 0.04831
# Poissons Ratio (z) = 0.28555 0.27107
#
# Static dielectric constant tensor:
#      x y z
#    x 3.529500 0.000000 0.000000 
#    y 0.000000 4.059310 0.000000 
#    z 0.000000 0.000000 3.331800 
# 
# 
# High freq. dielectric constant tensor:
#      x y z
#    x 1.762370 0.000000 0.000000 
#    y 0.000000 1.797470 0.000000 
#    z 0.000000 0.000000 1.750980 
# 
# From -- ./inp_files/8798.got.cif
#   From: 2010.03.12/outbox.cif.g09.slc.cpg/sg55_5_cif.got.tgz:8798.got - 2010.04.16 15:19:21.
