data_PCOD8225385
_publ_section_title
;
Structure prediction by ZEFSAII (Michael W. Deem and Ramdas Pophale) SiO2 
 PCOD8225385
Probable space group: P B A M
;
_chemical_formula_sum "Si O2"
_cell_formula_units_Z 64
_cell_length_a 19.167566
_cell_length_b 19.713182
_cell_length_c 9.403892
_cell_angle_alpha 90.000000
_cell_angle_beta 90.000000
_cell_angle_gamma 90.000000
_cell_volume 3553.295547
_symmetry_space_group_name_H-M "P B A M"
_symmetry_group_IT_number 55
_symmetry_cell_setting 'orthorhombic'
loop_
_space_group_symop_operation_xyz
x,y,z
-x,-y,z
1/2+x,1/2-y,-z
1/2-x,1/2+y,-z
-x,-y,-z
x,y,-z
1/2-x,1/2+y,z
1/2+x,1/2-y,z
loop_
_atom_site_type_symbol
_atom_site_label
_atom_site_fract_x
_atom_site_fract_y
_atom_site_fract_z
Si Si1 0.568776 0.537238 0.169094
Si Si2 0.537167 0.067615 0.332133
Si Si3 0.223854 0.644864 0.332986
Si Si4 0.215294 0.019769 0.164241
Si Si5 0.250436 0.772075 0.162073
Si Si6 0.906299 0.187604 0.835412
Si Si7 0.432753 0.184190 0.334290
Si Si8 0.827396 0.593875 0.160996
O O1 0.500000 0.500000 0.229440
O O2 0.637047 0.495895 0.218779
O O3 0.569730 0.614635 0.225401
O O4 0.568731 0.539824 0.000000
O O5 0.545957 0.064948 0.500000
O O6 0.491761 0.131948 0.283783
O O7 0.613382 0.069876 0.266847
O O8 0.500000 0.000000 0.275551
O O9 0.238593 0.642501 0.500000
O O10 0.252262 0.577172 0.262487
O O11 0.264070 0.709301 0.266952
O O12 0.141906 0.651012 0.297667
O O13 0.259006 0.951298 0.183706
O O14 0.215791 0.043792 0.000000
O O15 0.175949 0.806347 0.189829
O O16 0.308643 0.828271 0.194725
O O17 0.255476 0.745929 0.000000
O O18 0.946235 0.246268 0.749662
O O19 0.926275 0.195894 0.000000
O O20 0.437966 0.200734 0.500000
O O21 0.854757 0.586728 0.000000
#
# Coordination Sequence:
#
# PCOD8225385 Si02
#       8
#     8   8   8   8   8   8   8   8
#     4   9  17  32  55  80 104 133 172 214 259 315
#     4  10  21  37  54  74 106 147 182 217 267 319
#     4  10  20  34  54  80 107 139 179 216 255 313
#     4  10  19  34  55  80 109 139 171 216 271 314
#     4   9  17  33  54  76 103 135 172 217 265 309
#     4   9  16  31  56  79 101 133 175 216 255 308
#     4   9  19  35  53  75 106 142 178 217 261 311
#     4  10  20  34  55  80 106 137 178 225 268 314
#
# _framework density 18.011448999999999
#
# number of rings (size 3 to 8) (size 9 to 14) (size 15 to 20)
#    0.000    2.500    1.250    1.125    0.000    3.250 
#    2.250    0.625    0.000    0.750    0.000    0.000 
#    0.000    0.000    0.000    0.000    0.000    0.000 
#
# Total GULP energy -793683.930269 kJ/mol
# GULP energy per Si atom -12401.311410 kJ/mol
# Density = 1.797045 g / cm^3
# Si number density = 18.011449 Si / 1000 Ang^3
#
#
#
# Elastic Constant Matrix: (Units=GPa)
#
#
# Indices 1 2 3 4 5 6 
#
# 1 75.2618 26.2115 25.3898 0.0000 0.0000 0.0000
# 2 26.2115 101.8553 42.6216 0.0000 0.0000 0.0000
# 3 25.3898 42.6216 52.4249 0.0000 0.0000 0.0000
# 4 0.0000 0.0000 0.0000 24.5881 0.0000 0.0000
# 5 0.0000 0.0000 0.0000 0.0000 21.8455 0.0000
# 6 0.0000 0.0000 0.0000 0.0000 0.0000 26.2528
#
#
#
# Elastic Compliance Matrix: (Units=1/GPa)
#
#
# Indices 1 2 3 4 5 6 
#
# 1 0.015999 -0.001326 -0.006670 0.000000 0.000000 0.000000
# 2 -0.001326 0.014990 -0.011545 0.000000 0.000000 0.000000
# 3 -0.006670 -0.011545 0.031691 0.000000 0.000000 0.000000
# 4 0.000000 0.000000 0.000000 0.040670 0.000000 0.000000
# 5 0.000000 0.000000 0.000000 0.000000 0.045776 0.000000
# 6 0.000000 0.000000 0.000000 0.000000 0.000000 0.038091
#
#
# Mechanical properties :
#
#
# Convention : Reuss Voigt Hill
#
# Bulk Modulus (GPa) = 42.37627 46.44309 44.40968
# Shear Modulus (GPa) = 21.35237 23.55855 22.45546
#
# Velocity S-wave (km/s) = 3.44683 3.62052 3.53474
# Velocity P-wave (km/s) = 6.27848 6.58170 6.43188
#
# Compressibility (1/GPa) = 0.02359812
#
# Stress axis : x y z
#
# Youngs Moduli (GPa) = 62.50374 66.71122 31.55431
#
# Poissons Ratio (x) = 0.08845 0.21048
# Poissons Ratio (y) = 0.08288 0.36429
# Poissons Ratio (z) = 0.41693 0.77016
#
# Static dielectric constant tensor:
#      x y z
#    x 3.255250 0.000000 0.000000 
#    y 0.000000 3.649010 0.000000 
#    z 0.000000 0.000000 3.157610 
# 
# 
# High freq. dielectric constant tensor:
#      x y z
#    x 1.686090 0.000000 0.000000 
#    y 0.000000 1.709570 0.000000 
#    z 0.000000 0.000000 1.678310 
# 
# From -- ./inp_files/7959.got.cif
#   From: 2010.03.12/outbox.cif.g09.slc.cpg/sg55_4_cif.got.tgz:7959.got - 2010.04.16 15:19:21.
