data_PCOD8225309
_publ_section_title
;
Structure prediction by ZEFSAII (Michael W. Deem and Ramdas Pophale) SiO2 
 PCOD8225309
Probable space group: P B A M
;
_chemical_formula_sum "Si O2"
_cell_formula_units_Z 48
_cell_length_a 10.214673
_cell_length_b 28.048992
_cell_length_c 8.920777
_cell_angle_alpha 90.000000
_cell_angle_beta 90.000000
_cell_angle_gamma 90.000000
_cell_volume 2555.903248
_symmetry_space_group_name_H-M "P B A M"
_symmetry_group_IT_number 55
_symmetry_cell_setting 'orthorhombic'
loop_
_space_group_symop_operation_xyz
x,y,z
-x,-y,z
1/2+x,1/2-y,-z
1/2-x,1/2+y,-z
-x,-y,-z
x,y,-z
1/2-x,1/2+y,z
1/2+x,1/2-y,z
loop_
_atom_site_type_symbol
_atom_site_label
_atom_site_fract_x
_atom_site_fract_y
_atom_site_fract_z
Si Si1 0.642266 0.452855 0.323417
Si Si2 0.364072 0.452739 0.825434
Si Si3 0.481061 0.804492 0.325694
Si Si4 0.261512 0.351838 0.172469
Si Si5 0.978917 0.796323 0.175767
Si Si6 0.749966 0.852353 0.326515
O O1 0.638133 0.462558 0.500000
O O2 0.702578 0.499244 0.239972
O O3 0.496844 0.442764 0.264557
O O4 0.731444 0.407571 0.281945
O O5 0.265884 0.408688 0.801387
O O6 0.398514 0.459094 0.000000
O O7 0.471183 0.792926 0.500000
O O8 0.349093 0.830186 0.276354
O O9 0.504451 0.755470 0.241262
O O10 0.601147 0.839378 0.287866
O O11 0.400603 0.330039 0.221331
O O12 0.230508 0.339347 0.000000
O O13 0.844562 0.818063 0.234874
O O14 0.964959 0.791365 0.000000
O O15 0.783291 0.844210 0.500000
#
# Coordination Sequence:
#
# PCOD8225309 Si02
#       6
#     8   8   8   8   8   8
#     4  10  19  33  56  85 113 143 184 229 278 331
#     4  10  19  34  56  84 114 142 183 231 277 330
#     4  11  24  39  56  81 114 151 187 230 281 332
#     4  10  22  39  58  84 114 148 189 231 277 334
#     4  11  22  38  60  84 110 146 190 234 279 329
#     4  10  22  39  58  84 115 148 189 231 276 334
#
# _framework density 18.780054
#
# number of rings (size 3 to 8) (size 9 to 14) (size 15 to 20)
#    0.000    1.667    1.667    4.000    0.000    7.333 
#    0.000    0.833    0.000    5.000    0.000    0.000 
#    0.000    0.000    0.000    0.000    0.000    0.000 
#
# Total GULP energy -595348.054512 kJ/mol
# GULP energy per Si atom -12403.084469 kJ/mol
# Density = 1.873731 g / cm^3
# Si number density = 18.780054 Si / 1000 Ang^3
#
#
#
# Elastic Constant Matrix: (Units=GPa)
#
#
# Indices 1 2 3 4 5 6 
#
# 1 55.3227 18.7686 28.8734 0.0000 0.0000 0.0000
# 2 18.7686 121.4429 40.6055 0.0000 0.0000 0.0000
# 3 28.8734 40.6055 57.4784 0.0000 0.0000 0.0000
# 4 0.0000 0.0000 0.0000 34.7575 0.0000 0.0000
# 5 0.0000 0.0000 0.0000 0.0000 18.8176 0.0000
# 6 0.0000 0.0000 0.0000 0.0000 0.0000 6.4528
#
#
#
# Elastic Compliance Matrix: (Units=1/GPa)
#
#
# Indices 1 2 3 4 5 6 
#
# 1 0.024516 0.000431 -0.012619 0.000000 0.000000 0.000000
# 2 0.000431 0.010788 -0.007838 0.000000 0.000000 0.000000
# 3 -0.012619 -0.007838 0.029274 0.000000 0.000000 0.000000
# 4 0.000000 0.000000 0.000000 0.028771 0.000000 0.000000
# 5 0.000000 0.000000 0.000000 0.000000 0.053142 0.000000
# 6 0.000000 0.000000 0.000000 0.000000 0.000000 0.154972
#
#
# Mechanical properties :
#
#
# Convention : Reuss Voigt Hill
#
# Bulk Modulus (GPa) = 40.77448 45.63767 43.20607
# Shear Modulus (GPa) = 14.29833 21.73866 18.01849
#
# Velocity S-wave (km/s) = 2.76226 3.40595 3.10086
# Velocity P-wave (km/s) = 5.65086 6.31041 5.98972
#
# Compressibility (1/GPa) = 0.02452515
#
# Stress axis : x y z
#
# Youngs Moduli (GPa) = 40.78993 92.69213 34.16010
#
# Poissons Ratio (x) = -0.03991 0.43108
# Poissons Ratio (y) = -0.01756 0.26774
# Poissons Ratio (z) = 0.51474 0.72650
#
# Static dielectric constant tensor:
#      x y z
#    x 3.248620 0.000000 0.000000 
#    y 0.000000 3.870050 0.000000 
#    z 0.000000 0.000000 3.536990 
# 
# 
# High freq. dielectric constant tensor:
#      x y z
#    x 1.708370 0.000000 0.000000 
#    y 0.000000 1.748570 0.000000 
#    z 0.000000 0.000000 1.740420 
# 
# From -- ./inp_files/2891.got.cif
#   From: 2010.03.12/outbox.cif.g09.slc.cpg/sg55_2_cif.got.tgz:2891.got - 2010.04.16 15:19:21.
