data_PCOD8225989
_publ_section_title
;
Structure prediction by ZEFSAII (Michael W. Deem and Ramdas Pophale) SiO2 
 PCOD8225989
Probable space group: P B A M
;
_chemical_formula_sum "Si O2"
_cell_formula_units_Z 64
_cell_length_a 34.955743
_cell_length_b 10.796405
_cell_length_c 9.325296
_cell_angle_alpha 90.000000
_cell_angle_beta 90.000000
_cell_angle_gamma 90.000000
_cell_volume 3519.332752
_symmetry_space_group_name_H-M "P B A M"
_symmetry_group_IT_number 55
_symmetry_cell_setting 'orthorhombic'
loop_
_space_group_symop_operation_xyz
x,y,z
-x,-y,z
1/2+x,1/2-y,-z
1/2-x,1/2+y,-z
-x,-y,-z
x,y,-z
1/2-x,1/2+y,z
1/2+x,1/2-y,z
loop_
_atom_site_type_symbol
_atom_site_label
_atom_site_fract_x
_atom_site_fract_y
_atom_site_fract_z
Si Si1 0.567432 0.728531 0.670006
Si Si2 0.641693 0.871543 0.336547
Si Si3 0.276584 0.861974 0.167599
Si Si4 0.542813 0.508706 0.839172
Si Si5 0.146553 0.342888 0.664744
Si Si6 0.218094 0.644736 0.166639
Si Si7 0.423152 0.760765 0.161901
Si Si8 0.509231 0.141829 0.659283
O O1 0.568188 0.719953 0.500000
O O2 0.604261 0.803719 0.725557
O O3 0.569230 0.593426 0.739295
O O4 0.528095 0.790965 0.723942
O O5 0.649844 0.832944 0.500000
O O6 0.678490 0.832404 0.246835
O O7 0.632871 0.016171 0.324215
O O8 0.312736 0.824449 0.261572
O O9 0.245067 0.759622 0.212298
O O10 0.264616 0.006246 0.202066
O O11 0.286694 0.849152 0.000000
O O12 0.500000 0.500000 0.774424
O O13 0.562521 0.377716 0.839360
O O14 0.540710 0.564168 0.000000
O O15 0.149177 0.298858 0.500000
O O16 0.116019 0.260991 0.749473
O O17 0.208950 0.652659 0.000000
O O18 0.454976 0.845342 0.236198
O O19 0.416221 0.809419 0.000000
O O20 0.519327 0.194400 0.500000
O O21 0.500000 0.000000 0.644602
#
# Coordination Sequence:
#
# PCOD8225989 Si02
#       8
#     8   8   8   8   8   8   8   8
#     4  10  20  34  54  77 103 137 178 219 263 315
#     4   9  19  36  56  80 110 140 173 219 267 313
#     4   9  18  35  57  82 112 144 180 220 266 321
#     4  10  21  38  54  71 103 142 179 222 270 316
#     4  10  20  36  58  81 109 142 176 218 268 318
#     4   9  18  34  57  82 110 145 181 218 264 321
#     4  11  22  36  54  76 104 139 179 222 267 316
#     4  10  20  34  53  77 105 137 173 217 267 317
#
# _framework density 18.185264
#
# number of rings (size 3 to 8) (size 9 to 14) (size 15 to 20)
#    0.000    2.250    1.250    1.500    0.000    5.000 
#    2.250    1.250    0.000    0.000    0.000    0.000 
#    0.000    0.000    0.000    0.000    0.000    0.000 
#
# Total GULP energy -793525.340750 kJ/mol
# GULP energy per Si atom -12398.833449 kJ/mol
# Density = 1.814387 g / cm^3
# Si number density = 18.185264 Si / 1000 Ang^3
#
#
#
# Elastic Constant Matrix: (Units=GPa)
#
#
# Indices 1 2 3 4 5 6 
#
# 1 102.0351 38.7640 49.4074 0.0000 0.0000 0.0000
# 2 38.7640 64.9032 26.1225 0.0000 0.0000 0.0000
# 3 49.4074 26.1225 67.7802 0.0000 0.0000 0.0000
# 4 0.0000 0.0000 0.0000 12.9916 0.0000 0.0000
# 5 0.0000 0.0000 0.0000 0.0000 32.7052 0.0000
# 6 0.0000 0.0000 0.0000 0.0000 0.0000 35.1145
#
#
#
# Elastic Compliance Matrix: (Units=1/GPa)
#
#
# Indices 1 2 3 4 5 6 
#
# 1 0.016970 -0.006104 -0.010018 0.000000 0.000000 0.000000
# 2 -0.006104 0.020432 -0.003425 0.000000 0.000000 0.000000
# 3 -0.010018 -0.003425 0.023376 0.000000 0.000000 0.000000
# 4 0.000000 0.000000 0.000000 0.076973 0.000000 0.000000
# 5 0.000000 0.000000 0.000000 0.000000 0.030576 0.000000
# 6 0.000000 0.000000 0.000000 0.000000 0.000000 0.028478
#
#
# Mechanical properties :
#
#
# Convention : Reuss Voigt Hill
#
# Bulk Modulus (GPa) = 46.11592 51.47847 48.79719
# Shear Modulus (GPa) = 20.56545 24.19058 22.37801
#
# Velocity S-wave (km/s) = 3.36651 3.65119 3.51174
# Velocity P-wave (km/s) = 6.36594 6.79295 6.58291
#
# Compressibility (1/GPa) = 0.02168449
#
# Stress axis : x y z
#
# Youngs Moduli (GPa) = 58.92690 48.94393 42.77893
#
# Poissons Ratio (x) = 0.29873 0.42855
# Poissons Ratio (y) = 0.35966 0.14653
# Poissons Ratio (z) = 0.59032 0.16764
#
# Static dielectric constant tensor:
#      x y z
#    x 3.454360 0.000000 0.000000 
#    y 0.000000 3.375960 0.000000 
#    z 0.000000 0.000000 3.534030 
# 
# 
# High freq. dielectric constant tensor:
#      x y z
#    x 1.700930 0.000000 0.000000 
#    y 0.000000 1.700840 0.000000 
#    z 0.000000 0.000000 1.706530 
# 
# From -- ./inp_files/10810.got.cif
#   From: 2010.03.12/outbox.cif.g09.slc.cpg/sg55_6_cif.got.tgz:10810.got - 2010.04.16 15:19:21.
