data_PCOD8225065
_publ_section_title
;
Structure prediction by ZEFSAII (Michael W. Deem and Ramdas Pophale) SiO2 
 PCOD8225065
Probable space group: P B A M
;
_chemical_formula_sum "Si O2"
_cell_formula_units_Z 40
_cell_length_a 18.197438
_cell_length_b 13.568782
_cell_length_c 8.811591
_cell_angle_alpha 90.000000
_cell_angle_beta 90.000000
_cell_angle_gamma 90.000000
_cell_volume 2175.732225
_symmetry_space_group_name_H-M "P B A M"
_symmetry_group_IT_number 55
_symmetry_cell_setting 'orthorhombic'
loop_
_space_group_symop_operation_xyz
x,y,z
-x,-y,z
1/2+x,1/2-y,-z
1/2-x,1/2+y,-z
-x,-y,-z
x,y,-z
1/2-x,1/2+y,z
1/2+x,1/2-y,z
loop_
_atom_site_type_symbol
_atom_site_label
_atom_site_fract_x
_atom_site_fract_y
_atom_site_fract_z
Si Si1 0.469471 0.895932 0.319806
Si Si2 0.314729 0.822170 0.678230
Si Si3 0.881989 0.879446 0.323234
Si Si4 0.976284 0.200912 0.178954
Si Si5 0.838309 0.097683 0.321046
O O1 0.475748 0.886117 0.500000
O O2 0.384946 0.885107 0.264802
O O3 0.518073 0.809879 0.247942
O O4 0.500000 0.000000 0.261198
O O5 0.308337 0.833727 0.500000
O O6 0.326034 0.707807 0.724648
O O7 0.239393 0.864601 0.747182
O O8 0.902271 0.870272 0.500000
O O9 0.958095 0.870161 0.233288
O O10 0.843131 0.981855 0.284305
O O11 0.900093 0.155742 0.231984
O O12 0.978331 0.208274 0.000000
O O13 0.846923 0.117920 0.500000
#
# Coordination Sequence:
#
# PCOD8225065 Si02
#       5
#     8   8   8   8   8
#     4   9  18  35  59  81 102 132 170 210 253 305
#     4   8  16  31  51  78 105 128 163 212 261 305
#     4   9  18  34  54  75 102 135 171 212 257 304
#     4  11  22  34  50  74 105 138 173 212 253 302
#     4  10  19  32  53  77 102 134 172 215 258 301
#
# _framework density 18.384613999999999
#
# number of rings (size 3 to 8) (size 9 to 14) (size 15 to 20)
#    0.000    2.600    0.000    3.600    0.000    5.200 
#    0.000   10.000    0.000    2.400    0.000    0.000 
#    0.000    0.000    0.000    0.000    0.000    0.000 
#
# Total GULP energy -495966.843201 kJ/mol
# GULP energy per Si atom -12399.171080 kJ/mol
# Density = 1.834277 g / cm^3
# Si number density = 18.384614 Si / 1000 Ang^3
#
#
#
# Elastic Constant Matrix: (Units=GPa)
#
#
# Indices 1 2 3 4 5 6 
#
# 1 121.5097 92.6366 24.1853 0.0000 0.0000 0.0000
# 2 92.6366 145.9943 37.3562 0.0000 0.0000 0.0000
# 3 24.1853 37.3562 45.6737 0.0000 0.0000 0.0000
# 4 0.0000 0.0000 0.0000 8.8301 0.0000 0.0000
# 5 0.0000 0.0000 0.0000 0.0000 0.4719 0.0000
# 6 0.0000 0.0000 0.0000 0.0000 0.0000 29.1073
#
#
#
# Elastic Compliance Matrix: (Units=1/GPa)
#
#
# Indices 1 2 3 4 5 6 
#
# 1 0.015943 -0.010062 -0.000213 0.000000 0.000000 0.000000
# 2 -0.010062 0.015012 -0.006951 0.000000 0.000000 0.000000
# 3 -0.000213 -0.006951 0.027692 0.000000 0.000000 0.000000
# 4 0.000000 0.000000 0.000000 0.113249 0.000000 0.000000
# 5 0.000000 0.000000 0.000000 0.000000 2.119051 0.000000
# 6 0.000000 0.000000 0.000000 0.000000 0.000000 0.034356
#
#
# Mechanical properties :
#
#
# Convention : Reuss Voigt Hill
#
# Bulk Modulus (GPa) = 41.32720 69.05930 55.19325
# Shear Modulus (GPa) = 2.11165 18.28184 10.19674
#
# Velocity S-wave (km/s) = 1.07289 3.15685 2.35762
# Velocity P-wave (km/s) = 4.90539 7.13672 6.12354
#
# Compressibility (1/GPa) = 0.02419714
#
# Stress axis : x y z
#
# Youngs Moduli (GPa) = 62.72332 66.61120 36.11151
#
# Poissons Ratio (x) = 0.67023 0.00768
# Poissons Ratio (y) = 0.63111 0.25100
# Poissons Ratio (z) = 0.01335 0.46299
#
# Static dielectric constant tensor:
#      x y z
#    x 3.604090 0.000000 0.000000 
#    y 0.000000 3.670180 0.000000 
#    z 0.000000 0.000000 3.061720 
# 
# 
# High freq. dielectric constant tensor:
#      x y z
#    x 1.715280 0.000000 0.000000 
#    y 0.000000 1.722540 0.000000 
#    z 0.000000 0.000000 1.680120 
# 
# From -- ./inp_files/3618.got.cif
#   From: 2010.03.12/outbox.cif.g09.slc.cpg/sg55_2_cif.got.tgz:3618.got - 2010.04.16 15:19:21.
