data_PCOD8225429
_publ_section_title
;
Structure prediction by ZEFSAII (Michael W. Deem and Ramdas Pophale) SiO2 
 PCOD8225429
Probable space group: P B A M
;
_chemical_formula_sum "Si O2"
_cell_formula_units_Z 64
_cell_length_a 24.518119
_cell_length_b 14.986012
_cell_length_c 9.099417
_cell_angle_alpha 90.000000
_cell_angle_beta 90.000000
_cell_angle_gamma 90.000000
_cell_volume 3343.388102
_symmetry_space_group_name_H-M "P B A M"
_symmetry_group_IT_number 55
_symmetry_cell_setting 'orthorhombic'
loop_
_space_group_symop_operation_xyz
x,y,z
-x,-y,z
1/2+x,1/2-y,-z
1/2-x,1/2+y,-z
-x,-y,-z
x,y,-z
1/2-x,1/2+y,z
1/2+x,1/2-y,z
loop_
_atom_site_type_symbol
_atom_site_label
_atom_site_fract_x
_atom_site_fract_y
_atom_site_fract_z
Si Si1 0.389709 0.501208 0.829014
Si Si2 0.652751 0.785089 0.328599
Si Si3 0.862925 0.655091 0.831279
Si Si4 0.446379 0.343968 0.328036
Si Si5 0.785603 0.950920 0.328835
Si Si6 0.739537 0.270272 0.828958
Si Si7 0.837166 0.485364 0.331929
Si Si8 0.443808 0.691206 0.171016
O O1 0.433343 0.434216 0.759056
O O2 0.331670 0.488575 0.748247
O O3 0.410950 0.600528 0.802474
O O4 0.382613 0.478917 0.000000
O O5 0.669130 0.782907 0.500000
O O6 0.598670 0.730608 0.294110
O O7 0.702218 0.741517 0.237220
O O8 0.644386 0.887383 0.276714
O O9 0.801454 0.688583 0.804714
O O10 0.871095 0.560574 0.752489
O O11 0.906045 0.727791 0.773135
O O12 0.874626 0.637721 0.000000
O O13 0.450095 0.365808 0.500000
O O14 0.502923 0.304985 0.270866
O O15 0.799669 0.940242 0.500000
O O16 0.727453 0.998276 0.305841
O O17 0.785296 0.854374 0.255117
O O18 0.745110 0.295285 0.000000
O O19 0.852908 0.496962 0.500000
O O20 0.459771 0.700275 0.000000
#
# Coordination Sequence:
#
# PCOD8225429 Si02
#       8
#     8   8   8   8   8   8   8   8
#     4  11  22  38  59  84 118 158 192 235 291 349
#     4   9  21  41  58  80 118 154 190 242 294 341
#     4  10  21  37  57  85 117 150 191 239 286 341
#     4  11  24  40  60  86 114 150 199 247 291 347
#     4  10  20  35  55  84 120 155 190 233 284 342
#     4  10  19  34  56  84 115 151 191 231 286 346
#     4   9  20  37  57  82 114 153 191 233 288 342
#     4  10  22  42  60  81 117 154 191 237 291 346
#
# _framework density 19.142258999999999
#
# number of rings (size 3 to 8) (size 9 to 14) (size 15 to 20)
#    0.000    2.000    1.250    2.625    1.750    7.500 
#    0.000    0.625    0.000    3.750    0.000    0.000 
#    0.000    0.000    0.000    0.000    0.000    0.000 
#
# Total GULP energy -793801.653152 kJ/mol
# GULP energy per Si atom -12403.150831 kJ/mol
# Density = 1.909869 g / cm^3
# Si number density = 19.142259 Si / 1000 Ang^3
#
#
#
# Elastic Constant Matrix: (Units=GPa)
#
#
# Indices 1 2 3 4 5 6 
#
# 1 82.2012 25.1868 47.6530 0.0000 0.0000 0.0000
# 2 25.1868 63.4983 35.2886 0.0000 0.0000 0.0000
# 3 47.6530 35.2886 91.6465 0.0000 0.0000 0.0000
# 4 0.0000 0.0000 0.0000 32.8434 0.0000 0.0000
# 5 0.0000 0.0000 0.0000 0.0000 34.7652 0.0000
# 6 0.0000 0.0000 0.0000 0.0000 0.0000 23.7386
#
#
#
# Elastic Compliance Matrix: (Units=1/GPa)
#
#
# Indices 1 2 3 4 5 6 
#
# 1 0.017703 -0.002425 -0.008271 0.000000 0.000000 0.000000
# 2 -0.002425 0.020368 -0.006582 0.000000 0.000000 0.000000
# 3 -0.008271 -0.006582 0.017746 0.000000 0.000000 0.000000
# 4 0.000000 0.000000 0.000000 0.030448 0.000000 0.000000
# 5 0.000000 0.000000 0.000000 0.000000 0.028764 0.000000
# 6 0.000000 0.000000 0.000000 0.000000 0.000000 0.042125
#
#
# Mechanical properties :
#
#
# Convention : Reuss Voigt Hill
#
# Bulk Modulus (GPa) = 47.03349 50.40031 48.71690
# Shear Modulus (GPa) = 25.15101 26.88395 26.01748
#
# Velocity S-wave (km/s) = 3.62871 3.75164 3.69068
# Velocity P-wave (km/s) = 6.49465 6.71959 6.60808
#
# Compressibility (1/GPa) = 0.02126145
#
# Stress axis : x y z
#
# Youngs Moduli (GPa) = 56.48648 49.09613 56.34917
#
# Poissons Ratio (x) = 0.11908 0.46608
# Poissons Ratio (y) = 0.13701 0.37087
# Poissons Ratio (z) = 0.46721 0.32313
#
# Static dielectric constant tensor:
#      x y z
#    x 3.491920 0.000000 0.000000 
#    y 0.000000 3.434740 0.000000 
#    z 0.000000 0.000000 3.533070 
# 
# 
# High freq. dielectric constant tensor:
#      x y z
#    x 1.736990 0.000000 0.000000 
#    y 0.000000 1.742440 0.000000 
#    z 0.000000 0.000000 1.748400 
# 
# From -- ./inp_files/9716.got.cif
#   From: 2010.03.12/outbox.cif.g09.slc.cpg/sg55_5_cif.got.tgz:9716.got - 2010.04.16 15:19:21.
