data_PCOD8225471
_publ_section_title
;
Structure prediction by ZEFSAII (Michael W. Deem and Ramdas Pophale) SiO2 
 PCOD8225471
Probable space group: P B A M
;
_chemical_formula_sum "Si O2"
_cell_formula_units_Z 64
_cell_length_a 19.836009
_cell_length_b 18.647010
_cell_length_c 8.732254
_cell_angle_alpha 90.000000
_cell_angle_beta 90.000000
_cell_angle_gamma 90.000000
_cell_volume 3229.905829
_symmetry_space_group_name_H-M "P B A M"
_symmetry_group_IT_number 55
_symmetry_cell_setting 'orthorhombic'
loop_
_space_group_symop_operation_xyz
x,y,z
-x,-y,z
1/2+x,1/2-y,-z
1/2-x,1/2+y,-z
-x,-y,-z
x,y,-z
1/2-x,1/2+y,z
1/2+x,1/2-y,z
loop_
_atom_site_type_symbol
_atom_site_label
_atom_site_fract_x
_atom_site_fract_y
_atom_site_fract_z
Si Si1 0.439513 0.053081 0.819984
Si Si2 0.623593 0.248252 0.182150
Si Si3 0.122852 0.831657 0.179537
Si Si4 0.524342 0.788813 0.182552
Si Si5 0.770416 0.632314 0.179574
Si Si6 0.297634 0.018451 0.680089
Si Si7 0.320435 0.600842 0.182135
Si Si8 0.574072 0.516997 0.817337
O O1 0.459306 0.131655 0.758216
O O2 0.373948 0.025429 0.734302
O O3 0.500000 0.000000 0.778688
O O4 0.424351 0.053380 0.000000
O O5 0.548151 0.237115 0.246084
O O6 0.668258 0.181191 0.238313
O O7 0.655374 0.321987 0.245227
O O8 0.623199 0.251001 0.000000
O O9 0.081540 0.764662 0.249181
O O10 0.202027 0.823565 0.214705
O O11 0.095840 0.906114 0.250032
O O12 0.108840 0.833105 0.000000
O O13 0.522836 0.788890 0.000000
O O14 0.768466 0.557954 0.268676
O O15 0.776242 0.614294 0.000000
O O16 0.293998 0.024745 0.500000
O O17 0.252998 0.082283 0.751794
O O18 0.374220 0.542818 0.242691
O O19 0.315267 0.601051 0.000000
O O20 0.500000 0.500000 0.753594
O O21 0.574685 0.517318 0.000000
#
# Coordination Sequence:
#
# PCOD8225471 Si02
#       8
#     8   8   8   8   8   8   8   8
#     4  10  21  38  63  89 115 149 192 245 300 349
#     4   9  18  31  55  87 115 141 179 233 291 347
#     4   9  16  26  45  77 111 141 174 222 279 336
#     4   9  17  30  51  86 120 141 176 234 295 346
#     4  10  19  35  57  81 108 144 190 237 290 345
#     4  12  25  39  56  81 116 157 198 239 282 339
#     4  10  19  34  57  86 116 148 186 234 287 344
#     4   9  15  25  46  78 111 138 172 222 277 329
#
# _framework density 19.814819
#
# number of rings (size 3 to 8) (size 9 to 14) (size 15 to 20)
#    0.000    2.250    1.250    2.625    1.750    5.250 
#    0.000    0.625    0.000    1.125    0.000    0.000 
#    0.000    0.000    0.000    0.000    0.000    0.000 
#
# Total GULP energy -793632.681546 kJ/mol
# GULP energy per Si atom -12400.510649 kJ/mol
# Density = 1.976972 g / cm^3
# Si number density = 19.814819 Si / 1000 Ang^3
#
#
#
# Elastic Constant Matrix: (Units=GPa)
#
#
# Indices 1 2 3 4 5 6 
#
# 1 127.3345 45.6373 22.7008 0.0000 0.0000 0.0000
# 2 45.6373 126.4373 17.1375 0.0000 0.0000 0.0000
# 3 22.7008 17.1375 29.7414 0.0000 0.0000 0.0000
# 4 0.0000 0.0000 0.0000 4.1803 0.0000 0.0000
# 5 0.0000 0.0000 0.0000 0.0000 4.7904 0.0000
# 6 0.0000 0.0000 0.0000 0.0000 0.0000 44.9227
#
#
#
# Elastic Compliance Matrix: (Units=1/GPa)
#
#
# Indices 1 2 3 4 5 6 
#
# 1 0.009909 -0.002768 -0.005969 0.000000 0.000000 0.000000
# 2 -0.002768 0.009352 -0.003276 0.000000 0.000000 0.000000
# 3 -0.005969 -0.003276 0.040067 0.000000 0.000000 0.000000
# 4 0.000000 0.000000 0.000000 0.239217 0.000000 0.000000
# 5 0.000000 0.000000 0.000000 0.000000 0.208751 0.000000
# 6 0.000000 0.000000 0.000000 0.000000 0.000000 0.022260
#
#
# Mechanical properties :
#
#
# Convention : Reuss Voigt Hill
#
# Bulk Modulus (GPa) = 28.32643 50.49606 39.41124
# Shear Modulus (GPa) = 8.84408 23.98118 16.41263
#
# Velocity S-wave (km/s) = 2.11496 3.48266 2.88114
# Velocity P-wave (km/s) = 4.50452 6.45842 5.56785
#
# Compressibility (1/GPa) = 0.03530272
#
# Stress axis : x y z
#
# Youngs Moduli (GPa) = 100.91432 106.92724 24.95832
#
# Poissons Ratio (x) = 0.29595 0.14897
# Poissons Ratio (y) = 0.27931 0.08177
# Poissons Ratio (z) = 0.60233 0.35033
#
# Static dielectric constant tensor:
#      x y z
#    x 3.807560 0.000000 0.000000 
#    y 0.000000 3.860320 0.000000 
#    z 0.000000 0.000000 2.926860 
# 
# 
# High freq. dielectric constant tensor:
#      x y z
#    x 1.791910 0.000000 0.000000 
#    y 0.000000 1.786620 0.000000 
#    z 0.000000 0.000000 1.698490 
# 
# From -- ./inp_files/8969.got.cif
#   From: 2010.03.12/outbox.cif.g09.slc.cpg/sg55_5_cif.got.tgz:8969.got - 2010.04.16 15:19:21.
