data_PCOD8225931
_publ_section_title
;
Structure prediction by ZEFSAII (Michael W. Deem and Ramdas Pophale) SiO2 
 PCOD8225931
Probable space group: P B A M
;
_chemical_formula_sum "Si O2"
_cell_formula_units_Z 56
_cell_length_a 14.087657
_cell_length_b 14.091815
_cell_length_c 14.341736
_cell_angle_alpha 90.000000
_cell_angle_beta 90.000000
_cell_angle_gamma 90.000000
_cell_volume 2847.130842
_symmetry_space_group_name_H-M "P B A M"
_symmetry_group_IT_number 55
_symmetry_cell_setting 'orthorhombic'
loop_
_space_group_symop_operation_xyz
x,y,z
-x,-y,z
1/2+x,1/2-y,-z
1/2-x,1/2+y,-z
-x,-y,-z
x,y,-z
1/2-x,1/2+y,z
1/2+x,1/2-y,z
loop_
_atom_site_type_symbol
_atom_site_label
_atom_site_fract_x
_atom_site_fract_y
_atom_site_fract_z
Si Si1 0.519250 0.891434 0.608635
Si Si2 0.181792 0.302513 0.393011
Si Si3 0.786897 0.350888 0.296877
Si Si4 0.103495 0.473952 0.897375
Si Si5 0.107355 0.993913 0.104973
Si Si6 0.752706 0.565439 0.242715
Si Si7 0.743973 0.850886 0.900735
O O1 0.546667 0.890133 0.500000
O O2 0.427531 0.826353 0.629270
O O3 0.605836 0.845157 0.665423
O O4 0.500000 0.000000 0.640435
O O5 0.204187 0.324835 0.500000
O O6 0.210592 0.194499 0.368466
O O7 0.253087 0.366043 0.331092
O O8 0.758033 0.459309 0.283138
O O9 0.777184 0.294381 0.195903
O O10 0.154574 0.407470 0.820697
O O11 0.164789 0.568192 0.905982
O O12 0.000000 0.500000 0.858958
O O13 0.096472 0.424660 0.000000
O O14 0.153221 0.098955 0.106713
O O15 0.160731 0.923701 0.176773
O O16 0.113771 0.951425 0.000000
O O17 0.000000 0.000000 0.139408
O O18 0.739113 0.792490 0.000000
#
# Coordination Sequence:
#
# PCOD8225931 Si02
#       7
#     8   8   8   8   8   8   8
#     4  10  20  37  63  87 111 150 199 240 286 347
#     4  11  24  38  56  87 115 146 196 247 290 338
#     4  10  20  37  60  81 114 154 183 239 293 342
#     4   8  14  25  48  82 116 143 174 224 284 340
#     4   8  14  29  53  78 107 145 188 225 270 341
#     4  10  20  33  57  84 110 150 187 239 286 345
#     4   8  16  29  49  78 108 146 185 228 280 336
#
# _framework density 19.668922999999999
#
# number of rings (size 3 to 8) (size 9 to 14) (size 15 to 20)
#    0.000    3.000    1.429    1.714    4.000    0.571 
#    5.143    1.429    0.000    1.286    0.000    0.000 
#    0.000    0.000    0.000    0.000    0.000    0.000 
#
# Total GULP energy -693765.000071 kJ/mol
# GULP energy per Si atom -12388.660716 kJ/mol
# Density = 1.962416 g / cm^3
# Si number density = 19.668923 Si / 1000 Ang^3
#
#
#
# Elastic Constant Matrix: (Units=GPa)
#
#
# Indices 1 2 3 4 5 6 
#
# 1 149.5289 27.7834 62.8354 0.0000 0.0000 0.0000
# 2 27.7834 31.9640 23.7733 0.0000 0.0000 0.0000
# 3 62.8354 23.7733 137.7912 0.0000 0.0000 0.0000
# 4 0.0000 0.0000 0.0000 22.8306 0.0000 0.0000
# 5 0.0000 0.0000 0.0000 0.0000 19.9255 0.0000
# 6 0.0000 0.0000 0.0000 0.0000 0.0000 17.5999
#
#
#
# Elastic Compliance Matrix: (Units=1/GPa)
#
#
# Indices 1 2 3 4 5 6 
#
# 1 0.009044 -0.005499 -0.003175 0.000000 0.000000 0.000000
# 2 -0.005499 0.039235 -0.004261 0.000000 0.000000 0.000000
# 3 -0.003175 -0.004261 0.009441 0.000000 0.000000 0.000000
# 4 0.000000 0.000000 0.000000 0.043801 0.000000 0.000000
# 5 0.000000 0.000000 0.000000 0.000000 0.050187 0.000000
# 6 0.000000 0.000000 0.000000 0.000000 0.000000 0.056819
#
#
# Mechanical properties :
#
#
# Convention : Reuss Voigt Hill
#
# Bulk Modulus (GPa) = 31.40020 60.89647 46.14833
# Shear Modulus (GPa) = 20.40705 25.73065 23.06885
#
# Velocity S-wave (km/s) = 3.22456 3.62081 3.42842
# Velocity P-wave (km/s) = 5.46468 6.96479 6.25984
#
# Compressibility (1/GPa) = 0.03184693
#
# Stress axis : x y z
#
# Youngs Moduli (GPa) = 110.57257 25.48768 105.92536
#
# Poissons Ratio (x) = 0.14016 0.33635
# Poissons Ratio (y) = 0.60807 0.45139
# Poissons Ratio (z) = 0.35111 0.10861
#
# Static dielectric constant tensor:
#      x y z
#    x 3.626430 0.000000 0.000000 
#    y 0.000000 3.072690 0.000000 
#    z 0.000000 0.000000 4.300660 
# 
# 
# High freq. dielectric constant tensor:
#      x y z
#    x 1.761620 0.000000 0.000000 
#    y 0.000000 1.707970 0.000000 
#    z 0.000000 0.000000 1.791980 
# 
# From -- ./inp_files/19034.got.cif
#   From: 2010.03.12/outbox.cif.g09.slc.cpg/sg55_10_cif.got.tgz:19034.got - 2010.04.16 15:19:21.
