data_PCOD8225353
_publ_section_title
;
Structure prediction by ZEFSAII (Michael W. Deem and Ramdas Pophale) SiO2 
 PCOD8225353
Probable space group: P B A M
;
_chemical_formula_sum "Si O2"
_cell_formula_units_Z 64
_cell_length_a 19.562750
_cell_length_b 20.116625
_cell_length_c 9.127602
_cell_angle_alpha 90.000000
_cell_angle_beta 90.000000
_cell_angle_gamma 90.000000
_cell_volume 3592.044597
_symmetry_space_group_name_H-M "P B A M"
_symmetry_group_IT_number 55
_symmetry_cell_setting 'orthorhombic'
loop_
_space_group_symop_operation_xyz
x,y,z
-x,-y,z
1/2+x,1/2-y,-z
1/2-x,1/2+y,-z
-x,-y,-z
x,y,-z
1/2-x,1/2+y,z
1/2+x,1/2-y,z
loop_
_atom_site_type_symbol
_atom_site_label
_atom_site_fract_x
_atom_site_fract_y
_atom_site_fract_z
Si Si1 0.701116 0.991805 0.168738
Si Si2 0.848194 0.349189 0.171218
Si Si3 0.556172 0.054812 0.170119
Si Si4 0.481311 0.303466 0.834981
Si Si5 0.035013 0.931959 0.670877
Si Si6 0.192981 0.919950 0.329873
Si Si7 0.318996 0.292850 0.838129
Si Si8 0.989609 0.328321 0.325603
O O1 0.697496 0.913450 0.205355
O O2 0.629799 0.025779 0.209989
O O3 0.761710 0.022057 0.262933
O O4 0.718870 0.003658 0.000000
O O5 0.802618 0.283507 0.208556
O O6 0.915866 0.351920 0.268877
O O7 0.871108 0.348037 0.000000
O O8 0.545706 0.118937 0.271669
O O9 0.500000 0.000000 0.209954
O O10 0.550344 0.075231 0.000000
O O11 0.501911 0.372938 0.759574
O O12 0.400244 0.297605 0.836024
O O13 0.511645 0.242829 0.740731
O O14 0.510895 0.301297 0.000000
O O15 0.023936 0.917802 0.500000
O O16 0.114956 0.936434 0.709694
O O17 0.000000 0.000000 0.721149
O O18 0.206900 0.917892 0.500000
O O19 0.214227 0.847088 0.269056
O O20 0.290064 0.307842 0.000000
O O21 0.988723 0.323549 0.500000
#
# Coordination Sequence:
#
# PCOD8225353 Si02
#       8
#     8   8   8   8   8   8   8   8
#     4  10  20  34  54  75 101 137 173 212 258 306
#     4   9  17  32  52  75  99 131 174 216 253 297
#     4  10  19  34  53  72 100 139 179 213 250 299
#     4   9  17  30  50  76 103 132 171 213 253 301
#     4   9  18  34  56  80 106 136 170 210 264 318
#     4  10  20  33  51  76 106 134 167 210 256 311
#     4   8  15  29  51  73  95 125 168 213 249 294
#     4  11  20  29  47  75 107 136 168 213 259 302
#
# _framework density 17.817150000000002
#
# number of rings (size 3 to 8) (size 9 to 14) (size 15 to 20)
#    0.000    2.500    1.250    2.625    0.000    5.000 
#    0.000    0.000    2.750    0.000    0.000    0.000 
#    0.000    0.000    0.000    0.000    0.000    0.000 
#
# Total GULP energy -793544.692417 kJ/mol
# GULP energy per Si atom -12399.135819 kJ/mol
# Density = 1.777660 g / cm^3
# Si number density = 17.817150 Si / 1000 Ang^3
#
#
#
# Elastic Constant Matrix: (Units=GPa)
#
#
# Indices 1 2 3 4 5 6 
#
# 1 41.5294 47.2859 35.2518 0.0000 0.0000 0.0000
# 2 47.2859 177.9431 79.8018 0.0000 0.0000 0.0000
# 3 35.2518 79.8018 103.8848 0.0000 0.0000 0.0000
# 4 0.0000 0.0000 0.0000 27.3851 0.0000 0.0000
# 5 0.0000 0.0000 0.0000 0.0000 20.4969 0.0000
# 6 0.0000 0.0000 0.0000 0.0000 0.0000 24.2589
#
#
#
# Elastic Compliance Matrix: (Units=1/GPa)
#
#
# Indices 1 2 3 4 5 6 
#
# 1 0.038363 -0.006646 -0.007913 0.000000 0.000000 0.000000
# 2 -0.006646 0.009725 -0.005215 0.000000 0.000000 0.000000
# 3 -0.007913 -0.005215 0.016317 0.000000 0.000000 0.000000
# 4 0.000000 0.000000 0.000000 0.036516 0.000000 0.000000
# 5 0.000000 0.000000 0.000000 0.000000 0.048788 0.000000
# 6 0.000000 0.000000 0.000000 0.000000 0.000000 0.041222
#
#
# Mechanical properties :
#
#
# Convention : Reuss Voigt Hill
#
# Bulk Modulus (GPa) = 40.22923 72.00403 56.11663
# Shear Modulus (GPa) = 20.94119 25.16270 23.05195
#
# Velocity S-wave (km/s) = 3.43204 3.76210 3.60085
# Velocity P-wave (km/s) = 6.19138 7.70530 6.98945
#
# Compressibility (1/GPa) = 0.02485755
#
# Stress axis : x y z
#
# Youngs Moduli (GPa) = 26.06677 102.83237 61.28508
#
# Poissons Ratio (x) = 0.68340 0.48494
# Poissons Ratio (y) = 0.17323 0.31960
# Poissons Ratio (z) = 0.20626 0.53627
#
# Static dielectric constant tensor:
#      x y z
#    x 2.891040 0.000000 0.000000 
#    y 0.000000 3.682800 0.000000 
#    z 0.000000 0.000000 3.299930 
# 
# 
# High freq. dielectric constant tensor:
#      x y z
#    x 1.639880 0.000000 0.000000 
#    y 0.000000 1.708350 0.000000 
#    z 0.000000 0.000000 1.688570 
# 
# From -- ./inp_files/8049.got.cif
#   From: 2010.03.12/outbox.cif.g09.slc.cpg/sg55_5_cif.got.tgz:8049.got - 2010.04.16 15:19:21.
