data_PCOD8225754
_publ_section_title
;
Structure prediction by ZEFSAII (Michael W. Deem and Ramdas Pophale) SiO2 
 PCOD8225754
Probable space group: P B A M
;
_chemical_formula_sum "Si O2"
_cell_formula_units_Z 48
_cell_length_a 27.466031
_cell_length_b 10.022599
_cell_length_c 8.826671
_cell_angle_alpha 90.000000
_cell_angle_beta 90.000000
_cell_angle_gamma 90.000000
_cell_volume 2429.814950
_symmetry_space_group_name_H-M "P B A M"
_symmetry_group_IT_number 55
_symmetry_cell_setting 'orthorhombic'
loop_
_space_group_symop_operation_xyz
x,y,z
-x,-y,z
1/2+x,1/2-y,-z
1/2-x,1/2+y,-z
-x,-y,-z
x,y,-z
1/2-x,1/2+y,z
1/2+x,1/2-y,z
loop_
_atom_site_type_symbol
_atom_site_label
_atom_site_fract_x
_atom_site_fract_y
_atom_site_fract_z
Si Si1 0.714112 0.888547 0.822783
Si Si2 0.295511 0.412816 0.821991
Si Si3 0.570733 0.242883 0.178812
Si Si4 0.540783 0.718665 0.821118
Si Si5 0.105153 0.995942 0.678823
Si Si6 0.391769 0.041882 0.819638
O O1 0.725884 0.734263 0.789062
O O2 0.662022 0.930414 0.752496
O O3 0.757140 0.980204 0.755016
O O4 0.711791 0.917671 0.000000
O O5 0.346026 0.425740 0.735717
O O6 0.305589 0.433103 0.000000
O O7 0.514678 0.256981 0.225570
O O8 0.603300 0.353631 0.260309
O O9 0.589544 0.100542 0.238683
O O10 0.578056 0.257268 0.000000
O O11 0.558680 0.584005 0.741462
O O12 0.571920 0.843803 0.760122
O O13 0.546738 0.699732 0.000000
O O14 0.104034 0.996193 0.500000
O O15 0.391539 0.045817 0.000000
#
# Coordination Sequence:
#
# PCOD8225754 Si02
#       6
#     8   8   8   8   8   8
#     4   9  18  32  59  91 114 139 179 233 288 335
#     4  10  20  37  61  88 113 143 187 239 288 339
#     4  10  21  35  60  90 115 147 190 241 290 338
#     4  10  19  37  62  87 113 146 191 243 293 338
#     4  12  25  39  55  80 118 162 196 231 280 339
#     4   9  17  33  59  91 118 142 181 237 293 344
#
# _framework density 19.75459
#
# number of rings (size 3 to 8) (size 9 to 14) (size 15 to 20)
#    0.000    2.000    1.667    2.500    2.333    4.667 
#    0.000    1.667    0.000    2.000    0.000    0.000 
#    0.000    0.000    0.000    0.000    0.000    0.000 
#
# Total GULP energy -595339.191368 kJ/mol
# GULP energy per Si atom -12402.899820 kJ/mol
# Density = 1.970963 g / cm^3
# Si number density = 19.754590 Si / 1000 Ang^3
#
#
#
# Elastic Constant Matrix: (Units=GPa)
#
#
# Indices 1 2 3 4 5 6 
#
# 1 87.4743 30.4866 20.2567 0.0000 0.0000 0.0000
# 2 30.4866 120.5864 22.1529 0.0000 0.0000 0.0000
# 3 20.2567 22.1529 37.2680 0.0000 0.0000 0.0000
# 4 0.0000 0.0000 0.0000 1.8586 0.0000 0.0000
# 5 0.0000 0.0000 0.0000 0.0000 6.5514 0.0000
# 6 0.0000 0.0000 0.0000 0.0000 0.0000 45.4798
#
#
#
# Elastic Compliance Matrix: (Units=1/GPa)
#
#
# Indices 1 2 3 4 5 6 
#
# 1 0.013643 -0.002343 -0.006023 0.000000 0.000000 0.000000
# 2 -0.002343 0.009712 -0.004499 0.000000 0.000000 0.000000
# 3 -0.006023 -0.004499 0.032781 0.000000 0.000000 0.000000
# 4 0.000000 0.000000 0.000000 0.538031 0.000000 0.000000
# 5 0.000000 0.000000 0.000000 0.000000 0.152640 0.000000
# 6 0.000000 0.000000 0.000000 0.000000 0.000000 0.021988
#
#
# Mechanical properties :
#
#
# Convention : Reuss Voigt Hill
#
# Bulk Modulus (GPa) = 32.88895 43.45791 38.17343
# Shear Modulus (GPa) = 6.21381 22.27346 14.24363
#
# Velocity S-wave (km/s) = 1.77548 3.36148 2.68811
# Velocity P-wave (km/s) = 4.57034 6.09202 5.38520
#
# Compressibility (1/GPa) = 0.03040535
#
# Stress axis : x y z
#
# Youngs Moduli (GPa) = 73.29658 102.96850 30.50550
#
# Poissons Ratio (x) = 0.24123 0.18374
# Poissons Ratio (y) = 0.17172 0.13726
# Poissons Ratio (z) = 0.44147 0.46330
#
# Static dielectric constant tensor:
#      x y z
#    x 3.778000 0.000000 0.000000 
#    y 0.000000 3.829650 0.000000 
#    z 0.000000 0.000000 3.062130 
# 
# 
# High freq. dielectric constant tensor:
#      x y z
#    x 1.780750 0.000000 0.000000 
#    y 0.000000 1.789000 0.000000 
#    z 0.000000 0.000000 1.712750 
# 
# From -- ./inp_files/10486.got.cif
#   From: 2010.03.12/outbox.cif.g09.slc.cpg/sg55_6_cif.got.tgz:10486.got - 2010.04.16 15:19:21.
