data_PCOD8225216
_publ_section_title
;
Structure prediction by ZEFSAII (Michael W. Deem and Ramdas Pophale) SiO2 
 PCOD8225216
Probable space group: P B A M
;
_chemical_formula_sum "Si O2"
_cell_formula_units_Z 64
_cell_length_a 18.847503
_cell_length_b 18.849988
_cell_length_c 9.457542
_cell_angle_alpha 90.000000
_cell_angle_beta 90.000000
_cell_angle_gamma 90.000000
_cell_volume 3360.030176
_symmetry_space_group_name_H-M "P B A M"
_symmetry_group_IT_number 55
_symmetry_cell_setting 'orthorhombic'
loop_
_space_group_symop_operation_xyz
x,y,z
-x,-y,z
1/2+x,1/2-y,-z
1/2-x,1/2+y,-z
-x,-y,-z
x,y,-z
1/2-x,1/2+y,z
1/2+x,1/2-y,z
loop_
_atom_site_type_symbol
_atom_site_label
_atom_site_fract_x
_atom_site_fract_y
_atom_site_fract_z
Si Si1 0.852485 0.844781 0.838365
Si Si2 0.006333 0.080252 0.166312
Si Si3 0.105205 0.674616 0.334256
Si Si4 0.523411 0.077937 0.651143
Si Si5 0.892485 0.195412 0.834397
Si Si6 0.270272 0.793129 0.832263
Si Si7 0.155756 0.433622 0.833036
Si Si8 0.709875 0.915407 0.162953
O O1 0.926109 0.874889 0.769155
O O2 0.817616 0.772701 0.769400
O O3 0.794787 0.907816 0.825636
O O4 0.869603 0.826027 0.000000
O O5 0.932370 0.121190 0.199199
O O6 0.019783 0.073404 0.000000
O O7 0.000000 0.000000 0.230055
O O8 0.121029 0.685409 0.500000
O O9 0.071902 0.744815 0.262943
O O10 0.176051 0.647691 0.255189
O O11 0.046297 0.617482 0.299785
O O12 0.553061 0.108655 0.500000
O O13 0.577548 0.080314 0.778613
O O14 0.500000 0.000000 0.620043
O O15 0.811056 0.200672 0.782552
O O16 0.900397 0.213065 0.000000
O O17 0.299966 0.867431 0.776128
O O18 0.271910 0.786247 0.000000
O O19 0.188806 0.507334 0.776079
O O20 0.154196 0.435561 0.000000
O O21 0.685326 0.905832 0.000000
#
# Coordination Sequence:
#
# PCOD8225216 Si02
#       8
#     8   8   8   8   8   8   8   8
#     4   9  17  31  50  75 110 143 177 223 273 319
#     4   9  19  32  52  83 114 146 184 224 271 332
#     4  11  22  36  55  77 106 143 183 224 268 323
#     4  10  21  37  52  71 107 148 178 213 266 321
#     4  10  20  36  58  81 108 143 181 223 271 325
#     4   9  18  32  50  78 111 140 172 225 280 314
#     4  10  21  32  52  82 109 139 180 223 265 324
#     4  10  19  33  54  80 108 143 179 221 273 323
#
# _framework density 19.047447999999999
#
# number of rings (size 3 to 8) (size 9 to 14) (size 15 to 20)
#    0.000    2.250    2.500    0.375    3.500    1.250 
#    0.000    0.625    0.000    1.125    0.000    0.000 
#    0.000    0.000    0.000    0.000    0.000    0.000 
#
# Total GULP energy -792908.183023 kJ/mol
# GULP energy per Si atom -12389.190360 kJ/mol
# Density = 1.900410 g / cm^3
# Si number density = 19.047448 Si / 1000 Ang^3
#
#
#
# Elastic Constant Matrix: (Units=GPa)
#
#
# Indices 1 2 3 4 5 6 
#
# 1 104.7301 58.1225 19.0001 0.0000 0.0000 0.0000
# 2 58.1225 128.5290 28.4183 0.0000 0.0000 0.0000
# 3 19.0001 28.4183 27.6746 0.0000 0.0000 0.0000
# 4 0.0000 0.0000 0.0000 19.0817 0.0000 0.0000
# 5 0.0000 0.0000 0.0000 0.0000 7.9794 0.0000
# 6 0.0000 0.0000 0.0000 0.0000 0.0000 29.2099
#
#
#
# Elastic Compliance Matrix: (Units=1/GPa)
#
#
# Indices 1 2 3 4 5 6 
#
# 1 0.013041 -0.005069 -0.003749 0.000000 0.000000 0.000000
# 2 -0.005069 0.012036 -0.008879 0.000000 0.000000 0.000000
# 3 -0.003749 -0.008879 0.047826 0.000000 0.000000 0.000000
# 4 0.000000 0.000000 0.000000 0.052406 0.000000 0.000000
# 5 0.000000 0.000000 0.000000 0.000000 0.125323 0.000000
# 6 0.000000 0.000000 0.000000 0.000000 0.000000 0.034235
#
#
# Mechanical properties :
#
#
# Convention : Reuss Voigt Hill
#
# Bulk Modulus (GPa) = 26.65989 52.44619 39.55304
# Shear Modulus (GPa) = 15.02568 21.61370 18.31969
#
# Velocity S-wave (km/s) = 2.81170 3.37223 3.10464
# Velocity P-wave (km/s) = 4.95660 6.53887 5.80193
#
# Compressibility (1/GPa) = 0.03750954
#
# Stress axis : x y z
#
# Youngs Moduli (GPa) = 76.67880 83.08632 20.90925
#
# Poissons Ratio (x) = 0.42113 0.07838
# Poissons Ratio (y) = 0.38866 0.18566
# Poissons Ratio (z) = 0.28745 0.73774
#
# Static dielectric constant tensor:
#      x y z
#    x 3.508300 0.000000 0.000000 
#    y 0.000000 3.905980 0.000000 
#    z 0.000000 0.000000 3.068120 
# 
# 
# High freq. dielectric constant tensor:
#      x y z
#    x 1.742120 0.000000 0.000000 
#    y 0.000000 1.753440 0.000000 
#    z 0.000000 0.000000 1.686260 
# 
# From -- ./inp_files/8011.got.cif
#   From: 2010.03.12/outbox.cif.g09.slc.cpg/sg55_5_cif.got.tgz:8011.got - 2010.04.16 15:19:21.
