data_PCOD8225734
_publ_section_title
;
Structure prediction by ZEFSAII (Michael W. Deem and Ramdas Pophale) SiO2 
 PCOD8225734
Probable space group: P B A M
;
_chemical_formula_sum "Si O2"
_cell_formula_units_Z 52
_cell_length_a 24.133268
_cell_length_b 8.353055
_cell_length_c 13.994353
_cell_angle_alpha 90.000000
_cell_angle_beta 90.000000
_cell_angle_gamma 90.000000
_cell_volume 2821.072850
_symmetry_space_group_name_H-M "P B A M"
_symmetry_group_IT_number 55
_symmetry_cell_setting 'orthorhombic'
loop_
_space_group_symop_operation_xyz
x,y,z
-x,-y,z
1/2+x,1/2-y,-z
1/2-x,1/2+y,-z
-x,-y,-z
x,y,-z
1/2-x,1/2+y,z
1/2+x,1/2-y,z
loop_
_atom_site_type_symbol
_atom_site_label
_atom_site_fract_x
_atom_site_fract_y
_atom_site_fract_z
Si Si1 0.535960 0.255069 0.608934
Si Si2 0.314118 0.878783 0.895209
Si Si3 0.593692 0.875010 0.888423
Si Si4 0.582586 0.584304 0.394202
Si Si5 0.764410 0.907496 0.206059
Si Si6 0.500000 0.000000 0.755085
Si Si7 0.332609 0.296030 0.746451
O O1 0.550917 0.196884 0.500000
O O2 0.475156 0.326392 0.607166
O O3 0.576596 0.400057 0.643040
O O4 0.538297 0.111034 0.686089
O O5 0.305030 0.736622 0.821106
O O6 0.374333 0.956236 0.879740
O O7 0.265050 0.009847 0.884946
O O8 0.309815 0.804915 0.000000
O O9 0.538224 0.891110 0.824712
O O10 0.633664 0.735577 0.845710
O O11 0.580019 0.835120 0.000000
O O12 0.606820 0.574451 0.500000
O O13 0.623291 0.700299 0.337224
O O14 0.713678 0.841227 0.271809
O O15 0.802625 0.033409 0.259142
#
# Coordination Sequence:
#
# PCOD8225734 Si02
#       7
#     8   8   8   8   8   4   8
#     4   9  19  34  58  87 106 133 181 225 266 324
#     4   9  17  31  48  72  98 132 178 224 262 299
#     4  10  22  35  50  75 111 149 181 214 266 329
#     4   9  18  36  58  80 108 139 174 218 274 325
#     4   9  19  30  53  76 100 133 181 223 266 318
#     4  12  20  34  56  80 114 142 176 224 274 322
#     4  10  19  37  54  77 107 144 176 226 273 316
#
# _framework density 18.432701999999999
#
# number of rings (size 3 to 8) (size 9 to 14) (size 15 to 20)
#    0.000    2.462    1.538    1.846    2.154    4.308 
#    0.000    0.769    0.000    0.923    0.000    0.000 
#    0.000    0.000    0.000    0.000    0.000    0.000 
#
# Total GULP energy -644248.476460 kJ/mol
# GULP energy per Si atom -12389.393778 kJ/mol
# Density = 1.839075 g / cm^3
# Si number density = 18.432702 Si / 1000 Ang^3
#
#
#
# Elastic Constant Matrix: (Units=GPa)
#
#
# Indices 1 2 3 4 5 6 
#
# 1 58.0301 19.7447 28.4306 0.0000 0.0000 0.0000
# 2 19.7447 77.2234 30.4125 0.0000 0.0000 0.0000
# 3 28.4306 30.4125 81.8675 0.0000 0.0000 0.0000
# 4 0.0000 0.0000 0.0000 21.6836 0.0000 0.0000
# 5 0.0000 0.0000 0.0000 0.0000 16.7567 0.0000
# 6 0.0000 0.0000 0.0000 0.0000 0.0000 27.1416
#
#
#
# Elastic Compliance Matrix: (Units=1/GPa)
#
#
# Indices 1 2 3 4 5 6 
#
# 1 0.021332 -0.002971 -0.006304 0.000000 0.000000 0.000000
# 2 -0.002971 0.015583 -0.004757 0.000000 0.000000 0.000000
# 3 -0.006304 -0.004757 0.016171 0.000000 0.000000 0.000000
# 4 0.000000 0.000000 0.000000 0.046118 0.000000 0.000000
# 5 0.000000 0.000000 0.000000 0.000000 0.059678 0.000000
# 6 0.000000 0.000000 0.000000 0.000000 0.000000 0.036844
#
#
# Mechanical properties :
#
#
# Convention : Reuss Voigt Hill
#
# Bulk Modulus (GPa) = 39.96660 41.58852 40.77756
# Shear Modulus (GPa) = 21.53963 22.35194 21.94579
#
# Velocity S-wave (km/s) = 3.42212 3.48605 3.45424
# Velocity P-wave (km/s) = 6.11098 6.23015 6.17085
#
# Compressibility (1/GPa) = 0.02502089
#
# Stress axis : x y z
#
# Youngs Moduli (GPa) = 46.87771 64.17449 61.83825
#
# Poissons Ratio (x) = 0.19069 0.38984
# Poissons Ratio (y) = 0.13930 0.29415
# Poissons Ratio (z) = 0.29553 0.30526
#
# Static dielectric constant tensor:
#      x y z
#    x 3.370410 0.000000 0.000000 
#    y 0.000000 3.493940 0.000000 
#    z 0.000000 0.000000 3.317380 
# 
# 
# High freq. dielectric constant tensor:
#      x y z
#    x 1.705500 0.000000 0.000000 
#    y 0.000000 1.712100 0.000000 
#    z 0.000000 0.000000 1.694440 
# 
# From -- ./inp_files/15939.got.cif
#   From: 2010.03.12/outbox.cif.g09.slc.cpg/sg55_8_cif.got.tgz:15939.got - 2010.04.16 15:19:21.
