data_PCOD8225073
_publ_section_title
;
Structure prediction by ZEFSAII (Michael W. Deem and Ramdas Pophale) SiO2 
 PCOD8225073
Probable space group: P B A M
;
_chemical_formula_sum "Si O2"
_cell_formula_units_Z 64
_cell_length_a 15.770863
_cell_length_b 23.343883
_cell_length_c 8.858621
_cell_angle_alpha 90.000000
_cell_angle_beta 90.000000
_cell_angle_gamma 90.000000
_cell_volume 3261.329498
_symmetry_space_group_name_H-M "P B A M"
_symmetry_group_IT_number 55
_symmetry_cell_setting 'orthorhombic'
loop_
_space_group_symop_operation_xyz
x,y,z
-x,-y,z
1/2+x,1/2-y,-z
1/2-x,1/2+y,-z
-x,-y,-z
x,y,-z
1/2-x,1/2+y,z
1/2+x,1/2-y,z
loop_
_atom_site_type_symbol
_atom_site_label
_atom_site_fract_x
_atom_site_fract_y
_atom_site_fract_z
Si Si1 0.618513 0.729455 0.177977
Si Si2 0.819771 0.118082 0.674237
Si Si3 0.531791 0.563190 0.824938
Si Si4 0.327551 0.941131 0.826238
Si Si5 0.756258 0.817641 0.176394
Si Si6 0.055544 0.180271 0.178034
Si Si7 0.659369 0.927372 0.172785
Si Si8 0.006658 0.432522 0.334090
O O1 0.667751 0.672184 0.218659
O O2 0.677353 0.780704 0.246537
O O3 0.520445 0.722460 0.240665
O O4 0.612074 0.736415 0.000000
O O5 0.828191 0.135418 0.500000
O O6 0.886692 0.069447 0.719303
O O7 0.727901 0.093660 0.708372
O O8 0.500000 0.500000 0.787542
O O9 0.465004 0.613627 0.783276
O O10 0.558380 0.568428 0.000000
O O11 0.421913 0.919195 0.789880
O O12 0.312931 0.008111 0.790110
O O13 0.305925 0.927266 0.000000
O O14 0.850551 0.804306 0.246057
O O15 0.737582 0.884786 0.205414
O O16 0.759725 0.803583 0.000000
O O17 0.060402 0.187449 0.000000
O O18 0.581174 0.906412 0.274745
O O19 0.629153 0.923241 0.000000
O O20 0.026692 0.406383 0.500000
O O21 0.000000 0.500000 0.348376
#
# Coordination Sequence:
#
# PCOD8225073 Si02
#       8
#     8   8   8   8   8   8   8   8
#     4   9  18  36  56  76 104 139 185 228 274 328
#     4  11  22  35  52  75 109 145 181 223 273 329
#     4   9  18  32  55  82 109 141 179 218 270 336
#     4  10  19  32  53  78 107 140 184 226 266 321
#     4   9  17  31  54  82 109 136 178 234 279 320
#     4   8  15  29  51  78 107 137 173 223 274 319
#     4   9  18  31  51  79 108 137 177 227 272 319
#     4   9  17  31  49  70 105 145 174 207 263 321
#
# _framework density 19.623899000000002
#
# number of rings (size 3 to 8) (size 9 to 14) (size 15 to 20)
#    0.000    2.750    0.000    2.625    1.750    2.250 
#    2.250    0.625    0.000    3.750    0.000    0.000 
#    0.000    0.000    0.000    0.000    0.000    0.000 
#
# Total GULP energy -792927.445781 kJ/mol
# GULP energy per Si atom -12389.491340 kJ/mol
# Density = 1.957923 g / cm^3
# Si number density = 19.623899 Si / 1000 Ang^3
#
#
#
# Elastic Constant Matrix: (Units=GPa)
#
#
# Indices 1 2 3 4 5 6 
#
# 1 136.8814 35.9509 13.5575 0.0000 0.0000 0.0000
# 2 35.9509 42.0358 -1.8342 0.0000 0.0000 0.0000
# 3 13.5575 -1.8342 23.6456 0.0000 0.0000 0.0000
# 4 0.0000 0.0000 0.0000 8.4606 0.0000 0.0000
# 5 0.0000 0.0000 0.0000 0.0000 19.7124 0.0000
# 6 0.0000 0.0000 0.0000 0.0000 0.0000 24.6621
#
#
#
# Elastic Compliance Matrix: (Units=1/GPa)
#
#
# Indices 1 2 3 4 5 6 
#
# 1 0.010371 -0.009160 -0.006657 0.000000 0.000000 0.000000
# 2 -0.009160 0.031961 0.007731 0.000000 0.000000 0.000000
# 3 -0.006657 0.007731 0.046707 0.000000 0.000000 0.000000
# 4 0.000000 0.000000 0.000000 0.118195 0.000000 0.000000
# 5 0.000000 0.000000 0.000000 0.000000 0.050730 0.000000
# 6 0.000000 0.000000 0.000000 0.000000 0.000000 0.040548
#
#
# Mechanical properties :
#
#
# Convention : Reuss Voigt Hill
#
# Bulk Modulus (GPa) = 13.72347 33.10124 23.41236
# Shear Modulus (GPa) = 14.75050 20.89293 17.82171
#
# Velocity S-wave (km/s) = 2.74462 3.26646 3.01684
# Velocity P-wave (km/s) = 4.12945 5.57950 4.90832
#
# Compressibility (1/GPa) = 0.07286785
#
# Stress axis : x y z
#
# Youngs Moduli (GPa) = 96.42554 31.28853 21.40984
#
# Poissons Ratio (x) = 0.28660 0.14252
# Poissons Ratio (y) = 0.88325 -0.16552
# Poissons Ratio (z) = 0.64188 -0.24190
#
# Static dielectric constant tensor:
#      x y z
#    x 3.976470 0.000000 0.000000 
#    y 0.000000 3.475300 0.000000 
#    z 0.000000 0.000000 3.267100 
# 
# 
# High freq. dielectric constant tensor:
#      x y z
#    x 1.773430 0.000000 0.000000 
#    y 0.000000 1.744540 0.000000 
#    z 0.000000 0.000000 1.726660 
# 
# From -- ./inp_files/6569.got.cif
#   From: 2010.03.12/outbox.cif.g09.slc.cpg/sg55_4_cif.got.tgz:6569.got - 2010.04.16 15:19:21.
