data_PCOD8225295
_publ_section_title
;
Structure prediction by ZEFSAII (Michael W. Deem and Ramdas Pophale) SiO2 
 PCOD8225295
Probable space group: P B A M
;
_chemical_formula_sum "Si O2"
_cell_formula_units_Z 56
_cell_length_a 19.494379
_cell_length_b 17.205801
_cell_length_c 9.061270
_cell_angle_alpha 90.000000
_cell_angle_beta 90.000000
_cell_angle_gamma 90.000000
_cell_volume 3039.298614
_symmetry_space_group_name_H-M "P B A M"
_symmetry_group_IT_number 55
_symmetry_cell_setting 'orthorhombic'
loop_
_space_group_symop_operation_xyz
x,y,z
-x,-y,z
1/2+x,1/2-y,-z
1/2-x,1/2+y,-z
-x,-y,-z
x,y,-z
1/2-x,1/2+y,z
1/2+x,1/2-y,z
loop_
_atom_site_type_symbol
_atom_site_label
_atom_site_fract_x
_atom_site_fract_y
_atom_site_fract_z
Si Si1 0.571192 0.040156 0.673433
Si Si2 0.117751 0.709880 0.169251
Si Si3 0.188732 0.576950 0.326584
Si Si4 0.047037 0.148372 0.671612
Si Si5 0.162676 0.021911 0.329206
Si Si6 0.591514 0.615967 0.827117
Si Si7 0.038980 0.306596 0.173744
O O1 0.574775 0.057597 0.500000
O O2 0.579906 0.120650 0.760537
O O3 0.500000 0.000000 0.717605
O O4 0.632785 0.985396 0.727987
O O5 0.172698 0.661760 0.262158
O O6 0.126476 0.800908 0.204985
O O7 0.041096 0.683489 0.212279
O O8 0.132606 0.691989 0.000000
O O9 0.185769 0.586114 0.500000
O O10 0.263257 0.549996 0.273405
O O11 0.032461 0.163884 0.500000
O O12 0.110169 0.091377 0.696710
O O13 0.067009 0.228588 0.750692
O O14 0.980400 0.108342 0.742408
O O15 0.164283 0.996230 0.500000
O O16 0.143489 0.948569 0.230003
O O17 0.576407 0.605680 0.000000
O O18 0.051615 0.299847 0.000000
#
# Coordination Sequence:
#
# PCOD8225295 Si02
#       7
#     8   8   8   8   8   8   8
#     4  10  19  33  56  83 109 142 187 231 274 327
#     4   9  19  35  54  79 109 140 177 222 273 327
#     4  10  21  37  56  79 110 147 187 228 274 329
#     4  10  20  36  59  83 111 144 185 234 280 328
#     4  10  22  39  56  81 112 147 188 229 278 331
#     4  10  21  37  59  86 113 143 184 230 278 333
#     4  10  20  34  55  84 113 141 181 228 279 332
#
# _framework density 18.425303
#
# number of rings (size 3 to 8) (size 9 to 14) (size 15 to 20)
#    0.000    2.143    1.429    2.571    0.000    7.143 
#    2.571    0.000    0.000    0.000    0.000    0.000 
#    0.000    0.000    0.000    0.000    0.000    0.000 
#
# Total GULP energy -694626.961447 kJ/mol
# GULP energy per Si atom -12404.052883 kJ/mol
# Density = 1.838337 g / cm^3
# Si number density = 18.425303 Si / 1000 Ang^3
#
#
#
# Elastic Constant Matrix: (Units=GPa)
#
#
# Indices 1 2 3 4 5 6 
#
# 1 116.3232 69.2635 47.1599 0.0000 0.0000 0.0000
# 2 69.2635 127.2363 63.8439 0.0000 0.0000 0.0000
# 3 47.1599 63.8439 78.4724 0.0000 0.0000 0.0000
# 4 0.0000 0.0000 0.0000 35.8361 0.0000 0.0000
# 5 0.0000 0.0000 0.0000 0.0000 16.7089 0.0000
# 6 0.0000 0.0000 0.0000 0.0000 0.0000 21.2572
#
#
#
# Elastic Compliance Matrix: (Units=1/GPa)
#
#
# Indices 1 2 3 4 5 6 
#
# 1 0.013279 -0.005449 -0.003547 0.000000 0.000000 0.000000
# 2 -0.005449 0.015517 -0.009350 0.000000 0.000000 0.000000
# 3 -0.003547 -0.009350 0.022482 0.000000 0.000000 0.000000
# 4 0.000000 0.000000 0.000000 0.027905 0.000000 0.000000
# 5 0.000000 0.000000 0.000000 0.000000 0.059848 0.000000
# 6 0.000000 0.000000 0.000000 0.000000 0.000000 0.047043
#
#
# Mechanical properties :
#
#
# Convention : Reuss Voigt Hill
#
# Bulk Modulus (GPa) = 68.55743 75.84074 72.19908
# Shear Modulus (GPa) = 21.96552 24.21139 23.08846
#
# Velocity S-wave (km/s) = 3.45648 3.62889 3.54373
# Velocity P-wave (km/s) = 7.29512 7.66870 7.48424
#
# Compressibility (1/GPa) = 0.01458631
#
# Stress axis : x y z
#
# Youngs Moduli (GPa) = 75.30435 64.44501 44.47967
#
# Poissons Ratio (x) = 0.35115 0.15779
# Poissons Ratio (y) = 0.41032 0.41588
# Poissons Ratio (z) = 0.26714 0.60255
#
# Static dielectric constant tensor:
#      x y z
#    x 3.319130 0.000000 0.000000 
#    y 0.000000 3.441140 0.000000 
#    z 0.000000 0.000000 3.358490 
# 
# 
# High freq. dielectric constant tensor:
#      x y z
#    x 1.697570 0.000000 0.000000 
#    y 0.000000 1.725730 0.000000 
#    z 0.000000 0.000000 1.717400 
# 
# From -- ./inp_files/8758.got.cif
#   From: 2010.03.12/outbox.cif.g09.slc.cpg/sg55_5_cif.got.tgz:8758.got - 2010.04.16 15:19:21.
