data_PCOD8225017
_publ_section_title
;
Structure prediction by ZEFSAII (Michael W. Deem and Ramdas Pophale) SiO2 
 PCOD8225017
Probable space group: P B A M
;
_chemical_formula_sum "Si O2"
_cell_formula_units_Z 64
_cell_length_a 19.919128
_cell_length_b 18.715482
_cell_length_c 8.864300
_cell_angle_alpha 90.000000
_cell_angle_beta 90.000000
_cell_angle_gamma 90.000000
_cell_volume 3304.576306
_symmetry_space_group_name_H-M "P B A M"
_symmetry_group_IT_number 55
_symmetry_cell_setting 'orthorhombic'
loop_
_space_group_symop_operation_xyz
x,y,z
-x,-y,z
1/2+x,1/2-y,-z
1/2-x,1/2+y,-z
-x,-y,-z
x,y,-z
1/2-x,1/2+y,z
1/2+x,1/2-y,z
loop_
_atom_site_type_symbol
_atom_site_label
_atom_site_fract_x
_atom_site_fract_y
_atom_site_fract_z
Si Si1 0.480512 0.214313 0.679680
Si Si2 0.447401 0.057571 0.679497
Si Si3 0.372388 0.741024 0.320706
Si Si4 0.925341 0.026144 0.173192
Si Si5 0.822026 0.904490 0.178224
Si Si6 0.798663 0.482027 0.679313
Si Si7 0.379727 0.332740 0.321575
Si Si8 0.268000 0.858989 0.320860
O O1 0.479628 0.212827 0.500000
O O2 0.467063 0.135263 0.744262
O O3 0.552446 0.242697 0.736173
O O4 0.422072 0.266065 0.743477
O O5 0.450849 0.058153 0.500000
O O6 0.373363 0.036571 0.734009
O O7 0.500000 0.000000 0.744739
O O8 0.368829 0.732453 0.500000
O O9 0.346486 0.669577 0.245298
O O10 0.325961 0.806223 0.263609
O O11 0.915850 0.094741 0.275822
O O12 0.874819 0.964831 0.227715
O O13 0.912082 0.046769 0.000000
O O14 0.000000 0.000000 0.200030
O O15 0.749914 0.923942 0.246264
O O16 0.816700 0.897352 0.000000
O O17 0.791469 0.476847 0.500000
O O18 0.781156 0.561173 0.740342
O O19 0.378613 0.328699 0.500000
O O20 0.303631 0.330880 0.258290
O O21 0.267827 0.861451 0.500000
#
# Coordination Sequence:
#
# PCOD8225017 Si02
#       8
#     8   8   8   8   8   8   8   8
#     4   9  18  31  50  80 111 138 174 225 274 318
#     4   9  17  30  54  85 113 140 179 228 276 325
#     4  10  20  35  56  79 108 143 180 221 274 328
#     4  10  21  37  55  74 102 141 180 220 267 320
#     4  11  23  37  53  79 112 143 183 229 270 322
#     4  10  19  34  58  83 109 145 183 222 275 331
#     4  10  19  32  51  78 109 138 173 220 267 316
#     4   9  18  32  53  80 108 138 177 221 265 321
#
# _framework density 19.367082
#
# number of rings (size 3 to 8) (size 9 to 14) (size 15 to 20)
#    0.000    2.250    1.250    1.875    1.750    3.750 
#    0.000    1.250    0.000    1.125    0.000    0.000 
#    0.000    0.000    0.000    0.000    0.000    0.000 
#
# Total GULP energy -793688.192042 kJ/mol
# GULP energy per Si atom -12401.378001 kJ/mol
# Density = 1.932300 g / cm^3
# Si number density = 19.367082 Si / 1000 Ang^3
#
#
#
# Elastic Constant Matrix: (Units=GPa)
#
#
# Indices 1 2 3 4 5 6 
#
# 1 182.8021 98.3618 24.8226 0.0000 0.0000 0.0000
# 2 98.3618 177.1335 23.7657 0.0000 0.0000 0.0000
# 3 24.8226 23.7657 19.4559 0.0000 0.0000 0.0000
# 4 0.0000 0.0000 0.0000 4.2203 0.0000 0.0000
# 5 0.0000 0.0000 0.0000 0.0000 12.7172 0.0000
# 6 0.0000 0.0000 0.0000 0.0000 0.0000 42.4014
#
#
#
# Elastic Compliance Matrix: (Units=1/GPa)
#
#
# Indices 1 2 3 4 5 6 
#
# 1 0.008342 -0.003832 -0.005962 0.000000 0.000000 0.000000
# 2 -0.003832 0.008513 -0.005509 0.000000 0.000000 0.000000
# 3 -0.005962 -0.005509 0.065734 0.000000 0.000000 0.000000
# 4 0.000000 0.000000 0.000000 0.236947 0.000000 0.000000
# 5 0.000000 0.000000 0.000000 0.000000 0.078634 0.000000
# 6 0.000000 0.000000 0.000000 0.000000 0.000000 0.023584
#
#
# Mechanical properties :
#
#
# Convention : Reuss Voigt Hill
#
# Bulk Modulus (GPa) = 19.23728 74.81018 47.02373
# Shear Modulus (GPa) = 10.64538 27.36386 19.00462
#
# Velocity S-wave (km/s) = 2.34703 3.76294 3.13594
# Velocity P-wave (km/s) = 4.15924 7.58887 6.11924
#
# Compressibility (1/GPa) = 0.05198239
#
# Stress axis : x y z
#
# Youngs Moduli (GPa) = 119.87373 117.47094 15.21291
#
# Poissons Ratio (x) = 0.45021 0.09070
# Poissons Ratio (y) = 0.45941 0.08381
# Poissons Ratio (z) = 0.71465 0.64713
#
# Static dielectric constant tensor:
#      x y z
#    x 3.886460 0.000000 0.000000 
#    y 0.000000 3.722260 0.000000 
#    z 0.000000 0.000000 3.022570 
# 
# 
# High freq. dielectric constant tensor:
#      x y z
#    x 1.774330 0.000000 0.000000 
#    y 0.000000 1.767370 0.000000 
#    z 0.000000 0.000000 1.700620 
# 
# From -- ./inp_files/9063.got.cif
#   From: 2010.03.12/outbox.cif.g09.slc.cpg/sg55_5_cif.got.tgz:9063.got - 2010.04.16 15:19:21.
