data_PCOD8225682
_publ_section_title
;
Structure prediction by ZEFSAII (Michael W. Deem and Ramdas Pophale) SiO2 
 PCOD8225682
Probable space group: P B A M
;
_chemical_formula_sum "Si O2"
_cell_formula_units_Z 56
_cell_length_a 18.666958
_cell_length_b 17.048198
_cell_length_c 9.074437
_cell_angle_alpha 90.000000
_cell_angle_beta 90.000000
_cell_angle_gamma 90.000000
_cell_volume 2887.830646
_symmetry_space_group_name_H-M "P B A M"
_symmetry_group_IT_number 55
_symmetry_cell_setting 'orthorhombic'
loop_
_space_group_symop_operation_xyz
x,y,z
-x,-y,z
1/2+x,1/2-y,-z
1/2-x,1/2+y,-z
-x,-y,-z
x,y,-z
1/2-x,1/2+y,z
1/2+x,1/2-y,z
loop_
_atom_site_type_symbol
_atom_site_label
_atom_site_fract_x
_atom_site_fract_y
_atom_site_fract_z
Si Si1 0.858396 0.471872 0.672718
Si Si2 0.139812 0.822859 0.173395
Si Si3 0.556889 0.834524 0.172162
Si Si4 0.293947 0.585917 0.327144
Si Si5 0.226009 0.259936 0.669061
Si Si6 0.086059 0.360267 0.332314
Si Si7 0.419643 0.475660 0.325614
O O1 0.869347 0.459175 0.500000
O O2 0.902452 0.405936 0.754274
O O3 0.774435 0.467363 0.713773
O O4 0.886997 0.555672 0.725275
O O5 0.095464 0.745737 0.214742
O O6 0.219213 0.812626 0.238197
O O7 0.098955 0.894987 0.246518
O O8 0.145276 0.837138 0.000000
O O9 0.476404 0.829023 0.229377
O O10 0.556231 0.849535 0.000000
O O11 0.303333 0.596941 0.500000
O O12 0.281734 0.672848 0.260396
O O13 0.365280 0.543146 0.266510
O O14 0.253264 0.256988 0.500000
O O15 0.148823 0.298104 0.679713
O O16 0.058399 0.367311 0.500000
O O17 0.500000 0.500000 0.282522
O O18 0.411082 0.463337 0.500000
#
# Coordination Sequence:
#
# PCOD8225682 Si02
#       7
#     8   8   8   8   8   8   8
#     4  10  19  36  59  84 116 151 190 239 293 348
#     4  11  24  41  59  84 121 162 203 241 293 358
#     4  11  24  39  56  83 119 157 196 236 284 349
#     4   9  18  35  60  90 117 147 192 244 298 349
#     4  10  20  38  65  90 116 152 197 248 293 346
#     4  10  22  36  59  91 118 146 189 241 297 351
#     4  10  22  39  64  94 122 155 202 255 304 358
#
# _framework density 19.391718000000001
#
# number of rings (size 3 to 8) (size 9 to 14) (size 15 to 20)
#    0.000    1.857    1.429    2.143    2.000    7.143 
#    0.000    2.857    0.000    0.000    0.000    0.000 
#    0.000    0.000    0.000    0.000    0.000    0.000 
#
# Total GULP energy -694565.579429 kJ/mol
# GULP energy per Si atom -12402.956776 kJ/mol
# Density = 1.934758 g / cm^3
# Si number density = 19.391718 Si / 1000 Ang^3
#
#
#
# Elastic Constant Matrix: (Units=GPa)
#
#
# Indices 1 2 3 4 5 6 
#
# 1 98.7043 10.7743 18.6442 0.0000 0.0000 0.0000
# 2 10.7743 61.4810 12.9546 0.0000 0.0000 0.0000
# 3 18.6442 12.9546 26.9471 0.0000 0.0000 0.0000
# 4 0.0000 0.0000 0.0000 23.7728 0.0000 0.0000
# 5 0.0000 0.0000 0.0000 0.0000 5.1650 0.0000
# 6 0.0000 0.0000 0.0000 0.0000 0.0000 56.0996
#
#
#
# Elastic Compliance Matrix: (Units=1/GPa)
#
#
# Indices 1 2 3 4 5 6 
#
# 1 0.011662 -0.000382 -0.007885 0.000000 0.000000 0.000000
# 2 -0.000382 0.018111 -0.008442 0.000000 0.000000 0.000000
# 3 -0.007885 -0.008442 0.046624 0.000000 0.000000 0.000000
# 4 0.000000 0.000000 0.000000 0.042065 0.000000 0.000000
# 5 0.000000 0.000000 0.000000 0.000000 0.193613 0.000000
# 6 0.000000 0.000000 0.000000 0.000000 0.000000 0.017825
#
#
# Mechanical properties :
#
#
# Convention : Reuss Voigt Hill
#
# Bulk Modulus (GPa) = 23.26780 30.20875 26.73827
# Shear Modulus (GPa) = 13.23991 26.65810 19.94901
#
# Velocity S-wave (km/s) = 2.61580 3.71174 3.21087
# Velocity P-wave (km/s) = 4.59871 5.82935 5.25021
#
# Compressibility (1/GPa) = 0.04297785
#
# Stress axis : x y z
#
# Youngs Moduli (GPa) = 85.74539 55.21495 21.44819
#
# Poissons Ratio (x) = 0.02111 0.16912
# Poissons Ratio (y) = 0.03278 0.18107
# Poissons Ratio (z) = 0.67612 0.46614
#
# Static dielectric constant tensor:
#      x y z
#    x 1.729780 0.000000 0.000000 
#    y 0.000000 3.783950 0.000000 
#    z 0.000000 0.000000 3.370030 
# 
# 
# High freq. dielectric constant tensor:
#      x y z
#    x 1.768520 0.000000 0.000000 
#    y 0.000000 1.769820 0.000000 
#    z 0.000000 0.000000 1.729320 
# 
# From -- ./inp_files/8740.got.cif
#   From: 2010.03.12/outbox.cif.g09.slc.cpg/sg55_5_cif.got.tgz:8740.got - 2010.04.16 15:19:21.
