data_PCOD8225973
_publ_section_title
;
Structure prediction by ZEFSAII (Michael W. Deem and Ramdas Pophale) SiO2 
 PCOD8225973
Probable space group: P B A M
;
_chemical_formula_sum "Si O2"
_cell_formula_units_Z 64
_cell_length_a 16.419456
_cell_length_b 21.616531
_cell_length_c 9.909242
_cell_angle_alpha 90.000000
_cell_angle_beta 90.000000
_cell_angle_gamma 90.000000
_cell_volume 3517.103907
_symmetry_space_group_name_H-M "P B A M"
_symmetry_group_IT_number 55
_symmetry_cell_setting 'orthorhombic'
loop_
_space_group_symop_operation_xyz
x,y,z
-x,-y,z
1/2+x,1/2-y,-z
1/2-x,1/2+y,-z
-x,-y,-z
x,y,-z
1/2-x,1/2+y,z
1/2+x,1/2-y,z
loop_
_atom_site_type_symbol
_atom_site_label
_atom_site_fract_x
_atom_site_fract_y
_atom_site_fract_z
Si Si1 0.546776 0.186833 0.158106
Si Si2 0.173358 0.370951 0.346731
Si Si3 0.196971 0.972744 0.657236
Si Si4 0.941979 0.121895 0.653712
Si Si5 0.721150 0.413905 0.150753
Si Si6 0.312413 0.273484 0.351186
Si Si7 0.638900 0.827269 0.846951
Si Si8 0.927255 0.828571 0.845766
O O1 0.599871 0.138145 0.242815
O O2 0.454727 0.168497 0.197289
O O3 0.566663 0.257274 0.202428
O O4 0.564720 0.177051 0.000000
O O5 0.140299 0.377429 0.500000
O O6 0.224294 0.431703 0.305312
O O7 0.230442 0.311707 0.335180
O O8 0.198769 0.989655 0.500000
O O9 0.113842 0.936669 0.692416
O O10 0.197746 0.034989 0.741637
O O11 0.973685 0.115188 0.500000
O O12 0.890420 0.183824 0.670870
O O13 0.017542 0.126279 0.754726
O O14 0.815241 0.392976 0.169892
O O15 0.664652 0.353141 0.169466
O O16 0.708843 0.441132 0.000000
O O17 0.316131 0.243494 0.500000
O O18 0.311067 0.220625 0.241600
O O19 0.644143 0.803214 0.000000
O O20 0.958299 0.833099 0.000000
#
# Coordination Sequence:
#
# PCOD8225973 Si02
#       8
#     8   8   8   8   8   8   8   8
#     4  10  20  34  54  82 110 138 173 215 267 323
#     4   9  19  35  55  78 104 136 176 223 265 310
#     4   9  20  39  57  75 104 141 184 223 259 311
#     4   9  18  33  54  79 106 138 175 216 259 310
#     4  10  22  37  53  76 106 141 180 222 262 311
#     4   9  17  31  52  78 105 134 171 213 263 318
#     4  10  20  35  54  76 107 142 175 215 266 319
#     4  10  20  34  52  80 114 140 172 216 265 320
#
# _framework density 18.19679
#
# number of rings (size 3 to 8) (size 9 to 14) (size 15 to 20)
#    0.000    2.500    1.250    2.250    0.000    5.000 
#    0.000    5.625    0.000    3.750    0.000    0.000 
#    0.000    0.000    0.000    0.000    0.000    0.000 
#
# Total GULP energy -793540.595554 kJ/mol
# GULP energy per Si atom -12399.071806 kJ/mol
# Density = 1.815537 g / cm^3
# Si number density = 18.196790 Si / 1000 Ang^3
#
#
#
# Elastic Constant Matrix: (Units=GPa)
#
#
# Indices 1 2 3 4 5 6 
#
# 1 86.0798 29.6312 40.1252 0.0000 0.0000 0.0000
# 2 29.6312 52.3782 30.0933 0.0000 0.0000 0.0000
# 3 40.1252 30.0933 65.2422 0.0000 0.0000 0.0000
# 4 0.0000 0.0000 0.0000 33.4428 0.0000 0.0000
# 5 0.0000 0.0000 0.0000 0.0000 30.3914 0.0000
# 6 0.0000 0.0000 0.0000 0.0000 0.0000 18.7026
#
#
#
# Elastic Compliance Matrix: (Units=1/GPa)
#
#
# Indices 1 2 3 4 5 6 
#
# 1 0.017186 -0.004965 -0.008279 0.000000 0.000000 0.000000
# 2 -0.004965 0.027410 -0.009589 0.000000 0.000000 0.000000
# 3 -0.008279 -0.009589 0.024842 0.000000 0.000000 0.000000
# 4 0.000000 0.000000 0.000000 0.029902 0.000000 0.000000
# 5 0.000000 0.000000 0.000000 0.000000 0.032904 0.000000
# 6 0.000000 0.000000 0.000000 0.000000 0.000000 0.053468
#
#
# Mechanical properties :
#
#
# Convention : Reuss Voigt Hill
#
# Bulk Modulus (GPa) = 42.06881 44.82220 43.44550
# Shear Modulus (GPa) = 20.89392 23.43075 22.16234
#
# Velocity S-wave (km/s) = 3.39222 3.59225 3.49367
# Velocity P-wave (km/s) = 6.20579 6.47233 6.34046
#
# Compressibility (1/GPa) = 0.02377058
#
# Stress axis : x y z
#
# Youngs Moduli (GPa) = 58.18822 36.48248 40.25371
#
# Poissons Ratio (x) = 0.18115 0.33326
# Poissons Ratio (y) = 0.28893 0.38601
# Poissons Ratio (z) = 0.48175 0.34984
#
# Static dielectric constant tensor:
#      x y z
#    x 3.386980 0.000000 0.000000 
#    y 0.000000 3.097130 0.000000 
#    z 0.000000 0.000000 3.358490 
# 
# 
# High freq. dielectric constant tensor:
#      x y z
#    x 1.705910 0.000000 0.000000 
#    y 0.000000 1.682580 0.000000 
#    z 0.000000 0.000000 1.708650 
# 
# From -- ./inp_files/7941.got.cif
#   From: 2010.03.12/outbox.cif.g09.slc.cpg/sg55_4_cif.got.tgz:7941.got - 2010.04.16 15:19:21.
