data_PCOD8225943
_publ_section_title
;
Structure prediction by ZEFSAII (Michael W. Deem and Ramdas Pophale) SiO2 
 PCOD8225943
Probable space group: P B A M
;
_chemical_formula_sum "Si O2"
_cell_formula_units_Z 48
_cell_length_a 5.002638
_cell_length_b 15.364961
_cell_length_c 29.818671
_cell_angle_alpha 90.000000
_cell_angle_beta 90.000000
_cell_angle_gamma 90.000000
_cell_volume 2292.022218
_symmetry_space_group_name_H-M "P B A M"
_symmetry_group_IT_number 55
_symmetry_cell_setting 'orthorhombic'
loop_
_space_group_symop_operation_xyz
x,y,z
-x,-y,z
1/2+x,1/2-y,-z
1/2-x,1/2+y,-z
-x,-y,-z
x,y,-z
1/2-x,1/2+y,z
1/2+x,1/2-y,z
loop_
_atom_site_type_symbol
_atom_site_label
_atom_site_fract_x
_atom_site_fract_y
_atom_site_fract_z
Si Si1 0.754351 0.691524 0.500000
Si Si2 0.447942 0.192732 0.000000
Si Si3 0.789988 0.691000 0.688754
Si Si4 0.891814 0.693133 0.407518
Si Si5 0.032286 0.897977 0.142650
Si Si6 0.245568 0.941919 0.765454
Si Si7 0.529019 0.896603 0.092388
O O1 0.948909 0.776806 0.500000
O O2 0.819734 0.638798 0.453388
O O3 0.391140 0.133560 0.043068
O O4 0.752239 0.224849 0.000000
O O5 0.492547 0.728298 0.694107
O O6 0.849334 0.619093 0.725915
O O7 0.828901 0.644897 0.639672
O O8 0.201461 0.720789 0.408464
O O9 0.131309 0.882760 0.193674
O O10 0.247729 0.856480 0.108526
O O11 0.745055 0.859326 0.128668
O O12 0.000000 0.000000 0.135029
O O13 0.500000 0.000000 0.781746
O O14 0.000000 0.000000 0.747406
O O15 0.500000 0.000000 0.092705
#
# Coordination Sequence:
#
# PCOD8225943 Si02
#       7
#     4   4   8   8   8   8   8
#     4   8  12  20  36  60  86 120 162 208 256 300
#     4  12  25  40  55  82 118 142 162 204 259 306
#     4  10  20  34  50  75 108 140 172 216 267 319
#     4   8  14  24  40  62  93 126 163 210 259 303
#     4   9  18  34  58  81 100 128 174 219 247 283
#     4  11  21  36  57  81 107 140 178 220 265 314
#     4  10  20  38  61  80 100 135 177 209 241 293
#
# _framework density 20.942204
#
# number of rings (size 3 to 8) (size 9 to 14) (size 15 to 20)
#    0.000    2.333    0.000    4.750    0.000    0.000 
#    0.000    8.333    0.000    0.000    0.000    1.167 
#    0.000    0.000    0.000    0.000    0.000    0.000 
#
# Total GULP energy -594648.501112 kJ/mol
# GULP energy per Si atom -12388.510440 kJ/mol
# Density = 2.089454 g / cm^3
# Si number density = 20.942204 Si / 1000 Ang^3
#
#
#
# Elastic Constant Matrix: (Units=GPa)
#
#
# Indices 1 2 3 4 5 6 
#
# 1 99.3561 9.5529 27.8578 0.0000 0.0000 0.0000
# 2 9.5529 18.5734 28.7760 0.0000 0.0000 0.0000
# 3 27.8578 28.7760 186.3943 0.0000 0.0000 0.0000
# 4 0.0000 0.0000 0.0000 13.5045 0.0000 0.0000
# 5 0.0000 0.0000 0.0000 0.0000 34.1679 0.0000
# 6 0.0000 0.0000 0.0000 0.0000 0.0000 17.0384
#
#
#
# Elastic Compliance Matrix: (Units=1/GPa)
#
#
# Indices 1 2 3 4 5 6 
#
# 1 0.010725 -0.003986 -0.000988 0.000000 0.000000 0.000000
# 2 -0.003986 0.072248 -0.010558 0.000000 0.000000 0.000000
# 3 -0.000988 -0.010558 0.007143 0.000000 0.000000 0.000000
# 4 0.000000 0.000000 0.000000 0.074049 0.000000 0.000000
# 5 0.000000 0.000000 0.000000 0.000000 0.029267 0.000000
# 6 0.000000 0.000000 0.000000 0.000000 0.000000 0.058691
#
#
# Mechanical properties :
#
#
# Convention : Reuss Voigt Hill
#
# Bulk Modulus (GPa) = 16.93415 48.52191 32.72803
# Shear Modulus (GPa) = 16.50866 28.81797 22.66332
#
# Velocity S-wave (km/s) = 2.81071 3.71357 3.29323
# Velocity P-wave (km/s) = 4.31707 6.45036 5.48837
#
# Compressibility (1/GPa) = 0.05905225
#
# Stress axis : x y z
#
# Youngs Moduli (GPa) = 93.24046 13.84112 140.00603
#
# Poissons Ratio (x) = 0.05517 0.13826
# Poissons Ratio (y) = 0.37168 1.47820
# Poissons Ratio (z) = 0.09208 0.14614
#
# Static dielectric constant tensor:
#      x y z
#    x 4.180330 0.000000 0.000000 
#    y 0.000000 2.970570 0.000000 
#    z 0.000000 0.000000 4.288590 
# 
# 
# High freq. dielectric constant tensor:
#      x y z
#    x 1.849250 0.000000 0.000000 
#    y 0.000000 1.728860 0.000000 
#    z 0.000000 0.000000 1.846970 
# 
# From -- ./inp_files/23827.got.cif
#   From: 2010.03.12/outbox.cif.g09.slc.cpg/sg55_12_cif.got.tgz:23827.got - 2010.04.16 15:19:21.
