data_PCOD8225779
_publ_section_title
;
Structure prediction by ZEFSAII (Michael W. Deem and Ramdas Pophale) SiO2 
 PCOD8225779
Probable space group: P B A M
;
_chemical_formula_sum "Si O2"
_cell_formula_units_Z 64
_cell_length_a 8.767600
_cell_length_b 19.922589
_cell_length_c 18.875070
_cell_angle_alpha 90.000000
_cell_angle_beta 90.000000
_cell_angle_gamma 90.000000
_cell_volume 3296.970601
_symmetry_space_group_name_H-M "P B A M"
_symmetry_group_IT_number 55
_symmetry_cell_setting 'orthorhombic'
loop_
_space_group_symop_operation_xyz
x,y,z
-x,-y,z
1/2+x,1/2-y,-z
1/2-x,1/2+y,-z
-x,-y,-z
x,y,-z
1/2-x,1/2+y,z
1/2+x,1/2-y,z
loop_
_atom_site_type_symbol
_atom_site_label
_atom_site_fract_x
_atom_site_fract_y
_atom_site_fract_z
Si Si1 0.249988 0.165019 0.082737
Si Si2 0.666928 0.670798 0.782291
Si Si3 0.853307 0.093058 0.639247
Si Si4 0.537594 0.224523 0.151868
Si Si5 0.823424 0.703174 0.421002
Si Si6 0.318722 0.555880 0.335148
Si Si7 0.071156 0.069833 0.174589
Si Si8 0.650922 0.832411 0.414582
O O1 0.425337 0.181427 0.102087
O O2 0.133856 0.223988 0.104087
O O3 0.200774 0.095875 0.121308
O O4 0.238341 0.152417 0.000000
O O5 0.672871 0.645845 0.702386
O O6 0.840916 0.676966 0.808814
O O7 0.570451 0.739859 0.789268
O O8 0.576288 0.617264 0.829307
O O9 0.782958 0.136288 0.575450
O O10 0.028365 0.076450 0.622662
O O11 0.770325 0.021734 0.653184
O O12 0.857635 0.726014 0.500000
O O13 0.751893 0.770037 0.386166
O O14 0.983200 0.684793 0.385765
O O15 0.351663 0.567371 0.252260
O O16 0.189084 0.601357 0.369496
O O17 0.000000 0.000000 0.150097
O O18 0.658991 0.845009 0.500000
#
# Coordination Sequence:
#
# PCOD8225779 Si02
#       8
#     8   8   8   8   8   8   8   8
#     4  10  20  34  57  84 112 148 185 229 283 335
#     4   9  18  34  55  83 111 146 183 226 289 328
#     4  10  20  35  58  81 111 146 190 231 279 341
#     4   9  19  34  55  84 116 141 180 233 281 337
#     4  10  22  38  55  81 114 148 187 237 285 339
#     4  10  20  38  59  83 111 150 190 235 280 334
#     4  10  19  38  59  77 112 150 188 235 271 333
#     4  10  22  39  58  81 113 149 188 232 287 342
#
# _framework density 19.411760000000001
#
# number of rings (size 3 to 8) (size 9 to 14) (size 15 to 20)
#    0.000    2.250    2.500    1.125    0.000    8.750 
#    0.000    3.750    0.000    0.750    0.000    0.000 
#    0.000    0.000    0.000    0.000    0.000    0.000 
#
# Total GULP energy -793140.343761 kJ/mol
# GULP energy per Si atom -12392.817871 kJ/mol
# Density = 1.936758 g / cm^3
# Si number density = 19.411760 Si / 1000 Ang^3
#
#
#
# Elastic Constant Matrix: (Units=GPa)
#
#
# Indices 1 2 3 4 5 6 
#
# 1 79.2887 17.0170 18.7752 0.0000 0.0000 0.0000
# 2 17.0170 87.0321 25.6576 0.0000 0.0000 0.0000
# 3 18.7752 25.6576 40.8690 0.0000 0.0000 0.0000
# 4 0.0000 0.0000 0.0000 17.7928 0.0000 0.0000
# 5 0.0000 0.0000 0.0000 0.0000 25.2080 0.0000
# 6 0.0000 0.0000 0.0000 0.0000 0.0000 32.0546
#
#
#
# Elastic Compliance Matrix: (Units=1/GPa)
#
#
# Indices 1 2 3 4 5 6 
#
# 1 0.014229 -0.001049 -0.005878 0.000000 0.000000 0.000000
# 2 -0.001049 0.014177 -0.008418 0.000000 0.000000 0.000000
# 3 -0.005878 -0.008418 0.032454 0.000000 0.000000 0.000000
# 4 0.000000 0.000000 0.000000 0.056202 0.000000 0.000000
# 5 0.000000 0.000000 0.000000 0.000000 0.039670 0.000000
# 6 0.000000 0.000000 0.000000 0.000000 0.000000 0.031197
#
#
# Mechanical properties :
#
#
# Convention : Reuss Voigt Hill
#
# Bulk Modulus (GPa) = 33.14701 36.67659 34.91180
# Shear Modulus (GPa) = 21.86492 24.72708 23.29600
#
# Velocity S-wave (km/s) = 3.35979 3.57293 3.46800
# Velocity P-wave (km/s) = 5.67131 5.99635 5.83609
#
# Compressibility (1/GPa) = 0.03016863
#
# Stress axis : x y z
#
# Youngs Moduli (GPa) = 70.27778 70.53719 30.81300
#
# Poissons Ratio (x) = 0.07401 0.18112
# Poissons Ratio (y) = 0.07374 0.25939
# Poissons Ratio (z) = 0.41311 0.59380
#
# Static dielectric constant tensor:
#      x y z
#    x 3.664990 0.000000 0.000000 
#    y 0.000000 3.660830 0.000000 
#    z 0.000000 0.000000 3.282920 
# 
# 
# High freq. dielectric constant tensor:
#      x y z
#    x 1.758420 0.000000 0.000000 
#    y 0.000000 1.757410 0.000000 
#    z 0.000000 0.000000 1.733200 
# 
# From -- ./inp_files/22737.got.cif
#   From: 2010.03.12/outbox.cif.g09.slc.cpg/sg55_12_cif.got.tgz:22737.got - 2010.04.16 15:19:21.
