data_PCOD8225860
_publ_section_title
;
Structure prediction by ZEFSAII (Michael W. Deem and Ramdas Pophale) SiO2 
 PCOD8225860
Probable space group: P B A M
;
_chemical_formula_sum "Si O2"
_cell_formula_units_Z 64
_cell_length_a 17.687773
_cell_length_b 21.251787
_cell_length_c 9.034655
_cell_angle_alpha 90.000000
_cell_angle_beta 90.000000
_cell_angle_gamma 90.000000
_cell_volume 3396.097762
_symmetry_space_group_name_H-M "P B A M"
_symmetry_group_IT_number 55
_symmetry_cell_setting 'orthorhombic'
loop_
_space_group_symop_operation_xyz
x,y,z
-x,-y,z
1/2+x,1/2-y,-z
1/2-x,1/2+y,-z
-x,-y,-z
x,y,-z
1/2-x,1/2+y,z
1/2+x,1/2-y,z
loop_
_atom_site_type_symbol
_atom_site_label
_atom_site_fract_x
_atom_site_fract_y
_atom_site_fract_z
Si Si1 0.410854 0.506658 0.165862
Si Si2 0.260185 0.345296 0.826498
Si Si3 0.966812 0.631889 0.168785
Si Si4 0.374591 0.751341 0.832126
Si Si5 0.337365 0.939789 0.672865
Si Si6 0.399741 0.380844 0.325955
Si Si7 0.572970 0.368548 0.326536
Si Si8 0.566614 0.949212 0.666029
O O1 0.500000 0.500000 0.159554
O O2 0.378519 0.449334 0.261644
O O3 0.389493 0.572171 0.244459
O O4 0.376660 0.505260 0.000000
O O5 0.199344 0.291568 0.785679
O O6 0.232447 0.413761 0.768018
O O7 0.340743 0.331313 0.747646
O O8 0.272705 0.349607 0.000000
O O9 0.951229 0.706551 0.179578
O O10 0.910581 0.599786 0.283080
O O11 0.050710 0.609761 0.222633
O O12 0.952494 0.609279 0.000000
O O13 0.381545 0.693183 0.721888
O O14 0.365680 0.726729 0.000000
O O15 0.320952 0.929181 0.500000
O O16 0.355164 0.013880 0.706081
O O17 0.387818 0.382205 0.500000
O O18 0.484740 0.360650 0.283305
O O19 0.582460 0.379368 0.500000
O O20 0.571577 0.922195 0.500000
O O21 0.500000 0.000000 0.679904
#
# Coordination Sequence:
#
# PCOD8225860 Si02
#       8
#     8   8   8   8   8   8   8   8
#     4   9  17  31  53  79 105 132 161 198 248 302
#     4  10  20  33  50  74 102 135 175 215 258 310
#     4   9  16  25  39  61  88 119 158 203 245 288
#     4   9  19  33  48  71 103 137 175 216 257 306
#     4   9  16  26  40  60  88 121 157 200 249 297
#     4  10  20  34  53  79 108 134 166 211 260 310
#     4  10  20  33  53  80 106 135 171 210 254 306
#     4   8  14  23  36  56  82 114 152 195 245 293
#
# _framework density 18.845158000000001
#
# number of rings (size 3 to 8) (size 9 to 14) (size 15 to 20)
#    0.000    2.750    0.000    3.750    0.000    8.750 
#    0.000    0.000    0.000    1.500    0.000    3.500 
#    0.000    0.000    0.000    0.000    0.000    0.000 
#
# Total GULP energy -793065.567336 kJ/mol
# GULP energy per Si atom -12391.649490 kJ/mol
# Density = 1.880227 g / cm^3
# Si number density = 18.845158 Si / 1000 Ang^3
#
#
#
# Elastic Constant Matrix: (Units=GPa)
#
#
# Indices 1 2 3 4 5 6 
#
# 1 51.2841 24.3954 28.4919 0.0000 0.0000 0.0000
# 2 24.3954 71.3464 38.1642 0.0000 0.0000 0.0000
# 3 28.4919 38.1642 90.7325 0.0000 0.0000 0.0000
# 4 0.0000 0.0000 0.0000 31.5074 0.0000 0.0000
# 5 0.0000 0.0000 0.0000 0.0000 26.7006 0.0000
# 6 0.0000 0.0000 0.0000 0.0000 0.0000 16.6496
#
#
#
# Elastic Compliance Matrix: (Units=1/GPa)
#
#
# Indices 1 2 3 4 5 6 
#
# 1 0.025284 -0.005675 -0.005552 0.000000 0.000000 0.000000
# 2 -0.005675 0.019359 -0.006361 0.000000 0.000000 0.000000
# 3 -0.005552 -0.006361 0.015441 0.000000 0.000000 0.000000
# 4 0.000000 0.000000 0.000000 0.031739 0.000000 0.000000
# 5 0.000000 0.000000 0.000000 0.000000 0.037452 0.000000
# 6 0.000000 0.000000 0.000000 0.000000 0.000000 0.060062
#
#
# Mechanical properties :
#
#
# Convention : Reuss Voigt Hill
#
# Bulk Modulus (GPa) = 40.15025 43.94065 42.04545
# Shear Modulus (GPa) = 21.47631 23.12560 22.30095
#
# Velocity S-wave (km/s) = 3.37949 3.50685 3.44376
# Velocity P-wave (km/s) = 6.04810 6.30592 6.17836
#
# Compressibility (1/GPa) = 0.02490645
#
# Stress axis : x y z
#
# Youngs Moduli (GPa) = 39.55133 51.65534 64.76474
#
# Poissons Ratio (x) = 0.29315 0.35961
# Poissons Ratio (y) = 0.22446 0.41195
# Poissons Ratio (z) = 0.21961 0.32857
#
# Static dielectric constant tensor:
#      x y z
#    x 3.455630 0.000000 0.000000 
#    y 0.000000 3.381320 0.000000 
#    z 0.000000 0.000000 3.520830 
# 
# 
# High freq. dielectric constant tensor:
#      x y z
#    x 1.701730 0.000000 0.000000 
#    y 0.000000 1.705540 0.000000 
#    z 0.000000 0.000000 1.743320 
# 
# From -- ./inp_files/8090.got.cif
#   From: 2010.03.12/outbox.cif.g09.slc.cpg/sg55_5_cif.got.tgz:8090.got - 2010.04.16 15:19:21.
