data_PCOD8225649
_publ_section_title
;
Structure prediction by ZEFSAII (Michael W. Deem and Ramdas Pophale) SiO2 
 PCOD8225649
Probable space group: P B A M
;
_chemical_formula_sum "Si O2"
_cell_formula_units_Z 64
_cell_length_a 19.714656
_cell_length_b 9.874061
_cell_length_c 18.217166
_cell_angle_alpha 90.000000
_cell_angle_beta 90.000000
_cell_angle_gamma 90.000000
_cell_volume 3546.221227
_symmetry_space_group_name_H-M "P B A M"
_symmetry_group_IT_number 55
_symmetry_cell_setting 'orthorhombic'
loop_
_space_group_symop_operation_xyz
x,y,z
-x,-y,z
1/2+x,1/2-y,-z
1/2-x,1/2+y,-z
-x,-y,-z
x,y,-z
1/2-x,1/2+y,z
1/2+x,1/2-y,z
loop_
_atom_site_type_symbol
_atom_site_label
_atom_site_fract_x
_atom_site_fract_y
_atom_site_fract_z
Si Si1 0.427742 0.665194 0.915873
Si Si2 0.680422 0.765111 0.800488
Si Si3 0.063296 0.594339 0.585495
Si Si4 0.582767 0.647824 0.083237
Si Si5 0.826081 0.022432 0.695252
Si Si6 0.937887 0.091944 0.585747
Si Si7 0.171073 0.494041 0.699329
Si Si8 0.164339 0.235316 0.210416
O O1 0.402496 0.511048 0.908107
O O2 0.505987 0.679239 0.892262
O O3 0.384400 0.756103 0.859761
O O4 0.417175 0.714261 0.000000
O O5 0.635547 0.736293 0.871329
O O6 0.662721 0.663381 0.735632
O O7 0.661694 0.912946 0.770982
O O8 0.759536 0.754217 0.821177
O O9 0.081617 0.579607 0.500000
O O10 0.047714 0.750802 0.605653
O O11 0.127016 0.540545 0.630740
O O12 0.000000 0.500000 0.606608
O O13 0.593113 0.693480 0.000000
O O14 0.748531 0.999317 0.671266
O O15 0.851043 0.906687 0.750617
O O16 0.870784 0.030512 0.622415
O O17 0.926372 0.073637 0.500000
O O18 0.000000 0.000000 0.613809
O O19 0.149995 0.345779 0.726704
#
# Coordination Sequence:
#
# PCOD8225649 Si02
#       8
#     8   8   8   8   8   8   8   8
#     4   9  18  34  55  81 108 138 183 231 272 321
#     4  10  19  36  55  78 111 143 182 226 272 327
#     4  10  22  40  58  80 115 151 181 224 282 335
#     4   9  18  33  56  81 106 141 184 227 272 324
#     4  10  20  37  59  80 107 145 186 231 272 320
#     4  10  22  39  59  84 111 144 189 233 271 323
#     4  10  22  37  55  83 113 144 184 226 278 333
#     4  10  21  34  55  83 111 144 181 227 274 325
#
# _framework density 18.047377999999998
#
# number of rings (size 3 to 8) (size 9 to 14) (size 15 to 20)
#    0.000    2.250    2.500    0.750    1.750    3.000 
#    0.000    0.625    0.000    1.500    0.000    0.000 
#    0.000    0.000    0.000    0.000    0.000    0.000 
#
# Total GULP energy -793653.746097 kJ/mol
# GULP energy per Si atom -12400.839783 kJ/mol
# Density = 1.800630 g / cm^3
# Si number density = 18.047378 Si / 1000 Ang^3
#
#
#
# Elastic Constant Matrix: (Units=GPa)
#
#
# Indices 1 2 3 4 5 6 
#
# 1 107.8847 49.2982 70.3709 0.0000 0.0000 0.0000
# 2 49.2982 61.6993 29.5792 0.0000 0.0000 0.0000
# 3 70.3709 29.5792 79.0737 0.0000 0.0000 0.0000
# 4 0.0000 0.0000 0.0000 21.2294 0.0000 0.0000
# 5 0.0000 0.0000 0.0000 0.0000 42.2076 0.0000
# 6 0.0000 0.0000 0.0000 0.0000 0.0000 28.7809
#
#
#
# Elastic Compliance Matrix: (Units=1/GPa)
#
#
# Indices 1 2 3 4 5 6 
#
# 1 0.028707 -0.013025 -0.020675 0.000000 0.000000 0.000000
# 2 -0.013025 0.025659 0.001993 0.000000 0.000000 0.000000
# 3 -0.020675 0.001993 0.030300 0.000000 0.000000 0.000000
# 4 0.000000 0.000000 0.000000 0.047104 0.000000 0.000000
# 5 0.000000 0.000000 0.000000 0.000000 0.023692 0.000000
# 6 0.000000 0.000000 0.000000 0.000000 0.000000 0.034745
#
#
# Mechanical properties :
#
#
# Convention : Reuss Voigt Hill
#
# Bulk Modulus (GPa) = 47.05317 60.79490 53.92404
# Shear Modulus (GPa) = 19.17857 25.07088 22.12472
#
# Velocity S-wave (km/s) = 3.26341 3.73120 3.50512
# Velocity P-wave (km/s) = 6.35047 7.23339 6.80626
#
# Compressibility (1/GPa) = 0.02125255
#
# Stress axis : x y z
#
# Youngs Moduli (GPa) = 34.83457 38.97214 33.00278
#
# Poissons Ratio (x) = 0.50762 0.68234
# Poissons Ratio (y) = 0.45373 -0.06579
# Poissons Ratio (z) = 0.72021 -0.07768
#
# Static dielectric constant tensor:
#      x y z
#    x 3.325930 0.000000 0.000000 
#    y 0.000000 3.420860 0.000000 
#    z 0.000000 0.000000 3.157350 
# 
# 
# High freq. dielectric constant tensor:
#      x y z
#    x 1.699490 0.000000 0.000000 
#    y 0.000000 1.698540 0.000000 
#    z 0.000000 0.000000 1.693390 
# 
# From -- ./inp_files/23069.got.cif
#   From: 2010.03.12/outbox.cif.g09.slc.cpg/sg55_12_cif.got.tgz:23069.got - 2010.04.16 15:19:21.
