data_PCOD8225911
_publ_section_title
;
Structure prediction by ZEFSAII (Michael W. Deem and Ramdas Pophale) SiO2 
 PCOD8225911
Probable space group: P B A M
;
_chemical_formula_sum "Si O2"
_cell_formula_units_Z 40
_cell_length_a 22.144705
_cell_length_b 8.807076
_cell_length_c 10.244598
_cell_angle_alpha 90.000000
_cell_angle_beta 90.000000
_cell_angle_gamma 90.000000
_cell_volume 1998.004972
_symmetry_space_group_name_H-M "P B A M"
_symmetry_group_IT_number 55
_symmetry_cell_setting 'orthorhombic'
loop_
_space_group_symop_operation_xyz
x,y,z
-x,-y,z
1/2+x,1/2-y,-z
1/2-x,1/2+y,-z
-x,-y,-z
x,y,-z
1/2-x,1/2+y,z
1/2+x,1/2-y,z
loop_
_atom_site_type_symbol
_atom_site_label
_atom_site_fract_x
_atom_site_fract_y
_atom_site_fract_z
Si Si1 0.367463 0.828294 0.238917
Si Si2 0.597465 0.826941 0.751478
Si Si3 0.800602 0.647268 0.500000
Si Si4 0.288074 0.899664 0.000000
Si Si5 0.672429 0.796514 0.500000
Si Si6 0.330111 0.235869 0.000000
Si Si7 0.515971 0.324940 0.848634
O O1 0.334691 0.785791 0.373935
O O2 0.316903 0.825293 0.127840
O O3 0.416877 0.700996 0.206383
O O4 0.400096 0.991329 0.243628
O O5 0.630605 0.762854 0.624166
O O6 0.628485 0.747246 0.874307
O O7 0.527895 0.776408 0.757881
O O8 0.730141 0.687548 0.500000
O O9 0.802744 0.466439 0.500000
O O10 0.216894 0.872715 0.000000
O O11 0.294074 0.079329 0.000000
O O12 0.500000 0.500000 0.832609
O O13 0.512254 0.272839 0.000000
#
# Coordination Sequence:
#
# PCOD8225911 Si02
#       7
#     8   8   4   4   4   4   8
#     4  10  21  38  59  83 114 154 192 230 284 345
#     4  10  21  38  59  83 114 154 192 230 284 345
#     4  10  22  39  60  87 119 154 192 234 283 340
#     4  10  20  33  54  81 109 146 190 232 279 332
#     4  10  22  39  60  87 119 154 192 234 283 340
#     4  10  20  33  54  81 109 146 190 232 279 332
#     4  11  23  38  59  88 116 146 191 246 294 335
#
# _framework density 20.019971000000002
#
# number of rings (size 3 to 8) (size 9 to 14) (size 15 to 20)
#    0.000    1.800    2.000    1.800    0.000    4.800 
#    0.000    4.000    0.000    0.000    0.000    0.000 
#    0.000    0.000    0.000    0.000    0.000    0.000 
#
# Total GULP energy -496203.626227 kJ/mol
# GULP energy per Si atom -12405.090656 kJ/mol
# Density = 1.997440 g / cm^3
# Si number density = 20.019971 Si / 1000 Ang^3
#
#
#
# Elastic Constant Matrix: (Units=GPa)
#
#
# Indices 1 2 3 4 5 6 
#
# 1 62.7647 7.9262 28.6476 0.0000 0.0000 0.0000
# 2 7.9262 21.4109 14.7809 0.0000 0.0000 0.0000
# 3 28.6476 14.7809 149.4950 0.0000 0.0000 0.0000
# 4 0.0000 0.0000 0.0000 48.3518 0.0000 0.0000
# 5 0.0000 0.0000 0.0000 0.0000 28.2422 0.0000
# 6 0.0000 0.0000 0.0000 0.0000 0.0000 41.9344
#
#
#
# Elastic Compliance Matrix: (Units=1/GPa)
#
#
# Indices 1 2 3 4 5 6 
#
# 1 0.017865 -0.004562 -0.002972 0.000000 0.000000 0.000000
# 2 -0.004562 0.051291 -0.004197 0.000000 0.000000 0.000000
# 3 -0.002972 -0.004197 0.007674 0.000000 0.000000 0.000000
# 4 0.000000 0.000000 0.000000 0.020682 0.000000 0.000000
# 5 0.000000 0.000000 0.000000 0.000000 0.035408 0.000000
# 6 0.000000 0.000000 0.000000 0.000000 0.000000 0.023847
#
#
# Mechanical properties :
#
#
# Convention : Reuss Voigt Hill
#
# Bulk Modulus (GPa) = 18.73787 37.37555 28.05671
# Shear Modulus (GPa) = 25.25015 35.86009 30.55512
#
# Velocity S-wave (km/s) = 3.55526 4.23687 3.91094
# Velocity P-wave (km/s) = 5.12182 6.53027 5.86845
#
# Compressibility (1/GPa) = 0.05336786
#
# Stress axis : x y z
#
# Youngs Moduli (GPa) = 55.97438 19.49649 130.31384
#
# Poissons Ratio (x) = 0.08894 0.38736
# Poissons Ratio (y) = 0.25534 0.54694
# Poissons Ratio (z) = 0.16638 0.08183
#
# Static dielectric constant tensor:
#      x y z
#    x 3.561290 0.000000 0.000000 
#    y 0.000000 3.368100 0.000000 
#    z 0.000000 0.000000 3.828260 
# 
# 
# High freq. dielectric constant tensor:
#      x y z
#    x 1.789760 0.000000 0.000000 
#    y 0.000000 1.766180 0.000000 
#    z 0.000000 0.000000 1.788360 
# 
# From -- ./inp_files/12104.got.cif
#   From: 2010.03.12/outbox.cif.g09.slc.cpg/sg55_7_cif.got.tgz:12104.got - 2010.04.16 15:19:21.
