data_PCOD8225490
_publ_section_title
;
Structure prediction by ZEFSAII (Michael W. Deem and Ramdas Pophale) SiO2 
 PCOD8225490
Probable space group: P B A M
;
_chemical_formula_sum "Si O2"
_cell_formula_units_Z 40
_cell_length_a 25.736662
_cell_length_b 8.925741
_cell_length_c 8.316770
_cell_angle_alpha 90.000000
_cell_angle_beta 90.000000
_cell_angle_gamma 90.000000
_cell_volume 1910.518251
_symmetry_space_group_name_H-M "P B A M"
_symmetry_group_IT_number 55
_symmetry_cell_setting 'orthorhombic'
loop_
_space_group_symop_operation_xyz
x,y,z
-x,-y,z
1/2+x,1/2-y,-z
1/2-x,1/2+y,-z
-x,-y,-z
x,y,-z
1/2-x,1/2+y,z
1/2+x,1/2-y,z
loop_
_atom_site_type_symbol
_atom_site_label
_atom_site_fract_x
_atom_site_fract_y
_atom_site_fract_z
Si Si1 0.704917 0.649573 0.685733
Si Si2 0.004378 0.831949 0.691055
Si Si3 0.701293 0.324942 0.183762
Si Si4 0.394187 0.165526 0.690965
Si Si5 0.600674 0.173430 0.690785
O O1 0.696450 0.606026 0.500000
O O2 0.758667 0.737985 0.702461
O O3 0.706751 0.501355 0.791116
O O4 0.658083 0.753289 0.749984
O O5 0.007812 0.838111 0.500000
O O6 0.056100 0.753787 0.761455
O O7 0.955108 0.735010 0.746091
O O8 0.000000 0.000000 0.761142
O O9 0.643278 0.276811 0.226404
O O10 0.714144 0.286448 0.000000
O O11 0.397180 0.161837 0.500000
O O12 0.393870 0.995802 0.755701
O O13 0.607560 0.183294 0.500000
#
# Coordination Sequence:
#
# PCOD8225490 Si02
#       5
#     8   8   8   8   8
#     4  11  22  39  62  85 112 150 198 242 287 348
#     4   9  16  28  51  85 119 148 185 238 294 342
#     4  12  25  40  58  84 119 153 190 239 296 348
#     4   9  18  32  55  87 115 143 187 244 294 338
#     4  10  19  34  58  85 115 152 194 237 285 347
#
# _framework density 20.936726
#
# number of rings (size 3 to 8) (size 9 to 14) (size 15 to 20)
#    0.000    1.800    0.000    5.400    0.000    7.200 
#    0.000    1.000    0.000    9.000    0.000    0.000 
#    0.000    0.000    0.000    0.000    0.000    0.000 
#
# Total GULP energy -496195.457713 kJ/mol
# GULP energy per Si atom -12404.886443 kJ/mol
# Density = 2.088907 g / cm^3
# Si number density = 20.936726 Si / 1000 Ang^3
#
#
#
# Elastic Constant Matrix: (Units=GPa)
#
#
# Indices 1 2 3 4 5 6 
#
# 1 114.9989 28.7516 17.0082 0.0000 0.0000 0.0000
# 2 28.7516 128.7109 12.2294 0.0000 0.0000 0.0000
# 3 17.0082 12.2294 35.7208 0.0000 0.0000 0.0000
# 4 0.0000 0.0000 0.0000 16.7105 0.0000 0.0000
# 5 0.0000 0.0000 0.0000 0.0000 3.6889 0.0000
# 6 0.0000 0.0000 0.0000 0.0000 0.0000 47.9980
#
#
#
# Elastic Compliance Matrix: (Units=1/GPa)
#
#
# Indices 1 2 3 4 5 6 
#
# 1 0.009739 -0.001793 -0.004023 0.000000 0.000000 0.000000
# 2 -0.001793 0.008361 -0.002009 0.000000 0.000000 0.000000
# 3 -0.004023 -0.002009 0.030598 0.000000 0.000000 0.000000
# 4 0.000000 0.000000 0.000000 0.059842 0.000000 0.000000
# 5 0.000000 0.000000 0.000000 0.000000 0.271086 0.000000
# 6 0.000000 0.000000 0.000000 0.000000 0.000000 0.020834
#
#
# Mechanical properties :
#
#
# Convention : Reuss Voigt Hill
#
# Bulk Modulus (GPa) = 30.25909 43.93435 37.09672
# Shear Modulus (GPa) = 11.70612 28.44224 20.07418
#
# Velocity S-wave (km/s) = 2.36714 3.68976 3.09981
# Velocity P-wave (km/s) = 4.68563 6.25958 5.52890
#
# Compressibility (1/GPa) = 0.03304792
#
# Stress axis : x y z
#
# Youngs Moduli (GPa) = 102.67870 119.60614 32.68165
#
# Poissons Ratio (x) = 0.21449 0.13149
# Poissons Ratio (y) = 0.18413 0.06564
# Poissons Ratio (z) = 0.41310 0.24023
#
# Static dielectric constant tensor:
#      x y z
#    x 3.934890 0.000000 0.000000 
#    y 0.000000 3.966290 0.000000 
#    z 0.000000 0.000000 3.214320 
# 
# 
# High freq. dielectric constant tensor:
#      x y z
#    x 1.836670 0.000000 0.000000 
#    y 0.000000 1.837120 0.000000 
#    z 0.000000 0.000000 1.771810 
# 
# From -- ./inp_files/2280.got.cif
#   From: 2010.03.12/outbox.cif.g09.slc.cpg/sg55_2_cif.got.tgz:2280.got - 2010.04.16 15:19:21.
