data_PCOD8225137
_publ_section_title
;
Structure prediction by ZEFSAII (Michael W. Deem and Ramdas Pophale) SiO2 
 PCOD8225137
Probable space group: P B A M
;
_chemical_formula_sum "Si O2"
_cell_formula_units_Z 56
_cell_length_a 13.503443
_cell_length_b 24.023362
_cell_length_c 9.184237
_cell_angle_alpha 90.000000
_cell_angle_beta 90.000000
_cell_angle_gamma 90.000000
_cell_volume 2979.349028
_symmetry_space_group_name_H-M "P B A M"
_symmetry_group_IT_number 55
_symmetry_cell_setting 'orthorhombic'
loop_
_space_group_symop_operation_xyz
x,y,z
-x,-y,z
1/2+x,1/2-y,-z
1/2-x,1/2+y,-z
-x,-y,-z
x,y,-z
1/2-x,1/2+y,z
1/2+x,1/2-y,z
loop_
_atom_site_type_symbol
_atom_site_label
_atom_site_fract_x
_atom_site_fract_y
_atom_site_fract_z
Si Si1 0.136339 0.159561 0.170986
Si Si2 0.234271 0.059889 0.668111
Si Si3 0.562659 0.945939 0.166928
Si Si4 0.795272 0.065716 0.668445
Si Si5 0.910007 0.156638 0.830037
Si Si6 0.123464 0.379337 0.832248
Si Si7 0.230007 0.270788 0.170791
O O1 0.164397 0.103209 0.250886
O O2 0.201376 0.210670 0.237355
O O3 0.021917 0.173787 0.203745
O O4 0.154497 0.150857 0.000000
O O5 0.240817 0.076212 0.500000
O O6 0.344600 0.061721 0.730060
O O7 0.184177 0.999680 0.689670
O O8 0.492449 0.892015 0.189633
O O9 0.500000 0.000000 0.211614
O O10 0.598895 0.950674 0.000000
O O11 0.792912 0.082495 0.500000
O O12 0.882485 0.100018 0.746228
O O13 0.688388 0.078405 0.737281
O O14 0.837719 0.207043 0.777295
O O15 0.892229 0.145104 0.000000
O O16 0.146413 0.316018 0.784463
O O17 0.154620 0.388887 0.000000
O O18 0.228851 0.261887 0.000000
#
# Coordination Sequence:
#
# PCOD8225137 Si02
#       7
#     8   8   8   8   8   8   8
#     4  10  21  37  57  81 108 141 182 228 274 320
#     4  11  24  37  51  76 113 151 183 224 276 326
#     4  10  19  32  55  86 114 143 179 221 272 327
#     4  10  20  34  53  77 107 145 183 220 268 325
#     4   9  19  36  59  83 107 139 179 225 274 324
#     4   9  17  32  56  83 110 141 179 224 267 318
#     4   8  16  33  57  82 107 137 177 225 272 322
#
# _framework density 18.796053000000001
#
# number of rings (size 3 to 8) (size 9 to 14) (size 15 to 20)
#    0.000    2.429    1.429    1.714    0.000    4.857 
#    0.000   10.000    0.000    1.714    0.000    0.000 
#    0.000    0.000    0.000    0.000    0.000    0.000 
#
# Total GULP energy -694301.472693 kJ/mol
# GULP energy per Si atom -12398.240584 kJ/mol
# Density = 1.875327 g / cm^3
# Si number density = 18.796053 Si / 1000 Ang^3
#
#
#
# Elastic Constant Matrix: (Units=GPa)
#
#
# Indices 1 2 3 4 5 6 
#
# 1 100.5652 52.9134 47.2387 0.0000 0.0000 0.0000
# 2 52.9134 115.7431 50.7509 0.0000 0.0000 0.0000
# 3 47.2387 50.7509 73.8360 0.0000 0.0000 0.0000
# 4 0.0000 0.0000 0.0000 15.5765 0.0000 0.0000
# 5 0.0000 0.0000 0.0000 0.0000 16.9593 0.0000
# 6 0.0000 0.0000 0.0000 0.0000 0.0000 26.7897
#
#
#
# Elastic Compliance Matrix: (Units=1/GPa)
#
#
# Indices 1 2 3 4 5 6 
#
# 1 0.015344 -0.003879 -0.007150 0.000000 0.000000 0.000000
# 2 -0.003879 0.013348 -0.006693 0.000000 0.000000 0.000000
# 3 -0.007150 -0.006693 0.022718 0.000000 0.000000 0.000000
# 4 0.000000 0.000000 0.000000 0.064199 0.000000 0.000000
# 5 0.000000 0.000000 0.000000 0.000000 0.058965 0.000000
# 6 0.000000 0.000000 0.000000 0.000000 0.000000 0.037328
#
#
# Mechanical properties :
#
#
# Convention : Reuss Voigt Hill
#
# Bulk Modulus (GPa) = 62.63519 65.77226 64.20373
# Shear Modulus (GPa) = 19.78886 21.14786 20.46836
#
# Velocity S-wave (km/s) = 3.24824 3.35792 3.30354
# Velocity P-wave (km/s) = 6.88941 7.07833 6.98451
#
# Compressibility (1/GPa) = 0.01596547
#
# Stress axis : x y z
#
# Youngs Moduli (GPa) = 65.17387 74.91800 44.01766
#
# Poissons Ratio (x) = 0.29063 0.31473
# Poissons Ratio (y) = 0.25283 0.29460
# Poissons Ratio (z) = 0.46599 0.50140
#
# Static dielectric constant tensor:
#      x y z
#    x 3.457880 0.000000 0.000000 
#    y 0.000000 3.612600 0.000000 
#    z 0.000000 0.000000 3.275330 
# 
# 
# High freq. dielectric constant tensor:
#      x y z
#    x 1.726190 0.000000 0.000000 
#    y 0.000000 1.732380 0.000000 
#    z 0.000000 0.000000 1.708190 
# 
# From -- ./inp_files/6085.got.cif
#   From: 2010.03.12/outbox.cif.g09.slc.cpg/sg55_4_cif.got.tgz:6085.got - 2010.04.16 15:19:21.
