data_PCOD8225498
_publ_section_title
;
Structure prediction by ZEFSAII (Michael W. Deem and Ramdas Pophale) SiO2 
 PCOD8225498
Probable space group: P B A M
;
_chemical_formula_sum "Si O2"
_cell_formula_units_Z 64
_cell_length_a 24.407269
_cell_length_b 14.963823
_cell_length_c 8.836432
_cell_angle_alpha 90.000000
_cell_angle_beta 90.000000
_cell_angle_gamma 90.000000
_cell_volume 3227.295184
_symmetry_space_group_name_H-M "P B A M"
_symmetry_group_IT_number 55
_symmetry_cell_setting 'orthorhombic'
loop_
_space_group_symop_operation_xyz
x,y,z
-x,-y,z
1/2+x,1/2-y,-z
1/2-x,1/2+y,-z
-x,-y,-z
x,y,-z
1/2-x,1/2+y,z
1/2+x,1/2-y,z
loop_
_atom_site_type_symbol
_atom_site_label
_atom_site_fract_x
_atom_site_fract_y
_atom_site_fract_z
Si Si1 0.883680 0.413435 0.322313
Si Si2 0.310305 0.738944 0.821051
Si Si3 0.384736 0.578090 0.822668
Si Si4 0.387666 0.386880 0.320836
Si Si5 0.991994 0.394756 0.833594
Si Si6 0.888297 0.605811 0.179760
Si Si7 0.491785 0.604935 0.666420
Si Si8 0.186294 0.736824 0.179616
O O1 0.876074 0.410099 0.500000
O O2 0.876349 0.513508 0.263780
O O3 0.837038 0.354513 0.245772
O O4 0.943336 0.371609 0.282131
O O5 0.337027 0.645376 0.770103
O O6 0.344797 0.822771 0.757259
O O7 0.248545 0.744980 0.760979
O O8 0.312764 0.744929 0.000000
O O9 0.375448 0.487546 0.730891
O O10 0.443103 0.625209 0.783961
O O11 0.383046 0.557137 0.000000
O O12 0.379235 0.380841 0.500000
O O13 0.449717 0.355872 0.276854
O O14 0.345909 0.322667 0.237230
O O15 0.050790 0.355726 0.779883
O O16 0.000000 0.500000 0.843592
O O17 0.975882 0.357569 0.000000
O O18 0.884252 0.588821 0.000000
O O19 0.500000 0.500000 0.651916
O O20 0.476688 0.643363 0.500000
O O21 0.183675 0.733011 0.000000
#
# Coordination Sequence:
#
# PCOD8225498 Si02
#       8
#     8   8   8   8   8   8   8   8
#     4  11  22  36  55  83 117 147 178 222 276 331
#     4   9  21  39  58  81 108 141 186 236 275 315
#     4  10  19  34  58  87 114 143 183 225 269 327
#     4  10  21  38  57  81 115 148 179 224 280 328
#     4   8  15  30  55  84 111 142 179 219 268 327
#     4   9  18  37  61  83 110 144 183 228 276 323
#     4   8  16  32  53  79 113 147 175 214 273 329
#     4  11  23  40  59  78 104 144 193 234 271 322
#
# _framework density 19.830849000000001
#
# number of rings (size 3 to 8) (size 9 to 14) (size 15 to 20)
#    0.000    2.500    0.000    3.750    0.000    7.000 
#    0.000   11.250    0.000    0.000    0.000    0.000 
#    0.000    0.000    0.000    0.000    0.000    0.000 
#
# Total GULP energy -793400.684367 kJ/mol
# GULP energy per Si atom -12396.885693 kJ/mol
# Density = 1.978571 g / cm^3
# Si number density = 19.830849 Si / 1000 Ang^3
#
#
#
# Elastic Constant Matrix: (Units=GPa)
#
#
# Indices 1 2 3 4 5 6 
#
# 1 113.7726 26.3877 30.6727 0.0000 0.0000 0.0000
# 2 26.3877 56.2303 19.2542 0.0000 0.0000 0.0000
# 3 30.6727 19.2542 75.5867 0.0000 0.0000 0.0000
# 4 0.0000 0.0000 0.0000 2.7585 0.0000 0.0000
# 5 0.0000 0.0000 0.0000 0.0000 9.8590 0.0000
# 6 0.0000 0.0000 0.0000 0.0000 0.0000 34.8247
#
#
#
# Elastic Compliance Matrix: (Units=1/GPa)
#
#
# Indices 1 2 3 4 5 6 
#
# 1 0.010570 -0.003825 -0.003315 0.000000 0.000000 0.000000
# 2 -0.003825 0.020868 -0.003763 0.000000 0.000000 0.000000
# 3 -0.003315 -0.003763 0.015534 0.000000 0.000000 0.000000
# 4 0.000000 0.000000 0.000000 0.362516 0.000000 0.000000
# 5 0.000000 0.000000 0.000000 0.000000 0.101430 0.000000
# 6 0.000000 0.000000 0.000000 0.000000 0.000000 0.028715
#
#
# Mechanical properties :
#
#
# Convention : Reuss Voigt Hill
#
# Bulk Modulus (GPa) = 39.73849 44.24652 41.99250
# Shear Modulus (GPa) = 8.77457 20.77344 14.77400
#
# Velocity S-wave (km/s) = 2.10578 3.24007 2.73243
# Velocity P-wave (km/s) = 5.09849 6.02974 5.58357
#
# Compressibility (1/GPa) = 0.02516452
#
# Stress axis : x y z
#
# Youngs Moduli (GPa) = 94.60373 47.92071 64.37629
#
# Poissons Ratio (x) = 0.18331 0.21341
# Poissons Ratio (y) = 0.36189 0.24227
# Poissons Ratio (z) = 0.31361 0.18034
#
# Static dielectric constant tensor:
#      x y z
#    x 4.085470 0.000000 0.000000 
#    y 0.000000 3.453340 0.000000 
#    z 0.000000 0.000000 3.454320 
# 
# 
# High freq. dielectric constant tensor:
#      x y z
#    x 1.778370 0.000000 0.000000 
#    y 0.000000 1.765180 0.000000 
#    z 0.000000 0.000000 1.759960 
# 
# From -- ./inp_files/9704.got.cif
#   From: 2010.03.12/outbox.cif.g09.slc.cpg/sg55_5_cif.got.tgz:9704.got - 2010.04.16 15:19:21.
