data_PCOD8225025
_publ_section_title
;
Structure prediction by ZEFSAII (Michael W. Deem and Ramdas Pophale) SiO2 
 PCOD8225025
Probable space group: P B A M
;
_chemical_formula_sum "Si O2"
_cell_formula_units_Z 64
_cell_length_a 14.797243
_cell_length_b 27.740996
_cell_length_c 8.589438
_cell_angle_alpha 90.000000
_cell_angle_beta 90.000000
_cell_angle_gamma 90.000000
_cell_volume 3525.880628
_symmetry_space_group_name_H-M "P B A M"
_symmetry_group_IT_number 55
_symmetry_cell_setting 'orthorhombic'
loop_
_space_group_symop_operation_xyz
x,y,z
-x,-y,z
1/2+x,1/2-y,-z
1/2-x,1/2+y,-z
-x,-y,-z
x,y,-z
1/2-x,1/2+y,z
1/2+x,1/2-y,z
loop_
_atom_site_type_symbol
_atom_site_label
_atom_site_fract_x
_atom_site_fract_y
_atom_site_fract_z
Si Si1 0.417468 0.718095 0.317822
Si Si2 0.105315 0.677820 0.317655
Si Si3 0.593833 0.173863 0.316667
Si Si4 0.211939 0.131709 0.319973
Si Si5 0.099207 0.948928 0.315400
Si Si6 0.106196 0.781761 0.180972
Si Si7 0.407305 0.551841 0.181451
Si Si8 0.723324 0.636269 0.683471
O O1 0.441371 0.718826 0.500000
O O2 0.390545 0.771332 0.257719
O O3 0.336504 0.681962 0.278853
O O4 0.505992 0.700727 0.226379
O O5 0.106614 0.691406 0.500000
O O6 0.182048 0.638385 0.279428
O O7 0.123626 0.726302 0.223102
O O8 0.007011 0.656067 0.269065
O O9 0.604528 0.173682 0.500000
O O10 0.673166 0.139116 0.249752
O O11 0.197610 0.118138 0.500000
O O12 0.173222 0.088867 0.215908
O O13 0.105495 0.954833 0.500000
O O14 0.169740 0.909612 0.247329
O O15 0.997804 0.932275 0.272191
O O16 0.124564 0.999210 0.235395
O O17 0.176589 0.813711 0.275083
O O18 0.121974 0.790123 0.000000
O O19 0.429282 0.550950 0.000000
O O20 0.722941 0.630276 0.500000
#
# Coordination Sequence:
#
# PCOD8225025 Si02
#       8
#     8   8   8   8   8   8   8   8
#     4   9  17  30  48  69  97 131 163 196 234 281
#     4   9  18  34  53  70  95 131 167 203 240 280
#     4   8  15  30  51  73  95 123 162 202 239 278
#     4  10  19  32  53  76  96 126 168 206 241 286
#     4  10  20  35  55  76  99 127 162 201 240 291
#     4  11  21  30  44  70 104 135 164 199 238 286
#     4  11  22  35  52  74 103 131 155 194 248 300
#     4  10  19  32  52  74  96 126 164 203 243 288
#
# _framework density 18.151492999999999
#
# number of rings (size 3 to 8) (size 9 to 14) (size 15 to 20)
#    0.000    2.250    0.000    5.625    0.000    7.000 
#    0.000    5.000    0.000    0.750    0.000    5.250 
#    0.000    0.000    0.000    0.000    0.000    0.000 
#
# Total GULP energy -793443.425800 kJ/mol
# GULP energy per Si atom -12397.553528 kJ/mol
# Density = 1.811018 g / cm^3
# Si number density = 18.151493 Si / 1000 Ang^3
#
#
#
# Elastic Constant Matrix: (Units=GPa)
#
#
# Indices 1 2 3 4 5 6 
#
# 1 137.4431 69.0888 11.3473 0.0000 0.0000 0.0000
# 2 69.0888 78.0069 15.8151 0.0000 0.0000 0.0000
# 3 11.3473 15.8151 31.2904 0.0000 0.0000 0.0000
# 4 0.0000 0.0000 0.0000 11.8483 0.0000 0.0000
# 5 0.0000 0.0000 0.0000 0.0000 4.0728 0.0000
# 6 0.0000 0.0000 0.0000 0.0000 0.0000 31.6106
#
#
#
# Elastic Compliance Matrix: (Units=1/GPa)
#
#
# Indices 1 2 3 4 5 6 
#
# 1 0.013158 -0.011906 0.001246 0.000000 0.000000 0.000000
# 2 -0.011906 0.025057 -0.008347 0.000000 0.000000 0.000000
# 3 0.001246 -0.008347 0.035725 0.000000 0.000000 0.000000
# 4 0.000000 0.000000 0.000000 0.084400 0.000000 0.000000
# 5 0.000000 0.000000 0.000000 0.000000 0.245533 0.000000
# 6 0.000000 0.000000 0.000000 0.000000 0.000000 0.031635
#
#
# Mechanical properties :
#
#
# Convention : Reuss Voigt Hill
#
# Bulk Modulus (GPa) = 27.83466 48.80476 38.31971
# Shear Modulus (GPa) = 10.29874 19.53895 14.91884
#
# Velocity S-wave (km/s) = 2.38455 3.28447 2.87000
# Velocity P-wave (km/s) = 4.79055 6.42880 5.66917
#
# Compressibility (1/GPa) = 0.03592644
#
# Stress axis : x y z
#
# Youngs Moduli (GPa) = 76.00099 39.90976 27.99125
#
# Poissons Ratio (x) = 0.47517 -0.03488
# Poissons Ratio (y) = 0.90488 0.23363
# Poissons Ratio (z) = -0.09471 0.33311
#
# Static dielectric constant tensor:
#      x y z
#    x 3.741360 0.000000 0.000000 
#    y 0.000000 3.269540 0.000000 
#    z 0.000000 0.000000 3.118890 
# 
# 
# High freq. dielectric constant tensor:
#      x y z
#    x 1.708370 0.000000 0.000000 
#    y 0.000000 1.679890 0.000000 
#    z 0.000000 0.000000 1.684700 
# 
# From -- ./inp_files/6939.got.cif
#   From: 2010.03.12/outbox.cif.g09.slc.cpg/sg55_4_cif.got.tgz:6939.got - 2010.04.16 15:19:21.
