data_PCOD8225841
_publ_section_title
;
Structure prediction by ZEFSAII (Michael W. Deem and Ramdas Pophale) SiO2 
 PCOD8225841
Probable space group: P B A M
;
_chemical_formula_sum "Si O2"
_cell_formula_units_Z 64
_cell_length_a 24.371482
_cell_length_b 9.004506
_cell_length_c 14.509742
_cell_angle_alpha 90.000000
_cell_angle_beta 90.000000
_cell_angle_gamma 90.000000
_cell_volume 3184.208673
_symmetry_space_group_name_H-M "P B A M"
_symmetry_group_IT_number 55
_symmetry_cell_setting 'orthorhombic'
loop_
_space_group_symop_operation_xyz
x,y,z
-x,-y,z
1/2+x,1/2-y,-z
1/2-x,1/2+y,-z
-x,-y,-z
x,y,-z
1/2-x,1/2+y,z
1/2+x,1/2-y,z
loop_
_atom_site_type_symbol
_atom_site_label
_atom_site_fract_x
_atom_site_fract_y
_atom_site_fract_z
Si Si1 0.333330 0.042944 0.602976
Si Si2 0.627888 0.689017 0.896189
Si Si3 0.858149 0.526066 0.897184
Si Si4 0.936472 0.999806 0.745252
Si Si5 0.866325 0.126020 0.397206
Si Si6 0.872592 0.703826 0.721925
Si Si7 0.282058 0.579845 0.297627
Si Si8 0.768708 0.008509 0.099120
O O1 0.318374 0.986231 0.500000
O O2 0.363029 0.198880 0.596883
O O3 0.278345 0.067747 0.662046
O O4 0.377803 0.933742 0.651104
O O5 0.595398 0.574641 0.830873
O O6 0.692861 0.654442 0.895099
O O7 0.624319 0.860455 0.864044
O O8 0.604307 0.671097 0.000000
O O9 0.880922 0.644539 0.825400
O O10 0.793763 0.556687 0.897368
O O11 0.881950 0.555351 0.000000
O O12 0.924152 0.092441 0.652545
O O13 0.917516 0.832949 0.719223
O O14 0.000000 0.000000 0.769465
O O15 0.864849 0.056219 0.500000
O O16 0.817025 0.058633 0.335992
O O17 0.813437 0.765490 0.684502
O O18 0.282235 0.590479 0.186877
O O19 0.780511 0.926623 0.000000
#
# Coordination Sequence:
#
# PCOD8225841 Si02
#       8
#     8   8   8   8   8   8   8   8
#     4  11  23  38  59  87 123 159 191 232 287 355
#     4  10  21  40  61  84 121 164 200 236 282 346
#     4  10  22  35  57  91 129 167 195 229 281 341
#     4  11  25  44  65  86 108 146 198 257 312 352
#     4  10  22  41  62  84 115 154 193 239 292 353
#     4  11  23  36  59  87 121 155 196 248 284 343
#     4  11  21  34  58  90 126 167 196 225 273 342
#     4  10  20  32  55  89 127 163 192 222 270 336
#
# _framework density 20.099184999999999
#
# number of rings (size 3 to 8) (size 9 to 14) (size 15 to 20)
#    0.000    1.500    3.750    1.875    1.750    5.000 
#    0.000    2.500    0.000    3.000    0.000    0.000 
#    0.000    0.000    0.000    0.000    0.000    0.000 
#
# Total GULP energy -792915.904423 kJ/mol
# GULP energy per Si atom -12389.311007 kJ/mol
# Density = 2.005344 g / cm^3
# Si number density = 20.099185 Si / 1000 Ang^3
#
#
#
# Elastic Constant Matrix: (Units=GPa)
#
#
# Indices 1 2 3 4 5 6 
#
# 1 73.1366 27.8030 34.7418 0.0000 0.0000 0.0000
# 2 27.8030 89.1940 47.0377 0.0000 0.0000 0.0000
# 3 34.7418 47.0377 150.6758 0.0000 0.0000 0.0000
# 4 0.0000 0.0000 0.0000 28.9558 0.0000 0.0000
# 5 0.0000 0.0000 0.0000 0.0000 13.3571 0.0000
# 6 0.0000 0.0000 0.0000 0.0000 0.0000 10.4824
#
#
#
# Elastic Compliance Matrix: (Units=1/GPa)
#
#
# Indices 1 2 3 4 5 6 
#
# 1 0.016322 -0.003715 -0.002604 0.000000 0.000000 0.000000
# 2 -0.003715 0.014266 -0.003597 0.000000 0.000000 0.000000
# 3 -0.002604 -0.003597 0.008360 0.000000 0.000000 0.000000
# 4 0.000000 0.000000 0.000000 0.034535 0.000000 0.000000
# 5 0.000000 0.000000 0.000000 0.000000 0.074867 0.000000
# 6 0.000000 0.000000 0.000000 0.000000 0.000000 0.095398
#
#
# Mechanical properties :
#
#
# Convention : Reuss Voigt Hill
#
# Bulk Modulus (GPa) = 52.30853 59.13015 55.71934
# Shear Modulus (GPa) = 18.52181 24.12066 21.32123
#
# Velocity S-wave (km/s) = 3.03895 3.46798 3.26053
# Velocity P-wave (km/s) = 6.19640 6.74677 6.47743
#
# Compressibility (1/GPa) = 0.01911734
#
# Stress axis : x y z
#
# Youngs Moduli (GPa) = 61.26678 70.09457 119.61592
#
# Poissons Ratio (x) = 0.26038 0.31146
# Poissons Ratio (y) = 0.22759 0.43028
# Poissons Ratio (z) = 0.15953 0.25214
#
# Static dielectric constant tensor:
#      x y z
#    x 3.199210 0.000000 0.000000 
#    y 0.000000 3.649630 0.000000 
#    z 0.000000 0.000000 4.194980 
# 
# 
# High freq. dielectric constant tensor:
#      x y z
#    x 1.727840 0.000000 0.000000 
#    y 0.000000 1.790550 0.000000 
#    z 0.000000 0.000000 1.806960 
# 
# From -- ./inp_files/19969.got.cif
#   From: 2010.03.12/outbox.cif.g09.slc.cpg/sg55_10_cif.got.tgz:19969.got - 2010.04.16 15:19:21.
