data_PCOD8225087
_publ_section_title
;
Structure prediction by ZEFSAII (Michael W. Deem and Ramdas Pophale) SiO2 
 PCOD8225087
Probable space group: P B A M
;
_chemical_formula_sum "Si O2"
_cell_formula_units_Z 64
_cell_length_a 16.662629
_cell_length_b 22.184152
_cell_length_c 8.871076
_cell_angle_alpha 90.000000
_cell_angle_beta 90.000000
_cell_angle_gamma 90.000000
_cell_volume 3279.160371
_symmetry_space_group_name_H-M "P B A M"
_symmetry_group_IT_number 55
_symmetry_cell_setting 'orthorhombic'
loop_
_space_group_symop_operation_xyz
x,y,z
-x,-y,z
1/2+x,1/2-y,-z
1/2-x,1/2+y,-z
-x,-y,-z
x,y,-z
1/2-x,1/2+y,z
1/2+x,1/2-y,z
loop_
_atom_site_type_symbol
_atom_site_label
_atom_site_fract_x
_atom_site_fract_y
_atom_site_fract_z
Si Si1 0.454449 0.195245 0.324120
Si Si2 0.917479 0.175604 0.822069
Si Si3 0.797695 0.967007 0.322256
Si Si4 0.782883 0.102576 0.327267
Si Si5 0.825757 0.791207 0.831031
Si Si6 0.937093 0.879868 0.674930
Si Si7 0.636483 0.177446 0.670243
Si Si8 0.319532 0.124375 0.171303
O O1 0.438715 0.204857 0.500000
O O2 0.439594 0.259210 0.244765
O O3 0.543247 0.169836 0.289193
O O4 0.398414 0.141747 0.263569
O O5 0.831305 0.152367 0.767151
O O6 0.981498 0.124441 0.770683
O O7 0.917152 0.182047 0.000000
O O8 0.782643 0.961880 0.500000
O O9 0.884104 0.938151 0.278653
O O10 0.724674 0.933204 0.241340
O O11 0.798753 0.035540 0.264689
O O12 0.811764 0.106866 0.500000
O O13 0.687141 0.115559 0.313479
O O14 0.884612 0.820988 0.709547
O O15 0.820695 0.721785 0.787910
O O16 0.736941 0.817284 0.820317
O O17 0.860529 0.800092 0.000000
O O18 0.960261 0.881099 0.500000
O O19 0.645113 0.202513 0.500000
O O20 0.342928 0.108922 0.000000
#
# Coordination Sequence:
#
# PCOD8225087 Si02
#       8
#     8   8   8   8   8   8   8   8
#     4  11  22  37  58  86 116 149 189 235 285 344
#     4  12  24  37  56  87 122 153 186 232 292 351
#     4   9  20  39  62  84 111 151 201 244 283 335
#     4  10  22  41  61  83 112 152 198 244 287 338
#     4  10  19  32  53  81 112 144 180 226 283 342
#     4  10  19  34  57  84 113 149 188 231 281 337
#     4  10  21  36  57  82 111 147 188 235 289 341
#     4  10  21  36  57  85 115 149 189 235 288 343
#
# _framework density 19.517192000000001
#
# number of rings (size 3 to 8) (size 9 to 14) (size 15 to 20)
#    0.000    1.750    1.250    3.375    0.000    6.000 
#    0.000    3.125    0.000    3.750    0.000    0.000 
#    0.000    0.000    0.000    0.000    0.000    0.000 
#
# Total GULP energy -793612.369940 kJ/mol
# GULP energy per Si atom -12400.193280 kJ/mol
# Density = 1.947277 g / cm^3
# Si number density = 19.517192 Si / 1000 Ang^3
#
#
#
# Elastic Constant Matrix: (Units=GPa)
#
#
# Indices 1 2 3 4 5 6 
#
# 1 119.0933 45.1555 49.0536 0.0000 0.0000 0.0000
# 2 45.1555 66.7180 31.2725 0.0000 0.0000 0.0000
# 3 49.0536 31.2725 94.3160 0.0000 0.0000 0.0000
# 4 0.0000 0.0000 0.0000 16.1000 0.0000 0.0000
# 5 0.0000 0.0000 0.0000 0.0000 20.3936 0.0000
# 6 0.0000 0.0000 0.0000 0.0000 0.0000 21.6492
#
#
#
# Elastic Compliance Matrix: (Units=1/GPa)
#
#
# Indices 1 2 3 4 5 6 
#
# 1 0.012695 -0.006509 -0.004445 0.000000 0.000000 0.000000
# 2 -0.006509 0.021084 -0.003605 0.000000 0.000000 0.000000
# 3 -0.004445 -0.003605 0.014110 0.000000 0.000000 0.000000
# 4 0.000000 0.000000 0.000000 0.062112 0.000000 0.000000
# 5 0.000000 0.000000 0.000000 0.000000 0.049035 0.000000
# 6 0.000000 0.000000 0.000000 0.000000 0.000000 0.046191
#
#
# Mechanical properties :
#
#
# Convention : Reuss Voigt Hill
#
# Bulk Modulus (GPa) = 53.27453 59.01007 56.14230
# Shear Modulus (GPa) = 20.78119 21.93829 21.35974
#
# Velocity S-wave (km/s) = 3.26661 3.35632 3.31177
# Velocity P-wave (km/s) = 6.44850 6.73204 6.59180
#
# Compressibility (1/GPa) = 0.01877070
#
# Stress axis : x y z
#
# Youngs Moduli (GPa) = 78.76808 47.42968 70.87285
#
# Poissons Ratio (x) = 0.30872 0.31501
# Poissons Ratio (y) = 0.51271 0.25553
# Poissons Ratio (z) = 0.35010 0.17100
#
# Static dielectric constant tensor:
#      x y z
#    x 3.636540 0.000000 0.000000 
#    y 0.000000 3.400010 0.000000 
#    z 0.000000 0.000000 3.580060 
# 
# 
# High freq. dielectric constant tensor:
#      x y z
#    x 1.763910 0.000000 0.000000 
#    y 0.000000 1.740280 0.000000 
#    z 0.000000 0.000000 1.763120 
# 
# From -- ./inp_files/8001.got.cif
#   From: 2010.03.12/outbox.cif.g09.slc.cpg/sg55_5_cif.got.tgz:8001.got - 2010.04.16 15:19:21.
