data_PCOD8225680
_publ_section_title
;
Structure prediction by ZEFSAII (Michael W. Deem and Ramdas Pophale) SiO2 
 PCOD8225680
Probable space group: P B A M
;
_chemical_formula_sum "Si O2"
_cell_formula_units_Z 48
_cell_length_a 14.574691
_cell_length_b 19.956847
_cell_length_c 8.955217
_cell_angle_alpha 90.000000
_cell_angle_beta 90.000000
_cell_angle_gamma 90.000000
_cell_volume 2604.758103
_symmetry_space_group_name_H-M "P B A M"
_symmetry_group_IT_number 55
_symmetry_cell_setting 'orthorhombic'
loop_
_space_group_symop_operation_xyz
x,y,z
-x,-y,z
1/2+x,1/2-y,-z
1/2-x,1/2+y,-z
-x,-y,-z
x,y,-z
1/2-x,1/2+y,z
1/2+x,1/2-y,z
loop_
_atom_site_type_symbol
_atom_site_label
_atom_site_fract_x
_atom_site_fract_y
_atom_site_fract_z
Si Si1 0.737471 0.482373 0.330275
Si Si2 0.415802 0.047891 0.826583
Si Si3 0.061093 0.938050 0.672536
Si Si4 0.606034 0.813188 0.324782
Si Si5 0.313611 0.666195 0.670901
Si Si6 0.995081 0.805084 0.175871
O O1 0.774799 0.480333 0.500000
O O2 0.823139 0.491073 0.220028
O O3 0.668112 0.543842 0.305994
O O4 0.683641 0.413308 0.297841
O O5 0.428818 0.115126 0.731981
O O6 0.500000 0.000000 0.789667
O O7 0.410621 0.066686 0.000000
O O8 0.038162 0.921822 0.500000
O O9 0.040231 0.873902 0.770920
O O10 0.000000 0.000000 0.728654
O O11 0.587104 0.808700 0.500000
O O12 0.713899 0.804391 0.288696
O O13 0.551780 0.755811 0.241873
O O14 0.338880 0.681522 0.500000
O O15 0.389402 0.701350 0.773663
O O16 0.999783 0.801119 0.000000
#
# Coordination Sequence:
#
# PCOD8225680 Si02
#       6
#     8   8   8   8   8   8
#     4   9  18  34  59  85 109 147 193 235 274 327
#     4  10  21  38  60  86 118 151 183 232 295 345
#     4  10  19  36  59  83 115 152 192 233 275 332
#     4  10  22  41  63  83 109 151 200 239 276 336
#     4   9  18  37  61  82 106 146 193 232 278 335
#     4  12  24  36  56  87 121 152 184 234 296 347
#
# _framework density 18.427814999999999
#
# number of rings (size 3 to 8) (size 9 to 14) (size 15 to 20)
#    0.000    2.000    1.667    3.500    0.000    5.667 
#    3.000    0.000    0.000    0.000    0.000    0.000 
#    0.000    0.000    0.000    0.000    0.000    0.000 
#
# Total GULP energy -595339.204159 kJ/mol
# GULP energy per Si atom -12402.900087 kJ/mol
# Density = 1.838587 g / cm^3
# Si number density = 18.427815 Si / 1000 Ang^3
#
#
#
# Elastic Constant Matrix: (Units=GPa)
#
#
# Indices 1 2 3 4 5 6 
#
# 1 119.9572 72.7718 72.7956 0.0000 0.0000 0.0000
# 2 72.7718 89.1094 66.6118 0.0000 0.0000 0.0000
# 3 72.7956 66.6118 122.9808 0.0000 0.0000 0.0000
# 4 0.0000 0.0000 0.0000 63.5823 0.0000 0.0000
# 5 0.0000 0.0000 0.0000 0.0000 2.1154 0.0000
# 6 0.0000 0.0000 0.0000 0.0000 0.0000 30.5379
#
#
#
# Elastic Compliance Matrix: (Units=1/GPa)
#
#
# Indices 1 2 3 4 5 6 
#
# 1 0.017888 -0.011247 -0.004496 0.000000 0.000000 0.000000
# 2 -0.011247 0.025929 -0.007387 0.000000 0.000000 0.000000
# 3 -0.004496 -0.007387 0.014794 0.000000 0.000000 0.000000
# 4 0.000000 0.000000 0.000000 0.015728 0.000000 0.000000
# 5 0.000000 0.000000 0.000000 0.000000 0.472730 0.000000
# 6 0.000000 0.000000 0.000000 0.000000 0.000000 0.032746
#
#
# Mechanical properties :
#
#
# Convention : Reuss Voigt Hill
#
# Bulk Modulus (GPa) = 80.97040 84.04506 82.50773
# Shear Modulus (GPa) = 7.93408 27.23834 17.58621
#
# Velocity S-wave (km/s) = 2.07722 3.84879 3.09257
# Velocity P-wave (km/s) = 7.05604 8.09059 7.59096
#
# Compressibility (1/GPa) = 0.01235019
#
# Stress axis : x y z
#
# Youngs Moduli (GPa) = 55.90338 38.56669 67.59520
#
# Poissons Ratio (x) = 0.43377 0.30394
# Poissons Ratio (y) = 0.62875 0.49932
# Poissons Ratio (z) = 0.25137 0.28489
#
# Static dielectric constant tensor:
#      x y z
#    x 3.501630 0.000000 0.000000 
#    y 0.000000 3.292890 0.000000 
#    z 0.000000 0.000000 3.373770 
# 
# 
# High freq. dielectric constant tensor:
#      x y z
#    x 1.723850 0.000000 0.000000 
#    y 0.000000 1.700770 0.000000 
#    z 0.000000 0.000000 1.714480 
# 
# From -- ./inp_files/5681.got.cif
#   From: 2010.03.12/outbox.cif.g09.slc.cpg/sg55_3_cif.got.tgz:5681.got - 2010.04.16 15:19:21.
