data_PCOD8225762
_publ_section_title
;
Structure prediction by ZEFSAII (Michael W. Deem and Ramdas Pophale) SiO2 
 PCOD8225762
Probable space group: P B A M
;
_chemical_formula_sum "Si O2"
_cell_formula_units_Z 64
_cell_length_a 30.926145
_cell_length_b 12.036082
_cell_length_c 8.923196
_cell_angle_alpha 90.000000
_cell_angle_beta 90.000000
_cell_angle_gamma 90.000000
_cell_volume 3321.477831
_symmetry_space_group_name_H-M "P B A M"
_symmetry_group_IT_number 55
_symmetry_cell_setting 'orthorhombic'
loop_
_space_group_symop_operation_xyz
x,y,z
-x,-y,z
1/2+x,1/2-y,-z
1/2-x,1/2+y,-z
-x,-y,-z
x,y,-z
1/2-x,1/2+y,z
1/2+x,1/2-y,z
loop_
_atom_site_type_symbol
_atom_site_label
_atom_site_fract_x
_atom_site_fract_y
_atom_site_fract_z
Si Si1 0.952527 0.526879 0.678704
Si Si2 0.623532 0.634792 0.178909
Si Si3 0.323730 0.733363 0.332514
Si Si4 0.049986 0.007488 0.677097
Si Si5 0.210075 0.477635 0.332309
Si Si6 0.702287 0.480520 0.175266
Si Si7 0.627472 0.876382 0.321915
Si Si8 0.080497 0.243337 0.677701
O O1 0.951633 0.527047 0.500000
O O2 0.915949 0.439962 0.733967
O O3 0.944085 0.650006 0.743654
O O4 0.000000 0.500000 0.741568
O O5 0.578344 0.586127 0.240628
O O6 0.663459 0.558353 0.238909
O O7 0.630462 0.758359 0.240948
O O8 0.621711 0.638715 0.000000
O O9 0.326130 0.682674 0.500000
O O10 0.299462 0.848367 0.333844
O O11 0.300627 0.646113 0.226574
O O12 0.370856 0.755425 0.267105
O O13 0.057890 0.994180 0.500000
O O14 0.062631 0.128025 0.740951
O O15 0.000000 0.000000 0.719265
O O16 0.222473 0.517762 0.500000
O O17 0.250537 0.482105 0.223726
O O18 0.169317 0.550300 0.275171
O O19 0.699394 0.486576 0.000000
O O20 0.626164 0.858708 0.500000
O O21 0.076284 0.244569 0.500000
#
# Coordination Sequence:
#
# PCOD8225762 Si02
#       8
#     8   8   8   8   8   8   8   8
#     4   9  17  30  55  90 121 146 178 230 289 338
#     4  11  25  42  57  80 120 163 196 235 291 348
#     4  10  19  37  63  87 114 147 191 245 295 345
#     4  10  21  36  61  93 118 148 196 245 288 341
#     4  10  22  39  61  89 116 148 192 243 299 349
#     4  11  25  41  58  83 116 154 198 240 288 350
#     4  10  21  38  60  87 117 150 193 240 288 346
#     4   9  16  31  55  85 118 145 180 235 289 334
#
# _framework density 19.268530999999999
#
# number of rings (size 3 to 8) (size 9 to 14) (size 15 to 20)
#    0.000    2.000    2.500    0.750    3.500    2.750 
#    0.000    0.000    0.000    1.125    0.000    0.000 
#    0.000    0.000    0.000    0.000    0.000    0.000 
#
# Total GULP energy -793387.892997 kJ/mol
# GULP energy per Si atom -12396.685828 kJ/mol
# Density = 1.922468 g / cm^3
# Si number density = 19.268531 Si / 1000 Ang^3
#
#
#
# Elastic Constant Matrix: (Units=GPa)
#
#
# Indices 1 2 3 4 5 6 
#
# 1 141.2068 53.3558 36.4939 0.0000 0.0000 0.0000
# 2 53.3558 127.5515 32.7158 0.0000 0.0000 0.0000
# 3 36.4939 32.7158 42.9626 0.0000 0.0000 0.0000
# 4 0.0000 0.0000 0.0000 16.3734 0.0000 0.0000
# 5 0.0000 0.0000 0.0000 0.0000 26.0123 0.0000
# 6 0.0000 0.0000 0.0000 0.0000 0.0000 33.5017
#
#
#
# Elastic Compliance Matrix: (Units=1/GPa)
#
#
# Indices 1 2 3 4 5 6 
#
# 1 0.009630 -0.002399 -0.006354 0.000000 0.000000 0.000000
# 2 -0.002399 0.010340 -0.005837 0.000000 0.000000 0.000000
# 3 -0.006354 -0.005837 0.033118 0.000000 0.000000 0.000000
# 4 0.000000 0.000000 0.000000 0.061075 0.000000 0.000000
# 5 0.000000 0.000000 0.000000 0.000000 0.038443 0.000000
# 6 0.000000 0.000000 0.000000 0.000000 0.000000 0.029849
#
#
# Mechanical properties :
#
#
# Convention : Reuss Voigt Hill
#
# Bulk Modulus (GPa) = 41.82298 61.87244 51.84771
# Shear Modulus (GPa) = 22.76830 27.78784 25.27807
#
# Velocity S-wave (km/s) = 3.44122 3.80167 3.62592
# Velocity P-wave (km/s) = 6.12713 7.17290 6.67054
#
# Compressibility (1/GPa) = 0.02391030
#
# Stress axis : x y z
#
# Youngs Moduli (GPa) = 103.83962 96.70783 30.19548
#
# Poissons Ratio (x) = 0.23198 0.19185
# Poissons Ratio (y) = 0.24909 0.17624
# Poissons Ratio (z) = 0.65975 0.56444
#
# Static dielectric constant tensor:
#      x y z
#    x 3.757520 0.000000 0.000000 
#    y 0.000000 3.673600 0.000000 
#    z 0.000000 0.000000 3.236650 
# 
# 
# High freq. dielectric constant tensor:
#      x y z
#    x 1.763490 0.000000 0.000000 
#    y 0.000000 1.765090 0.000000 
#    z 0.000000 0.000000 1.709550 
# 
# From -- ./inp_files/10816.got.cif
#   From: 2010.03.12/outbox.cif.g09.slc.cpg/sg55_6_cif.got.tgz:10816.got - 2010.04.16 15:19:21.
