data_PCOD8225029
_publ_section_title
;
Structure prediction by ZEFSAII (Michael W. Deem and Ramdas Pophale) SiO2 
 PCOD8225029
Probable space group: P B A M
;
_chemical_formula_sum "Si O2"
_cell_formula_units_Z 52
_cell_length_a 5.045965
_cell_length_b 17.542763
_cell_length_c 30.943341
_cell_angle_alpha 90.000000
_cell_angle_beta 90.000000
_cell_angle_gamma 90.000000
_cell_volume 2739.109747
_symmetry_space_group_name_H-M "P B A M"
_symmetry_group_IT_number 55
_symmetry_cell_setting 'orthorhombic'
loop_
_space_group_symop_operation_xyz
x,y,z
-x,-y,z
1/2+x,1/2-y,-z
1/2-x,1/2+y,-z
-x,-y,-z
x,y,-z
1/2-x,1/2+y,z
1/2+x,1/2-y,z
loop_
_atom_site_type_symbol
_atom_site_label
_atom_site_fract_x
_atom_site_fract_y
_atom_site_fract_z
Si Si1 0.649819 0.202269 0.202502
Si Si2 0.741961 0.550263 0.950586
Si Si3 0.996169 0.411149 0.725534
Si Si4 0.516321 0.702102 0.500000
Si Si5 0.586133 0.301821 0.407376
Si Si6 0.354357 0.798842 0.897581
Si Si7 0.505503 0.589161 0.671147
O O1 0.445427 0.270266 0.213729
O O2 0.566086 0.129036 0.229703
O O3 0.643941 0.178299 0.152599
O O4 0.500000 0.500000 0.931814
O O5 0.780200 0.626770 0.923991
O O6 0.000000 0.500000 0.946322
O O7 0.682996 0.573546 0.000000
O O8 0.710689 0.387092 0.707139
O O9 0.000000 0.500000 0.736051
O O10 0.209161 0.387247 0.689355
O O11 0.827570 0.722515 0.500000
O O12 0.447150 0.658813 0.455077
O O13 0.876864 0.266573 0.401538
O O14 0.546327 0.368004 0.373154
O O15 0.643887 0.767177 0.909442
O O16 0.500000 0.500000 0.660697
#
# Coordination Sequence:
#
# PCOD8225029 Si02
#       7
#     8   8   8   4   8   8   8
#     4  10  21  36  54  77 105 134 171 218 257 299
#     4  10  21  37  57  83 113 144 182 226 267 314
#     4  10  21  36  52  72 101 136 169 206 255 306
#     4   8  16  30  47  70  99 124 156 204 246 288
#     4  10  19  32  52  75  97 128 167 203 245 299
#     4  10  21  37  56  81 111 143 179 221 272 322
#     4  10  21  35  50  73 104 131 163 209 254 298
#
# _framework density 18.984269000000001
#
# number of rings (size 3 to 8) (size 9 to 14) (size 15 to 20)
#    0.000    2.154    0.000    2.769    0.000    4.923 
#    0.000    2.692    0.000    0.000    0.000    9.692 
#    0.000    0.000    0.000    0.000    0.000    0.000 
#
# Total GULP energy -644761.128875 kJ/mol
# GULP energy per Si atom -12399.252478 kJ/mol
# Density = 1.894106 g / cm^3
# Si number density = 18.984269 Si / 1000 Ang^3
#
#
#
# Elastic Constant Matrix: (Units=GPa)
#
#
# Indices 1 2 3 4 5 6 
#
# 1 92.5465 23.6139 28.4429 0.0000 0.0000 0.0000
# 2 23.6139 75.0175 70.2911 0.0000 0.0000 0.0000
# 3 28.4429 70.2911 109.1318 0.0000 0.0000 0.0000
# 4 0.0000 0.0000 0.0000 1.2754 0.0000 0.0000
# 5 0.0000 0.0000 0.0000 0.0000 26.7020 0.0000
# 6 0.0000 0.0000 0.0000 0.0000 0.0000 24.1704
#
#
#
# Elastic Compliance Matrix: (Units=1/GPa)
#
#
# Indices 1 2 3 4 5 6 
#
# 1 0.011878 -0.002114 -0.001734 0.000000 0.000000 0.000000
# 2 -0.002114 0.033997 -0.021346 0.000000 0.000000 0.000000
# 3 -0.001734 -0.021346 0.023364 0.000000 0.000000 0.000000
# 4 0.000000 0.000000 0.000000 0.784068 0.000000 0.000000
# 5 0.000000 0.000000 0.000000 0.000000 0.037450 0.000000
# 6 0.000000 0.000000 0.000000 0.000000 0.000000 0.041373
#
#
# Mechanical properties :
#
#
# Convention : Reuss Voigt Hill
#
# Bulk Modulus (GPa) = 53.04992 57.93240 55.49116
# Shear Modulus (GPa) = 5.05662 20.71944 12.88803
#
# Velocity S-wave (km/s) = 1.63382 3.30722 2.60836
# Velocity P-wave (km/s) = 5.61818 6.72055 6.19394
#
# Compressibility (1/GPa) = 0.01885017
#
# Stress axis : x y z
#
# Youngs Moduli (GPa) = 84.19123 29.41429 42.80057
#
# Poissons Ratio (x) = 0.06219 0.07422
# Poissons Ratio (y) = 0.17799 0.91363
# Poissons Ratio (z) = 0.14599 0.62789
#
# Static dielectric constant tensor:
#      x y z
#    x 3.855870 0.000000 0.000000 
#    y 0.000000 3.124030 0.000000 
#    z 0.000000 0.000000 3.566860 
# 
# 
# High freq. dielectric constant tensor:
#      x y z
#    x 1.763980 0.000000 0.000000 
#    y 0.000000 1.710040 0.000000 
#    z 0.000000 0.000000 1.742800 
# 
# From -- ./inp_files/24076.got.cif
#   From: 2010.03.12/outbox.cif.g09.slc.cpg/sg55_13_cif.got.tgz:24076.got - 2010.04.16 15:19:21.
