data_PCOD8225038
_publ_section_title
;
Structure prediction by ZEFSAII (Michael W. Deem and Ramdas Pophale) SiO2 
 PCOD8225038
Probable space group: P B A M
;
_chemical_formula_sum "Si O2"
_cell_formula_units_Z 64
_cell_length_a 22.756472
_cell_length_b 11.703142
_cell_length_c 13.343653
_cell_angle_alpha 90.000000
_cell_angle_beta 90.000000
_cell_angle_gamma 90.000000
_cell_volume 3553.711333
_symmetry_space_group_name_H-M "P B A M"
_symmetry_group_IT_number 55
_symmetry_cell_setting 'orthorhombic'
loop_
_space_group_symop_operation_xyz
x,y,z
-x,-y,z
1/2+x,1/2-y,-z
1/2-x,1/2+y,-z
-x,-y,-z
x,y,-z
1/2-x,1/2+y,z
1/2+x,1/2-y,z
loop_
_atom_site_type_symbol
_atom_site_label
_atom_site_fract_x
_atom_site_fract_y
_atom_site_fract_z
Si Si1 0.674300 0.130988 0.777098
Si Si2 0.348263 0.406460 0.387506
Si Si3 0.912259 0.793051 0.117560
Si Si4 0.066350 0.979435 0.772366
Si Si5 0.544332 0.747290 0.114850
Si Si6 0.778947 0.485183 0.611049
Si Si7 0.712061 0.768324 0.265211
Si Si8 0.644013 0.909787 0.886039
O O1 0.630544 0.235758 0.799422
O O2 0.671557 0.059481 0.671951
O O3 0.740334 0.178898 0.777247
O O4 0.656632 0.041728 0.863124
O O5 0.373385 0.387080 0.500000
O O6 0.392369 0.488488 0.325974
O O7 0.282783 0.452717 0.394951
O O8 0.341932 0.289300 0.325247
O O9 0.975416 0.734467 0.135833
O O10 0.914864 0.927050 0.144771
O O11 0.892638 0.780388 0.000000
O O12 0.072435 0.854766 0.820990
O O13 0.000000 0.000000 0.735888
O O14 0.577554 0.866976 0.139973
O O15 0.553522 0.711505 0.000000
O O16 0.805240 0.467904 0.500000
O O17 0.762595 0.363896 0.660112
O O18 0.690106 0.828819 0.166610
O O19 0.657870 0.890594 0.000000
#
# Coordination Sequence:
#
# PCOD8225038 Si02
#       8
#     8   8   8   8   8   8   8   8
#     4  10  21  34  51  81 112 135 171 220 272 321
#     4  10  19  32  52  76 101 132 173 221 273 322
#     4  10  20  34  54  78 108 146 182 221 268 323
#     4  10  19  33  53  78 108 138 182 230 274 316
#     4   9  18  34  55  77 102 142 191 226 261 313
#     4   9  19  35  56  78 101 136 179 220 263 317
#     4  10  19  35  53  74 105 140 175 213 263 324
#     4  10  20  34  53  76 106 142 178 219 262 319
#
# _framework density 18.009340999999999
#
# number of rings (size 3 to 8) (size 9 to 14) (size 15 to 20)
#    0.000    2.250    1.250    1.875    0.000    3.750 
#    0.000    2.500    0.000    0.750    0.000    1.750 
#    0.000    0.000    0.000    0.000    0.000    0.000 
#
# Total GULP energy -792947.306225 kJ/mol
# GULP energy per Si atom -12389.801660 kJ/mol
# Density = 1.796835 g / cm^3
# Si number density = 18.009341 Si / 1000 Ang^3
#
#
#
# Elastic Constant Matrix: (Units=GPa)
#
#
# Indices 1 2 3 4 5 6 
#
# 1 61.2807 26.4651 44.4691 0.0000 0.0000 0.0000
# 2 26.4651 68.0049 30.3219 0.0000 0.0000 0.0000
# 3 44.4691 30.3219 91.9835 0.0000 0.0000 0.0000
# 4 0.0000 0.0000 0.0000 18.0195 0.0000 0.0000
# 5 0.0000 0.0000 0.0000 0.0000 24.7463 0.0000
# 6 0.0000 0.0000 0.0000 0.0000 0.0000 28.8083
#
#
#
# Elastic Compliance Matrix: (Units=1/GPa)
#
#
# Indices 1 2 3 4 5 6 
#
# 1 0.026753 -0.005445 -0.011139 0.000000 0.000000 0.000000
# 2 -0.005445 0.018347 -0.003416 0.000000 0.000000 0.000000
# 3 -0.011139 -0.003416 0.017382 0.000000 0.000000 0.000000
# 4 0.000000 0.000000 0.000000 0.055495 0.000000 0.000000
# 5 0.000000 0.000000 0.000000 0.000000 0.040410 0.000000
# 6 0.000000 0.000000 0.000000 0.000000 0.000000 0.034712
#
#
# Mechanical properties :
#
#
# Convention : Reuss Voigt Hill
#
# Bulk Modulus (GPa) = 44.47669 47.08683 45.78176
# Shear Modulus (GPa) = 20.78207 22.31569 21.54888
#
# Velocity S-wave (km/s) = 3.40068 3.52393 3.46286
# Velocity P-wave (km/s) = 6.33795 6.53911 6.43932
#
# Compressibility (1/GPa) = 0.02248369
#
# Stress axis : x y z
#
# Youngs Moduli (GPa) = 37.37947 54.50573 57.52932
#
# Poissons Ratio (x) = 0.29677 0.64080
# Poissons Ratio (y) = 0.20352 0.19650
# Poissons Ratio (z) = 0.41636 0.18617
#
# Static dielectric constant tensor:
#      x y z
#    x 3.234670 0.000000 0.000000 
#    y 0.000000 3.469940 0.000000 
#    z 0.000000 0.000000 3.501090 
# 
# 
# High freq. dielectric constant tensor:
#      x y z
#    x 1.680330 0.000000 0.000000 
#    y 0.000000 1.702830 0.000000 
#    z 0.000000 0.000000 1.696910 
# 
# From -- ./inp_files/13563.got.cif
#   From: 2010.03.12/outbox.cif.g09.slc.cpg/sg55_7_cif.got.tgz:13563.got - 2010.04.16 15:19:21.
