data_PCOD8225245
_publ_section_title
;
Structure prediction by ZEFSAII (Michael W. Deem and Ramdas Pophale) SiO2 
 PCOD8225245
Probable space group: P B A M
;
_chemical_formula_sum "Si O2"
_cell_formula_units_Z 64
_cell_length_a 12.685029
_cell_length_b 28.080247
_cell_length_c 9.514432
_cell_angle_alpha 90.000000
_cell_angle_beta 90.000000
_cell_angle_gamma 90.000000
_cell_volume 3389.028762
_symmetry_space_group_name_H-M "P B A M"
_symmetry_group_IT_number 55
_symmetry_cell_setting 'orthorhombic'
loop_
_space_group_symop_operation_xyz
x,y,z
-x,-y,z
1/2+x,1/2-y,-z
1/2-x,1/2+y,-z
-x,-y,-z
x,y,-z
1/2-x,1/2+y,z
1/2+x,1/2-y,z
loop_
_atom_site_type_symbol
_atom_site_label
_atom_site_fract_x
_atom_site_fract_y
_atom_site_fract_z
Si Si1 0.465766 0.053527 0.845273
Si Si2 0.753526 0.906424 0.163581
Si Si3 0.672746 0.610975 0.162560
Si Si4 0.529884 0.447502 0.166307
Si Si5 0.856915 0.590580 0.346841
Si Si6 0.749824 0.715733 0.161218
Si Si7 0.862758 0.312928 0.163903
Si Si8 0.432035 0.807228 0.654828
O O1 0.343742 0.058445 0.799595
O O2 0.534731 0.077275 0.726632
O O3 0.500000 0.000000 0.857418
O O4 0.480843 0.077984 0.000000
O O5 0.860170 0.927767 0.234107
O O6 0.724100 0.852387 0.211488
O O7 0.776996 0.905218 0.000000
O O8 0.557755 0.592040 0.206284
O O9 0.756361 0.579142 0.249733
O O10 0.684580 0.667341 0.195054
O O11 0.695866 0.600164 0.000000
O O12 0.500000 0.500000 0.227717
O O13 0.540789 0.452446 0.000000
O O14 0.846551 0.565237 0.500000
O O15 0.861456 0.646574 0.369862
O O16 0.674323 0.759667 0.193842
O O17 0.854801 0.725834 0.252864
O O18 0.787198 0.715362 0.000000
O O19 0.964424 0.320841 0.259139
O O20 0.891738 0.320325 0.000000
O O21 0.458682 0.785065 0.500000
#
# Coordination Sequence:
#
# PCOD8225245 Si02
#       8
#     8   8   8   8   8   8   8   8
#     4  10  20  32  53  82 109 136 174 222 273 329
#     4   9  18  32  50  79 112 139 171 220 274 321
#     4   9  18  33  54  78 105 136 179 228 268 318
#     4   9  18  31  51  78 107 138 176 223 271 318
#     4  10  20  34  53  76 106 141 176 218 271 323
#     4   9  19  33  52  79 105 139 181 223 274 326
#     4  10  19  33  55  79 108 141 175 221 275 329
#     4  10  20  34  52  75 106 141 177 220 271 327
#
# _framework density 18.884467000000001
#
# number of rings (size 3 to 8) (size 9 to 14) (size 15 to 20)
#    0.000    2.500    1.250    0.750    1.750    2.750 
#    0.000    3.750    0.000    1.875    0.000    0.000 
#    0.000    0.000    0.000    0.000    0.000    0.000 
#
# Total GULP energy -793023.615840 kJ/mol
# GULP energy per Si atom -12390.993998 kJ/mol
# Density = 1.884148 g / cm^3
# Si number density = 18.884467 Si / 1000 Ang^3
#
#
#
# Elastic Constant Matrix: (Units=GPa)
#
#
# Indices 1 2 3 4 5 6 
#
# 1 155.4248 56.8617 57.1865 0.0000 0.0000 0.0000
# 2 56.8617 91.7025 26.6820 0.0000 0.0000 0.0000
# 3 57.1865 26.6820 78.7585 0.0000 0.0000 0.0000
# 4 0.0000 0.0000 0.0000 10.2571 0.0000 0.0000
# 5 0.0000 0.0000 0.0000 0.0000 26.0567 0.0000
# 6 0.0000 0.0000 0.0000 0.0000 0.0000 25.2577
#
#
#
# Elastic Compliance Matrix: (Units=1/GPa)
#
#
# Indices 1 2 3 4 5 6 
#
# 1 0.010320 -0.004680 -0.005908 0.000000 0.000000 0.000000
# 2 -0.004680 0.014220 -0.001419 0.000000 0.000000 0.000000
# 3 -0.005908 -0.001419 0.017467 0.000000 0.000000 0.000000
# 4 0.000000 0.000000 0.000000 0.097493 0.000000 0.000000
# 5 0.000000 0.000000 0.000000 0.000000 0.038378 0.000000
# 6 0.000000 0.000000 0.000000 0.000000 0.000000 0.039592
#
#
# Mechanical properties :
#
#
# Convention : Reuss Voigt Hill
#
# Bulk Modulus (GPa) = 55.57706 67.48290 61.52998
# Shear Modulus (GPa) = 20.20353 24.65801 22.43077
#
# Velocity S-wave (km/s) = 3.27440 3.61741 3.45017
# Velocity P-wave (km/s) = 6.61737 7.29793 6.96596
#
# Compressibility (1/GPa) = 0.01799303
#
# Stress axis : x y z
#
# Youngs Moduli (GPa) = 96.90093 70.32489 57.24951
#
# Poissons Ratio (x) = 0.32912 0.33821
# Poissons Ratio (y) = 0.45350 0.08125
# Poissons Ratio (z) = 0.57246 0.09981
#
# Static dielectric constant tensor:
#      x y z
#    x 3.524130 0.000000 0.000000 
#    y 0.000000 8.853810 0.000000 
#    z 0.000000 0.000000 3.526230 
# 
# 
# High freq. dielectric constant tensor:
#      x y z
#    x 1.734620 0.000000 0.000000 
#    y 0.000000 1.724390 0.000000 
#    z 0.000000 0.000000 1.703580 
# 
# From -- ./inp_files/4625.got.cif
#   From: 2010.03.12/outbox.cif.g09.slc.cpg/sg55_3_cif.got.tgz:4625.got - 2010.04.16 15:19:21.
