data_PCOD8225636
_publ_section_title
;
Structure prediction by ZEFSAII (Michael W. Deem and Ramdas Pophale) SiO2 
 PCOD8225636
Probable space group: P B A M
;
_chemical_formula_sum "Si O2"
_cell_formula_units_Z 64
_cell_length_a 28.813355
_cell_length_b 12.630705
_cell_length_c 8.694228
_cell_angle_alpha 90.000000
_cell_angle_beta 90.000000
_cell_angle_gamma 90.000000
_cell_volume 3164.116366
_symmetry_space_group_name_H-M "P B A M"
_symmetry_group_IT_number 55
_symmetry_cell_setting 'orthorhombic'
loop_
_space_group_symop_operation_xyz
x,y,z
-x,-y,z
1/2+x,1/2-y,-z
1/2-x,1/2+y,-z
-x,-y,-z
x,y,-z
1/2-x,1/2+y,z
1/2+x,1/2-y,z
loop_
_atom_site_type_symbol
_atom_site_label
_atom_site_fract_x
_atom_site_fract_y
_atom_site_fract_z
Si Si1 0.061934 0.831589 0.180855
Si Si2 0.391500 0.531426 0.679421
Si Si3 0.082875 0.388960 0.822132
Si Si4 0.300550 0.617851 0.823309
Si Si5 0.175571 0.322748 0.328133
Si Si6 0.207141 0.555346 0.326664
Si Si7 0.033818 0.208508 0.679839
Si Si8 0.111904 0.617798 0.178358
O O1 0.095156 0.928187 0.223939
O O2 0.085162 0.721622 0.235762
O O3 0.013610 0.847191 0.268940
O O4 0.052570 0.830460 0.000000
O O5 0.396213 0.505121 0.500000
O O6 0.338470 0.558763 0.718929
O O7 0.424259 0.629900 0.725834
O O8 0.122784 0.342582 0.715573
O O9 0.037915 0.321497 0.769867
O O10 0.078615 0.515292 0.792708
O O11 0.093921 0.367172 0.000000
O O12 0.301442 0.742851 0.791429
O O13 0.248854 0.582188 0.785626
O O14 0.311690 0.594037 0.000000
O O15 0.175928 0.273984 0.500000
O O16 0.204543 0.429417 0.321355
O O17 0.216994 0.595363 0.500000
O O18 0.159621 0.608823 0.271220
O O19 0.032727 0.231382 0.500000
O O20 0.125245 0.626527 0.000000
#
# Coordination Sequence:
#
# PCOD8225636 Si02
#       8
#     8   8   8   8   8   8   8   8
#     4  11  24  41  62  88 124 164 205 251 305 368
#     4  11  24  42  62  86 122 159 202 256 307 360
#     4  10  19  35  62  89 117 154 200 247 297 354
#     4  12  24  38  62  91 119 156 202 248 299 360
#     4  10  20  37  59  85 117 152 192 243 300 353
#     4  10  22  39  62  89 119 157 199 246 302 362
#     4  11  23  39  61  89 122 160 203 255 309 361
#     4   9  21  41  61  87 123 161 199 251 308 360
#
# _framework density 20.226817
#
# number of rings (size 3 to 8) (size 9 to 14) (size 15 to 20)
#    0.000    1.500    1.250    3.750    0.000    7.500 
#    0.000    2.500    0.000    0.000    0.000    0.000 
#    0.000    0.000    0.000    0.000    0.000    0.000 
#
# Total GULP energy -793818.613463 kJ/mol
# GULP energy per Si atom -12403.415835 kJ/mol
# Density = 2.018078 g / cm^3
# Si number density = 20.226817 Si / 1000 Ang^3
#
#
#
# Elastic Constant Matrix: (Units=GPa)
#
#
# Indices 1 2 3 4 5 6 
#
# 1 58.2635 26.2014 23.4454 0.0000 0.0000 0.0000
# 2 26.2014 105.3332 39.6345 0.0000 0.0000 0.0000
# 3 23.4454 39.6345 74.4986 0.0000 0.0000 0.0000
# 4 0.0000 0.0000 0.0000 32.1566 0.0000 0.0000
# 5 0.0000 0.0000 0.0000 0.0000 32.3126 0.0000
# 6 0.0000 0.0000 0.0000 0.0000 0.0000 22.1329
#
#
#
# Elastic Compliance Matrix: (Units=1/GPa)
#
#
# Indices 1 2 3 4 5 6 
#
# 1 0.020556 -0.003350 -0.004687 0.000000 0.000000 0.000000
# 2 -0.003350 0.012416 -0.005551 0.000000 0.000000 0.000000
# 3 -0.004687 -0.005551 0.017851 0.000000 0.000000 0.000000
# 4 0.000000 0.000000 0.000000 0.031098 0.000000 0.000000
# 5 0.000000 0.000000 0.000000 0.000000 0.030948 0.000000
# 6 0.000000 0.000000 0.000000 0.000000 0.000000 0.045182
#
#
# Mechanical properties :
#
#
# Convention : Reuss Voigt Hill
#
# Bulk Modulus (GPa) = 42.28824 46.29534 44.29179
# Shear Modulus (GPa) = 25.89222 27.24136 26.56679
#
# Velocity S-wave (km/s) = 3.58172 3.67385 3.62808
# Velocity P-wave (km/s) = 6.16907 6.39797 6.28456
#
# Compressibility (1/GPa) = 0.02364724
#
# Stress axis : x y z
#
# Youngs Moduli (GPa) = 48.64804 80.54341 56.01779
#
# Poissons Ratio (x) = 0.26979 0.26256
# Poissons Ratio (y) = 0.16295 0.31097
# Poissons Ratio (z) = 0.22802 0.44711
#
# Static dielectric constant tensor:
#      x y z
#    x 3.489610 0.000000 0.000000 
#    y 0.000000 3.960800 0.000000 
#    z 0.000000 0.000000 3.727110 
# 
# 
# High freq. dielectric constant tensor:
#      x y z
#    x 1.782470 0.000000 0.000000 
#    y 0.000000 1.796260 0.000000 
#    z 0.000000 0.000000 1.799690 
# 
# From -- ./inp_files/10850.got.cif
#   From: 2010.03.12/outbox.cif.g09.slc.cpg/sg55_6_cif.got.tgz:10850.got - 2010.04.16 15:19:21.
