data_PCOD8225848
_publ_section_title
;
Structure prediction by ZEFSAII (Michael W. Deem and Ramdas Pophale) SiO2 
 PCOD8225848
Probable space group: P B A M
;
_chemical_formula_sum "Si O2"
_cell_formula_units_Z 40
_cell_length_a 9.616234
_cell_length_b 28.889120
_cell_length_c 7.901825
_cell_angle_alpha 90.000000
_cell_angle_beta 90.000000
_cell_angle_gamma 90.000000
_cell_volume 2195.162843
_symmetry_space_group_name_H-M "P B A M"
_symmetry_group_IT_number 55
_symmetry_cell_setting 'orthorhombic'
loop_
_space_group_symop_operation_xyz
x,y,z
-x,-y,z
1/2+x,1/2-y,-z
1/2-x,1/2+y,-z
-x,-y,-z
x,y,-z
1/2-x,1/2+y,z
1/2+x,1/2-y,z
loop_
_atom_site_type_symbol
_atom_site_label
_atom_site_fract_x
_atom_site_fract_y
_atom_site_fract_z
Si Si1 0.179567 0.547459 0.000000
Si Si2 0.694602 0.894067 0.686023
Si Si3 0.651477 0.056989 0.000000
Si Si4 0.605007 0.220596 0.307288
Si Si5 0.804227 0.295677 0.808784
Si Si6 0.865984 0.616048 0.688418
O O1 0.245981 0.570660 0.168353
O O2 0.220215 0.493581 0.000000
O O3 0.014482 0.554018 0.000000
O O4 0.747938 0.910383 0.500000
O O5 0.751135 0.842353 0.719727
O O6 0.529175 0.892763 0.686237
O O7 0.704235 0.083651 0.168909
O O8 0.639974 0.232653 0.500000
O O9 0.439998 0.224669 0.282088
O O10 0.683034 0.257645 0.191233
O O11 0.660436 0.169371 0.261560
O O12 0.844618 0.308556 0.000000
O O13 0.805416 0.605005 0.500000
#
# Coordination Sequence:
#
# PCOD8225848 Si02
#       6
#     4   8   4   8   8   8
#     4   9  16  26  37  62  81 117 153 191 230 283
#     4   9  16  28  42  59  88 121 152 189 234 281
#     4   9  16  24  41  56  87 113 151 193 234 273
#     4  10  20  33  48  69  98 132 164 196 239 286
#     4  11  20  31  49  72  97 129 166 199 237 284
#     4   8  16  27  41  60  85 119 153 186 231 282
#
# _framework density 18.221882999999998
#
# number of rings (size 3 to 8) (size 9 to 14) (size 15 to 20)
#    0.000    2.600    1.000    3.600    5.600    0.800 
#    0.000    4.000    0.000    0.000    0.000    0.000 
#    0.000    3.200    0.000    8.400    0.000    7.000 
#
# Total GULP energy -495864.738584 kJ/mol
# GULP energy per Si atom -12396.618465 kJ/mol
# Density = 1.818041 g / cm^3
# Si number density = 18.221883 Si / 1000 Ang^3
#
#
#
# Elastic Constant Matrix: (Units=GPa)
#
#
# Indices 1 2 3 4 5 6 
#
# 1 10.5138 -3.6548 -6.1210 0.0000 0.0000 0.0000
# 2 -3.6548 33.9175 29.9421 0.0000 0.0000 0.0000
# 3 -6.1210 29.9421 128.4887 0.0000 0.0000 0.0000
# 4 0.0000 0.0000 0.0000 28.6896 0.0000 0.0000
# 5 0.0000 0.0000 0.0000 0.0000 12.1604 0.0000
# 6 0.0000 0.0000 0.0000 0.0000 0.0000 16.1888
#
#
#
# Elastic Compliance Matrix: (Units=1/GPa)
#
#
# Indices 1 2 3 4 5 6 
#
# 1 0.099623 0.008240 0.002826 0.000000 0.000000 0.000000
# 2 0.008240 0.037801 -0.008416 0.000000 0.000000 0.000000
# 3 0.002826 -0.008416 0.009879 0.000000 0.000000 0.000000
# 4 0.000000 0.000000 0.000000 0.034856 0.000000 0.000000
# 5 0.000000 0.000000 0.000000 0.000000 0.082234 0.000000
# 6 0.000000 0.000000 0.000000 0.000000 0.000000 0.061771
#
#
# Mechanical properties :
#
#
# Convention : Reuss Voigt Hill
#
# Bulk Modulus (GPa) = 6.55300 23.69473 15.12386
# Shear Modulus (GPa) = 13.45057 21.59135 17.52096
#
# Velocity S-wave (km/s) = 2.71985 3.44599 3.10423
# Velocity P-wave (km/s) = 3.66980 5.37260 4.60067
#
# Compressibility (1/GPa) = 0.15260195
#
# Stress axis : x y z
#
# Youngs Moduli (GPa) = 10.03787 26.45420 101.22806
#
# Poissons Ratio (x) = -0.21799 -0.28603
# Poissons Ratio (y) = -0.08272 0.85197
# Poissons Ratio (z) = -0.02836 0.22265
#
# Static dielectric constant tensor:
#      x y z
#    x 2.587790 0.000000 0.000000 
#    y 0.000000 3.408660 0.000000 
#    z 0.000000 0.000000 3.746050 
# 
# 
# High freq. dielectric constant tensor:
#      x y z
#    x 1.619940 0.000000 0.000000 
#    y 0.000000 1.704610 0.000000 
#    z 0.000000 0.000000 1.730940 
# 
# From -- ./inp_files/2532.got.cif
#   From: 2010.03.12/outbox.cif.g09.slc.cpg/sg55_2_cif.got.tgz:2532.got - 2010.04.16 15:19:21.
