data_PCOD8225054
_publ_section_title
;
Structure prediction by ZEFSAII (Michael W. Deem and Ramdas Pophale) SiO2 
 PCOD8225054
Probable space group: P B A M
;
_chemical_formula_sum "Si O2"
_cell_formula_units_Z 64
_cell_length_a 23.312852
_cell_length_b 15.123623
_cell_length_c 9.619590
_cell_angle_alpha 90.000000
_cell_angle_beta 90.000000
_cell_angle_gamma 90.000000
_cell_volume 3391.624873
_symmetry_space_group_name_H-M "P B A M"
_symmetry_group_IT_number 55
_symmetry_cell_setting 'orthorhombic'
loop_
_space_group_symop_operation_xyz
x,y,z
-x,-y,z
1/2+x,1/2-y,-z
1/2-x,1/2+y,-z
-x,-y,-z
x,y,-z
1/2-x,1/2+y,z
1/2+x,1/2-y,z
loop_
_atom_site_type_symbol
_atom_site_label
_atom_site_fract_x
_atom_site_fract_y
_atom_site_fract_z
Si Si1 0.871903 0.494786 0.657467
Si Si2 0.661336 0.579016 0.333110
Si Si3 0.754658 0.234620 0.664555
Si Si4 0.872659 0.694267 0.660015
Si Si5 0.544569 0.575618 0.161348
Si Si6 0.749151 0.432377 0.338409
Si Si7 0.038593 0.585305 0.157688
Si Si8 0.030012 0.246222 0.160762
O O1 0.883632 0.465199 0.500000
O O2 0.894008 0.594047 0.683186
O O3 0.804779 0.491319 0.691518
O O4 0.904125 0.424898 0.753428
O O5 0.653431 0.580233 0.500000
O O6 0.695664 0.667476 0.281667
O O7 0.600201 0.574344 0.258320
O O8 0.695605 0.490604 0.283185
O O9 0.760349 0.236786 0.500000
O O10 0.692788 0.198493 0.710464
O O11 0.758179 0.334457 0.728515
O O12 0.878093 0.723565 0.500000
O O13 0.911480 0.760683 0.750743
O O14 0.500000 0.500000 0.204994
O O15 0.511162 0.665320 0.190007
O O16 0.563141 0.566004 0.000000
O O17 0.738782 0.417107 0.500000
O O18 0.000000 0.500000 0.174852
O O19 0.003998 0.668502 0.214581
O O20 0.057956 0.601009 0.000000
O O21 0.047755 0.254127 0.000000
#
# Coordination Sequence:
#
# PCOD8225054 Si02
#       8
#     8   8   8   8   8   8   8   8
#     4  10  19  32  52  79 111 143 175 214 264 324
#     4  10  20  37  61  87 112 141 186 233 271 329
#     4   9  18  33  54  82 114 143 170 218 281 325
#     4  10  19  33  55  82 111 140 179 225 269 324
#     4  10  24  44  60  76 109 153 191 235 287 327
#     4   9  18  33  54  80 111 143 171 213 277 329
#     4  10  20  34  51  74 107 143 177 215 264 322
#     4  10  22  39  56  75 106 148 185 222 273 328
#
# _framework density 18.870011999999999
#
# number of rings (size 3 to 8) (size 9 to 14) (size 15 to 20)
#    0.000    2.250    2.500    0.000    3.500    1.500 
#    0.000    1.250    0.000    1.500    0.000    0.000 
#    0.000    0.000    0.000    0.000    0.000    0.000 
#
# Total GULP energy -793350.938050 kJ/mol
# GULP energy per Si atom -12396.108407 kJ/mol
# Density = 1.882706 g / cm^3
# Si number density = 18.870012 Si / 1000 Ang^3
#
#
#
# Elastic Constant Matrix: (Units=GPa)
#
#
# Indices 1 2 3 4 5 6 
#
# 1 125.3608 53.9235 55.9561 0.0000 0.0000 0.0000
# 2 53.9235 112.1555 29.4876 0.0000 0.0000 0.0000
# 3 55.9561 29.4876 51.4269 0.0000 0.0000 0.0000
# 4 0.0000 0.0000 0.0000 22.2624 0.0000 0.0000
# 5 0.0000 0.0000 0.0000 0.0000 -3.1474 0.0000
# 6 0.0000 0.0000 0.0000 0.0000 0.0000 22.4914
#
#
#
# Elastic Compliance Matrix: (Units=1/GPa)
#
#
# Indices 1 2 3 4 5 6 
#
# 1 0.016815 -0.003856 -0.016086 0.000000 0.000000 0.000000
# 2 -0.003856 0.011383 -0.002332 0.000000 0.000000 0.000000
# 3 -0.016086 -0.002332 0.038284 0.000000 0.000000 0.000000
# 4 0.000000 0.000000 0.000000 0.044919 0.000000 0.000000
# 5 0.000000 0.000000 0.000000 0.000000 -0.317724 0.000000
# 6 0.000000 0.000000 0.000000 0.000000 0.000000 0.044461
#
#
# Mechanical properties :
#
#
# Convention : Reuss Voigt Hill
#
# Bulk Modulus (GPa) = 45.58529 63.07530 54.33029
# Shear Modulus (GPa) = -45.45358 18.29301 -13.58029
#
# Velocity S-wave (km/s) = -4.91325 3.11693 -2.68559
# Velocity P-wave (km/s) = 2.82431 6.81560 4.38610
#
# Compressibility (1/GPa) = 0.02193690
#
# Stress axis : x y z
#
# Youngs Moduli (GPa) = 59.46931 87.85058 26.12032
#
# Poissons Ratio (x) = 0.33871 0.42016
# Poissons Ratio (y) = 0.22929 0.06091
# Poissons Ratio (z) = 0.95660 0.20485
#
# Static dielectric constant tensor:
#      x y z
#    x 3.389800 0.000000 0.000000 
#    y 0.000000 3.746340 0.000000 
#    z 0.000000 0.000000 3.139920 
# 
# 
# High freq. dielectric constant tensor:
#      x y z
#    x 1.736660 0.000000 0.000000 
#    y 0.000000 1.745280 0.000000 
#    z 0.000000 0.000000 1.694110 
# 
# From -- ./inp_files/9674.got.cif
#   From: 2010.03.12/outbox.cif.g09.slc.cpg/sg55_5_cif.got.tgz:9674.got - 2010.04.16 15:19:21.
