data_PCOD8225348
_publ_section_title
;
Structure prediction by ZEFSAII (Michael W. Deem and Ramdas Pophale) SiO2 
 PCOD8225348
Probable space group: P B A M
;
_chemical_formula_sum "Si O2"
_cell_formula_units_Z 48
_cell_length_a 12.762684
_cell_length_b 13.412582
_cell_length_c 15.677694
_cell_angle_alpha 90.000000
_cell_angle_beta 90.000000
_cell_angle_gamma 90.000000
_cell_volume 2683.716214
_symmetry_space_group_name_H-M "P B A M"
_symmetry_group_IT_number 55
_symmetry_cell_setting 'orthorhombic'
loop_
_space_group_symop_operation_xyz
x,y,z
-x,-y,z
1/2+x,1/2-y,-z
1/2-x,1/2+y,-z
-x,-y,-z
x,y,-z
1/2-x,1/2+y,z
1/2+x,1/2-y,z
loop_
_atom_site_type_symbol
_atom_site_label
_atom_site_fract_x
_atom_site_fract_y
_atom_site_fract_z
Si Si1 0.494898 0.155140 0.000000
Si Si2 0.067278 0.282542 0.174972
Si Si3 0.480141 0.614517 0.593893
Si Si4 0.243949 0.440364 0.179971
Si Si5 0.321822 0.002296 0.000000
Si Si6 0.800234 0.862702 0.271802
Si Si7 0.121425 0.786286 0.725254
O O1 0.517255 0.223987 0.081343
O O2 0.577842 0.067184 0.000000
O O3 0.374237 0.113622 0.000000
O O4 0.133562 0.383204 0.191907
O O5 0.137644 0.183957 0.190652
O O6 0.970304 0.283631 0.239119
O O7 0.500000 0.500000 0.581271
O O8 0.467219 0.664385 0.500000
O O9 0.375387 0.627688 0.647919
O O10 0.581512 0.659050 0.640824
O O11 0.250647 0.481320 0.082773
O O12 0.248538 0.533196 0.244471
O O13 0.340094 0.366359 0.202918
O O14 0.713269 0.786124 0.303646
#
# Coordination Sequence:
#
# PCOD8225348 Si02
#       7
#     4   8   8   8   4   8   8
#     4   9  16  32  46  71 105 139 180 215 255 307
#     4   9  20  32  51  77 106 145 182 218 263 306
#     4  10  20  37  59  79 103 137 170 211 268 324
#     4  10  19  34  50  78 110 140 185 222 254 315
#     4   9  18  28  50  71 101 145 174 215 265 293
#     4  10  20  34  56  79 105 140 176 217 267 311
#     4  10  20  35  55  80 105 140 176 217 264 315
#
# _framework density 17.885646999999999
#
# number of rings (size 3 to 8) (size 9 to 14) (size 15 to 20)
#    0.000    2.333    1.667    1.000    0.000    4.000 
#    0.000    3.333    0.000    3.000    0.000    4.667 
#    0.000    0.000    0.000    0.000    0.000    0.000 
#
# Total GULP energy -594972.904395 kJ/mol
# GULP energy per Si atom -12395.268842 kJ/mol
# Density = 1.784494 g / cm^3
# Si number density = 17.885647 Si / 1000 Ang^3
#
#
#
# Elastic Constant Matrix: (Units=GPa)
#
#
# Indices 1 2 3 4 5 6 
#
# 1 91.5430 48.8124 60.9361 0.0000 0.0000 0.0000
# 2 48.8124 81.6058 53.0562 0.0000 0.0000 0.0000
# 3 60.9361 53.0562 134.1351 0.0000 0.0000 0.0000
# 4 0.0000 0.0000 0.0000 20.6161 0.0000 0.0000
# 5 0.0000 0.0000 0.0000 0.0000 21.7900 0.0000
# 6 0.0000 0.0000 0.0000 0.0000 0.0000 22.9478
#
#
#
# Elastic Compliance Matrix: (Units=1/GPa)
#
#
# Indices 1 2 3 4 5 6 
#
# 1 0.018591 -0.007578 -0.005448 0.000000 0.000000 0.000000
# 2 -0.007578 0.019585 -0.004304 0.000000 0.000000 0.000000
# 3 -0.005448 -0.004304 0.011633 0.000000 0.000000 0.000000
# 4 0.000000 0.000000 0.000000 0.048506 0.000000 0.000000
# 5 0.000000 0.000000 0.000000 0.000000 0.045893 0.000000
# 6 0.000000 0.000000 0.000000 0.000000 0.000000 0.043577
#
#
# Mechanical properties :
#
#
# Convention : Reuss Voigt Hill
#
# Bulk Modulus (GPa) = 66.01492 70.32145 68.16818
# Shear Modulus (GPa) = 21.97845 22.70272 22.34059
#
# Velocity S-wave (km/s) = 3.50927 3.56663 3.53807
# Velocity P-wave (km/s) = 7.30818 7.50758 7.40855
#
# Compressibility (1/GPa) = 0.01514809
#
# Stress axis : x y z
#
# Youngs Moduli (GPa) = 53.78838 51.05891 85.96392
#
# Poissons Ratio (x) = 0.38693 0.46836
# Poissons Ratio (y) = 0.40761 0.37000
# Poissons Ratio (z) = 0.29306 0.21976
#
# Static dielectric constant tensor:
#      x y z
#    x 3.470120 0.000000 0.000000 
#    y 0.000000 3.321910 0.000000 
#    z 0.000000 0.000000 3.426140 
# 
# 
# High freq. dielectric constant tensor:
#      x y z
#    x 1.693840 0.000000 0.000000 
#    y 0.000000 1.688780 0.000000 
#    z 0.000000 0.000000 1.681070 
# 
# From -- ./inp_files/18302.got.cif
#   From: 2010.03.12/outbox.cif.g09.slc.cpg/sg55_10_cif.got.tgz:18302.got - 2010.04.16 15:19:21.
