data_PCOD8225496
_publ_section_title
;
Structure prediction by ZEFSAII (Michael W. Deem and Ramdas Pophale) SiO2 
 PCOD8225496
Probable space group: P B A M
;
_chemical_formula_sum "Si O2"
_cell_formula_units_Z 56
_cell_length_a 15.337408
_cell_length_b 20.773650
_cell_length_c 8.703851
_cell_angle_alpha 90.000000
_cell_angle_beta 90.000000
_cell_angle_gamma 90.000000
_cell_volume 2773.168310
_symmetry_space_group_name_H-M "P B A M"
_symmetry_group_IT_number 55
_symmetry_cell_setting 'orthorhombic'
loop_
_space_group_symop_operation_xyz
x,y,z
-x,-y,z
1/2+x,1/2-y,-z
1/2-x,1/2+y,-z
-x,-y,-z
x,y,-z
1/2-x,1/2+y,z
1/2+x,1/2-y,z
loop_
_atom_site_type_symbol
_atom_site_label
_atom_site_fract_x
_atom_site_fract_y
_atom_site_fract_z
Si Si1 0.491945 0.817782 0.319095
Si Si2 0.694250 0.027499 0.673025
Si Si3 0.386722 0.513283 0.671745
Si Si4 0.989907 0.096708 0.821596
Si Si5 0.309990 0.832317 0.817893
Si Si6 0.879293 0.217099 0.182312
Si Si7 0.060592 0.559005 0.167334
O O1 0.488395 0.809149 0.500000
O O2 0.396530 0.797617 0.251604
O O3 0.576289 0.780028 0.254308
O O4 0.507478 0.891403 0.272454
O O5 0.664560 0.045305 0.500000
O O6 0.694137 0.092879 0.770242
O O7 0.784986 0.991427 0.675860
O O8 0.641145 0.968423 0.740444
O O9 0.421549 0.499551 0.500000
O O10 0.419985 0.584072 0.728130
O O11 0.425597 0.462685 0.792204
O O12 0.940881 0.159541 0.758908
O O13 0.011371 0.103803 0.000000
O O14 0.221209 0.795446 0.762587
O O15 0.317921 0.829683 0.000000
O O16 0.880010 0.222783 0.000000
O O17 0.000000 0.500000 0.131309
O O18 0.087379 0.589030 0.000000
#
# Coordination Sequence:
#
# PCOD8225496 Si02
#       7
#     8   8   8   8   8   8   8
#     4  12  26  43  66  94 127 163 203 260 319 377
#     4  11  22  36  60  92 125 159 200 252 308 368
#     4  10  20  33  53  86 125 160 196 248 309 360
#     4  10  19  34  58  86 117 158 207 251 296 356
#     4  11  22  41  68  93 121 161 209 254 305 372
#     4  10  23  43  66  91 123 167 215 260 307 372
#     4  11  23  40  65  92 121 160 202 254 312 369
#
# _framework density 20.193508999999999
#
# number of rings (size 3 to 8) (size 9 to 14) (size 15 to 20)
#    0.000    1.286    2.857    4.286    0.000    4.571 
#    2.571    0.000    0.000    0.000    0.000    0.000 
#    0.000    0.000    0.000    0.000    0.000    0.000 
#
# Total GULP energy -693993.302626 kJ/mol
# GULP energy per Si atom -12392.737547 kJ/mol
# Density = 2.014755 g / cm^3
# Si number density = 20.193509 Si / 1000 Ang^3
#
#
#
# Elastic Constant Matrix: (Units=GPa)
#
#
# Indices 1 2 3 4 5 6 
#
# 1 129.8712 39.8188 45.2724 0.0000 0.0000 0.0000
# 2 39.8188 65.0690 21.7245 0.0000 0.0000 0.0000
# 3 45.2724 21.7245 77.0333 0.0000 0.0000 0.0000
# 4 0.0000 0.0000 0.0000 20.5024 0.0000 0.0000
# 5 0.0000 0.0000 0.0000 0.0000 46.6376 0.0000
# 6 0.0000 0.0000 0.0000 0.0000 0.0000 36.7897
#
#
#
# Elastic Compliance Matrix: (Units=1/GPa)
#
#
# Indices 1 2 3 4 5 6 
#
# 1 0.011007 -0.005052 -0.005044 0.000000 0.000000 0.000000
# 2 -0.005052 0.019284 -0.002470 0.000000 0.000000 0.000000
# 3 -0.005044 -0.002470 0.016642 0.000000 0.000000 0.000000
# 4 0.000000 0.000000 0.000000 0.048775 0.000000 0.000000
# 5 0.000000 0.000000 0.000000 0.000000 0.021442 0.000000
# 6 0.000000 0.000000 0.000000 0.000000 0.000000 0.027182
#
#
# Mechanical properties :
#
#
# Convention : Reuss Voigt Hill
#
# Bulk Modulus (GPa) = 45.86580 53.95608 49.91094
# Shear Modulus (GPa) = 28.29164 31.79645 30.04405
#
# Velocity S-wave (km/s) = 3.74709 3.97241 3.86139
# Velocity P-wave (km/s) = 6.44076 6.91503 6.68210
#
# Compressibility (1/GPa) = 0.02180274
#
# Stress axis : x y z
#
# Youngs Moduli (GPa) = 90.84962 51.85596 60.08767
#
# Poissons Ratio (x) = 0.26196 0.30310
# Poissons Ratio (y) = 0.45895 0.14839
# Poissons Ratio (z) = 0.45827 0.12806
#
# Static dielectric constant tensor:
#      x y z
#    x 4.162030 0.000000 0.000000 
#    y 0.000000 3.473840 0.000000 
#    z 0.000000 0.000000 3.806820 
# 
# 
# High freq. dielectric constant tensor:
#      x y z
#    x 1.802060 0.000000 0.000000 
#    y 0.000000 1.765880 0.000000 
#    z 0.000000 0.000000 1.798140 
# 
# From -- ./inp_files/6028.got.cif
#   From: 2010.03.12/outbox.cif.g09.slc.cpg/sg55_4_cif.got.tgz:6028.got - 2010.04.16 15:19:21.
