data_PCOD8225515
_publ_section_title
;
Structure prediction by ZEFSAII (Michael W. Deem and Ramdas Pophale) SiO2 
 PCOD8225515
Probable space group: P B A M
;
_chemical_formula_sum "Si O2"
_cell_formula_units_Z 48
_cell_length_a 13.677836
_cell_length_b 13.019344
_cell_length_c 13.590955
_cell_angle_alpha 90.000000
_cell_angle_beta 90.000000
_cell_angle_gamma 90.000000
_cell_volume 2420.229047
_symmetry_space_group_name_H-M "P B A M"
_symmetry_group_IT_number 55
_symmetry_cell_setting 'orthorhombic'
loop_
_space_group_symop_operation_xyz
x,y,z
-x,-y,z
1/2+x,1/2-y,-z
1/2-x,1/2+y,-z
-x,-y,-z
x,y,-z
1/2-x,1/2+y,z
1/2+x,1/2-y,z
loop_
_atom_site_type_symbol
_atom_site_label
_atom_site_fract_x
_atom_site_fract_y
_atom_site_fract_z
Si Si1 0.140527 0.795797 0.269948
Si Si2 0.931955 0.595186 0.111861
Si Si3 0.796902 0.049855 0.887609
Si Si4 0.293989 0.919483 0.384944
Si Si5 0.730758 0.387883 0.258998
Si Si6 0.933207 0.731329 0.709680
O O1 0.138606 0.869507 0.174460
O O2 0.208056 0.841523 0.355744
O O3 0.180866 0.687281 0.230960
O O4 0.036615 0.778438 0.323024
O O5 0.818030 0.570111 0.124215
O O6 0.949719 0.696094 0.177305
O O7 0.000000 0.500000 0.146574
O O8 0.958218 0.623852 0.000000
O O9 0.812778 0.937610 0.840695
O O10 0.832499 0.051734 0.000000
O O11 0.295901 0.938763 0.500000
O O12 0.397686 0.869069 0.351545
O O13 0.273820 0.027968 0.333471
O O14 0.643380 0.322888 0.306864
#
# Coordination Sequence:
#
# PCOD8225515 Si02
#       6
#     8   8   8   8   8   8
#     4  10  22  39  61  88 122 158 199 252 306 364
#     4  10  19  34  59  90 122 156 199 242 285 348
#     4  10  20  36  56  86 124 163 201 242 296 350
#     4  10  23  42  60  86 117 152 203 259 311 367
#     4  10  20  39  59  86 117 163 194 256 301 358
#     4  11  22  38  64  89 121 159 204 243 311 365
#
# _framework density 19.832832
#
# number of rings (size 3 to 8) (size 9 to 14) (size 15 to 20)
#    0.000    1.833    5.000    1.000    0.000    8.000 
#    0.000    2.500    0.000    0.000    0.000    0.000 
#    0.000    0.000    0.000    0.000    0.000    0.000 
#
# Total GULP energy -595035.244638 kJ/mol
# GULP energy per Si atom -12396.567597 kJ/mol
# Density = 1.978769 g / cm^3
# Si number density = 19.832832 Si / 1000 Ang^3
#
#
#
# Elastic Constant Matrix: (Units=GPa)
#
#
# Indices 1 2 3 4 5 6 
#
# 1 79.8518 27.3572 3.0238 0.0000 0.0000 0.0000
# 2 27.3572 107.9665 23.4397 0.0000 0.0000 0.0000
# 3 3.0238 23.4397 89.4875 0.0000 0.0000 0.0000
# 4 0.0000 0.0000 0.0000 10.9097 0.0000 0.0000
# 5 0.0000 0.0000 0.0000 0.0000 15.9735 0.0000
# 6 0.0000 0.0000 0.0000 0.0000 0.0000 30.8713
#
#
#
# Elastic Compliance Matrix: (Units=1/GPa)
#
#
# Indices 1 2 3 4 5 6 
#
# 1 0.013733 -0.003583 0.000474 0.000000 0.000000 0.000000
# 2 -0.003583 0.010755 -0.002696 0.000000 0.000000 0.000000
# 3 0.000474 -0.002696 0.011865 0.000000 0.000000 0.000000
# 4 0.000000 0.000000 0.000000 0.091662 0.000000 0.000000
# 5 0.000000 0.000000 0.000000 0.000000 0.062604 0.000000
# 6 0.000000 0.000000 0.000000 0.000000 0.000000 0.032393
#
#
# Mechanical properties :
#
#
# Convention : Reuss Voigt Hill
#
# Bulk Modulus (GPa) = 40.41371 42.77192 41.59281
# Shear Modulus (GPa) = 20.58736 26.44990 23.51863
#
# Velocity S-wave (km/s) = 3.22536 3.65587 3.44734
# Velocity P-wave (km/s) = 5.85594 6.27961 6.07147
#
# Compressibility (1/GPa) = 0.02474408
#
# Stress axis : x y z
#
# Youngs Moduli (GPa) = 72.81923 92.97786 84.28214
#
# Poissons Ratio (x) = 0.33311 -0.03998
# Poissons Ratio (y) = 0.26089 0.22723
# Poissons Ratio (z) = -0.03454 0.25068
#
# Static dielectric constant tensor:
#      x y z
#    x 3.613440 0.000000 0.000000 
#    y 0.000000 3.751210 0.000000 
#    z 0.000000 0.000000 3.496510 
# 
# 
# High freq. dielectric constant tensor:
#      x y z
#    x 1.768830 0.000000 0.000000 
#    y 0.000000 1.781720 0.000000 
#    z 0.000000 0.000000 1.754160 
# 
# From -- ./inp_files/18254.got.cif
#   From: 2010.03.12/outbox.cif.g09.slc.cpg/sg55_10_cif.got.tgz:18254.got - 2010.04.16 15:19:21.
