data_PCOD8225578
_publ_section_title
;
Structure prediction by ZEFSAII (Michael W. Deem and Ramdas Pophale) SiO2 
 PCOD8225578
Probable space group: P B A M
;
_chemical_formula_sum "Si O2"
_cell_formula_units_Z 48
_cell_length_a 14.966036
_cell_length_b 5.009175
_cell_length_c 29.673628
_cell_angle_alpha 90.000000
_cell_angle_beta 90.000000
_cell_angle_gamma 90.000000
_cell_volume 2224.557511
_symmetry_space_group_name_H-M "P B A M"
_symmetry_group_IT_number 55
_symmetry_cell_setting 'orthorhombic'
loop_
_space_group_symop_operation_xyz
x,y,z
-x,-y,z
1/2+x,1/2-y,-z
1/2-x,1/2+y,-z
-x,-y,-z
x,y,-z
1/2-x,1/2+y,z
1/2+x,1/2-y,z
loop_
_atom_site_type_symbol
_atom_site_label
_atom_site_fract_x
_atom_site_fract_y
_atom_site_fract_z
Si Si1 0.893781 0.505249 0.949940
Si Si2 0.605864 0.507864 0.895153
Si Si3 0.809619 0.143085 0.800011
Si Si4 0.689185 0.796359 0.643417
Si Si5 0.691160 0.906699 0.451894
Si Si6 0.442465 0.253887 0.722540
O O1 0.861638 0.219502 0.932366
O O2 0.000000 0.500000 0.952110
O O3 0.859419 0.725395 0.914212
O O4 0.855031 0.559207 0.000000
O O5 0.500000 0.500000 0.888231
O O6 0.650190 0.585851 0.848610
O O7 0.770908 0.437937 0.792737
O O8 0.887776 0.116689 0.763715
O O9 0.727481 0.498471 0.647841
O O10 0.638657 0.840615 0.594696
O O11 0.619451 0.854708 0.682625
O O12 0.638888 0.857518 0.500000
O O13 0.777918 0.713627 0.450872
O O14 0.500000 0.500000 0.703382
O O15 0.500000 0.000000 0.739532
#
# Coordination Sequence:
#
# PCOD8225578 Si02
#       6
#     8   8   8   8   8   8
#     4   9  17  31  55  86 115 145 184 226 265 315
#     4  10  20  35  58  85 113 145 185 230 273 321
#     4  12  25  42  62  84 114 149 189 234 287 345
#     4  10  19  35  58  84 115 150 191 236 284 335
#     4   8  14  25  46  77 109 143 186 232 272 320
#     4  12  25  41  61  85 114 147 189 237 289 345
#
# _framework density 21.577325999999999
#
# number of rings (size 3 to 8) (size 9 to 14) (size 15 to 20)
#    0.000    1.833    0.000    5.000    0.000    4.000 
#    0.000    0.000    0.000   11.000    0.000    0.000 
#    0.000    0.000    0.000    0.000    0.000    0.000 
#
# Total GULP energy -594949.585844 kJ/mol
# GULP energy per Si atom -12394.783038 kJ/mol
# Density = 2.152821 g / cm^3
# Si number density = 21.577326 Si / 1000 Ang^3
#
#
#
# Elastic Constant Matrix: (Units=GPa)
#
#
# Indices 1 2 3 4 5 6 
#
# 1 43.6140 16.5940 41.5331 0.0000 0.0000 0.0000
# 2 16.5940 103.9681 22.8888 0.0000 0.0000 0.0000
# 3 41.5331 22.8888 158.8962 0.0000 0.0000 0.0000
# 4 0.0000 0.0000 0.0000 33.0090 0.0000 0.0000
# 5 0.0000 0.0000 0.0000 0.0000 -581.4791 0.0000
# 6 0.0000 0.0000 0.0000 0.0000 0.0000 28.6190
#
#
#
# Elastic Compliance Matrix: (Units=1/GPa)
#
#
# Indices 1 2 3 4 5 6 
#
# 1 0.031606 -0.003331 -0.007781 0.000000 0.000000 0.000000
# 2 -0.003331 0.010284 -0.000611 0.000000 0.000000 0.000000
# 3 -0.007781 -0.000611 0.008415 0.000000 0.000000 0.000000
# 4 0.000000 0.000000 0.000000 0.030295 0.000000 0.000000
# 5 0.000000 0.000000 0.000000 0.000000 -0.001720 0.000000
# 6 0.000000 0.000000 0.000000 0.000000 0.000000 0.034942
#
#
# Mechanical properties :
#
#
# Convention : Reuss Voigt Hill
#
# Bulk Modulus (GPa) = 37.23173 52.05665 44.64419
# Shear Modulus (GPa) = 34.19435 -88.93940 -27.37253
#
# Velocity S-wave (km/s) = 3.98519 -6.42716 -3.56557
# Velocity P-wave (km/s) = 6.20227 5.55876 1.94529
#
# Compressibility (1/GPa) = 0.02685881
#
# Stress axis : x y z
#
# Youngs Moduli (GPa) = 31.63939 97.23372 118.83048
#
# Poissons Ratio (x) = 0.32393 0.92468
# Poissons Ratio (y) = 0.10540 0.07257
# Poissons Ratio (z) = 0.24620 0.05938
#
# Static dielectric constant tensor:
#      x y z
#    x 3.714580 0.000000 0.000000 
#    y 0.000000 4.112540 0.000000 
#    z 0.000000 0.000000 4.271720 
# 
# 
# High freq. dielectric constant tensor:
#      x y z
#    x 1.794060 0.000000 0.000000 
#    y 0.000000 1.866920 0.000000 
#    z 0.000000 0.000000 1.871230 
# 
# From -- ./inp_files/23977.got.cif
#   From: 2010.03.12/outbox.cif.g09.slc.cpg/sg55_12_cif.got.tgz:23977.got - 2010.04.16 15:19:21.
