data_PCOD8225377
_publ_section_title
;
Structure prediction by ZEFSAII (Michael W. Deem and Ramdas Pophale) SiO2 
 PCOD8225377
Probable space group: P B A M
;
_chemical_formula_sum "Si O2"
_cell_formula_units_Z 40
_cell_length_a 9.202969
_cell_length_b 25.787334
_cell_length_c 8.897845
_cell_angle_alpha 90.000000
_cell_angle_beta 90.000000
_cell_angle_gamma 90.000000
_cell_volume 2111.636890
_symmetry_space_group_name_H-M "P B A M"
_symmetry_group_IT_number 55
_symmetry_cell_setting 'orthorhombic'
loop_
_space_group_symop_operation_xyz
x,y,z
-x,-y,z
1/2+x,1/2-y,-z
1/2-x,1/2+y,-z
-x,-y,-z
x,y,-z
1/2-x,1/2+y,z
1/2+x,1/2-y,z
loop_
_atom_site_type_symbol
_atom_site_label
_atom_site_fract_x
_atom_site_fract_y
_atom_site_fract_z
Si Si1 0.149632 0.192007 0.821327
Si Si2 0.322138 0.292040 0.822008
Si Si3 0.319811 0.101925 0.676934
Si Si4 0.827655 0.500812 0.834496
Si Si5 0.869542 0.613144 0.821532
O O1 0.252597 0.238519 0.764204
O O2 0.197078 0.139294 0.742264
O O3 0.987122 0.204758 0.765903
O O4 0.157604 0.184889 0.000000
O O5 0.230298 0.340581 0.759027
O O6 0.315325 0.293646 0.000000
O O7 0.327184 0.106806 0.500000
O O8 0.272998 0.043119 0.720024
O O9 0.474281 0.117850 0.744871
O O10 0.787354 0.559070 0.779600
O O11 0.000000 0.500000 0.845617
O O12 0.760991 0.489628 0.000000
O O13 0.895645 0.616391 0.000000
#
# Coordination Sequence:
#
# PCOD8225377 Si02
#       5
#     8   8   8   8   8
#     4  10  19  34  55  77 101 130 167 210 256 303
#     4   9  18  33  57  82 100 126 166 212 259 307
#     4  11  21  32  49  75 106 140 175 208 247 296
#     4   8  15  29  51  76 102 133 169 210 251 295
#     4   9  17  33  56  81 105 130 167 212 257 304
#
# _framework density 18.942651000000001
#
# number of rings (size 3 to 8) (size 9 to 14) (size 15 to 20)
#    0.000    2.600    0.000    4.200    0.000    6.800 
#    0.000    6.000    0.000    6.000    0.000    0.000 
#    0.000    0.000    0.000    0.000    0.000    0.000 
#
# Total GULP energy -495896.092131 kJ/mol
# GULP energy per Si atom -12397.402303 kJ/mol
# Density = 1.889954 g / cm^3
# Si number density = 18.942651 Si / 1000 Ang^3
#
#
#
# Elastic Constant Matrix: (Units=GPa)
#
#
# Indices 1 2 3 4 5 6 
#
# 1 65.4643 17.4066 21.1840 0.0000 0.0000 0.0000
# 2 17.4066 98.0331 25.2159 0.0000 0.0000 0.0000
# 3 21.1840 25.2159 56.9676 0.0000 0.0000 0.0000
# 4 0.0000 0.0000 0.0000 4.9249 0.0000 0.0000
# 5 0.0000 0.0000 0.0000 0.0000 5.8956 0.0000
# 6 0.0000 0.0000 0.0000 0.0000 0.0000 32.5246
#
#
#
# Elastic Compliance Matrix: (Units=1/GPa)
#
#
# Indices 1 2 3 4 5 6 
#
# 1 0.017592 -0.001626 -0.005822 0.000000 0.000000 0.000000
# 2 -0.001626 0.011662 -0.004557 0.000000 0.000000 0.000000
# 3 -0.005822 -0.004557 0.021736 0.000000 0.000000 0.000000
# 4 0.000000 0.000000 0.000000 0.203048 0.000000 0.000000
# 5 0.000000 0.000000 0.000000 0.000000 0.169618 0.000000
# 6 0.000000 0.000000 0.000000 0.000000 0.000000 0.030746
#
#
# Mechanical properties :
#
#
# Convention : Reuss Voigt Hill
#
# Bulk Modulus (GPa) = 37.06588 38.67534 37.87061
# Shear Modulus (GPa) = 10.25841 19.11293 14.68567
#
# Velocity S-wave (km/s) = 2.32965 3.17991 2.78739
# Velocity P-wave (km/s) = 5.18134 5.82613 5.51317
#
# Compressibility (1/GPa) = 0.02697899
#
# Stress axis : x y z
#
# Youngs Moduli (GPa) = 56.84457 85.75197 46.00671
#
# Poissons Ratio (x) = 0.13944 0.26785
# Poissons Ratio (y) = 0.09243 0.20966
# Poissons Ratio (z) = 0.33095 0.39078
#
# Static dielectric constant tensor:
#      x y z
#    x 3.311240 0.000000 0.000000 
#    y 0.000000 4.019440 0.000000 
#    z 0.000000 0.000000 3.097480 
# 
# 
# High freq. dielectric constant tensor:
#      x y z
#    x 1.711220 0.000000 0.000000 
#    y 0.000000 1.758960 0.000000 
#    z 0.000000 0.000000 1.697160 
# 
# From -- ./inp_files/2301.got.cif
#   From: 2010.03.12/outbox.cif.g09.slc.cpg/sg55_2_cif.got.tgz:2301.got - 2010.04.16 15:19:21.
