data_PCOD8225499
_publ_section_title
;
Structure prediction by ZEFSAII (Michael W. Deem and Ramdas Pophale) SiO2 
 PCOD8225499
Probable space group: P B A M
;
_chemical_formula_sum "Si O2"
_cell_formula_units_Z 56
_cell_length_a 15.180204
_cell_length_b 20.104723
_cell_length_c 8.791259
_cell_angle_alpha 90.000000
_cell_angle_beta 90.000000
_cell_angle_gamma 90.000000
_cell_volume 2683.037710
_symmetry_space_group_name_H-M "P B A M"
_symmetry_group_IT_number 55
_symmetry_cell_setting 'orthorhombic'
loop_
_space_group_symop_operation_xyz
x,y,z
-x,-y,z
1/2+x,1/2-y,-z
1/2-x,1/2+y,-z
-x,-y,-z
x,y,-z
1/2-x,1/2+y,z
1/2+x,1/2-y,z
loop_
_atom_site_type_symbol
_atom_site_label
_atom_site_fract_x
_atom_site_fract_y
_atom_site_fract_z
Si Si1 0.002741 0.127408 0.680910
Si Si2 0.822835 0.063403 0.674082
Si Si3 0.899661 0.494296 0.163614
Si Si4 0.352453 0.875775 0.672266
Si Si5 0.178160 0.075051 0.178361
Si Si6 0.500410 0.776411 0.320119
Si Si7 0.658243 0.869069 0.322860
O O1 0.006477 0.129193 0.500000
O O2 0.085300 0.087261 0.742359
O O3 0.001363 0.202300 0.748168
O O4 0.915547 0.089462 0.738271
O O5 0.831881 0.038911 0.500000
O O6 0.754678 0.126655 0.680951
O O7 0.789456 0.999224 0.771589
O O8 0.872218 0.566414 0.213193
O O9 0.883161 0.441485 0.296586
O O10 0.000000 0.500000 0.127811
O O11 0.853014 0.474755 0.000000
O O12 0.382776 0.892541 0.500000
O O13 0.406939 0.810812 0.726815
O O14 0.248545 0.131301 0.232950
O O15 0.164849 0.079848 0.000000
O O16 0.508658 0.773967 0.500000
O O17 0.587339 0.815391 0.258481
O O18 0.677557 0.857441 0.500000
#
# Coordination Sequence:
#
# PCOD8225499 Si02
#       7
#     8   8   8   8   8   8   8
#     4  10  22  42  63  86 118 156 203 249 295 350
#     4  10  21  37  62  90 115 151 198 251 301 347
#     4  11  21  32  51  85 124 159 192 237 295 351
#     4  10  19  34  58  88 119 153 196 241 292 354
#     4  12  25  40  60  88 119 155 200 250 304 355
#     4   9  20  37  61  92 121 154 195 240 289 352
#     4  11  21  36  61  91 120 154 197 245 297 351
#
# _framework density 20.871863999999999
#
# number of rings (size 3 to 8) (size 9 to 14) (size 15 to 20)
#    0.000    1.571    2.857    2.571    0.000    4.000 
#    0.000    6.429    0.000    1.714    0.000    0.000 
#    0.000    0.000    0.000    0.000    0.000    0.000 
#
# Total GULP energy -693969.506730 kJ/mol
# GULP energy per Si atom -12392.312620 kJ/mol
# Density = 2.082436 g / cm^3
# Si number density = 20.871864 Si / 1000 Ang^3
#
#
#
# Elastic Constant Matrix: (Units=GPa)
#
#
# Indices 1 2 3 4 5 6 
#
# 1 116.9394 25.8689 15.3502 0.0000 0.0000 0.0000
# 2 25.8689 80.4382 12.9878 0.0000 0.0000 0.0000
# 3 15.3502 12.9878 42.2598 0.0000 0.0000 0.0000
# 4 0.0000 0.0000 0.0000 6.7983 0.0000 0.0000
# 5 0.0000 0.0000 0.0000 0.0000 13.7176 0.0000
# 6 0.0000 0.0000 0.0000 0.0000 0.0000 24.6400
#
#
#
# Elastic Compliance Matrix: (Units=1/GPa)
#
#
# Indices 1 2 3 4 5 6 
#
# 1 0.009478 -0.002622 -0.002637 0.000000 0.000000 0.000000
# 2 -0.002622 0.013807 -0.003291 0.000000 0.000000 0.000000
# 3 -0.002637 -0.003291 0.025632 0.000000 0.000000 0.000000
# 4 0.000000 0.000000 0.000000 0.147096 0.000000 0.000000
# 5 0.000000 0.000000 0.000000 0.000000 0.072899 0.000000
# 6 0.000000 0.000000 0.000000 0.000000 0.000000 0.040584
#
#
# Mechanical properties :
#
#
# Convention : Reuss Voigt Hill
#
# Bulk Modulus (GPa) = 31.42966 38.67237 35.05102
# Shear Modulus (GPa) = 14.82795 21.39321 18.11058
#
# Velocity S-wave (km/s) = 2.66828 3.20500 2.94888
# Velocity P-wave (km/s) = 4.95823 5.68021 5.33145
#
# Compressibility (1/GPa) = 0.03181708
#
# Stress axis : x y z
#
# Youngs Moduli (GPa) = 105.51152 72.42932 39.01336
#
# Poissons Ratio (x) = 0.18993 0.10287
# Poissons Ratio (y) = 0.27668 0.12838
# Poissons Ratio (z) = 0.27820 0.23834
#
# Static dielectric constant tensor:
#      x y z
#    x 4.066060 0.000000 0.000000 
#    y 0.000000 3.735710 0.000000 
#    z 0.000000 0.000000 3.533560 
# 
# 
# High freq. dielectric constant tensor:
#      x y z
#    x 1.841550 0.000000 0.000000 
#    y 0.000000 1.795510 0.000000 
#    z 0.000000 0.000000 1.793020 
# 
# From -- ./inp_files/6107.got.cif
#   From: 2010.03.12/outbox.cif.g09.slc.cpg/sg55_4_cif.got.tgz:6107.got - 2010.04.16 15:19:21.
