data_PCOD8225159
_publ_section_title
;
Structure prediction by ZEFSAII (Michael W. Deem and Ramdas Pophale) SiO2 
 PCOD8225159
Probable space group: P B A M
;
_chemical_formula_sum "Si O2"
_cell_formula_units_Z 40
_cell_length_a 20.995532
_cell_length_b 12.656326
_cell_length_c 8.866171
_cell_angle_alpha 90.000000
_cell_angle_beta 90.000000
_cell_angle_gamma 90.000000
_cell_volume 2355.974793
_symmetry_space_group_name_H-M "P B A M"
_symmetry_group_IT_number 55
_symmetry_cell_setting 'orthorhombic'
loop_
_space_group_symop_operation_xyz
x,y,z
-x,-y,z
1/2+x,1/2-y,-z
1/2-x,1/2+y,-z
-x,-y,-z
x,y,-z
1/2-x,1/2+y,z
1/2+x,1/2-y,z
loop_
_atom_site_type_symbol
_atom_site_label
_atom_site_fract_x
_atom_site_fract_y
_atom_site_fract_z
Si Si1 0.337793 0.330620 0.172436
Si Si2 0.807444 0.617566 0.827981
Si Si3 0.838510 0.825605 0.677675
Si Si4 0.792798 0.386438 0.821330
Si Si5 0.926858 0.988780 0.821137
O O1 0.268239 0.379468 0.194269
O O2 0.337330 0.210351 0.238281
O O3 0.389408 0.408871 0.247820
O O4 0.357748 0.322493 0.000000
O O5 0.842567 0.701646 0.721916
O O6 0.827511 0.497522 0.784242
O O7 0.825921 0.643848 0.000000
O O8 0.838146 0.836212 0.500000
O O9 0.775659 0.880414 0.743150
O O10 0.900332 0.883062 0.744451
O O11 0.779841 0.374868 0.000000
O O12 0.917097 0.978843 0.000000
O O13 0.000000 0.000000 0.775554
#
# Coordination Sequence:
#
# PCOD8225159 Si02
#       5
#     8   8   8   8   8
#     4   8  14  26  46  72  94 116 155 201 244 282
#     4   9  16  29  50  69  93 124 157 200 242 288
#     4  11  21  30  44  70 104 129 157 197 243 302
#     4   9  16  30  51  71  95 125 159 201 245 290
#     4  10  19  33  52  71  96 131 171 205 237 288
#
# _framework density 16.978110000000001
#
# number of rings (size 3 to 8) (size 9 to 14) (size 15 to 20)
#    0.000    2.600    2.000    3.000    0.000    1.200 
#    0.000    0.000    0.000    1.200    0.000    8.400 
#    0.000    0.000    0.000    0.000    0.000    0.000 
#
# Total GULP energy -495724.921650 kJ/mol
# GULP energy per Si atom -12393.123041 kJ/mol
# Density = 1.693947 g / cm^3
# Si number density = 16.978110 Si / 1000 Ang^3
#
#
#
# Elastic Constant Matrix: (Units=GPa)
#
#
# Indices 1 2 3 4 5 6 
#
# 1 67.5682 44.4195 28.4703 0.0000 0.0000 0.0000
# 2 44.4195 141.5878 34.8598 0.0000 0.0000 0.0000
# 3 28.4703 34.8598 53.5220 0.0000 0.0000 0.0000
# 4 0.0000 0.0000 0.0000 11.0013 0.0000 0.0000
# 5 0.0000 0.0000 0.0000 0.0000 8.1663 0.0000
# 6 0.0000 0.0000 0.0000 0.0000 0.0000 24.4684
#
#
#
# Elastic Compliance Matrix: (Units=1/GPa)
#
#
# Indices 1 2 3 4 5 6 
#
# 1 0.021371 -0.004652 -0.008338 0.000000 0.000000 0.000000
# 2 -0.004652 0.009424 -0.003664 0.000000 0.000000 0.000000
# 3 -0.008338 -0.003664 0.025506 0.000000 0.000000 0.000000
# 4 0.000000 0.000000 0.000000 0.090899 0.000000 0.000000
# 5 0.000000 0.000000 0.000000 0.000000 0.122455 0.000000
# 6 0.000000 0.000000 0.000000 0.000000 0.000000 0.040869
#
#
# Mechanical properties :
#
#
# Convention : Reuss Voigt Hill
#
# Bulk Modulus (GPa) = 43.49068 53.13080 48.31074
# Shear Modulus (GPa) = 14.22494 19.05577 16.64035
#
# Velocity S-wave (km/s) = 2.89769 3.35382 3.13406
# Velocity P-wave (km/s) = 6.07180 6.80875 6.45081
#
# Compressibility (1/GPa) = 0.02299343
#
# Stress axis : x y z
#
# Youngs Moduli (GPa) = 46.79159 106.11053 39.20704
#
# Poissons Ratio (x) = 0.49360 0.32693
# Poissons Ratio (y) = 0.21766 0.14364
# Poissons Ratio (z) = 0.39017 0.38876
#
# Static dielectric constant tensor:
#      x y z
#    x 2.860400 0.000000 0.000000 
#    y 0.000000 3.650270 0.000000 
#    z 0.000000 0.000000 2.875630 
# 
# 
# High freq. dielectric constant tensor:
#      x y z
#    x 1.605460 0.000000 0.000000 
#    y 0.000000 1.678660 0.000000 
#    z 0.000000 0.000000 1.624540 
# 
# From -- ./inp_files/3642.got.cif
#   From: 2010.03.12/outbox.cif.g09.slc.cpg/sg55_2_cif.got.tgz:3642.got - 2010.04.16 15:19:21.
