data_PCOD8225253
_publ_section_title
;
Structure prediction by ZEFSAII (Michael W. Deem and Ramdas Pophale) SiO2 
 PCOD8225253
Probable space group: P B A M
;
_chemical_formula_sum "Si O2"
_cell_formula_units_Z 48
_cell_length_a 28.904200
_cell_length_b 10.249790
_cell_length_c 8.702607
_cell_angle_alpha 90.000000
_cell_angle_beta 90.000000
_cell_angle_gamma 90.000000
_cell_volume 2578.251582
_symmetry_space_group_name_H-M "P B A M"
_symmetry_group_IT_number 55
_symmetry_cell_setting 'orthorhombic'
loop_
_space_group_symop_operation_xyz
x,y,z
-x,-y,z
1/2+x,1/2-y,-z
1/2-x,1/2+y,-z
-x,-y,-z
x,y,-z
1/2-x,1/2+y,z
1/2+x,1/2-y,z
loop_
_atom_site_type_symbol
_atom_site_label
_atom_site_fract_x
_atom_site_fract_y
_atom_site_fract_z
Si Si1 0.523854 0.871852 0.181204
Si Si2 0.387703 0.225039 0.676510
Si Si3 0.782649 0.999232 0.180947
Si Si4 0.120300 0.020595 0.319655
Si Si5 0.030994 0.121685 0.818442
Si Si6 0.281710 0.218620 0.319886
O O1 0.577586 0.865488 0.227878
O O2 0.495353 0.748600 0.243910
O O3 0.500000 0.000000 0.252371
O O4 0.521393 0.875142 0.000000
O O5 0.399731 0.203926 0.500000
O O6 0.395616 0.374946 0.724560
O O7 0.335224 0.185081 0.712757
O O8 0.832693 0.945728 0.230902
O O9 0.769978 0.135113 0.264136
O O10 0.746436 0.888247 0.226370
O O11 0.781294 0.022970 0.000000
O O12 0.130151 0.033988 0.500000
O O13 0.080484 0.118853 0.265454
O O14 0.039481 0.123813 0.000000
O O15 0.000000 0.000000 0.767763
O O16 0.269994 0.210693 0.500000
#
# Coordination Sequence:
#
# PCOD8225253 Si02
#       6
#     8   8   8   8   8   8
#     4  10  21  36  53  77 111 147 180 226 282 332
#     4   9  19  35  57  81 107 144 187 226 271 334
#     4  11  22  38  61  89 117 150 193 240 288 346
#     4  10  20  35  57  84 111 145 187 235 285 335
#     4  10  19  33  55  81 107 141 185 231 276 328
#     4  10  21  40  62  86 117 153 190 237 293 348
#
# _framework density 18.617266999999998
#
# number of rings (size 3 to 8) (size 9 to 14) (size 15 to 20)
#    0.000    2.000    1.667    3.500    0.000    4.667 
#    3.000    0.000    0.000    0.000    0.000    0.000 
#    0.000    0.000    0.000    0.000    0.000    0.000 
#
# Total GULP energy -595316.531066 kJ/mol
# GULP energy per Si atom -12402.427731 kJ/mol
# Density = 1.857489 g / cm^3
# Si number density = 18.617267 Si / 1000 Ang^3
#
#
#
# Elastic Constant Matrix: (Units=GPa)
#
#
# Indices 1 2 3 4 5 6 
#
# 1 112.6397 56.8999 28.7883 0.0000 0.0000 0.0000
# 2 56.8999 96.5394 20.0824 0.0000 0.0000 0.0000
# 3 28.7883 20.0824 56.4724 0.0000 0.0000 0.0000
# 4 0.0000 0.0000 0.0000 23.1092 0.0000 0.0000
# 5 0.0000 0.0000 0.0000 0.0000 36.3275 0.0000
# 6 0.0000 0.0000 0.0000 0.0000 0.0000 30.2827
#
#
#
# Elastic Compliance Matrix: (Units=1/GPa)
#
#
# Indices 1 2 3 4 5 6 
#
# 1 0.013585 -0.007091 -0.004404 0.000000 0.000000 0.000000
# 2 -0.007091 0.014887 -0.001679 0.000000 0.000000 0.000000
# 3 -0.004404 -0.001679 0.020550 0.000000 0.000000 0.000000
# 4 0.000000 0.000000 0.000000 0.043273 0.000000 0.000000
# 5 0.000000 0.000000 0.000000 0.000000 0.027527 0.000000
# 6 0.000000 0.000000 0.000000 0.000000 0.000000 0.033022
#
#
# Mechanical properties :
#
#
# Convention : Reuss Voigt Hill
#
# Bulk Modulus (GPa) = 44.10292 53.02140 48.56216
# Shear Modulus (GPa) = 26.77357 28.60262 27.68810
#
# Velocity S-wave (km/s) = 3.79635 3.92388 3.86064
# Velocity P-wave (km/s) = 6.55416 7.00504 6.78335
#
# Compressibility (1/GPa) = 0.02267423
#
# Stress axis : x y z
#
# Youngs Moduli (GPa) = 73.60816 67.17161 48.66200
#
# Poissons Ratio (x) = 0.47632 0.21430
# Poissons Ratio (y) = 0.52196 0.08172
# Poissons Ratio (z) = 0.32416 0.11280
#
# Static dielectric constant tensor:
#      x y z
#    x 3.485130 0.000000 0.000000 
#    y 0.000000 3.454280 0.000000 
#    z 0.000000 0.000000 3.326710 
# 
# 
# High freq. dielectric constant tensor:
#      x y z
#    x 1.730810 0.000000 0.000000 
#    y 0.000000 1.709220 0.000000 
#    z 0.000000 0.000000 1.723010 
# 
# From -- ./inp_files/2862.got.cif
#   From: 2010.03.12/outbox.cif.g09.slc.cpg/sg55_2_cif.got.tgz:2862.got - 2010.04.16 15:19:21.
