data_PCOD8225757
_publ_section_title
;
Structure prediction by ZEFSAII (Michael W. Deem and Ramdas Pophale) SiO2 
 PCOD8225757
Probable space group: P B A M
;
_chemical_formula_sum "Si O2"
_cell_formula_units_Z 56
_cell_length_a 21.754414
_cell_length_b 14.608191
_cell_length_c 8.883335
_cell_angle_alpha 90.000000
_cell_angle_beta 90.000000
_cell_angle_gamma 90.000000
_cell_volume 2823.058436
_symmetry_space_group_name_H-M "P B A M"
_symmetry_group_IT_number 55
_symmetry_cell_setting 'orthorhombic'
loop_
_space_group_symop_operation_xyz
x,y,z
-x,-y,z
1/2+x,1/2-y,-z
1/2-x,1/2+y,-z
-x,-y,-z
x,y,-z
1/2-x,1/2+y,z
1/2+x,1/2-y,z
loop_
_atom_site_type_symbol
_atom_site_label
_atom_site_fract_x
_atom_site_fract_y
_atom_site_fract_z
Si Si1 0.622780 0.905548 0.324228
Si Si2 0.600154 0.109364 0.323512
Si Si3 0.819150 0.072427 0.822702
Si Si4 0.247468 0.113024 0.177022
Si Si5 0.987057 0.274746 0.677781
Si Si6 0.540237 0.585507 0.822308
Si Si7 0.723796 0.200816 0.678503
O O1 0.641646 0.900881 0.500000
O O2 0.681725 0.893366 0.221275
O O3 0.575736 0.826103 0.279127
O O4 0.591073 0.002603 0.286116
O O5 0.599858 0.126046 0.500000
O O6 0.543969 0.167204 0.253625
O O7 0.665530 0.143729 0.259324
O O8 0.889713 0.070954 0.769616
O O9 0.786194 0.157243 0.742268
O O10 0.787828 0.978078 0.770811
O O11 0.813101 0.086844 0.000000
O O12 0.215547 0.196374 0.263261
O O13 0.241538 0.129041 0.000000
O O14 0.992979 0.265346 0.500000
O O15 0.988653 0.175323 0.749674
O O16 0.500000 0.500000 0.765586
O O17 0.536031 0.596141 0.000000
O O18 0.728067 0.200529 0.500000
#
# Coordination Sequence:
#
# PCOD8225757 Si02
#       7
#     8   8   8   8   8   8   8
#     4  10  19  37  62  88 118 153 192 233 287 348
#     4   9  19  36  58  87 119 149 187 238 289 342
#     4  10  22  41  61  84 116 154 194 239 290 343
#     4  11  23  37  58  86 119 154 191 237 291 346
#     4  10  21  37  60  88 116 151 191 236 290 343
#     4  10  23  42  61  81 112 154 197 240 288 342
#     4  11  22  37  60  88 118 153 195 241 290 344
#
# _framework density 19.836641
#
# number of rings (size 3 to 8) (size 9 to 14) (size 15 to 20)
#    0.000    1.857    1.429    2.143    2.000    6.000 
#    0.000    1.429    0.000    1.714    0.000    0.000 
#    0.000    0.000    0.000    0.000    0.000    0.000 
#
# Total GULP energy -694623.558832 kJ/mol
# GULP energy per Si atom -12403.992122 kJ/mol
# Density = 1.979149 g / cm^3
# Si number density = 19.836641 Si / 1000 Ang^3
#
#
#
# Elastic Constant Matrix: (Units=GPa)
#
#
# Indices 1 2 3 4 5 6 
#
# 1 83.9339 27.4160 13.5127 0.0000 0.0000 0.0000
# 2 27.4160 118.5727 16.8282 0.0000 0.0000 0.0000
# 3 13.5127 16.8282 26.8056 0.0000 0.0000 0.0000
# 4 0.0000 0.0000 0.0000 29.6477 0.0000 0.0000
# 5 0.0000 0.0000 0.0000 0.0000 25.8452 0.0000
# 6 0.0000 0.0000 0.0000 0.0000 0.0000 34.2021
#
#
#
# Elastic Compliance Matrix: (Units=1/GPa)
#
#
# Indices 1 2 3 4 5 6 
#
# 1 0.013550 -0.002375 -0.005339 0.000000 0.000000 0.000000
# 2 -0.002375 0.009675 -0.004876 0.000000 0.000000 0.000000
# 3 -0.005339 -0.004876 0.043059 0.000000 0.000000 0.000000
# 4 0.000000 0.000000 0.000000 0.033729 0.000000 0.000000
# 5 0.000000 0.000000 0.000000 0.000000 0.038692 0.000000
# 6 0.000000 0.000000 0.000000 0.000000 0.000000 0.029238
#
#
# Mechanical properties :
#
#
# Convention : Reuss Voigt Hill
#
# Bulk Modulus (GPa) = 24.33010 38.31397 31.32204
# Shear Modulus (GPa) = 24.17510 29.37603 26.77556
#
# Velocity S-wave (km/s) = 3.49479 3.85242 3.67795
# Velocity P-wave (km/s) = 5.34571 6.25658 5.81900
#
# Compressibility (1/GPa) = 0.04110135
#
# Stress axis : x y z
#
# Youngs Moduli (GPa) = 73.80340 103.36030 23.22416
#
# Poissons Ratio (x) = 0.24549 0.12400
# Poissons Ratio (y) = 0.17529 0.11325
# Poissons Ratio (z) = 0.39405 0.50404
#
# Static dielectric constant tensor:
#      x y z
#    x 3.800440 0.000000 0.000000 
#    y 0.000000 3.804460 0.000000 
#    z 0.000000 0.000000 3.330220 
# 
# 
# High freq. dielectric constant tensor:
#      x y z
#    x 1.783500 0.000000 0.000000 
#    y 0.000000 1.790450 0.000000 
#    z 0.000000 0.000000 1.749710 
# 
# From -- ./inp_files/6146.got.cif
#   From: 2010.03.12/outbox.cif.g09.slc.cpg/sg55_4_cif.got.tgz:6146.got - 2010.04.16 15:19:21.
