data_PCOD8225071
_publ_section_title
;
Structure prediction by ZEFSAII (Michael W. Deem and Ramdas Pophale) SiO2 
 PCOD8225071
Probable space group: P B A M
;
_chemical_formula_sum "Si O2"
_cell_formula_units_Z 48
_cell_length_a 9.406123
_cell_length_b 29.372350
_cell_length_c 9.268423
_cell_angle_alpha 90.000000
_cell_angle_beta 90.000000
_cell_angle_gamma 90.000000
_cell_volume 2560.679322
_symmetry_space_group_name_H-M "P B A M"
_symmetry_group_IT_number 55
_symmetry_cell_setting 'orthorhombic'
loop_
_space_group_symop_operation_xyz
x,y,z
-x,-y,z
1/2+x,1/2-y,-z
1/2-x,1/2+y,-z
-x,-y,-z
x,y,-z
1/2-x,1/2+y,z
1/2+x,1/2-y,z
loop_
_atom_site_type_symbol
_atom_site_label
_atom_site_fract_x
_atom_site_fract_y
_atom_site_fract_z
Si Si1 0.978843 0.374509 0.331107
Si Si2 0.299512 0.212086 0.671272
Si Si3 0.879590 0.462883 0.166192
Si Si4 0.302868 0.381817 0.331086
Si Si5 0.478628 0.297431 0.672616
Si Si6 0.341593 0.482851 0.662088
O O1 0.955850 0.384153 0.500000
O O2 0.889069 0.331418 0.277374
O O3 0.925628 0.417297 0.243569
O O4 0.143757 0.365102 0.296040
O O5 0.294587 0.214191 0.500000
O O6 0.378496 0.256862 0.731567
O O7 0.138799 0.208908 0.732517
O O8 0.737231 0.481374 0.237576
O O9 0.000000 0.500000 0.188632
O O10 0.849732 0.452269 0.000000
O O11 0.330135 0.384621 0.500000
O O12 0.413711 0.344915 0.266851
O O13 0.331414 0.432269 0.267477
O O14 0.479006 0.297076 0.500000
O O15 0.500000 0.500000 0.654578
O O16 0.275095 0.482478 0.500000
#
# Coordination Sequence:
#
# PCOD8225071 Si02
#       6
#     8   8   8   8   8   8
#     4  10  19  32  53  78 104 138 178 220 268 313
#     4   9  17  27  45  73 106 139 169 211 264 319
#     4  11  23  38  55  77 107 145 184 222 267 321
#     4   9  17  29  46  72 106 138 169 215 265 312
#     4   9  16  27  43  71 109 139 168 209 264 319
#     4  10  21  35  55  81 109 141 179 224 272 319
#
# _framework density 18.745027
#
# number of rings (size 3 to 8) (size 9 to 14) (size 15 to 20)
#    0.000    2.333    1.667    1.500    2.333    5.000 
#    0.000    0.000    0.000    0.000    0.000    5.833 
#    0.000    0.000    0.000    0.000    0.000    0.000 
#
# Total GULP energy -595148.922755 kJ/mol
# GULP energy per Si atom -12398.935891 kJ/mol
# Density = 1.870236 g / cm^3
# Si number density = 18.745027 Si / 1000 Ang^3
#
#
#
# Elastic Constant Matrix: (Units=GPa)
#
#
# Indices 1 2 3 4 5 6 
#
# 1 109.9317 37.4066 30.1639 0.0000 0.0000 0.0000
# 2 37.4066 97.3779 35.4362 0.0000 0.0000 0.0000
# 3 30.1639 35.4362 31.7555 0.0000 0.0000 0.0000
# 4 0.0000 0.0000 0.0000 -74.3112 0.0000 0.0000
# 5 0.0000 0.0000 0.0000 0.0000 2.1519 0.0000
# 6 0.0000 0.0000 0.0000 0.0000 0.0000 40.4239
#
#
#
# Elastic Compliance Matrix: (Units=1/GPa)
#
#
# Indices 1 2 3 4 5 6 
#
# 1 0.012340 -0.000799 -0.010830 0.000000 0.000000 0.000000
# 2 -0.000799 0.017343 -0.018593 0.000000 0.000000 0.000000
# 3 -0.010830 -0.018593 0.062526 0.000000 0.000000 0.000000
# 4 0.000000 0.000000 0.000000 -0.013457 0.000000 0.000000
# 5 0.000000 0.000000 0.000000 0.000000 0.464714 0.000000
# 6 0.000000 0.000000 0.000000 0.000000 0.000000 0.024738
#
#
# Mechanical properties :
#
#
# Convention : Reuss Voigt Hill
#
# Bulk Modulus (GPa) = 31.48226 49.45318 40.46772
# Shear Modulus (GPa) = 7.82184 2.72348 5.27266
#
# Velocity S-wave (km/s) = 2.04495 1.20667 1.67897
# Velocity P-wave (km/s) = 4.73363 5.32736 5.03924
#
# Compressibility (1/GPa) = 0.03176392
#
# Stress axis : x y z
#
# Youngs Moduli (GPa) = 81.03690 57.66165 15.99335
#
# Poissons Ratio (x) = 0.04609 0.17320
# Poissons Ratio (y) = 0.06478 0.29737
# Poissons Ratio (z) = 0.87759 1.07213
#
# Static dielectric constant tensor:
#      x y z
#    x 3.705790 0.000000 0.000000 
#    y 0.000000 3.579330 0.000000 
#    z 0.000000 0.000000 2.903520 
# 
# 
# High freq. dielectric constant tensor:
#      x y z
#    x 1.740740 0.000000 0.000000 
#    y 0.000000 1.745990 0.000000 
#    z 0.000000 0.000000 1.658300 
# 
# From -- ./inp_files/2866.got.cif
#   From: 2010.03.12/outbox.cif.g09.slc.cpg/sg55_2_cif.got.tgz:2866.got - 2010.04.16 15:19:21.
