data_PCOD8225712
_publ_section_title
;
Structure prediction by ZEFSAII (Michael W. Deem and Ramdas Pophale) SiO2 
 PCOD8225712
Probable space group: P B A M
;
_chemical_formula_sum "Si O2"
_cell_formula_units_Z 64
_cell_length_a 30.660839
_cell_length_b 11.887409
_cell_length_c 9.106027
_cell_angle_alpha 90.000000
_cell_angle_beta 90.000000
_cell_angle_gamma 90.000000
_cell_volume 3318.945903
_symmetry_space_group_name_H-M "P B A M"
_symmetry_group_IT_number 55
_symmetry_cell_setting 'orthorhombic'
loop_
_space_group_symop_operation_xyz
x,y,z
-x,-y,z
1/2+x,1/2-y,-z
1/2-x,1/2+y,-z
-x,-y,-z
x,y,-z
1/2-x,1/2+y,z
1/2+x,1/2-y,z
loop_
_atom_site_type_symbol
_atom_site_label
_atom_site_fract_x
_atom_site_fract_y
_atom_site_fract_z
Si Si1 0.951477 0.512227 0.674130
Si Si2 0.625282 0.606730 0.174320
Si Si3 0.328894 0.765489 0.165080
Si Si4 0.048187 0.021067 0.667241
Si Si5 0.201045 0.484050 0.327217
Si Si6 0.710974 0.470430 0.165405
Si Si7 0.624890 0.847055 0.326040
Si Si8 0.087440 0.254869 0.666641
O O1 0.954428 0.514155 0.500000
O O2 0.919265 0.411812 0.723959
O O3 0.933084 0.630951 0.730503
O O4 0.000000 0.500000 0.742038
O O5 0.583010 0.543009 0.233819
O O6 0.668505 0.538005 0.221627
O O7 0.627869 0.730513 0.241351
O O8 0.621509 0.614682 0.000000
O O9 0.313250 0.864352 0.268105
O O10 0.295325 0.663105 0.168671
O O11 0.373889 0.717196 0.227162
O O12 0.334963 0.810596 0.000000
O O13 0.053010 0.976452 0.500000
O O14 0.052597 0.155470 0.672505
O O15 0.000000 0.000000 0.729801
O O16 0.202080 0.475872 0.500000
O O17 0.249267 0.507512 0.272194
O O18 0.166742 0.579294 0.277557
O O19 0.722571 0.509960 0.000000
O O20 0.624775 0.825133 0.500000
O O21 0.104500 0.273699 0.500000
#
# Coordination Sequence:
#
# PCOD8225712 Si02
#       8
#     8   8   8   8   8   8   8   8
#     4   9  18  34  60  88 117 154 193 242 297 350
#     4  11  24  42  61  85 122 162 201 243 297 360
#     4  11  22  40  64  87 119 158 197 244 299 358
#     4  10  22  38  62  93 122 156 202 251 299 354
#     4  11  24  41  63  92 121 153 198 252 303 353
#     4  10  24  43  61  86 119 160 202 242 296 360
#     4  10  22  40  60  87 121 154 198 248 297 353
#     4  10  19  36  61  89 118 152 201 251 295 346
#
# _framework density 19.283231000000001
#
# number of rings (size 3 to 8) (size 9 to 14) (size 15 to 20)
#    0.000    1.750    2.500    1.125    3.500    3.250 
#    0.000    0.000    0.000    0.750    0.000    0.000 
#    0.000    0.000    0.000    0.000    0.000    0.000 
#
# Total GULP energy -793674.720455 kJ/mol
# GULP energy per Si atom -12401.167507 kJ/mol
# Density = 1.923934 g / cm^3
# Si number density = 19.283231 Si / 1000 Ang^3
#
#
#
# Elastic Constant Matrix: (Units=GPa)
#
#
# Indices 1 2 3 4 5 6 
#
# 1 139.2861 50.6391 51.2497 0.0000 0.0000 0.0000
# 2 50.6391 122.3967 42.5197 0.0000 0.0000 0.0000
# 3 51.2497 42.5197 59.5712 0.0000 0.0000 0.0000
# 4 0.0000 0.0000 0.0000 29.1119 0.0000 0.0000
# 5 0.0000 0.0000 0.0000 0.0000 35.4783 0.0000
# 6 0.0000 0.0000 0.0000 0.0000 0.0000 26.8706
#
#
#
# Elastic Compliance Matrix: (Units=1/GPa)
#
#
# Indices 1 2 3 4 5 6 
#
# 1 0.010747 -0.001641 -0.008074 0.000000 0.000000 0.000000
# 2 -0.001641 0.011115 -0.006521 0.000000 0.000000 0.000000
# 3 -0.008074 -0.006521 0.028387 0.000000 0.000000 0.000000
# 4 0.000000 0.000000 0.000000 0.034350 0.000000 0.000000
# 5 0.000000 0.000000 0.000000 0.000000 0.028186 0.000000
# 6 0.000000 0.000000 0.000000 0.000000 0.000000 0.037215
#
#
# Mechanical properties :
#
#
# Convention : Reuss Voigt Hill
#
# Bulk Modulus (GPa) = 56.25653 67.78567 62.02110
# Shear Modulus (GPa) = 26.53930 30.08185 28.31057
#
# Velocity S-wave (km/s) = 3.71386 3.95397 3.83579
# Velocity P-wave (km/s) = 6.90127 7.48827 7.20075
#
# Compressibility (1/GPa) = 0.01777571
#
# Stress axis : x y z
#
# Youngs Moduli (GPa) = 93.04822 89.97142 35.22684
#
# Poissons Ratio (x) = 0.14768 0.28443
# Poissons Ratio (y) = 0.15274 0.22972
# Poissons Ratio (z) = 0.75129 0.58671
#
# Static dielectric constant tensor:
#      x y z
#    x 5.617760 0.000000 0.000000 
#    y 0.000000 3.660530 0.000000 
#    z 0.000000 0.000000 3.466640 
# 
# 
# High freq. dielectric constant tensor:
#      x y z
#    x 1.758230 0.000000 0.000000 
#    y 0.000000 1.763580 0.000000 
#    z 0.000000 0.000000 1.735090 
# 
# From -- ./inp_files/4590.got.cif
#   From: 2010.03.12/outbox.cif.g09.slc.cpg/sg55_3_cif.got.tgz:4590.got - 2010.04.16 15:19:21.
