data_PCOD8225785
_publ_section_title
;
Structure prediction by ZEFSAII (Michael W. Deem and Ramdas Pophale) SiO2 
 PCOD8225785
Probable space group: P B A M
;
_chemical_formula_sum "Si O2"
_cell_formula_units_Z 48
_cell_length_a 27.734653
_cell_length_b 10.094475
_cell_length_c 8.746846
_cell_angle_alpha 90.000000
_cell_angle_beta 90.000000
_cell_angle_gamma 90.000000
_cell_volume 2448.826147
_symmetry_space_group_name_H-M "P B A M"
_symmetry_group_IT_number 55
_symmetry_cell_setting 'orthorhombic'
loop_
_space_group_symop_operation_xyz
x,y,z
-x,-y,z
1/2+x,1/2-y,-z
1/2-x,1/2+y,-z
-x,-y,-z
x,y,-z
1/2-x,1/2+y,z
1/2+x,1/2-y,z
loop_
_atom_site_type_symbol
_atom_site_label
_atom_site_fract_x
_atom_site_fract_y
_atom_site_fract_z
Si Si1 0.357156 0.972755 0.681687
Si Si2 0.541954 0.401514 0.680052
Si Si3 0.461252 0.897965 0.680857
Si Si4 0.680743 0.746099 0.319064
Si Si5 0.791310 0.764318 0.680835
Si Si6 0.643122 0.483215 0.819698
O O1 0.357428 0.969058 0.500000
O O2 0.409228 0.935234 0.749862
O O3 0.319098 0.864935 0.741929
O O4 0.342390 0.117229 0.739483
O O5 0.500000 0.500000 0.736867
O O6 0.550913 0.416108 0.500000
O O7 0.525253 0.252835 0.723563
O O8 0.591747 0.432635 0.762061
O O9 0.459629 0.915748 0.500000
O O10 0.500000 0.000000 0.752166
O O11 0.675431 0.727147 0.500000
O O12 0.736296 0.746567 0.268562
O O13 0.651152 0.632198 0.235760
O O14 0.795897 0.782641 0.500000
O O15 0.813437 0.894752 0.755939
O O16 0.643646 0.477274 0.000000
#
# Coordination Sequence:
#
# PCOD8225785 Si02
#       6
#     8   8   8   8   8   8
#     4   9  17  31  55  84 113 142 181 246 303 337
#     4  10  21  38  63  88 112 150 202 255 301 350
#     4   9  17  30  53  86 115 135 174 241 304 346
#     4  10  21  36  61  90 115 150 200 249 291 342
#     4  10  19  38  63  87 114 149 200 252 292 341
#     4  12  25  39  57  85 127 167 194 235 297 365
#
# _framework density 19.601227999999999
#
# number of rings (size 3 to 8) (size 9 to 14) (size 15 to 20)
#    0.000    2.000    1.667    2.500    2.333    3.667 
#    0.000    0.833    0.000    0.500    0.000    0.000 
#    0.000    0.000    0.000    0.000    0.000    0.000 
#
# Total GULP energy -595292.001576 kJ/mol
# GULP energy per Si atom -12401.916700 kJ/mol
# Density = 1.955661 g / cm^3
# Si number density = 19.601228 Si / 1000 Ang^3
#
#
#
# Elastic Constant Matrix: (Units=GPa)
#
#
# Indices 1 2 3 4 5 6 
#
# 1 114.8155 60.5995 19.9033 0.0000 0.0000 0.0000
# 2 60.5995 161.1181 21.3793 0.0000 0.0000 0.0000
# 3 19.9033 21.3793 37.5387 0.0000 0.0000 0.0000
# 4 0.0000 0.0000 0.0000 5.2856 0.0000 0.0000
# 5 0.0000 0.0000 0.0000 0.0000 0.2259 0.0000
# 6 0.0000 0.0000 0.0000 0.0000 0.0000 46.2586
#
#
#
# Elastic Compliance Matrix: (Units=1/GPa)
#
#
# Indices 1 2 3 4 5 6 
#
# 1 0.011368 -0.003760 -0.003886 0.000000 0.000000 0.000000
# 2 -0.003760 0.007958 -0.002539 0.000000 0.000000 0.000000
# 3 -0.003886 -0.002539 0.030145 0.000000 0.000000 0.000000
# 4 0.000000 0.000000 0.000000 0.189195 0.000000 0.000000
# 5 0.000000 0.000000 0.000000 0.000000 4.427497 0.000000
# 6 0.000000 0.000000 0.000000 0.000000 0.000000 0.021618
#
#
# Mechanical properties :
#
#
# Convention : Reuss Voigt Hill
#
# Bulk Modulus (GPa) = 34.36197 57.47074 45.91635
# Shear Modulus (GPa) = 1.05981 24.46002 12.75991
#
# Velocity S-wave (km/s) = 0.73611 3.53637 2.55419
# Velocity P-wave (km/s) = 4.27680 6.78662 5.67227
#
# Compressibility (1/GPa) = 0.02910194
#
# Stress axis : x y z
#
# Youngs Moduli (GPa) = 87.96809 125.66480 33.17267
#
# Poissons Ratio (x) = 0.47250 0.12890
# Poissons Ratio (y) = 0.33076 0.08421
# Poissons Ratio (z) = 0.34183 0.31901
#
# Static dielectric constant tensor:
#      x y z
#    x 3.785190 0.000000 0.000000 
#    y 0.000000 3.859970 0.000000 
#    z 0.000000 0.000000 3.066420 
# 
# 
# High freq. dielectric constant tensor:
#      x y z
#    x 1.776490 0.000000 0.000000 
#    y 0.000000 1.784240 0.000000 
#    z 0.000000 0.000000 1.710580 
# 
# From -- ./inp_files/10535.got.cif
#   From: 2010.03.12/outbox.cif.g09.slc.cpg/sg55_6_cif.got.tgz:10535.got - 2010.04.16 15:19:21.
