data_PCOD8225461
_publ_section_title
;
Structure prediction by ZEFSAII (Michael W. Deem and Ramdas Pophale) SiO2 
 PCOD8225461
Probable space group: P B A M
;
_chemical_formula_sum "Si O2"
_cell_formula_units_Z 48
_cell_length_a 17.615408
_cell_length_b 8.916435
_cell_length_c 16.676375
_cell_angle_alpha 90.000000
_cell_angle_beta 90.000000
_cell_angle_gamma 90.000000
_cell_volume 2619.302196
_symmetry_space_group_name_H-M "P B A M"
_symmetry_group_IT_number 55
_symmetry_cell_setting 'orthorhombic'
loop_
_space_group_symop_operation_xyz
x,y,z
-x,-y,z
1/2+x,1/2-y,-z
1/2-x,1/2+y,-z
-x,-y,-z
x,y,-z
1/2-x,1/2+y,z
1/2+x,1/2-y,z
loop_
_atom_site_type_symbol
_atom_site_label
_atom_site_fract_x
_atom_site_fract_y
_atom_site_fract_z
Si Si1 0.416532 0.938543 0.089374
Si Si2 0.450928 0.648811 0.408748
Si Si3 0.537414 0.843952 0.286383
Si Si4 0.665031 0.344837 0.279045
Si Si5 0.822721 0.497414 0.243523
Si Si6 0.037128 0.147161 0.840810
O O1 0.354473 0.004546 0.151760
O O2 0.424931 0.757617 0.094419
O O3 0.500000 0.000000 0.106779
O O4 0.388302 0.981032 0.000000
O O5 0.500000 0.500000 0.402595
O O6 0.436121 0.696594 0.500000
O O7 0.498761 0.782092 0.366973
O O8 0.368304 0.621922 0.367866
O O9 0.526632 0.730169 0.212658
O O10 0.500000 0.000000 0.259726
O O11 0.626247 0.884083 0.297615
O O12 0.738958 0.435566 0.254365
O O13 0.675453 0.166573 0.274469
O O14 0.602536 0.407971 0.218610
O O15 0.000000 0.000000 0.882310
#
# Coordination Sequence:
#
# PCOD8225461 Si02
#       6
#     8   8   8   8   8   8
#     4  10  19  36  59  84 115 151 193 245 294 339
#     4  10  22  40  60  86 117 148 191 246 296 341
#     4  11  17  36  59  82 109 148 199 237 278 347
#     4  10  22  35  56  84 113 155 191 239 281 349
#     4  11  21  36  56  86 115 148 200 234 287 354
#     4  10  19  34  57  84 114 151 200 243 280 348
#
# _framework density 18.325491
#
# number of rings (size 3 to 8) (size 9 to 14) (size 15 to 20)
#    0.000    1.667    6.667    2.000    4.667    0.667 
#    0.000    5.000    0.000    0.000    0.000    0.000 
#    0.000    0.000    0.000    0.000    0.000    0.000 
#
# Total GULP energy -594788.236890 kJ/mol
# GULP energy per Si atom -12391.421602 kJ/mol
# Density = 1.828378 g / cm^3
# Si number density = 18.325491 Si / 1000 Ang^3
#
#
#
# Elastic Constant Matrix: (Units=GPa)
#
#
# Indices 1 2 3 4 5 6 
#
# 1 97.1083 51.7687 41.8359 0.0000 0.0000 0.0000
# 2 51.7687 73.4984 33.4084 0.0000 0.0000 0.0000
# 3 41.8359 33.4084 117.3050 0.0000 0.0000 0.0000
# 4 0.0000 0.0000 0.0000 15.4953 0.0000 0.0000
# 5 0.0000 0.0000 0.0000 0.0000 13.9743 0.0000
# 6 0.0000 0.0000 0.0000 0.0000 0.0000 36.9675
#
#
#
# Elastic Compliance Matrix: (Units=1/GPa)
#
#
# Indices 1 2 3 4 5 6 
#
# 1 0.017433 -0.010858 -0.003125 0.000000 0.000000 0.000000
# 2 -0.010858 0.022392 -0.002505 0.000000 0.000000 0.000000
# 3 -0.003125 -0.002505 0.010353 0.000000 0.000000 0.000000
# 4 0.000000 0.000000 0.000000 0.064536 0.000000 0.000000
# 5 0.000000 0.000000 0.000000 0.000000 0.071560 0.000000
# 6 0.000000 0.000000 0.000000 0.000000 0.000000 0.027051
#
#
# Mechanical properties :
#
#
# Convention : Reuss Voigt Hill
#
# Bulk Modulus (GPa) = 58.13352 60.21529 59.17441
# Shear Modulus (GPa) = 19.83860 24.01398 21.92629
#
# Velocity S-wave (km/s) = 3.29381 3.62389 3.46279
# Velocity P-wave (km/s) = 6.80127 7.10213 6.95332
#
# Compressibility (1/GPa) = 0.01720178
#
# Stress axis : x y z
#
# Youngs Moduli (GPa) = 57.36376 44.65801 96.59442
#
# Poissons Ratio (x) = 0.48491 0.30183
# Poissons Ratio (y) = 0.62288 0.24195
# Poissons Ratio (z) = 0.17925 0.11186
#
# Static dielectric constant tensor:
#      x y z
#    x 3.600810 0.000000 0.000000 
#    y 0.000000 3.542190 0.000000 
#    z 0.000000 0.000000 3.330720 
# 
# 
# High freq. dielectric constant tensor:
#      x y z
#    x 1.698880 0.000000 0.000000 
#    y 0.000000 1.720180 0.000000 
#    z 0.000000 0.000000 1.689990 
# 
# From -- ./inp_files/20906.got.cif
#   From: 2010.03.12/outbox.cif.g09.slc.cpg/sg55_11_cif.got.tgz:20906.got - 2010.04.16 15:19:21.
