data_PCOD8225308
_publ_section_title
;
Structure prediction by ZEFSAII (Michael W. Deem and Ramdas Pophale) SiO2 
 PCOD8225308
Probable space group: P B A M
;
_chemical_formula_sum "Si O2"
_cell_formula_units_Z 64
_cell_length_a 15.180087
_cell_length_b 24.943617
_cell_length_c 8.975365
_cell_angle_alpha 90.000000
_cell_angle_beta 90.000000
_cell_angle_gamma 90.000000
_cell_volume 3398.488534
_symmetry_space_group_name_H-M "P B A M"
_symmetry_group_IT_number 55
_symmetry_cell_setting 'orthorhombic'
loop_
_space_group_symop_operation_xyz
x,y,z
-x,-y,z
1/2+x,1/2-y,-z
1/2-x,1/2+y,-z
-x,-y,-z
x,y,-z
1/2-x,1/2+y,z
1/2+x,1/2-y,z
loop_
_atom_site_type_symbol
_atom_site_label
_atom_site_fract_x
_atom_site_fract_y
_atom_site_fract_z
Si Si1 0.002495 0.603784 0.823010
Si Si2 0.519927 0.663480 0.176454
Si Si3 0.763716 0.257082 0.831632
Si Si4 0.536797 0.780623 0.832965
Si Si5 0.698583 0.648948 0.674763
Si Si6 0.829011 0.860355 0.175421
Si Si7 0.690044 0.946022 0.176171
Si Si8 0.333801 0.943457 0.324399
O O1 0.997819 0.665108 0.758806
O O2 0.096461 0.579023 0.779803
O O3 0.928498 0.568330 0.746192
O O4 0.989355 0.602424 0.000000
O O5 0.508097 0.724273 0.242310
O O6 0.604066 0.635767 0.251308
O O7 0.432030 0.629541 0.213974
O O8 0.538415 0.666860 0.000000
O O9 0.858196 0.285516 0.830499
O O10 0.760098 0.204543 0.730563
O O11 0.697684 0.301508 0.763151
O O12 0.737971 0.240063 0.000000
O O13 0.500149 0.779858 0.000000
O O14 0.684273 0.652331 0.500000
O O15 0.765117 0.602380 0.721411
O O16 0.768221 0.907755 0.239206
O O17 0.812793 0.857833 0.000000
O O18 0.704050 0.001784 0.259194
O O19 0.697945 0.955174 0.000000
O O20 0.345131 0.948121 0.500000
#
# Coordination Sequence:
#
# PCOD8225308 Si02
#       8
#     8   8   8   8   8   8   8   8
#     4  10  19  33  56  85 112 141 178 220 270 330
#     4   9  18  33  57  85 112 142 177 220 273 331
#     4   9  16  31  57  83 109 140 173 215 270 329
#     4   8  14  27  49  81 113 137 166 205 256 321
#     4  10  22  39  53  73 110 149 187 231 270 312
#     4   9  17  32  58  89 113 135 173 226 275 323
#     4  10  20  37  59  83 111 140 178 227 275 324
#     4  11  25  40  53  73 107 150 193 232 270 316
#
# _framework density 18.831900999999998
#
# number of rings (size 3 to 8) (size 9 to 14) (size 15 to 20)
#    0.000    2.500    1.250    1.875    1.750    4.000 
#    0.000    5.000    0.000    3.750    0.000    0.000 
#    0.000    0.000    0.000    0.000    0.000    0.000 
#
# Total GULP energy -793342.393141 kJ/mol
# GULP energy per Si atom -12395.974893 kJ/mol
# Density = 1.878904 g / cm^3
# Si number density = 18.831901 Si / 1000 Ang^3
#
#
#
# Elastic Constant Matrix: (Units=GPa)
#
#
# Indices 1 2 3 4 5 6 
#
# 1 97.2108 57.0972 34.1065 0.0000 0.0000 0.0000
# 2 57.0972 110.7819 34.6044 0.0000 0.0000 0.0000
# 3 34.1065 34.6044 38.6933 0.0000 0.0000 0.0000
# 4 0.0000 0.0000 0.0000 15.4104 0.0000 0.0000
# 5 0.0000 0.0000 0.0000 0.0000 10.6841 0.0000
# 6 0.0000 0.0000 0.0000 0.0000 0.0000 28.3685
#
#
#
# Elastic Compliance Matrix: (Units=1/GPa)
#
#
# Indices 1 2 3 4 5 6 
#
# 1 0.017156 -0.005715 -0.010011 0.000000 0.000000 0.000000
# 2 -0.005715 0.014430 -0.007867 0.000000 0.000000 0.000000
# 3 -0.010011 -0.007867 0.041705 0.000000 0.000000 0.000000
# 4 0.000000 0.000000 0.000000 0.064891 0.000000 0.000000
# 5 0.000000 0.000000 0.000000 0.000000 0.093597 0.000000
# 6 0.000000 0.000000 0.000000 0.000000 0.000000 0.035250
#
#
# Mechanical properties :
#
#
# Convention : Reuss Voigt Hill
#
# Bulk Modulus (GPa) = 38.30930 55.36693 46.83811
# Shear Modulus (GPa) = 15.48382 18.95113 17.21748
#
# Velocity S-wave (km/s) = 2.87054 3.17571 3.02697
# Velocity P-wave (km/s) = 5.60121 6.55067 6.09446
#
# Compressibility (1/GPa) = 0.02610332
#
# Stress axis : x y z
#
# Youngs Moduli (GPa) = 58.28792 69.30091 23.97809
#
# Poissons Ratio (x) = 0.39607 0.24005
# Poissons Ratio (y) = 0.33313 0.18864
# Poissons Ratio (z) = 0.58354 0.54521
#
# Static dielectric constant tensor:
#      x y z
#    x 3.480200 0.000000 0.000000 
#    y 0.000000 3.535970 0.000000 
#    z 0.000000 0.000000 3.076260 
# 
# 
# High freq. dielectric constant tensor:
#      x y z
#    x 1.735720 0.000000 0.000000 
#    y 0.000000 1.731640 0.000000 
#    z 0.000000 0.000000 1.690660 
# 
# From -- ./inp_files/6539.got.cif
#   From: 2010.03.12/outbox.cif.g09.slc.cpg/sg55_4_cif.got.tgz:6539.got - 2010.04.16 15:19:21.
