data_PCOD8225888
_publ_section_title
;
Structure prediction by ZEFSAII (Michael W. Deem and Ramdas Pophale) SiO2 
 PCOD8225888
Probable space group: P B A M
;
_chemical_formula_sum "Si O2"
_cell_formula_units_Z 64
_cell_length_a 19.118054
_cell_length_b 23.058016
_cell_length_c 8.773996
_cell_angle_alpha 90.000000
_cell_angle_beta 90.000000
_cell_angle_gamma 90.000000
_cell_volume 3867.791479
_symmetry_space_group_name_H-M "P B A M"
_symmetry_group_IT_number 55
_symmetry_cell_setting 'orthorhombic'
loop_
_space_group_symop_operation_xyz
x,y,z
-x,-y,z
1/2+x,1/2-y,-z
1/2-x,1/2+y,-z
-x,-y,-z
x,y,-z
1/2-x,1/2+y,z
1/2+x,1/2-y,z
loop_
_atom_site_type_symbol
_atom_site_label
_atom_site_fract_x
_atom_site_fract_y
_atom_site_fract_z
Si Si1 0.489502 0.376651 0.821764
Si Si2 0.858758 0.064605 0.676247
Si Si3 0.162241 0.737338 0.321995
Si Si4 0.490746 0.252000 0.680539
Si Si5 0.251864 0.844504 0.677129
Si Si6 0.703389 0.323696 0.677124
Si Si7 0.872973 0.716527 0.178716
Si Si8 0.882188 0.933864 0.323193
O O1 0.415303 0.404360 0.781492
O O2 0.503529 0.318264 0.728610
O O3 0.549452 0.422492 0.777356
O O4 0.492637 0.362866 0.000000
O O5 0.880352 0.074316 0.500000
O O6 0.782511 0.092743 0.707981
O O7 0.852718 0.997108 0.717730
O O8 0.151094 0.745159 0.500000
O O9 0.197901 0.796066 0.259320
O O10 0.213696 0.683197 0.283771
O O11 0.084448 0.730022 0.252937
O O12 0.495730 0.247954 0.500000
O O13 0.549642 0.210374 0.751205
O O14 0.267294 0.833884 0.500000
O O15 0.325345 0.837218 0.764395
O O16 0.690500 0.308781 0.500000
O O17 0.658815 0.278334 0.773651
O O18 0.679477 0.388567 0.717518
O O19 0.879340 0.713526 0.000000
O O20 0.903665 0.929563 0.500000
#
# Coordination Sequence:
#
# PCOD8225888 Si02
#       8
#     8   8   8   8   8   8   8   8
#     4  12  23  32  44  68 102 135 166 203 242 282
#     4  10  20  35  52  70  93 130 175 205 234 285
#     4   8  15  28  49  70  89 118 157 196 236 284
#     4  11  19  32  51  70  94 130 165 198 238 290
#     4   9  17  33  51  68  92 125 163 201 240 286
#     4   9  17  32  50  70  94 125 159 196 242 289
#     4  11  21  31  46  72  99 123 156 199 247 294
#     4  10  20  33  52  71  94 131 170 204 238 285
#
# _framework density 16.546911000000001
#
# number of rings (size 3 to 8) (size 9 to 14) (size 15 to 20)
#    0.000    2.000    2.500    3.750    0.000    2.500 
#    0.000    0.625    0.000    0.000    0.000    0.875 
#    0.000    7.000    0.000    0.000    0.000    0.000 
#
# Total GULP energy -793482.375985 kJ/mol
# GULP energy per Si atom -12398.162125 kJ/mol
# Density = 1.650925 g / cm^3
# Si number density = 16.546911 Si / 1000 Ang^3
#
#
#
# Elastic Constant Matrix: (Units=GPa)
#
#
# Indices 1 2 3 4 5 6 
#
# 1 93.8668 18.1233 28.9760 0.0000 0.0000 0.0000
# 2 18.1233 46.4238 13.3451 0.0000 0.0000 0.0000
# 3 28.9760 13.3451 67.8407 0.0000 0.0000 0.0000
# 4 0.0000 0.0000 0.0000 8.2956 0.0000 0.0000
# 5 0.0000 0.0000 0.0000 0.0000 9.8441 0.0000
# 6 0.0000 0.0000 0.0000 0.0000 0.0000 23.9184
#
#
#
# Elastic Compliance Matrix: (Units=1/GPa)
#
#
# Indices 1 2 3 4 5 6 
#
# 1 0.012826 -0.003638 -0.004763 0.000000 0.000000 0.000000
# 2 -0.003638 0.023864 -0.003140 0.000000 0.000000 0.000000
# 3 -0.004763 -0.003140 0.017392 0.000000 0.000000 0.000000
# 4 0.000000 0.000000 0.000000 0.120545 0.000000 0.000000
# 5 0.000000 0.000000 0.000000 0.000000 0.101584 0.000000
# 6 0.000000 0.000000 0.000000 0.000000 0.000000 0.041809
#
#
# Mechanical properties :
#
#
# Convention : Reuss Voigt Hill
#
# Bulk Modulus (GPa) = 32.25809 36.55779 34.40794
# Shear Modulus (GPa) = 14.22737 18.25742 16.24240
#
# Velocity S-wave (km/s) = 2.93545 3.32531 3.13644
# Velocity P-wave (km/s) = 5.57014 6.07330 5.82715
#
# Compressibility (1/GPa) = 0.03099997
#
# Stress axis : x y z
#
# Youngs Moduli (GPa) = 77.96679 41.90469 57.49653
#
# Poissons Ratio (x) = 0.15245 0.27383
# Poissons Ratio (y) = 0.28365 0.18056
# Poissons Ratio (z) = 0.37132 0.13160
#
# Static dielectric constant tensor:
#      x y z
#    x 3.402430 0.000000 0.000000 
#    y 0.000000 3.010670 0.000000 
#    z 0.000000 0.000000 2.960300 
# 
# 
# High freq. dielectric constant tensor:
#      x y z
#    x 1.638650 0.000000 0.000000 
#    y 0.000000 1.604470 0.000000 
#    z 0.000000 0.000000 1.625450 
# 
# From -- ./inp_files/8189.got.cif
#   From: 2010.03.12/outbox.cif.g09.slc.cpg/sg55_5_cif.got.tgz:8189.got - 2010.04.16 15:19:21.
