data_PCOD8225384
_publ_section_title
;
Structure prediction by ZEFSAII (Michael W. Deem and Ramdas Pophale) SiO2 
 PCOD8225384
Probable space group: P B A M
;
_chemical_formula_sum "Si O2"
_cell_formula_units_Z 64
_cell_length_a 19.715002
_cell_length_b 19.640352
_cell_length_c 9.219893
_cell_angle_alpha 90.000000
_cell_angle_beta 90.000000
_cell_angle_gamma 90.000000
_cell_volume 3570.030887
_symmetry_space_group_name_H-M "P B A M"
_symmetry_group_IT_number 55
_symmetry_cell_setting 'orthorhombic'
loop_
_space_group_symop_operation_xyz
x,y,z
-x,-y,z
1/2+x,1/2-y,-z
1/2-x,1/2+y,-z
-x,-y,-z
x,y,-z
1/2-x,1/2+y,z
1/2+x,1/2-y,z
loop_
_atom_site_type_symbol
_atom_site_label
_atom_site_fract_x
_atom_site_fract_y
_atom_site_fract_z
Si Si1 0.288343 0.236714 0.665382
Si Si2 0.426134 0.471522 0.670104
Si Si3 0.334974 0.577191 0.171689
Si Si4 0.815819 0.393816 0.167539
Si Si5 0.007319 0.296150 0.670928
Si Si6 0.910421 0.178572 0.332284
Si Si7 0.536695 0.931560 0.830028
Si Si8 0.138672 0.213582 0.331298
O O1 0.293856 0.213201 0.500000
O O2 0.324807 0.177573 0.753502
O O3 0.330724 0.305601 0.692710
O O4 0.210353 0.248934 0.708553
O O5 0.500000 0.500000 0.701503
O O6 0.407471 0.474327 0.500000
O O7 0.370178 0.512203 0.758971
O O8 0.425622 0.395041 0.735163
O O9 0.255064 0.570938 0.214272
O O10 0.369013 0.645023 0.237976
O O11 0.346200 0.577968 0.000000
O O12 0.882445 0.438933 0.203812
O O13 0.812453 0.375930 0.000000
O O14 0.996749 0.307751 0.500000
O O15 0.082460 0.269196 0.708389
O O16 0.956127 0.238931 0.734765
O O17 0.996117 0.367545 0.749384
O O18 0.930426 0.174466 0.500000
O O19 0.500000 0.000000 0.773991
O O20 0.523831 0.921011 0.000000
O O21 0.133484 0.192453 0.500000
#
# Coordination Sequence:
#
# PCOD8225384 Si02
#       8
#     8   8   8   8   8   8   8   8
#     4   9  16  30  52  75  99 128 168 213 255 306
#     4  10  20  35  53  74 106 145 179 212 261 320
#     4  10  20  34  53  78 108 140 178 220 258 303
#     4   9  18  34  54  74 101 136 174 213 255 305
#     4  10  19  34  55  80 105 130 167 215 261 306
#     4   9  17  30  51  74  99 132 170 212 255 303
#     4  10  21  37  55  75 103 140 177 213 260 317
#     4   9  18  32  53  78 105 136 168 209 265 317
#
# _framework density 17.927015000000001
#
# number of rings (size 3 to 8) (size 9 to 14) (size 15 to 20)
#    0.000    2.500    1.250    1.125    0.000    3.500 
#    2.250    1.250    0.000    0.000    0.000    0.000 
#    0.000    0.000    0.000    0.000    0.000    0.000 
#
# Total GULP energy -793398.179196 kJ/mol
# GULP energy per Si atom -12396.846550 kJ/mol
# Density = 1.788621 g / cm^3
# Si number density = 17.927015 Si / 1000 Ang^3
#
#
#
# Elastic Constant Matrix: (Units=GPa)
#
#
# Indices 1 2 3 4 5 6 
#
# 1 120.1598 81.5362 39.3936 0.0000 0.0000 0.0000
# 2 81.5362 156.3732 45.4891 0.0000 0.0000 0.0000
# 3 39.3936 45.4891 43.4375 0.0000 0.0000 0.0000
# 4 0.0000 0.0000 0.0000 9.7410 0.0000 0.0000
# 5 0.0000 0.0000 0.0000 0.0000 15.4735 0.0000
# 6 0.0000 0.0000 0.0000 0.0000 0.0000 30.4401
#
#
#
# Elastic Compliance Matrix: (Units=1/GPa)
#
#
# Indices 1 2 3 4 5 6 
#
# 1 0.014386 -0.005330 -0.007466 0.000000 0.000000 0.000000
# 2 -0.005330 0.011171 -0.006865 0.000000 0.000000 0.000000
# 3 -0.007466 -0.006865 0.036982 0.000000 0.000000 0.000000
# 4 0.000000 0.000000 0.000000 0.102659 0.000000 0.000000
# 5 0.000000 0.000000 0.000000 0.000000 0.064626 0.000000
# 6 0.000000 0.000000 0.000000 0.000000 0.000000 0.032851
#
#
# Mechanical properties :
#
#
# Convention : Reuss Voigt Hill
#
# Bulk Modulus (GPa) = 43.06994 72.53425 57.80210
# Shear Modulus (GPa) = 16.14278 21.36770 18.75524
#
# Velocity S-wave (km/s) = 3.00404 3.45618 3.23801
# Velocity P-wave (km/s) = 6.00913 7.51502 6.80387
#
# Compressibility (1/GPa) = 0.02321805
#
# Stress axis : x y z
#
# Youngs Moduli (GPa) = 69.51079 89.51775 27.04037
#
# Poissons Ratio (x) = 0.47709 0.20188
# Poissons Ratio (y) = 0.37046 0.18564
# Poissons Ratio (z) = 0.51895 0.61456
#
# Static dielectric constant tensor:
#      x y z
#    x 3.632330 0.000000 0.000000 
#    y 0.000000 3.278050 0.000000 
#    z 0.000000 0.000000 3.167000 
# 
# 
# High freq. dielectric constant tensor:
#      x y z
#    x 1.710260 0.000000 0.000000 
#    y 0.000000 1.680220 0.000000 
#    z 0.000000 0.000000 1.675180 
# 
# From -- ./inp_files/9186.got.cif
#   From: 2010.03.12/outbox.cif.g09.slc.cpg/sg55_5_cif.got.tgz:9186.got - 2010.04.16 15:19:21.
