data_PCOD8225864
_publ_section_title
;
Structure prediction by ZEFSAII (Michael W. Deem and Ramdas Pophale) SiO2 
 PCOD8225864
Probable space group: P B A M
;
_chemical_formula_sum "Si O2"
_cell_formula_units_Z 64
_cell_length_a 20.580449
_cell_length_b 19.029115
_cell_length_c 9.345188
_cell_angle_alpha 90.000000
_cell_angle_beta 90.000000
_cell_angle_gamma 90.000000
_cell_volume 3659.834770
_symmetry_space_group_name_H-M "P B A M"
_symmetry_group_IT_number 55
_symmetry_cell_setting 'orthorhombic'
loop_
_space_group_symop_operation_xyz
x,y,z
-x,-y,z
1/2+x,1/2-y,-z
1/2-x,1/2+y,-z
-x,-y,-z
x,y,-z
1/2-x,1/2+y,z
1/2+x,1/2-y,z
loop_
_atom_site_type_symbol
_atom_site_label
_atom_site_fract_x
_atom_site_fract_y
_atom_site_fract_z
Si Si1 0.759996 0.333513 0.837501
Si Si2 0.618855 0.176815 0.167283
Si Si3 0.688419 0.549101 0.332407
Si Si4 0.434988 0.540166 0.331959
Si Si5 0.737028 0.672953 0.834788
Si Si6 0.686724 0.958112 0.668821
Si Si7 0.892015 0.829833 0.833778
Si Si8 0.570337 0.028371 0.833425
O O1 0.783625 0.253719 0.814740
O O2 0.801513 0.380441 0.729535
O O3 0.683999 0.341614 0.803463
O O4 0.774010 0.357472 0.000000
O O5 0.690510 0.161465 0.230664
O O6 0.589480 0.250983 0.222676
O O7 0.571376 0.111904 0.201691
O O8 0.630901 0.188683 0.000000
O O9 0.684946 0.563509 0.500000
O O10 0.626105 0.505662 0.279666
O O11 0.687818 0.623957 0.253139
O O12 0.752679 0.506611 0.288068
O O13 0.500000 0.500000 0.286714
O O14 0.431863 0.554341 0.500000
O O15 0.434664 0.615412 0.255122
O O16 0.733623 0.650201 0.000000
O O17 0.677333 0.953207 0.500000
O O18 0.621876 0.988485 0.737418
O O19 0.908870 0.839849 0.000000
O O20 0.500000 0.000000 0.791615
O O21 0.586537 0.015292 0.000000
#
# Coordination Sequence:
#
# PCOD8225864 Si02
#       8
#     8   8   8   8   8   8   8   8
#     4   9  18  32  52  79 105 133 172 217 265 313
#     4   8  15  30  51  76 103 130 167 213 260 308
#     4  10  20  33  50  76 104 132 170 212 259 309
#     4  10  21  37  53  72 105 143 175 211 256 313
#     4   9  17  31  53  78 103 133 170 216 265 309
#     4  11  21  33  52  78 107 138 173 217 261 306
#     4   9  17  31  53  77 101 130 169 219 262 303
#     4  10  20  35  56  79 106 143 179 214 263 318
#
# _framework density 17.487127999999998
#
# number of rings (size 3 to 8) (size 9 to 14) (size 15 to 20)
#    0.000    2.500    2.500    1.875    0.000    2.000 
#    0.000    3.750    0.000    4.500    0.000    0.000 
#    0.000    0.000    0.000    0.000    0.000    0.000 
#
# Total GULP energy -793564.740185 kJ/mol
# GULP energy per Si atom -12399.449065 kJ/mol
# Density = 1.744733 g / cm^3
# Si number density = 17.487128 Si / 1000 Ang^3
#
#
#
# Elastic Constant Matrix: (Units=GPa)
#
#
# Indices 1 2 3 4 5 6 
#
# 1 97.9605 65.2258 43.6797 0.0000 0.0000 0.0000
# 2 65.2258 143.4543 55.2397 0.0000 0.0000 0.0000
# 3 43.6797 55.2397 55.3662 0.0000 0.0000 0.0000
# 4 0.0000 0.0000 0.0000 21.6000 0.0000 0.0000
# 5 0.0000 0.0000 0.0000 0.0000 21.8596 0.0000
# 6 0.0000 0.0000 0.0000 0.0000 0.0000 28.3535
#
#
#
# Elastic Compliance Matrix: (Units=1/GPa)
#
#
# Indices 1 2 3 4 5 6 
#
# 1 0.017183 -0.004210 -0.009355 0.000000 0.000000 0.000000
# 2 -0.004210 0.012351 -0.009002 0.000000 0.000000 0.000000
# 3 -0.009355 -0.009002 0.034423 0.000000 0.000000 0.000000
# 4 0.000000 0.000000 0.000000 0.046296 0.000000 0.000000
# 5 0.000000 0.000000 0.000000 0.000000 0.045746 0.000000
# 6 0.000000 0.000000 0.000000 0.000000 0.000000 0.035269
#
#
# Mechanical properties :
#
#
# Convention : Reuss Voigt Hill
#
# Bulk Modulus (GPa) = 53.12614 69.45238 61.28926
# Shear Modulus (GPa) = 20.60338 23.20502 21.90420
#
# Velocity S-wave (km/s) = 3.43622 3.64672 3.54303
# Velocity P-wave (km/s) = 6.79629 7.58511 7.20151
#
# Compressibility (1/GPa) = 0.01882313
#
# Stress axis : x y z
#
# Youngs Moduli (GPa) = 58.19678 80.96229 29.05010
#
# Poissons Ratio (x) = 0.34088 0.27178
# Poissons Ratio (y) = 0.24503 0.26150
# Poissons Ratio (z) = 0.54446 0.72879
#
# Static dielectric constant tensor:
#      x y z
#    x 3.023570 0.000000 0.000000 
#    y 0.000000 3.397960 0.000000 
#    z 0.000000 0.000000 3.039440 
# 
# 
# High freq. dielectric constant tensor:
#      x y z
#    x 1.648940 0.000000 0.000000 
#    y 0.000000 1.689510 0.000000 
#    z 0.000000 0.000000 1.659630 
# 
# From -- ./inp_files/9867.got.cif
#   From: 2010.03.12/outbox.cif.g09.slc.cpg/sg55_5_cif.got.tgz:9867.got - 2010.04.16 15:19:21.
