data_PCOD8225677
_publ_section_title
;
Structure prediction by ZEFSAII (Michael W. Deem and Ramdas Pophale) SiO2 
 PCOD8225677
Probable space group: P B A M
;
_chemical_formula_sum "Si O2"
_cell_formula_units_Z 64
_cell_length_a 14.644087
_cell_length_b 25.850181
_cell_length_c 8.994670
_cell_angle_alpha 90.000000
_cell_angle_beta 90.000000
_cell_angle_gamma 90.000000
_cell_volume 3404.953012
_symmetry_space_group_name_H-M "P B A M"
_symmetry_group_IT_number 55
_symmetry_cell_setting 'orthorhombic'
loop_
_space_group_symop_operation_xyz
x,y,z
-x,-y,z
1/2+x,1/2-y,-z
1/2-x,1/2+y,-z
-x,-y,-z
x,y,-z
1/2-x,1/2+y,z
1/2+x,1/2-y,z
loop_
_atom_site_type_symbol
_atom_site_label
_atom_site_fract_x
_atom_site_fract_y
_atom_site_fract_z
Si Si1 0.491130 0.325524 0.323160
Si Si2 0.607164 0.493828 0.326449
Si Si3 0.354811 0.129387 0.170077
Si Si4 0.351550 0.611566 0.827076
Si Si5 0.519501 0.944074 0.327801
Si Si6 0.825075 0.104287 0.676260
Si Si7 0.503340 0.784552 0.824654
Si Si8 0.870773 0.641074 0.673700
O O1 0.493939 0.321841 0.500000
O O2 0.582424 0.352659 0.267767
O O3 0.405756 0.359090 0.265218
O O4 0.481129 0.269312 0.255033
O O5 0.500000 0.500000 0.297194
O O6 0.625874 0.482882 0.500000
O O7 0.646932 0.447046 0.230525
O O8 0.658099 0.545603 0.269089
O O9 0.247843 0.136570 0.198341
O O10 0.389218 0.079506 0.258588
O O11 0.409271 0.180684 0.220976
O O12 0.377392 0.118137 0.000000
O O13 0.379076 0.612466 0.000000
O O14 0.540592 0.950256 0.500000
O O15 0.432315 0.908771 0.295475
O O16 0.500000 0.000000 0.255934
O O17 0.824886 0.103565 0.500000
O O18 0.729496 0.127007 0.735640
O O19 0.409926 0.810421 0.765212
O O20 0.494542 0.776109 0.000000
O O21 0.869099 0.655884 0.500000
#
# Coordination Sequence:
#
# PCOD8225677 Si02
#       8
#     8   8   8   8   8   8   8   8
#     4  11  22  39  60  83 109 145 189 233 284 337
#     4  10  19  36  59  82 114 153 188 230 279 328
#     4   9  21  39  56  77 113 153 186 224 277 335
#     4  11  23  38  56  85 118 150 190 232 275 333
#     4   9  18  31  52  83 112 142 186 234 276 321
#     4   9  19  35  57  84 113 146 186 229 275 330
#     4  10  21  40  60  80 109 146 185 233 285 332
#     4   9  18  35  56  81 113 146 183 229 276 329
#
# _framework density 18.796149
#
# number of rings (size 3 to 8) (size 9 to 14) (size 15 to 20)
#    0.000    2.250    1.250    1.125    1.750    3.000 
#    0.000    4.375    0.000    0.000    0.000    0.000 
#    0.000    0.000    0.000    0.000    0.000    0.000 
#
# Total GULP energy -793721.787806 kJ/mol
# GULP energy per Si atom -12401.902934 kJ/mol
# Density = 1.875337 g / cm^3
# Si number density = 18.796149 Si / 1000 Ang^3
#
#
#
# Elastic Constant Matrix: (Units=GPa)
#
#
# Indices 1 2 3 4 5 6 
#
# 1 108.8653 47.3208 36.9956 0.0000 0.0000 0.0000
# 2 47.3208 137.8568 45.6597 0.0000 0.0000 0.0000
# 3 36.9956 45.6597 60.2806 0.0000 0.0000 0.0000
# 4 0.0000 0.0000 0.0000 -68.2753 0.0000 0.0000
# 5 0.0000 0.0000 0.0000 0.0000 22.2522 0.0000
# 6 0.0000 0.0000 0.0000 0.0000 0.0000 5.0287
#
#
#
# Elastic Compliance Matrix: (Units=1/GPa)
#
#
# Indices 1 2 3 4 5 6 
#
# 1 0.012113 -0.002264 -0.005720 0.000000 0.000000 0.000000
# 2 -0.002264 0.010106 -0.006266 0.000000 0.000000 0.000000
# 3 -0.005720 -0.006266 0.024845 0.000000 0.000000 0.000000
# 4 0.000000 0.000000 0.000000 -0.014647 0.000000 0.000000
# 5 0.000000 0.000000 0.000000 0.000000 0.044939 0.000000
# 6 0.000000 0.000000 0.000000 0.000000 0.000000 0.198857
#
#
# Mechanical properties :
#
#
# Convention : Reuss Voigt Hill
#
# Bulk Modulus (GPa) = 53.85928 62.99495 58.42712
# Shear Modulus (GPa) = 16.08225 3.60291 9.84258
#
# Velocity S-wave (km/s) = 2.92826 1.38600 2.29082
# Velocity P-wave (km/s) = 6.33637 6.01240 6.17651
#
# Compressibility (1/GPa) = 0.01856690
#
# Stress axis : x y z
#
# Youngs Moduli (GPa) = 82.55396 98.94921 40.24895
#
# Poissons Ratio (x) = 0.22398 0.23021
# Poissons Ratio (y) = 0.18687 0.25219
# Poissons Ratio (z) = 0.47218 0.61999
#
# Static dielectric constant tensor:
#      x y z
#    x 3.608990 0.000000 0.000000 
#    y 0.000000 3.617160 0.000000 
#    z 0.000000 0.000000 3.334460 
# 
# 
# High freq. dielectric constant tensor:
#      x y z
#    x 1.735500 0.000000 0.000000 
#    y 0.000000 1.737170 0.000000 
#    z 0.000000 0.000000 1.716920 
# 
# From -- ./inp_files/6684.got.cif
#   From: 2010.03.12/outbox.cif.g09.slc.cpg/sg55_4_cif.got.tgz:6684.got - 2010.04.16 15:19:21.
