data_PCOD8225923
_publ_section_title
;
Structure prediction by ZEFSAII (Michael W. Deem and Ramdas Pophale) SiO2 
 PCOD8225923
Probable space group: P B A M
;
_chemical_formula_sum "Si O2"
_cell_formula_units_Z 64
_cell_length_a 10.947712
_cell_length_b 31.882304
_cell_length_c 9.256213
_cell_angle_alpha 90.000000
_cell_angle_beta 90.000000
_cell_angle_gamma 90.000000
_cell_volume 3230.772684
_symmetry_space_group_name_H-M "P B A M"
_symmetry_group_IT_number 55
_symmetry_cell_setting 'orthorhombic'
loop_
_space_group_symop_operation_xyz
x,y,z
-x,-y,z
1/2+x,1/2-y,-z
1/2-x,1/2+y,-z
-x,-y,-z
x,y,-z
1/2-x,1/2+y,z
1/2+x,1/2-y,z
loop_
_atom_site_type_symbol
_atom_site_label
_atom_site_fract_x
_atom_site_fract_y
_atom_site_fract_z
Si Si1 0.425676 0.768990 0.665251
Si Si2 0.946794 0.606613 0.842121
Si Si3 0.648339 0.322007 0.341264
Si Si4 0.748899 0.678629 0.161454
Si Si5 0.572170 0.623007 0.336197
Si Si6 0.888864 0.028592 0.328396
Si Si7 0.616760 0.822590 0.832477
Si Si8 0.614040 0.027109 0.670788
O O1 0.420227 0.784782 0.500000
O O2 0.438150 0.718796 0.674608
O O3 0.300083 0.782568 0.745272
O O4 0.544087 0.788204 0.740900
O O5 0.852813 0.644201 0.848128
O O6 0.908036 0.574449 0.719625
O O7 0.073840 0.629401 0.802375
O O8 0.953403 0.584328 0.000000
O O9 0.712536 0.320455 0.500000
O O10 0.570139 0.364745 0.332489
O O11 0.743367 0.321777 0.212159
O O12 0.633952 0.657676 0.236804
O O13 0.713205 0.694100 0.000000
O O14 0.624093 0.625135 0.500000
O O15 0.590623 0.576152 0.273002
O O16 0.896649 0.027454 0.500000
O O17 0.751805 0.012984 0.278678
O O18 0.000000 0.000000 0.264390
O O19 0.601671 0.810884 0.000000
O O20 0.608913 0.025951 0.500000
O O21 0.500000 0.000000 0.734814
#
# Coordination Sequence:
#
# PCOD8225923 Si02
#       8
#     8   8   8   8   8   8   8   8
#     4  10  21  37  57  81 113 150 191 240 291 342
#     4   9  19  36  56  78 108 145 184 228 280 344
#     4  10  23  38  55  83 115 151 194 241 291 350
#     4  10  20  35  57  84 111 144 191 237 284 345
#     4  10  20  36  59  84 112 153 198 239 294 352
#     4   9  18  34  56  83 117 154 193 244 303 358
#     4  10  22  39  57  81 113 149 190 236 292 349
#     4  10  20  33  55  88 115 143 192 246 295 352
#
# _framework density 19.809502999999999
#
# number of rings (size 3 to 8) (size 9 to 14) (size 15 to 20)
#    0.000    2.250    1.250    1.875    1.750    5.250 
#    0.000    2.500    0.000    1.500    0.000    0.000 
#    0.000    0.000    0.000    0.000    0.000    0.000 
#
# Total GULP energy -793261.486545 kJ/mol
# GULP energy per Si atom -12394.710727 kJ/mol
# Density = 1.976442 g / cm^3
# Si number density = 19.809503 Si / 1000 Ang^3
#
#
#
# Elastic Constant Matrix: (Units=GPa)
#
#
# Indices 1 2 3 4 5 6 
#
# 1 113.3196 41.2543 37.1955 0.0000 0.0000 0.0000
# 2 41.2543 67.1643 20.8028 0.0000 0.0000 0.0000
# 3 37.1955 20.8028 77.5413 0.0000 0.0000 0.0000
# 4 0.0000 0.0000 0.0000 15.1053 0.0000 0.0000
# 5 0.0000 0.0000 0.0000 0.0000 24.0768 0.0000
# 6 0.0000 0.0000 0.0000 0.0000 0.0000 24.9597
#
#
#
# Elastic Compliance Matrix: (Units=1/GPa)
#
#
# Indices 1 2 3 4 5 6 
#
# 1 0.012564 -0.006381 -0.004315 0.000000 0.000000 0.000000
# 2 -0.006381 0.019479 -0.002165 0.000000 0.000000 0.000000
# 3 -0.004315 -0.002165 0.015547 0.000000 0.000000 0.000000
# 4 0.000000 0.000000 0.000000 0.066202 0.000000 0.000000
# 5 0.000000 0.000000 0.000000 0.000000 0.041534 0.000000
# 6 0.000000 0.000000 0.000000 0.000000 0.000000 0.040065
#
#
# Mechanical properties :
#
#
# Convention : Reuss Voigt Hill
#
# Bulk Modulus (GPa) = 45.72825 50.72559 48.22692
# Shear Modulus (GPa) = 21.89140 23.41319 22.65230
#
# Velocity S-wave (km/s) = 3.32790 3.44163 3.38525
# Velocity P-wave (km/s) = 6.15636 6.43859 6.29905
#
# Compressibility (1/GPa) = 0.02186832
#
# Stress axis : x y z
#
# Youngs Moduli (GPa) = 79.59399 51.33838 64.32118
#
# Poissons Ratio (x) = 0.32757 0.27754
# Poissons Ratio (y) = 0.50786 0.13926
# Poissons Ratio (z) = 0.34344 0.11115
#
# Static dielectric constant tensor:
#      x y z
#    x 3.773770 0.000000 0.000000 
#    y 0.000000 3.622380 0.000000 
#    z 0.000000 0.000000 3.612640 
# 
# 
# High freq. dielectric constant tensor:
#      x y z
#    x 1.771430 0.000000 0.000000 
#    y 0.000000 1.761290 0.000000 
#    z 0.000000 0.000000 1.759430 
# 
# From -- ./inp_files/4499.got.cif
#   From: 2010.03.12/outbox.cif.g09.slc.cpg/sg55_3_cif.got.tgz:4499.got - 2010.04.16 15:19:21.
