data_PCOD8225162
_publ_section_title
;
Structure prediction by ZEFSAII (Michael W. Deem and Ramdas Pophale) SiO2 
 PCOD8225162
Probable space group: P B A M
;
_chemical_formula_sum "Si O2"
_cell_formula_units_Z 56
_cell_length_a 19.280744
_cell_length_b 18.860590
_cell_length_c 9.336503
_cell_angle_alpha 90.000000
_cell_angle_beta 90.000000
_cell_angle_gamma 90.000000
_cell_volume 3395.183907
_symmetry_space_group_name_H-M "P B A M"
_symmetry_group_IT_number 55
_symmetry_cell_setting 'orthorhombic'
loop_
_space_group_symop_operation_xyz
x,y,z
-x,-y,z
1/2+x,1/2-y,-z
1/2-x,1/2+y,-z
-x,-y,-z
x,y,-z
1/2-x,1/2+y,z
1/2+x,1/2-y,z
loop_
_atom_site_type_symbol
_atom_site_label
_atom_site_fract_x
_atom_site_fract_y
_atom_site_fract_z
Si Si1 0.975300 0.798334 0.834815
Si Si2 0.870580 0.237550 0.834367
Si Si3 0.334736 0.769237 0.835738
Si Si4 0.768353 0.140314 0.331023
Si Si5 0.207266 0.021437 0.667417
Si Si6 0.553675 0.440227 0.330562
Si Si7 0.731793 0.856567 0.163025
O O1 0.915401 0.741597 0.797028
O O2 0.969513 0.867143 0.738404
O O3 0.047875 0.759684 0.802751
O O4 0.968929 0.821932 0.000000
O O5 0.835239 0.177553 0.737781
O O6 0.838772 0.314588 0.797088
O O7 0.854136 0.219188 0.000000
O O8 0.303153 0.829376 0.733518
O O9 0.296850 0.694686 0.807335
O O10 0.324154 0.793140 0.000000
O O11 0.769956 0.153823 0.500000
O O12 0.771655 0.057918 0.292057
O O13 0.211494 0.034900 0.500000
O O14 0.129707 0.037035 0.723683
O O15 0.262241 0.073991 0.740095
O O16 0.500000 0.500000 0.279742
O O17 0.551658 0.430436 0.500000
O O18 0.730700 0.882446 0.000000
#
# Coordination Sequence:
#
# PCOD8225162 Si02
#       7
#     8   8   8   8   8   8   8
#     4  10  19  33  52  73  99 130 164 204 249 295
#     4   9  19  34  51  73 100 129 163 205 247 292
#     4   9  18  33  51  73  98 126 165 209 249 293
#     4  10  20  33  50  72  99 131 167 204 244 293
#     4  10  20  32  47  70  99 131 165 201 242 290
#     4  10  20  32  46  69 105 138 162 195 243 297
#     4   9  17  31  50  71  95 124 163 204 244 290
#
# _framework density 16.493950999999999
#
# number of rings (size 3 to 8) (size 9 to 14) (size 15 to 20)
#    0.000    2.429    1.429    2.143    0.000    6.000 
#    0.000    0.000    0.000    0.857    0.000    6.000 
#    0.000    0.000    0.000    0.000    0.000    0.000 
#
# Total GULP energy -694472.316955 kJ/mol
# GULP energy per Si atom -12401.291374 kJ/mol
# Density = 1.645641 g / cm^3
# Si number density = 16.493951 Si / 1000 Ang^3
#
#
#
# Elastic Constant Matrix: (Units=GPa)
#
#
# Indices 1 2 3 4 5 6 
#
# 1 132.3287 67.1055 42.4939 0.0000 0.0000 0.0000
# 2 67.1055 91.9605 44.6684 0.0000 0.0000 0.0000
# 3 42.4939 44.6684 49.0702 0.0000 0.0000 0.0000
# 4 0.0000 0.0000 0.0000 9.8499 0.0000 0.0000
# 5 0.0000 0.0000 0.0000 0.0000 20.7206 0.0000
# 6 0.0000 0.0000 0.0000 0.0000 0.0000 22.9081
#
#
#
# Elastic Compliance Matrix: (Units=1/GPa)
#
#
# Indices 1 2 3 4 5 6 
#
# 1 0.012534 -0.006945 -0.004533 0.000000 0.000000 0.000000
# 2 -0.006945 0.023342 -0.015233 0.000000 0.000000 0.000000
# 3 -0.004533 -0.015233 0.038171 0.000000 0.000000 0.000000
# 4 0.000000 0.000000 0.000000 0.101523 0.000000 0.000000
# 5 0.000000 0.000000 0.000000 0.000000 0.048261 0.000000
# 6 0.000000 0.000000 0.000000 0.000000 0.000000 0.043653
#
#
# Mechanical properties :
#
#
# Convention : Reuss Voigt Hill
#
# Bulk Modulus (GPa) = 48.48500 64.65500 56.57000
# Shear Modulus (GPa) = 15.25408 18.63516 16.94462
#
# Velocity S-wave (km/s) = 3.04440 3.36492 3.20867
# Velocity P-wave (km/s) = 6.46663 7.37436 6.93536
#
# Compressibility (1/GPa) = 0.02062494
#
# Stress axis : x y z
#
# Youngs Moduli (GPa) = 79.78101 42.84211 26.19786
#
# Poissons Ratio (x) = 0.29754 0.11874
# Poissons Ratio (y) = 0.55407 0.39908
# Poissons Ratio (z) = 0.36161 0.65264
#
# Static dielectric constant tensor:
#      x y z
#    x 3.281130 0.000000 0.000000 
#    y 0.000000 2.953230 0.000000 
#    z 0.000000 0.000000 3.073300 
# 
# 
# High freq. dielectric constant tensor:
#      x y z
#    x 1.633870 0.000000 0.000000 
#    y 0.000000 1.620130 0.000000 
#    z 0.000000 0.000000 1.635430 
# 
# From -- ./inp_files/7800.got.cif
#   From: 2010.03.12/outbox.cif.g09.slc.cpg/sg55_4_cif.got.tgz:7800.got - 2010.04.16 15:19:21.
