data_PCOD8225123
_publ_section_title
;
Structure prediction by ZEFSAII (Michael W. Deem and Ramdas Pophale) SiO2 
 PCOD8225123
Probable space group: P B A M
;
_chemical_formula_sum "Si O2"
_cell_formula_units_Z 64
_cell_length_a 19.117690
_cell_length_b 20.418559
_cell_length_c 8.753530
_cell_angle_alpha 90.000000
_cell_angle_beta 90.000000
_cell_angle_gamma 90.000000
_cell_volume 3416.990166
_symmetry_space_group_name_H-M "P B A M"
_symmetry_group_IT_number 55
_symmetry_cell_setting 'orthorhombic'
loop_
_space_group_symop_operation_xyz
x,y,z
-x,-y,z
1/2+x,1/2-y,-z
1/2-x,1/2+y,-z
-x,-y,-z
x,y,-z
1/2-x,1/2+y,z
1/2+x,1/2-y,z
loop_
_atom_site_type_symbol
_atom_site_label
_atom_site_fract_x
_atom_site_fract_y
_atom_site_fract_z
Si Si1 0.035654 0.816050 0.821108
Si Si2 0.674431 0.133121 0.677821
Si Si3 0.329965 0.501996 0.178797
Si Si4 0.329871 0.362491 0.319384
Si Si5 0.968533 0.691852 0.677473
Si Si6 0.455601 0.563496 0.321057
Si Si7 0.036155 0.569185 0.824321
Si Si8 0.326834 0.003086 0.824129
O O1 0.116290 0.814244 0.765759
O O2 0.000638 0.746881 0.785006
O O3 0.995000 0.871894 0.730629
O O4 0.031949 0.830086 0.000000
O O5 0.681810 0.122365 0.500000
O O6 0.751157 0.155483 0.738402
O O7 0.614429 0.186078 0.716739
O O8 0.651121 0.063422 0.741806
O O9 0.348047 0.436852 0.273739
O O10 0.381611 0.559388 0.233228
O O11 0.251475 0.526074 0.218174
O O12 0.339548 0.487181 0.000000
O O13 0.339441 0.354290 0.500000
O O14 0.979635 0.709576 0.500000
O O15 0.006025 0.623257 0.711175
O O16 0.500000 0.500000 0.275134
O O17 0.441287 0.567482 0.500000
O O18 0.118725 0.560901 0.784602
O O19 0.000000 0.500000 0.792557
O O20 0.024945 0.591136 0.000000
O O21 0.332695 0.984569 0.000000
#
# Coordination Sequence:
#
# PCOD8225123 Si02
#       8
#     8   8   8   8   8   8   8   8
#     4  12  25  40  59  84 114 150 191 235 283 339
#     4   9  19  34  56  83 112 146 186 231 279 335
#     4  10  19  32  54  85 116 147 188 234 281 332
#     4  10  19  35  57  83 113 146 185 230 281 336
#     4  11  23  39  58  84 117 152 192 236 282 337
#     4  11  22  37  59  84 113 147 184 230 284 335
#     4  10  19  34  57  84 116 151 189 232 280 331
#     4   9  18  32  53  83 117 150 186 234 283 329
#
# _framework density 18.729934
#
# number of rings (size 3 to 8) (size 9 to 14) (size 15 to 20)
#    0.000    1.750    2.500    2.625    0.000    2.750 
#    0.000    1.250    0.000    0.000    0.000    0.000 
#    0.000    0.000    0.000    0.000    0.000    0.000 
#
# Total GULP energy -793642.471455 kJ/mol
# GULP energy per Si atom -12400.663616 kJ/mol
# Density = 1.868730 g / cm^3
# Si number density = 18.729934 Si / 1000 Ang^3
#
#
#
# Elastic Constant Matrix: (Units=GPa)
#
#
# Indices 1 2 3 4 5 6 
#
# 1 120.7951 37.6663 30.9541 0.0000 0.0000 0.0000
# 2 37.6663 63.2395 13.6986 0.0000 0.0000 0.0000
# 3 30.9541 13.6986 40.5366 0.0000 0.0000 0.0000
# 4 0.0000 0.0000 0.0000 29.9562 0.0000 0.0000
# 5 0.0000 0.0000 0.0000 0.0000 26.8491 0.0000
# 6 0.0000 0.0000 0.0000 0.0000 0.0000 25.4578
#
#
#
# Elastic Compliance Matrix: (Units=1/GPa)
#
#
# Indices 1 2 3 4 5 6 
#
# 1 0.011830 -0.005491 -0.007178 0.000000 0.000000 0.000000
# 2 -0.005491 0.019611 -0.002434 0.000000 0.000000 0.000000
# 3 -0.007178 -0.002434 0.030973 0.000000 0.000000 0.000000
# 4 0.000000 0.000000 0.000000 0.033382 0.000000 0.000000
# 5 0.000000 0.000000 0.000000 0.000000 0.037245 0.000000
# 6 0.000000 0.000000 0.000000 0.000000 0.000000 0.039281
#
#
# Mechanical properties :
#
#
# Convention : Reuss Voigt Hill
#
# Bulk Modulus (GPa) = 31.04880 43.24547 37.14713
# Shear Modulus (GPa) = 23.44514 25.93609 24.69061
#
# Velocity S-wave (km/s) = 3.54184 3.72525 3.63470
# Velocity P-wave (km/s) = 5.77402 6.45309 6.12298
#
# Compressibility (1/GPa) = 0.03220736
#
# Stress axis : x y z
#
# Youngs Moduli (GPa) = 84.52975 50.99218 32.28654
#
# Poissons Ratio (x) = 0.28002 0.23175
# Poissons Ratio (y) = 0.46418 0.07858
# Poissons Ratio (z) = 0.60675 0.12411
#
# Static dielectric constant tensor:
#      x y z
#    x 4.063710 0.000000 0.000000 
#    y 0.000000 3.153050 0.000000 
#    z 0.000000 0.000000 3.422240 
# 
# 
# High freq. dielectric constant tensor:
#      x y z
#    x 1.749240 0.000000 0.000000 
#    y 0.000000 1.689500 0.000000 
#    z 0.000000 0.000000 1.732870 
# 
# From -- ./inp_files/9001.got.cif
#   From: 2010.03.12/outbox.cif.g09.slc.cpg/sg55_5_cif.got.tgz:9001.got - 2010.04.16 15:19:21.
