data_PCOD8225317
_publ_section_title
;
Structure prediction by ZEFSAII (Michael W. Deem and Ramdas Pophale) SiO2 
 PCOD8225317
Probable space group: P B A M
;
_chemical_formula_sum "Si O2"
_cell_formula_units_Z 64
_cell_length_a 18.558945
_cell_length_b 9.037311
_cell_length_c 20.161832
_cell_angle_alpha 90.000000
_cell_angle_beta 90.000000
_cell_angle_gamma 90.000000
_cell_volume 3381.602098
_symmetry_space_group_name_H-M "P B A M"
_symmetry_group_IT_number 55
_symmetry_cell_setting 'orthorhombic'
loop_
_space_group_symop_operation_xyz
x,y,z
-x,-y,z
1/2+x,1/2-y,-z
1/2-x,1/2+y,-z
-x,-y,-z
x,y,-z
1/2-x,1/2+y,z
1/2+x,1/2-y,z
loop_
_atom_site_type_symbol
_atom_site_label
_atom_site_fract_x
_atom_site_fract_y
_atom_site_fract_z
Si Si1 0.581698 0.481731 0.927202
Si Si2 0.919385 0.503726 0.687646
Si Si3 0.662513 0.842043 0.572447
Si Si4 0.178613 0.233528 0.302500
Si Si5 0.781928 0.046104 0.620451
Si Si6 0.673979 0.769482 0.073357
Si Si7 0.678879 0.267147 0.151794
Si Si8 0.416643 0.014986 0.162324
O O1 0.500000 0.500000 0.899018
O O2 0.622702 0.632777 0.937207
O O3 0.632397 0.400900 0.875441
O O4 0.576760 0.402873 0.000000
O O5 0.880588 0.398662 0.635510
O O6 0.895902 0.676500 0.689035
O O7 0.910010 0.434343 0.760909
O O8 0.000000 0.500000 0.663089
O O9 0.626026 0.869152 0.500000
O O10 0.735141 0.940890 0.572260
O O11 0.672033 0.663454 0.577684
O O12 0.237701 0.347252 0.330479
O O13 0.171141 0.073705 0.337995
O O14 0.201323 0.198612 0.227193
O O15 0.749706 0.733924 0.109162
O O16 0.625065 0.873245 0.116971
O O17 0.691517 0.836621 0.000000
O O18 0.623108 0.135896 0.149076
O O19 0.500000 0.000000 0.141193
#
# Coordination Sequence:
#
# PCOD8225317 Si02
#       8
#     8   8   8   8   8   8   8   8
#     4  10  22  39  54  73 108 149 184 225 284 350
#     4   9  20  38  56  82 114 147 192 234 277 337
#     4  10  19  33  57  83 113 150 183 229 281 333
#     4   9  20  33  56  82 108 150 179 229 286 333
#     4   9  19  34  53  83 115 140 186 227 276 338
#     4  11  24  37  56  85 113 143 186 242 292 336
#     4  11  22  34  58  84 109 141 188 237 292 338
#     4  10  22  40  60  82 112 153 195 236 284 348
#
# _framework density 18.925941000000002
#
# number of rings (size 3 to 8) (size 9 to 14) (size 15 to 20)
#    0.000    2.125    0.000    2.250    8.750    2.500 
#    0.000    1.250    0.000    0.750    0.000    0.000 
#    0.000    0.000    0.000    0.000    0.000    0.000 
#
# Total GULP energy -792868.140422 kJ/mol
# GULP energy per Si atom -12388.564694 kJ/mol
# Density = 1.888286 g / cm^3
# Si number density = 18.925941 Si / 1000 Ang^3
#
#
#
# Elastic Constant Matrix: (Units=GPa)
#
#
# Indices 1 2 3 4 5 6 
#
# 1 120.7113 28.5913 51.6772 0.0000 0.0000 0.0000
# 2 28.5913 96.2843 44.5585 0.0000 0.0000 0.0000
# 3 51.6772 44.5585 118.4129 0.0000 0.0000 0.0000
# 4 0.0000 0.0000 0.0000 -61.1529 0.0000 0.0000
# 5 0.0000 0.0000 0.0000 0.0000 -11.4909 0.0000
# 6 0.0000 0.0000 0.0000 0.0000 0.0000 24.6520
#
#
#
# Elastic Compliance Matrix: (Units=1/GPa)
#
#
# Indices 1 2 3 4 5 6 
#
# 1 0.010298 -0.001184 -0.004049 0.000000 0.000000 0.000000
# 2 -0.001184 0.012712 -0.004267 0.000000 0.000000 0.000000
# 3 -0.004049 -0.004267 0.011817 0.000000 0.000000 0.000000
# 4 0.000000 0.000000 0.000000 -0.016352 0.000000 0.000000
# 5 0.000000 0.000000 0.000000 0.000000 -0.087025 0.000000
# 6 0.000000 0.000000 0.000000 0.000000 0.000000 0.040565
#
#
# Mechanical properties :
#
#
# Convention : Reuss Voigt Hill
#
# Bulk Modulus (GPa) = 63.17766 65.00695 64.09231
# Shear Modulus (GPa) = -1347.67098 4.44039 -671.61530
#
# Velocity S-wave (km/s) = -26.71370 1.53339 -18.85830
# Velocity P-wave (km/s) = 30.29921 6.12843 20.98195
#
# Compressibility (1/GPa) = 0.01582838
#
# Stress axis : x y z
#
# Youngs Moduli (GPa) = 97.10671 78.66493 84.62097
#
# Poissons Ratio (x) = 0.09317 0.34259
# Poissons Ratio (y) = 0.11501 0.36105
# Poissons Ratio (z) = 0.39314 0.33564
#
# Static dielectric constant tensor:
#      x y z
#    x 3.537020 0.000000 0.000000 
#    y 0.000000 3.365900 0.000000 
#    z 0.000000 0.000000 3.721060 
# 
# 
# High freq. dielectric constant tensor:
#      x y z
#    x 1.724850 0.000000 0.000000 
#    y 0.000000 1.735340 0.000000 
#    z 0.000000 0.000000 1.746340 
# 
# From -- ./inp_files/21984.got.cif
#   From: 2010.03.12/outbox.cif.g09.slc.cpg/sg55_11_cif.got.tgz:21984.got - 2010.04.16 15:19:21.
