data_PCOD8225781
_publ_section_title
;
Structure prediction by ZEFSAII (Michael W. Deem and Ramdas Pophale) SiO2 
 PCOD8225781
Probable space group: P B A M
;
_chemical_formula_sum "Si O2"
_cell_formula_units_Z 48
_cell_length_a 16.836520
_cell_length_b 9.655069
_cell_length_c 15.164648
_cell_angle_alpha 90.000000
_cell_angle_beta 90.000000
_cell_angle_gamma 90.000000
_cell_volume 2465.131245
_symmetry_space_group_name_H-M "P B A M"
_symmetry_group_IT_number 55
_symmetry_cell_setting 'orthorhombic'
loop_
_space_group_symop_operation_xyz
x,y,z
-x,-y,z
1/2+x,1/2-y,-z
1/2-x,1/2+y,-z
-x,-y,-z
x,y,-z
1/2-x,1/2+y,z
1/2+x,1/2-y,z
loop_
_atom_site_type_symbol
_atom_site_label
_atom_site_fract_x
_atom_site_fract_y
_atom_site_fract_z
Si Si1 0.910387 0.960140 0.219620
Si Si2 0.792482 0.625754 0.344131
Si Si3 0.594300 0.992991 0.792254
Si Si4 0.654895 0.228096 0.099531
Si Si5 0.687176 0.717851 0.187173
Si Si6 0.834358 0.913452 0.403780
O O1 0.855565 0.072200 0.170863
O O2 0.893174 0.817516 0.170753
O O3 0.894021 0.949719 0.324286
O O4 0.000000 0.000000 0.204909
O O5 0.868326 0.557941 0.296157
O O6 0.737452 0.709291 0.276146
O O7 0.819024 0.748152 0.409366
O O8 0.746342 0.502354 0.392963
O O9 0.620684 0.834740 0.804146
O O10 0.500000 0.000000 0.784868
O O11 0.627912 0.071746 0.878499
O O12 0.750208 0.246655 0.108613
O O13 0.630452 0.266199 0.000000
O O14 0.870931 0.952865 0.500000
#
# Coordination Sequence:
#
# PCOD8225781 Si02
#       6
#     8   8   8   8   8   8
#     4  11  23  40  62  90 125 161 196 249 312 358
#     4  10  19  38  59  89 119 160 201 247 296 350
#     4  11  21  37  62  89 122 159 198 248 304 362
#     4  11  23  41  63  89 119 156 205 251 298 364
#     4  10  20  37  62  85 116 159 203 241 292 356
#     4  11  21  37  64  92 122 160 209 250 292 357
#
# _framework density 19.471578999999998
#
# number of rings (size 3 to 8) (size 9 to 14) (size 15 to 20)
#    0.000    1.333    5.000    3.500    0.000    3.667 
#    0.000    1.667    0.000    2.000    0.000    0.000 
#    0.000    0.000    0.000    0.000    0.000    0.000 
#
# Total GULP energy -595093.947715 kJ/mol
# GULP energy per Si atom -12397.790577 kJ/mol
# Density = 1.942726 g / cm^3
# Si number density = 19.471579 Si / 1000 Ang^3
#
#
#
# Elastic Constant Matrix: (Units=GPa)
#
#
# Indices 1 2 3 4 5 6 
#
# 1 88.7714 2.4977 28.3191 0.0000 0.0000 0.0000
# 2 2.4977 75.7482 17.4018 0.0000 0.0000 0.0000
# 3 28.3191 17.4018 113.2384 0.0000 0.0000 0.0000
# 4 0.0000 0.0000 0.0000 21.7266 0.0000 0.0000
# 5 0.0000 0.0000 0.0000 0.0000 9.2712 0.0000
# 6 0.0000 0.0000 0.0000 0.0000 0.0000 30.7488
#
#
#
# Elastic Compliance Matrix: (Units=1/GPa)
#
#
# Indices 1 2 3 4 5 6 
#
# 1 0.012249 0.000311 -0.003111 0.000000 0.000000 0.000000
# 2 0.000311 0.013693 -0.002182 0.000000 0.000000 0.000000
# 3 -0.003111 -0.002182 0.009944 0.000000 0.000000 0.000000
# 4 0.000000 0.000000 0.000000 0.046026 0.000000 0.000000
# 5 0.000000 0.000000 0.000000 0.000000 0.107861 0.000000
# 6 0.000000 0.000000 0.000000 0.000000 0.000000 0.032522
#
#
# Mechanical properties :
#
#
# Convention : Reuss Voigt Hill
#
# Bulk Modulus (GPa) = 38.57829 41.57726 40.07777
# Shear Modulus (GPa) = 20.75559 27.65195 24.20377
#
# Velocity S-wave (km/s) = 3.26842 3.77253 3.52949
# Velocity P-wave (km/s) = 5.83944 6.35415 6.10222
#
# Compressibility (1/GPa) = 0.02592132
#
# Stress axis : x y z
#
# Youngs Moduli (GPa) = 81.64216 73.03186 100.56081
#
# Poissons Ratio (x) = -0.02270 0.31284
# Poissons Ratio (y) = -0.02537 0.21942
# Poissons Ratio (z) = 0.25398 0.15935
#
# Static dielectric constant tensor:
#      x y z
#    x 3.463520 0.000000 0.000000 
#    y 0.000000 3.432880 0.000000 
#    z 0.000000 0.000000 3.355830 
# 
# 
# High freq. dielectric constant tensor:
#      x y z
#    x 1.745460 0.000000 0.000000 
#    y 0.000000 1.776980 0.000000 
#    z 0.000000 0.000000 1.740260 
# 
# From -- ./inp_files/19344.got.cif
#   From: 2010.03.12/outbox.cif.g09.slc.cpg/sg55_10_cif.got.tgz:19344.got - 2010.04.16 15:19:21.
