data_PCOD8225323
_publ_section_title
;
Structure prediction by ZEFSAII (Michael W. Deem and Ramdas Pophale) SiO2 
 PCOD8225323
Probable space group: P B A M
;
_chemical_formula_sum "Si O2"
_cell_formula_units_Z 56
_cell_length_a 11.480329
_cell_length_b 19.599882
_cell_length_c 11.799185
_cell_angle_alpha 90.000000
_cell_angle_beta 90.000000
_cell_angle_gamma 90.000000
_cell_volume 2654.971120
_symmetry_space_group_name_H-M "P B A M"
_symmetry_group_IT_number 55
_symmetry_cell_setting 'orthorhombic'
loop_
_space_group_symop_operation_xyz
x,y,z
-x,-y,z
1/2+x,1/2-y,-z
1/2-x,1/2+y,-z
-x,-y,-z
x,y,-z
1/2-x,1/2+y,z
1/2+x,1/2-y,z
loop_
_atom_site_type_symbol
_atom_site_label
_atom_site_fract_x
_atom_site_fract_y
_atom_site_fract_z
Si Si1 0.569385 0.284189 0.126853
Si Si2 0.111062 0.798068 0.678868
Si Si3 0.156812 0.346050 0.766421
Si Si4 0.723093 0.395232 0.221378
Si Si5 0.007466 0.928675 0.671921
Si Si6 0.563841 0.852375 0.373122
Si Si7 0.184736 0.959942 0.868972
O O1 0.461568 0.307309 0.204523
O O2 0.595171 0.204212 0.144546
O O3 0.686159 0.329472 0.146715
O O4 0.525225 0.294847 0.000000
O O5 0.248253 0.799702 0.701094
O O6 0.077124 0.867440 0.608485
O O7 0.076693 0.729596 0.614779
O O8 0.210883 0.410026 0.831178
O O9 0.063394 0.371941 0.673800
O O10 0.624480 0.404196 0.315726
O O11 0.843666 0.382617 0.285696
O O12 0.732880 0.463007 0.145004
O O13 0.070911 0.946450 0.792621
O O14 0.000000 0.000000 0.601549
O O15 0.578201 0.882837 0.500000
O O16 0.151785 0.947237 0.000000
#
# Coordination Sequence:
#
# PCOD8225323 Si02
#       7
#     8   8   8   8   8   8   8
#     4  10  19  33  57  85 122 157 186 234 303 366
#     4   9  19  37  57  86 118 149 203 252 296 364
#     4  10  21  39  55  86 118 150 206 249 288 364
#     4  10  20  37  56  92 122 152 204 248 287 367
#     4   8  17  33  60  89 126 153 186 243 301 358
#     4  11  24  42  62  81 112 164 209 262 315 347
#     4  10  20  36  63  91 126 165 192 236 304 369
#
# _framework density 21.092509
#
# number of rings (size 3 to 8) (size 9 to 14) (size 15 to 20)
#    0.000    2.286    1.429    0.857    0.000    9.429 
#    0.000    4.286    0.000   10.286    0.000    0.000 
#    0.000    0.000    0.000    0.000    0.000    0.000 
#
# Total GULP energy -693999.218495 kJ/mol
# GULP energy per Si atom -12392.843187 kJ/mol
# Density = 2.104450 g / cm^3
# Si number density = 21.092509 Si / 1000 Ang^3
#
#
#
# Elastic Constant Matrix: (Units=GPa)
#
#
# Indices 1 2 3 4 5 6 
#
# 1 122.8850 11.7289 32.2576 0.0000 0.0000 0.0000
# 2 11.7289 92.4680 2.0754 0.0000 0.0000 0.0000
# 3 32.2576 2.0754 90.8946 0.0000 0.0000 0.0000
# 4 0.0000 0.0000 0.0000 -3.4560 0.0000 0.0000
# 5 0.0000 0.0000 0.0000 0.0000 2.8826 0.0000
# 6 0.0000 0.0000 0.0000 0.0000 0.0000 34.1999
#
#
#
# Elastic Compliance Matrix: (Units=1/GPa)
#
#
# Indices 1 2 3 4 5 6 
#
# 1 0.009080 -0.001080 -0.003198 0.000000 0.000000 0.000000
# 2 -0.001080 0.010949 0.000133 0.000000 0.000000 0.000000
# 3 -0.003198 0.000133 0.012134 0.000000 0.000000 0.000000
# 4 0.000000 0.000000 0.000000 -0.289349 0.000000 0.000000
# 5 0.000000 0.000000 0.000000 0.000000 0.346914 0.000000
# 6 0.000000 0.000000 0.000000 0.000000 0.000000 0.029240
#
#
# Mechanical properties :
#
#
# Convention : Reuss Voigt Hill
#
# Bulk Modulus (GPa) = 41.88778 44.26348 43.07563
# Shear Modulus (GPa) = 36.97836 24.07100 30.52468
#
# Velocity S-wave (km/s) = 4.19161 3.38185 3.80831
# Velocity P-wave (km/s) = 6.58242 6.02330 6.30906
#
# Compressibility (1/GPa) = 0.02387331
#
# Stress axis : x y z
#
# Youngs Moduli (GPa) = 110.12969 91.33632 82.41588
#
# Poissons Ratio (x) = 0.09864 0.26355
# Poissons Ratio (y) = 0.11894 -0.01099
# Poissons Ratio (z) = 0.35217 -0.01217
#
# Static dielectric constant tensor:
#      x y z
#    x 3.685780 0.000000 0.000000 
#    y 0.000000 4.249060 0.000000 
#    z 0.000000 0.000000 3.337100 
# 
# 
# High freq. dielectric constant tensor:
#      x y z
#    x 1.821460 0.000000 0.000000 
#    y 0.000000 1.844120 0.000000 
#    z 0.000000 0.000000 1.794000 
# 
# From -- ./inp_files/13388.got.cif
#   From: 2010.03.12/outbox.cif.g09.slc.cpg/sg55_7_cif.got.tgz:13388.got - 2010.04.16 15:19:21.
