data_PCOD8225688
_publ_section_title
;
Structure prediction by ZEFSAII (Michael W. Deem and Ramdas Pophale) SiO2 
 PCOD8225688
Probable space group: P B A M
;
_chemical_formula_sum "Si O2"
_cell_formula_units_Z 64
_cell_length_a 24.739168
_cell_length_b 14.991145
_cell_length_c 8.570767
_cell_angle_alpha 90.000000
_cell_angle_beta 90.000000
_cell_angle_gamma 90.000000
_cell_volume 3178.627113
_symmetry_space_group_name_H-M "P B A M"
_symmetry_group_IT_number 55
_symmetry_cell_setting 'orthorhombic'
loop_
_space_group_symop_operation_xyz
x,y,z
-x,-y,z
1/2+x,1/2-y,-z
1/2-x,1/2+y,-z
-x,-y,-z
x,y,-z
1/2-x,1/2+y,z
1/2+x,1/2-y,z
loop_
_atom_site_type_symbol
_atom_site_label
_atom_site_fract_x
_atom_site_fract_y
_atom_site_fract_z
Si Si1 0.052481 0.661185 0.817080
Si Si2 0.667442 0.519105 0.317680
Si Si3 0.351844 0.291924 0.816098
Si Si4 0.718619 0.035768 0.816063
Si Si5 0.733567 0.235340 0.816044
Si Si6 0.562131 0.196173 0.318109
Si Si7 0.607826 0.005478 0.317348
Si Si8 0.365668 0.654063 0.816149
O O1 0.100192 0.727570 0.764156
O O2 0.068477 0.560549 0.775276
O O3 0.000833 0.690032 0.719359
O O4 0.040377 0.668320 0.000000
O O5 0.677896 0.520983 0.500000
O O6 0.641574 0.612691 0.266042
O O7 0.723626 0.495344 0.230674
O O8 0.625747 0.440691 0.269611
O O9 0.295312 0.244667 0.764541
O O10 0.351180 0.309905 0.000000
O O11 0.669670 0.985102 0.730460
O O12 0.717337 0.137440 0.756428
O O13 0.710592 0.024627 0.000000
O O14 0.690814 0.305620 0.747909
O O15 0.728453 0.236717 0.000000
O O16 0.570650 0.213749 0.500000
O O17 0.585771 0.279245 0.222954
O O18 0.591838 0.105334 0.265491
O O19 0.599153 0.990100 0.500000
O O20 0.364178 0.638153 0.000000
#
# Coordination Sequence:
#
# PCOD8225688 Si02
#       8
#     8   8   8   8   8   8   8   8
#     4  11  24  40  64  90 117 159 212 256 297 360
#     4  11  23  38  58  90 127 161 196 244 307 368
#     4   9  20  41  62  87 118 155 203 253 300 352
#     4  10  19  36  59  86 120 159 201 244 290 352
#     4   8  16  32  57  85 114 149 191 242 295 346
#     4  11  24  42  61  86 126 163 200 253 308 361
#     4  11  23  38  58  89 126 162 198 245 306 364
#     4  11  21  37  63  91 119 159 207 251 298 358
#
# _framework density 20.134478000000001
#
# number of rings (size 3 to 8) (size 9 to 14) (size 15 to 20)
#    0.000    1.750    1.250    4.125    1.750    4.000 
#    0.000    1.250    0.000    3.750    0.000    0.000 
#    0.000    0.000    0.000    0.000    0.000    0.000 
#
# Total GULP energy -793750.694733 kJ/mol
# GULP energy per Si atom -12402.354605 kJ/mol
# Density = 2.008865 g / cm^3
# Si number density = 20.134478 Si / 1000 Ang^3
#
#
#
# Elastic Constant Matrix: (Units=GPa)
#
#
# Indices 1 2 3 4 5 6 
#
# 1 87.8891 30.2867 16.8041 0.0000 0.0000 0.0000
# 2 30.2867 56.4263 28.5321 0.0000 0.0000 0.0000
# 3 16.8041 28.5321 55.8222 0.0000 0.0000 0.0000
# 4 0.0000 0.0000 0.0000 28.2349 0.0000 0.0000
# 5 0.0000 0.0000 0.0000 0.0000 30.8198 0.0000
# 6 0.0000 0.0000 0.0000 0.0000 0.0000 29.5489
#
#
#
# Elastic Compliance Matrix: (Units=1/GPa)
#
#
# Indices 1 2 3 4 5 6 
#
# 1 0.013971 -0.007244 -0.000503 0.000000 0.000000 0.000000
# 2 -0.007244 0.027656 -0.011955 0.000000 0.000000 0.000000
# 3 -0.000503 -0.011955 0.024176 0.000000 0.000000 0.000000
# 4 0.000000 0.000000 0.000000 0.035417 0.000000 0.000000
# 5 0.000000 0.000000 0.000000 0.000000 0.032447 0.000000
# 6 0.000000 0.000000 0.000000 0.000000 0.000000 0.033842
#
#
# Mechanical properties :
#
#
# Convention : Reuss Voigt Hill
#
# Bulk Modulus (GPa) = 37.88149 39.04262 38.46205
# Shear Modulus (GPa) = 23.17917 26.02171 24.60044
#
# Velocity S-wave (km/s) = 3.39664 3.59889 3.49923
# Velocity P-wave (km/s) = 5.85132 6.05825 5.95568
#
# Compressibility (1/GPa) = 0.02639812
#
# Stress axis : x y z
#
# Youngs Moduli (GPa) = 71.57918 36.15903 41.36389
#
# Poissons Ratio (x) = 0.26195 0.02079
# Poissons Ratio (y) = 0.51855 0.49449
# Poissons Ratio (z) = 0.03598 0.43227
#
# Static dielectric constant tensor:
#      x y z
#    x 3.700760 0.000000 0.000000 
#    y 0.000000 3.699350 0.000000 
#    z 0.000000 0.000000 3.461370 
# 
# 
# High freq. dielectric constant tensor:
#      x y z
#    x 1.779690 0.000000 0.000000 
#    y 0.000000 1.787310 0.000000 
#    z 0.000000 0.000000 1.778780 
# 
# From -- ./inp_files/9739.got.cif
#   From: 2010.03.12/outbox.cif.g09.slc.cpg/sg55_5_cif.got.tgz:9739.got - 2010.04.16 15:19:21.
