data_PCOD8225184
_publ_section_title
;
Structure prediction by ZEFSAII (Michael W. Deem and Ramdas Pophale) SiO2 
 PCOD8225184
Probable space group: P B A M
;
_chemical_formula_sum "Si O2"
_cell_formula_units_Z 64
_cell_length_a 28.847150
_cell_length_b 12.687978
_cell_length_c 9.019819
_cell_angle_alpha 90.000000
_cell_angle_beta 90.000000
_cell_angle_gamma 90.000000
_cell_volume 3301.362033
_symmetry_space_group_name_H-M "P B A M"
_symmetry_group_IT_number 55
_symmetry_cell_setting 'orthorhombic'
loop_
_space_group_symop_operation_xyz
x,y,z
-x,-y,z
1/2+x,1/2-y,-z
1/2-x,1/2+y,-z
-x,-y,-z
x,y,-z
1/2-x,1/2+y,z
1/2+x,1/2-y,z
loop_
_atom_site_type_symbol
_atom_site_label
_atom_site_fract_x
_atom_site_fract_y
_atom_site_fract_z
Si Si1 0.296859 0.431104 0.177486
Si Si2 0.803527 0.509139 0.825129
Si Si3 0.480157 0.886474 0.326594
Si Si4 0.433144 0.251563 0.325912
Si Si5 0.159241 0.712762 0.825194
Si Si6 0.883255 0.662472 0.822842
Si Si7 0.549900 0.536709 0.830251
Si Si8 0.365230 0.607149 0.830124
O O1 0.244936 0.447236 0.239562
O O2 0.316402 0.319104 0.235330
O O3 0.328290 0.526540 0.243372
O O4 0.298463 0.431586 0.000000
O O5 0.808672 0.386513 0.781888
O O6 0.846465 0.576960 0.762367
O O7 0.802691 0.523025 0.000000
O O8 0.468882 0.879106 0.500000
O O9 0.518566 0.801272 0.277525
O O10 0.433603 0.865062 0.237643
O O11 0.500000 0.000000 0.283354
O O12 0.425936 0.243624 0.500000
O O13 0.390392 0.192272 0.249300
O O14 0.432052 0.371863 0.274984
O O15 0.151177 0.719849 0.000000
O O16 0.865718 0.775913 0.760072
O O17 0.886716 0.664186 0.000000
O O18 0.500000 0.500000 0.775132
O O19 0.583188 0.437339 0.812459
O O20 0.548968 0.577563 0.000000
O O21 0.350556 0.618118 0.000000
#
# Coordination Sequence:
#
# PCOD8225184 Si02
#       8
#     8   8   8   8   8   8   8   8
#     4   9  17  30  51  79 108 140 176 219 270 324
#     4   9  19  31  51  85 112 136 177 229 275 315
#     4  10  22  39  56  75 105 147 186 215 265 333
#     4  11  22  35  54  79 107 140 181 229 272 318
#     4  10  19  34  56  80 109 143 181 222 270 326
#     4  10  20  34  54  83 112 137 178 230 269 310
#     4  10  19  33  53  78 107 141 180 218 267 327
#     4   9  17  30  49  76 108 142 174 211 266 323
#
# _framework density 19.385937999999999
#
# number of rings (size 3 to 8) (size 9 to 14) (size 15 to 20)
#    0.000    2.250    1.250    1.875    1.750    2.500 
#    0.000    0.625    0.000    1.500    0.000    0.000 
#    0.000    0.000    0.000    0.000    0.000    0.000 
#
# Total GULP energy -793557.682872 kJ/mol
# GULP energy per Si atom -12399.338795 kJ/mol
# Density = 1.934181 g / cm^3
# Si number density = 19.385938 Si / 1000 Ang^3
#
#
#
# Elastic Constant Matrix: (Units=GPa)
#
#
# Indices 1 2 3 4 5 6 
#
# 1 157.5944 67.8593 28.1290 0.0000 0.0000 0.0000
# 2 67.8593 145.3851 22.9601 0.0000 0.0000 0.0000
# 3 28.1290 22.9601 23.8352 0.0000 0.0000 0.0000
# 4 0.0000 0.0000 0.0000 9.0428 0.0000 0.0000
# 5 0.0000 0.0000 0.0000 0.0000 7.6469 0.0000
# 6 0.0000 0.0000 0.0000 0.0000 0.0000 33.1660
#
#
#
# Elastic Compliance Matrix: (Units=1/GPa)
#
#
# Indices 1 2 3 4 5 6 
#
# 1 0.009016 -0.002981 -0.007768 0.000000 0.000000 0.000000
# 2 -0.002981 0.009098 -0.005246 0.000000 0.000000 0.000000
# 3 -0.007768 -0.005246 0.056175 0.000000 0.000000 0.000000
# 4 0.000000 0.000000 0.000000 0.110585 0.000000 0.000000
# 5 0.000000 0.000000 0.000000 0.000000 0.130772 0.000000
# 6 0.000000 0.000000 0.000000 0.000000 0.000000 0.030151
#
#
# Mechanical properties :
#
#
# Convention : Reuss Voigt Hill
#
# Bulk Modulus (GPa) = 23.64115 62.74572 43.19343
# Shear Modulus (GPa) = 12.75878 23.82889 18.29383
#
# Velocity S-wave (km/s) = 2.56822 3.50978 3.07525
# Velocity P-wave (km/s) = 4.58430 6.99011 5.91090
#
# Compressibility (1/GPa) = 0.04229913
#
# Stress axis : x y z
#
# Youngs Moduli (GPa) = 110.91817 109.91060 17.80139
#
# Poissons Ratio (x) = 0.32768 0.13828
# Poissons Ratio (y) = 0.33069 0.09338
# Poissons Ratio (z) = 0.86160 0.57657
#
# Static dielectric constant tensor:
#      x y z
#    x 3.759900 0.000000 0.000000 
#    y 0.000000 3.808510 0.000000 
#    z 0.000000 0.000000 3.033410 
# 
# 
# High freq. dielectric constant tensor:
#      x y z
#    x 1.768120 0.000000 0.000000 
#    y 0.000000 1.770130 0.000000 
#    z 0.000000 0.000000 1.697150 
# 
# From -- ./inp_files/10838.got.cif
#   From: 2010.03.12/outbox.cif.g09.slc.cpg/sg55_6_cif.got.tgz:10838.got - 2010.04.16 15:19:21.
