data_PCOD8225833
_publ_section_title
;
Structure prediction by ZEFSAII (Michael W. Deem and Ramdas Pophale) SiO2 
 PCOD8225833
Probable space group: P B A M
;
_chemical_formula_sum "Si O2"
_cell_formula_units_Z 48
_cell_length_a 9.509961
_cell_length_b 28.658550
_cell_length_c 9.597009
_cell_angle_alpha 90.000000
_cell_angle_beta 90.000000
_cell_angle_gamma 90.000000
_cell_volume 2615.585079
_symmetry_space_group_name_H-M "P B A M"
_symmetry_group_IT_number 55
_symmetry_cell_setting 'orthorhombic'
loop_
_space_group_symop_operation_xyz
x,y,z
-x,-y,z
1/2+x,1/2-y,-z
1/2-x,1/2+y,-z
-x,-y,-z
x,y,-z
1/2-x,1/2+y,z
1/2+x,1/2-y,z
loop_
_atom_site_type_symbol
_atom_site_label
_atom_site_fract_x
_atom_site_fract_y
_atom_site_fract_z
Si Si1 0.189989 0.886030 0.838843
Si Si2 0.148019 0.978681 0.662919
Si Si3 0.193938 0.712406 0.165967
Si Si4 0.105681 0.542178 0.653874
Si Si5 0.488031 0.298422 0.165484
Si Si6 0.508762 0.873752 0.839260
O O1 0.175974 0.931884 0.747305
O O2 0.073533 0.848581 0.788841
O O3 0.343761 0.862989 0.817687
O O4 0.167152 0.899607 0.000000
O O5 0.166578 0.966640 0.500000
O O6 0.250289 0.020255 0.710199
O O7 0.000000 0.000000 0.701144
O O8 0.353456 0.708255 0.225005
O O9 0.116745 0.758620 0.224517
O O10 0.101099 0.668924 0.218942
O O11 0.198034 0.713754 0.000000
O O12 0.124786 0.564695 0.500000
O O13 0.050852 0.579986 0.759834
O O14 0.000000 0.500000 0.644139
O O15 0.491657 0.294683 0.000000
O O16 0.543514 0.882600 0.000000
#
# Coordination Sequence:
#
# PCOD8225833 Si02
#       6
#     8   8   8   8   8   8
#     4  10  20  33  51  78 107 135 169 213 259 300
#     4  10  22  38  54  73 101 138 176 212 255 307
#     4   9  17  30  49  74 104 137 169 206 253 306
#     4  10  20  36  55  74  99 137 178 210 249 305
#     4   9  17  30  49  73 104 137 169 206 253 306
#     4  10  20  32  51  79 107 134 169 213 258 299
#
# _framework density 18.351534999999998
#
# number of rings (size 3 to 8) (size 9 to 14) (size 15 to 20)
#    0.000    2.333    1.667    1.000    2.333    5.333 
#    0.000    0.000    0.000    1.000    0.000    0.000 
#    0.000    0.000    0.000    0.000    0.000    0.000 
#
# Total GULP energy -595090.002268 kJ/mol
# GULP energy per Si atom -12397.708381 kJ/mol
# Density = 1.830977 g / cm^3
# Si number density = 18.351535 Si / 1000 Ang^3
#
#
#
# Elastic Constant Matrix: (Units=GPa)
#
#
# Indices 1 2 3 4 5 6 
#
# 1 129.0352 31.8265 21.4337 0.0000 0.0000 0.0000
# 2 31.8265 72.5910 31.4404 0.0000 0.0000 0.0000
# 3 21.4337 31.4404 34.2484 0.0000 0.0000 0.0000
# 4 0.0000 0.0000 0.0000 -19.0081 0.0000 0.0000
# 5 0.0000 0.0000 0.0000 0.0000 15.4246 0.0000
# 6 0.0000 0.0000 0.0000 0.0000 0.0000 35.5782
#
#
#
# Elastic Compliance Matrix: (Units=1/GPa)
#
#
# Indices 1 2 3 4 5 6 
#
# 1 0.008909 -0.002475 -0.003303 0.000000 0.000000 0.000000
# 2 -0.002475 0.023556 -0.020076 0.000000 0.000000 0.000000
# 3 -0.003303 -0.020076 0.049695 0.000000 0.000000 0.000000
# 4 0.000000 0.000000 0.000000 -0.052609 0.000000 0.000000
# 5 0.000000 0.000000 0.000000 0.000000 0.064831 0.000000
# 6 0.000000 0.000000 0.000000 0.000000 0.000000 0.028107
#
#
# Mechanical properties :
#
#
# Convention : Reuss Voigt Hill
#
# Bulk Modulus (GPa) = 32.83831 45.03064 38.93447
# Shear Modulus (GPa) = 27.12241 16.47720 21.79980
#
# Velocity S-wave (km/s) = 3.84856 2.99969 3.45033
# Velocity P-wave (km/s) = 6.13853 6.04885 6.09385
#
# Compressibility (1/GPa) = 0.03045223
#
# Stress axis : x y z
#
# Youngs Moduli (GPa) = 112.24536 42.45158 20.12259
#
# Poissons Ratio (x) = 0.10509 0.06647
# Poissons Ratio (y) = 0.27785 0.40398
# Poissons Ratio (z) = 0.37076 0.85225
#
# Static dielectric constant tensor:
#      x y z
#    x 3.799400 0.000000 0.000000 
#    y 0.000000 3.304800 0.000000 
#    z 0.000000 0.000000 3.035390 
# 
# 
# High freq. dielectric constant tensor:
#      x y z
#    x 1.734500 0.000000 0.000000 
#    y 0.000000 1.714850 0.000000 
#    z 0.000000 0.000000 1.663910 
# 
# From -- ./inp_files/2768.got.cif
#   From: 2010.03.12/outbox.cif.g09.slc.cpg/sg55_2_cif.got.tgz:2768.got - 2010.04.16 15:19:21.
