data_PCOD8225524
_publ_section_title
;
Structure prediction by ZEFSAII (Michael W. Deem and Ramdas Pophale) SiO2 
 PCOD8225524
Probable space group: P B A M
;
_chemical_formula_sum "Si O2"
_cell_formula_units_Z 56
_cell_length_a 21.914761
_cell_length_b 14.722460
_cell_length_c 8.470028
_cell_angle_alpha 90.000000
_cell_angle_beta 90.000000
_cell_angle_gamma 90.000000
_cell_volume 2732.762992
_symmetry_space_group_name_H-M "P B A M"
_symmetry_group_IT_number 55
_symmetry_cell_setting 'orthorhombic'
loop_
_space_group_symop_operation_xyz
x,y,z
-x,-y,z
1/2+x,1/2-y,-z
1/2-x,1/2+y,-z
-x,-y,-z
x,y,-z
1/2-x,1/2+y,z
1/2+x,1/2-y,z
loop_
_atom_site_type_symbol
_atom_site_label
_atom_site_fract_x
_atom_site_fract_y
_atom_site_fract_z
Si Si1 0.113898 0.922709 0.316002
Si Si2 0.542832 0.920397 0.813793
Si Si3 0.677253 0.947651 0.185482
Si Si4 0.980956 0.226654 0.316578
Si Si5 0.279521 0.684491 0.187486
Si Si6 0.590802 0.386672 0.185128
Si Si7 0.255451 0.383017 0.815131
O O1 0.103999 0.942299 0.500000
O O2 0.078339 0.831414 0.263894
O O3 0.184886 0.911537 0.279656
O O4 0.085083 0.006352 0.219584
O O5 0.610493 0.932576 0.738965
O O6 0.516571 0.821302 0.776195
O O7 0.500000 0.000000 0.742333
O O8 0.546180 0.932692 0.000000
O O9 0.725123 0.876315 0.259965
O O10 0.700478 0.048630 0.223026
O O11 0.673470 0.930388 0.000000
O O12 0.978342 0.249732 0.500000
O O13 0.040597 0.168697 0.279814
O O14 0.344017 0.648056 0.250275
O O15 0.268689 0.786611 0.244974
O O16 0.279697 0.677063 0.000000
O O17 0.582476 0.368570 0.000000
O O18 0.272358 0.383236 0.000000
#
# Coordination Sequence:
#
# PCOD8225524 Si02
#       7
#     8   8   8   8   8   8   8
#     4  11  23  40  59  86 124 160 197 245 302 365
#     4  10  22  39  64  94 121 155 205 254 296 352
#     4   9  17  33  56  87 120 148 186 241 297 344
#     4  11  25  42  59  83 122 166 201 244 306 365
#     4   9  18  32  56  88 116 146 189 244 296 345
#     4  11  22  38  63  91 117 152 205 257 306 361
#     4  10  19  34  61  87 115 152 192 240 296 353
#
# _framework density 20.492080000000001
#
# number of rings (size 3 to 8) (size 9 to 14) (size 15 to 20)
#    0.000    1.857    1.429    2.571    2.000    5.429 
#    0.000    2.143    0.000    0.000    0.000    0.000 
#    0.000    0.000    0.000    0.000    0.000    0.000 
#
# Total GULP energy -694554.072792 kJ/mol
# GULP energy per Si atom -12402.751300 kJ/mol
# Density = 2.044544 g / cm^3
# Si number density = 20.492080 Si / 1000 Ang^3
#
#
#
# Elastic Constant Matrix: (Units=GPa)
#
#
# Indices 1 2 3 4 5 6 
#
# 1 111.1185 36.3781 14.5531 0.0000 0.0000 0.0000
# 2 36.3781 134.1274 8.5028 0.0000 0.0000 0.0000
# 3 14.5531 8.5028 17.2455 0.0000 0.0000 0.0000
# 4 0.0000 0.0000 0.0000 16.8720 0.0000 0.0000
# 5 0.0000 0.0000 0.0000 0.0000 19.6951 0.0000
# 6 0.0000 0.0000 0.0000 0.0000 0.0000 39.5532
#
#
#
# Elastic Compliance Matrix: (Units=1/GPa)
#
#
# Indices 1 2 3 4 5 6 
#
# 1 0.010837 -0.002436 -0.007944 0.000000 0.000000 0.000000
# 2 -0.002436 0.008244 -0.002009 0.000000 0.000000 0.000000
# 3 -0.007944 -0.002009 0.065681 0.000000 0.000000 0.000000
# 4 0.000000 0.000000 0.000000 0.059270 0.000000 0.000000
# 5 0.000000 0.000000 0.000000 0.000000 0.050774 0.000000
# 6 0.000000 0.000000 0.000000 0.000000 0.000000 0.025282
#
#
# Mechanical properties :
#
#
# Convention : Reuss Voigt Hill
#
# Bulk Modulus (GPa) = 16.67126 42.37326 29.52226
# Shear Modulus (GPa) = 18.87784 28.76122 23.81953
#
# Velocity S-wave (km/s) = 3.03846 3.75043 3.41306
# Velocity P-wave (km/s) = 4.52358 6.28308 5.47448
#
# Compressibility (1/GPa) = 0.05998346
#
# Stress axis : x y z
#
# Youngs Moduli (GPa) = 92.27417 121.30681 15.22510
#
# Poissons Ratio (x) = 0.29546 0.12096
# Poissons Ratio (y) = 0.22475 0.03059
# Poissons Ratio (z) = 0.73307 0.24371
#
# Static dielectric constant tensor:
#      x y z
#    x 3.968380 0.000000 0.000000 
#    y 0.000000 3.934150 0.000000 
#    z 0.000000 0.000000 3.275960 
# 
# 
# High freq. dielectric constant tensor:
#      x y z
#    x 1.813810 0.000000 0.000000 
#    y 0.000000 1.815690 0.000000 
#    z 0.000000 0.000000 1.762590 
# 
# From -- ./inp_files/8806.got.cif
#   From: 2010.03.12/outbox.cif.g09.slc.cpg/sg55_5_cif.got.tgz:8806.got - 2010.04.16 15:19:21.
