data_PCOD8225947
_publ_section_title
;
Structure prediction by ZEFSAII (Michael W. Deem and Ramdas Pophale) SiO2 
 PCOD8225947
Probable space group: P B A M
;
_chemical_formula_sum "Si O2"
_cell_formula_units_Z 56
_cell_length_a 18.842142
_cell_length_b 18.323248
_cell_length_c 8.925012
_cell_angle_alpha 90.000000
_cell_angle_beta 90.000000
_cell_angle_gamma 90.000000
_cell_volume 3081.353616
_symmetry_space_group_name_H-M "P B A M"
_symmetry_group_IT_number 55
_symmetry_cell_setting 'orthorhombic'
loop_
_space_group_symop_operation_xyz
x,y,z
-x,-y,z
1/2+x,1/2-y,-z
1/2-x,1/2+y,-z
-x,-y,-z
x,y,-z
1/2-x,1/2+y,z
1/2+x,1/2-y,z
loop_
_atom_site_type_symbol
_atom_site_label
_atom_site_fract_x
_atom_site_fract_y
_atom_site_fract_z
Si Si1 0.399341 0.881043 0.826670
Si Si2 0.140667 0.547872 0.830966
Si Si3 0.923730 0.030404 0.677227
Si Si4 0.112735 0.808503 0.676205
Si Si5 0.787826 0.006465 0.173067
Si Si6 0.044924 0.662089 0.323178
Si Si7 0.237266 0.350161 0.674228
O O1 0.469709 0.858146 0.742975
O O2 0.333725 0.831594 0.767340
O O3 0.383734 0.965637 0.794083
O O4 0.409215 0.864752 0.000000
O O5 0.226398 0.555151 0.813885
O O6 0.103481 0.601923 0.716592
O O7 0.117184 0.567841 0.000000
O O8 0.910670 0.023677 0.500000
O O9 0.917456 0.114142 0.736330
O O10 0.864843 0.980992 0.765260
O O11 0.000000 0.000000 0.723824
O O12 0.102368 0.809387 0.500000
O O13 0.069364 0.740393 0.744308
O O14 0.196647 0.796798 0.714130
O O15 0.765059 0.070238 0.284392
O O16 0.792244 0.033016 0.000000
O O17 0.038156 0.665241 0.500000
O O18 0.217653 0.347239 0.500000
#
# Coordination Sequence:
#
# PCOD8225947 Si02
#       7
#     8   8   8   8   8   8   8
#     4  10  20  34  51  73 101 130 164 207 249 287
#     4   9  19  34  49  68  99 134 165 204 250 291
#     4   9  17  32  55  77  97 127 168 211 251 294
#     4   8  17  33  50  72 100 126 158 204 251 288
#     4   9  17  30  49  73 100 126 154 197 249 293
#     4  11  21  32  49  73 102 134 166 201 244 296
#     4   9  16  31  54  73  92 122 162 202 239 289
#
# _framework density 18.173832000000001
#
# number of rings (size 3 to 8) (size 9 to 14) (size 15 to 20)
#    0.000    2.714    0.000    3.857    0.000    5.429 
#    0.000    8.571    0.000    6.857    0.000    0.000 
#    0.000    0.000    0.000    0.000    0.000    0.000 
#
# Total GULP energy -693991.490836 kJ/mol
# GULP energy per Si atom -12392.705193 kJ/mol
# Density = 1.813247 g / cm^3
# Si number density = 18.173832 Si / 1000 Ang^3
#
#
#
# Elastic Constant Matrix: (Units=GPa)
#
#
# Indices 1 2 3 4 5 6 
#
# 1 167.9986 56.2130 53.7231 0.0000 0.0000 0.0000
# 2 56.2130 61.0206 31.4623 0.0000 0.0000 0.0000
# 3 53.7231 31.4623 62.5397 0.0000 0.0000 0.0000
# 4 0.0000 0.0000 0.0000 10.0157 0.0000 0.0000
# 5 0.0000 0.0000 0.0000 0.0000 31.4619 0.0000
# 6 0.0000 0.0000 0.0000 0.0000 0.0000 14.5364
#
#
#
# Elastic Compliance Matrix: (Units=1/GPa)
#
#
# Indices 1 2 3 4 5 6 
#
# 1 0.009709 -0.006270 -0.005186 0.000000 0.000000 0.000000
# 2 -0.006270 0.026177 -0.007783 0.000000 0.000000 0.000000
# 3 -0.005186 -0.007783 0.024360 0.000000 0.000000 0.000000
# 4 0.000000 0.000000 0.000000 0.099843 0.000000 0.000000
# 5 0.000000 0.000000 0.000000 0.000000 0.031785 0.000000
# 6 0.000000 0.000000 0.000000 0.000000 0.000000 0.068793
#
#
# Mechanical properties :
#
#
# Convention : Reuss Voigt Hill
#
# Bulk Modulus (GPa) = 45.93857 63.81732 54.87795
# Shear Modulus (GPa) = 16.31859 21.21349 18.76604
#
# Velocity S-wave (km/s) = 2.99978 3.42022 3.21687
# Velocity P-wave (km/s) = 6.10986 7.12660 6.63772
#
# Compressibility (1/GPa) = 0.02176820
#
# Stress axis : x y z
#
# Youngs Moduli (GPa) = 103.00026 38.20174 41.05116
#
# Poissons Ratio (x) = 0.23953 0.21288
# Poissons Ratio (y) = 0.64582 0.31949
# Poissons Ratio (z) = 0.53413 0.29732
#
# Static dielectric constant tensor:
#      x y z
#    x 3.814740 0.000000 0.000000 
#    y 0.000000 3.208520 0.000000 
#    z 0.000000 0.000000 3.316540 
# 
# 
# High freq. dielectric constant tensor:
#      x y z
#    x 1.723710 0.000000 0.000000 
#    y 0.000000 1.660010 0.000000 
#    z 0.000000 0.000000 1.700080 
# 
# From -- ./inp_files/8896.got.cif
#   From: 2010.03.12/outbox.cif.g09.slc.cpg/sg55_5_cif.got.tgz:8896.got - 2010.04.16 15:19:21.
