data_PCOD8225832
_publ_section_title
;
Structure prediction by ZEFSAII (Michael W. Deem and Ramdas Pophale) SiO2 
 PCOD8225832
Probable space group: P B A M
;
_chemical_formula_sum "Si O2"
_cell_formula_units_Z 64
_cell_length_a 19.383996
_cell_length_b 19.817915
_cell_length_c 9.321028
_cell_angle_alpha 90.000000
_cell_angle_beta 90.000000
_cell_angle_gamma 90.000000
_cell_volume 3580.676496
_symmetry_space_group_name_H-M "P B A M"
_symmetry_group_IT_number 55
_symmetry_cell_setting 'orthorhombic'
loop_
_space_group_symop_operation_xyz
x,y,z
-x,-y,z
1/2+x,1/2-y,-z
1/2-x,1/2+y,-z
-x,-y,-z
x,y,-z
1/2-x,1/2+y,z
1/2+x,1/2-y,z
loop_
_atom_site_type_symbol
_atom_site_label
_atom_site_fract_x
_atom_site_fract_y
_atom_site_fract_z
Si Si1 0.762048 0.995647 0.334195
Si Si2 0.247979 0.639597 0.166517
Si Si3 0.609910 0.020621 0.332122
Si Si4 0.905048 0.035092 0.332451
Si Si5 0.946977 0.644992 0.164759
Si Si6 0.619164 0.283104 0.831680
Si Si7 0.535518 0.394010 0.669679
Si Si8 0.403183 0.114900 0.164006
O O1 0.766810 0.974450 0.500000
O O2 0.771182 0.927129 0.247689
O O3 0.690872 0.033437 0.300894
O O4 0.824501 0.047104 0.293156
O O5 0.300795 0.700084 0.209713
O O6 0.167339 0.656239 0.203896
O O7 0.256382 0.623882 0.000000
O O8 0.592889 0.018199 0.500000
O O9 0.568311 0.080820 0.261749
O O10 0.587523 0.949786 0.264892
O O11 0.918602 0.032275 0.500000
O O12 0.955432 0.094898 0.278086
O O13 0.924904 0.960787 0.275943
O O14 0.899695 0.707176 0.216444
O O15 0.028996 0.661782 0.183562
O O16 0.930480 0.626896 0.000000
O O17 0.565727 0.330488 0.751000
O O18 0.606182 0.291741 0.000000
O O19 0.542730 0.380902 0.500000
O O20 0.397793 0.089153 0.000000
#
# Coordination Sequence:
#
# PCOD8225832 Si02
#       8
#     8   8   8   8   8   8   8   8
#     4   9  16  29  49  72  99 126 154 193 241 288
#     4   9  17  30  49  72  94 120 159 202 236 275
#     4  10  20  32  51  78 101 121 155 209 257 285
#     4   8  14  26  46  71  97 126 162 195 231 284
#     4  10  21  36  51  68  97 135 165 193 239 299
#     4  10  20  33  48  70 100 129 162 204 243 282
#     4   9  16  28  48  70  93 128 167 197 231 285
#     4   9  18  34  55  73  92 126 167 199 238 294
#
# _framework density 17.873716999999999
#
# number of rings (size 3 to 8) (size 9 to 14) (size 15 to 20)
#    0.000    2.750    1.250    1.500    0.000    3.000 
#    0.000    3.125    0.000    1.500    0.000    0.000 
#    0.000    0.000    0.000    0.000    0.000    0.000 
#
# Total GULP energy -792973.872572 kJ/mol
# GULP energy per Si atom -12390.216759 kJ/mol
# Density = 1.783304 g / cm^3
# Si number density = 17.873717 Si / 1000 Ang^3
#
#
#
# Elastic Constant Matrix: (Units=GPa)
#
#
# Indices 1 2 3 4 5 6 
#
# 1 141.6385 51.0948 30.6411 0.0000 0.0000 0.0000
# 2 51.0948 66.3999 26.9538 0.0000 0.0000 0.0000
# 3 30.6411 26.9538 41.4998 0.0000 0.0000 0.0000
# 4 0.0000 0.0000 0.0000 -11.3124 0.0000 0.0000
# 5 0.0000 0.0000 0.0000 0.0000 21.7329 0.0000
# 6 0.0000 0.0000 0.0000 0.0000 0.0000 28.0686
#
#
#
# Elastic Compliance Matrix: (Units=1/GPa)
#
#
# Indices 1 2 3 4 5 6 
#
# 1 0.010089 -0.006437 -0.003269 0.000000 0.000000 0.000000
# 2 -0.006437 0.024559 -0.011198 0.000000 0.000000 0.000000
# 3 -0.003269 -0.011198 0.033783 0.000000 0.000000 0.000000
# 4 0.000000 0.000000 0.000000 -0.088399 0.000000 0.000000
# 5 0.000000 0.000000 0.000000 0.000000 0.046013 0.000000
# 6 0.000000 0.000000 0.000000 0.000000 0.000000 0.035627
#
#
# Mechanical properties :
#
#
# Convention : Reuss Voigt Hill
#
# Bulk Modulus (GPa) = 37.56035 51.87974 44.72004
# Shear Modulus (GPa) = 44.50137 17.08772 30.79455
#
# Velocity S-wave (km/s) = 4.99517 3.09532 4.15528
# Velocity P-wave (km/s) = 7.37081 6.47019 6.93514
#
# Compressibility (1/GPa) = 0.02662382
#
# Stress axis : x y z
#
# Youngs Moduli (GPa) = 99.11366 40.71781 29.60046
#
# Poissons Ratio (x) = 0.26210 0.09676
# Poissons Ratio (y) = 0.63799 0.33148
# Poissons Ratio (z) = 0.32398 0.45597
#
# Static dielectric constant tensor:
#      x y z
#    x 3.867940 0.000000 0.000000 
#    y 0.000000 2.986240 0.000000 
#    z 0.000000 0.000000 3.187720 
# 
# 
# High freq. dielectric constant tensor:
#      x y z
#    x 1.717080 0.000000 0.000000 
#    y 0.000000 1.647420 0.000000 
#    z 0.000000 0.000000 1.678350 
# 
# From -- ./inp_files/8976.got.cif
#   From: 2010.03.12/outbox.cif.g09.slc.cpg/sg55_5_cif.got.tgz:8976.got - 2010.04.16 15:19:21.
