data_PCOD8225273
_publ_section_title
;
Structure prediction by ZEFSAII (Michael W. Deem and Ramdas Pophale) SiO2 
 PCOD8225273
Probable space group: P B A M
;
_chemical_formula_sum "Si O2"
_cell_formula_units_Z 40
_cell_length_a 22.301212
_cell_length_b 9.022840
_cell_length_c 10.325166
_cell_angle_alpha 90.000000
_cell_angle_beta 90.000000
_cell_angle_gamma 90.000000
_cell_volume 2077.632666
_symmetry_space_group_name_H-M "P B A M"
_symmetry_group_IT_number 55
_symmetry_cell_setting 'orthorhombic'
loop_
_space_group_symop_operation_xyz
x,y,z
-x,-y,z
1/2+x,1/2-y,-z
1/2-x,1/2+y,-z
-x,-y,-z
x,y,-z
1/2-x,1/2+y,z
1/2+x,1/2-y,z
loop_
_atom_site_type_symbol
_atom_site_label
_atom_site_fract_x
_atom_site_fract_y
_atom_site_fract_z
Si Si1 0.748311 0.794617 0.272806
Si Si2 0.563432 0.076614 0.848024
Si Si3 0.164849 0.455951 0.358127
Si Si4 0.556441 0.414586 0.846227
Si Si5 0.678926 0.534997 0.852312
O O1 0.800923 0.701370 0.342082
O O2 0.713027 0.909758 0.364183
O O3 0.776948 0.894309 0.158887
O O4 0.700440 0.681256 0.217673
O O5 0.554075 0.244801 0.805135
O O6 0.500000 0.000000 0.820565
O O7 0.616556 0.013227 0.756613
O O8 0.582072 0.058748 0.000000
O O9 0.133498 0.451882 0.500000
O O10 0.500000 0.500000 0.785554
O O11 0.615503 0.491395 0.788459
O O12 0.556693 0.427375 0.000000
O O13 0.671219 0.577434 0.000000
#
# Coordination Sequence:
#
# PCOD8225273 Si02
#       5
#     8   8   8   8   8
#     4  10  22  36  56  85 116 157 197 240 292 352
#     4  10  22  39  61  89 119 152 196 247 296 349
#     4  11  23  41  62  85 119 160 200 243 294 353
#     4   9  18  33  54  81 114 149 187 233 289 346
#     4  10  19  33  55  86 119 151 190 241 297 352
#
# _framework density 19.252680999999999
#
# number of rings (size 3 to 8) (size 9 to 14) (size 15 to 20)
#    0.000    2.000    2.000    1.200    2.800    4.400 
#    0.000    0.000    0.000    0.600    0.000    0.000 
#    0.000    0.000    0.000    0.000    0.000    0.000 
#
# Total GULP energy -495755.118074 kJ/mol
# GULP energy per Si atom -12393.877952 kJ/mol
# Density = 1.920886 g / cm^3
# Si number density = 19.252681 Si / 1000 Ang^3
#
#
#
# Elastic Constant Matrix: (Units=GPa)
#
#
# Indices 1 2 3 4 5 6 
#
# 1 115.9810 37.8885 37.8045 0.0000 0.0000 0.0000
# 2 37.8885 97.1178 20.6024 0.0000 0.0000 0.0000
# 3 37.8045 20.6024 85.7018 0.0000 0.0000 0.0000
# 4 0.0000 0.0000 0.0000 4.3757 0.0000 0.0000
# 5 0.0000 0.0000 0.0000 0.0000 17.3340 0.0000
# 6 0.0000 0.0000 0.0000 0.0000 0.0000 38.7780
#
#
#
# Elastic Compliance Matrix: (Units=1/GPa)
#
#
# Indices 1 2 3 4 5 6 
#
# 1 0.011074 -0.003460 -0.004053 0.000000 0.000000 0.000000
# 2 -0.003460 0.011931 -0.001342 0.000000 0.000000 0.000000
# 3 -0.004053 -0.001342 0.013779 0.000000 0.000000 0.000000
# 4 0.000000 0.000000 0.000000 0.228535 0.000000 0.000000
# 5 0.000000 0.000000 0.000000 0.000000 0.057690 0.000000
# 6 0.000000 0.000000 0.000000 0.000000 0.000000 0.025788
#
#
# Mechanical properties :
#
#
# Convention : Reuss Voigt Hill
#
# Bulk Modulus (GPa) = 52.42860 54.59902 53.51381
# Shear Modulus (GPa) = 13.40968 25.59790 19.50379
#
# Velocity S-wave (km/s) = 2.64201 3.65029 3.18629
# Velocity P-wave (km/s) = 6.04962 6.79610 6.43369
#
# Compressibility (1/GPa) = 0.01907356
#
# Stress axis : x y z
#
# Youngs Moduli (GPa) = 90.30505 83.81232 72.57563
#
# Poissons Ratio (x) = 0.29002 0.29414
# Poissons Ratio (y) = 0.31249 0.09739
# Poissons Ratio (z) = 0.36600 0.11246
#
# Static dielectric constant tensor:
#      x y z
#    x 3.758690 0.000000 0.000000 
#    y 0.000000 3.656920 0.000000 
#    z 0.000000 0.000000 3.161280 
# 
# 
# High freq. dielectric constant tensor:
#      x y z
#    x 1.753520 0.000000 0.000000 
#    y 0.000000 1.764240 0.000000 
#    z 0.000000 0.000000 1.710940 
# 
# From -- ./inp_files/2325.got.cif
#   From: 2010.03.12/outbox.cif.g09.slc.cpg/sg55_2_cif.got.tgz:2325.got - 2010.04.16 15:19:21.
