data_PCOD8225625
_publ_section_title
;
Structure prediction by ZEFSAII (Michael W. Deem and Ramdas Pophale) SiO2 
 PCOD8225625
Probable space group: P B A M
;
_chemical_formula_sum "Si O2"
_cell_formula_units_Z 40
_cell_length_a 9.345613
_cell_length_b 16.977348
_cell_length_c 12.564595
_cell_angle_alpha 90.000000
_cell_angle_beta 90.000000
_cell_angle_gamma 90.000000
_cell_volume 1993.545435
_symmetry_space_group_name_H-M "P B A M"
_symmetry_group_IT_number 55
_symmetry_cell_setting 'orthorhombic'
loop_
_space_group_symop_operation_xyz
x,y,z
-x,-y,z
1/2+x,1/2-y,-z
1/2-x,1/2+y,-z
-x,-y,-z
x,y,-z
1/2-x,1/2+y,z
1/2+x,1/2-y,z
loop_
_atom_site_type_symbol
_atom_site_label
_atom_site_fract_x
_atom_site_fract_y
_atom_site_fract_z
Si Si1 0.364253 0.051300 0.728498
Si Si2 0.530955 0.176799 0.386157
Si Si3 0.744952 0.318025 0.123136
Si Si4 0.546240 0.696694 0.224786
Si Si5 0.686294 0.580072 0.620724
O O1 0.414771 0.109642 0.636072
O O2 0.309314 0.101916 0.827997
O O3 0.500000 0.000000 0.768704
O O4 0.237885 0.000577 0.675745
O O5 0.490085 0.214079 0.500000
O O6 0.536311 0.244195 0.300878
O O7 0.686975 0.141047 0.391030
O O8 0.572883 0.321210 0.135348
O O9 0.813889 0.238369 0.174222
O O10 0.784768 0.317813 0.000000
O O11 0.576660 0.618569 0.294661
O O12 0.623879 0.564652 0.500000
#
# Coordination Sequence:
#
# PCOD8225625 Si02
#       5
#     8   8   8   8   8
#     4   9  20  38  60  88 123 157 196 239 288 362
#     4   9  17  33  58  87 121 159 192 231 293 358
#     4  11  24  42  63  84 115 159 205 252 295 336
#     4  11  21  39  59  91 120 150 201 250 294 351
#     4  10  19  35  60  90 122 155 190 236 297 359
#
# _framework density 20.064755999999999
#
# number of rings (size 3 to 8) (size 9 to 14) (size 15 to 20)
#    0.000    2.000    2.000    1.800    0.000    3.600 
#    0.000    7.000    0.000    0.000    0.000    0.000 
#    0.000    0.000    0.000    0.000    0.000    0.000 
#
# Total GULP energy -495760.183742 kJ/mol
# GULP energy per Si atom -12394.004594 kJ/mol
# Density = 2.001909 g / cm^3
# Si number density = 20.064756 Si / 1000 Ang^3
#
#
#
# Elastic Constant Matrix: (Units=GPa)
#
#
# Indices 1 2 3 4 5 6 
#
# 1 73.6016 19.9471 30.8127 0.0000 0.0000 0.0000
# 2 19.9471 59.8587 20.0537 0.0000 0.0000 0.0000
# 3 30.8127 20.0537 119.0610 0.0000 0.0000 0.0000
# 4 0.0000 0.0000 0.0000 26.1015 0.0000 0.0000
# 5 0.0000 0.0000 0.0000 0.0000 69.1079 0.0000
# 6 0.0000 0.0000 0.0000 0.0000 0.0000 27.0503
#
#
#
# Elastic Compliance Matrix: (Units=1/GPa)
#
#
# Indices 1 2 3 4 5 6 
#
# 1 0.016189 -0.004230 -0.003477 0.000000 0.000000 0.000000
# 2 -0.004230 0.018810 -0.002074 0.000000 0.000000 0.000000
# 3 -0.003477 -0.002074 0.009648 0.000000 0.000000 0.000000
# 4 0.000000 0.000000 0.000000 0.038312 0.000000 0.000000
# 5 0.000000 0.000000 0.000000 0.000000 0.014470 0.000000
# 6 0.000000 0.000000 0.000000 0.000000 0.000000 0.036968
#
#
# Mechanical properties :
#
#
# Convention : Reuss Voigt Hill
#
# Bulk Modulus (GPa) = 39.86277 43.79425 41.82851
# Shear Modulus (GPa) = 30.80327 36.56580 33.68454
#
# Velocity S-wave (km/s) = 3.92240 4.27358 4.10175
# Velocity P-wave (km/s) = 6.35798 6.79891 6.58213
#
# Compressibility (1/GPa) = 0.02508606
#
# Stress axis : x y z
#
# Youngs Moduli (GPa) = 61.77155 53.16263 103.64628
#
# Poissons Ratio (x) = 0.22487 0.36040
# Poissons Ratio (y) = 0.26128 0.21492
# Poissons Ratio (z) = 0.21479 0.11024
#
# Static dielectric constant tensor:
#      x y z
#    x 3.679800 0.000000 0.000000 
#    y 0.000000 3.741750 0.000000 
#    z 0.000000 0.000000 3.796920 
# 
# 
# High freq. dielectric constant tensor:
#      x y z
#    x 1.779310 0.000000 0.000000 
#    y 0.000000 1.780780 0.000000 
#    z 0.000000 0.000000 1.777390 
# 
# From -- ./inp_files/11854.got.cif
#   From: 2010.03.12/outbox.cif.g09.slc.cpg/sg55_6_cif.got.tgz:11854.got - 2010.04.16 15:19:21.
