data_PCOD8225569
_publ_section_title
;
Structure prediction by ZEFSAII (Michael W. Deem and Ramdas Pophale) SiO2 
 PCOD8225569
Probable space group: P B A M
;
_chemical_formula_sum "Si O2"
_cell_formula_units_Z 48
_cell_length_a 8.962796
_cell_length_b 31.069239
_cell_length_c 8.519626
_cell_angle_alpha 90.000000
_cell_angle_beta 90.000000
_cell_angle_gamma 90.000000
_cell_volume 2372.436832
_symmetry_space_group_name_H-M "P B A M"
_symmetry_group_IT_number 55
_symmetry_cell_setting 'orthorhombic'
loop_
_space_group_symop_operation_xyz
x,y,z
-x,-y,z
1/2+x,1/2-y,-z
1/2-x,1/2+y,-z
-x,-y,-z
x,y,-z
1/2-x,1/2+y,z
1/2+x,1/2-y,z
loop_
_atom_site_type_symbol
_atom_site_label
_atom_site_fract_x
_atom_site_fract_y
_atom_site_fract_z
Si Si1 0.918916 0.710121 0.685970
Si Si2 0.918131 0.542207 0.686837
Si Si3 0.577900 0.703966 0.686313
Si Si4 0.922084 0.045491 0.681163
Si Si5 0.092993 0.123803 0.181293
Si Si6 0.582708 0.873660 0.684767
O O1 0.932676 0.709742 0.500000
O O2 0.748460 0.708367 0.739874
O O3 0.991764 0.754024 0.749276
O O4 0.007080 0.669186 0.757275
O O5 0.926747 0.541401 0.500000
O O6 0.747145 0.542379 0.742657
O O7 0.000000 0.500000 0.755765
O O8 0.001462 0.584241 0.755712
O O9 0.562322 0.698202 0.500000
O O10 0.513160 0.662630 0.771018
O O11 0.927192 0.060454 0.500000
O O12 0.008659 0.079513 0.786236
O O13 0.000000 0.000000 0.703734
O O14 0.243134 0.125759 0.280959
O O15 0.135070 0.126816 0.000000
O O16 0.558625 0.873566 0.500000
#
# Coordination Sequence:
#
# PCOD8225569 Si02
#       6
#     8   8   8   8   8   8
#     4   9  18  33  60  90 110 137 183 238 285 327
#     4   9  17  31  56  89 115 136 173 225 276 328
#     4  10  19  36  60  85 111 141 183 232 283 334
#     4  10  20  37  63  89 111 141 182 228 278 329
#     4  12  25  38  53  79 115 153 189 225 272 328
#     4  10  19  35  58  82 110 145 186 231 276 323
#
# _framework density 20.232361000000001
#
# number of rings (size 3 to 8) (size 9 to 14) (size 15 to 20)
#    0.000    2.000    0.000    4.500    0.000    8.333 
#    0.000    6.667    0.000    2.000    0.000    0.000 
#    0.000    0.000    0.000    0.000    0.000    0.000 
#
# Total GULP energy -595348.279596 kJ/mol
# GULP energy per Si atom -12403.089158 kJ/mol
# Density = 2.018631 g / cm^3
# Si number density = 20.232361 Si / 1000 Ang^3
#
#
#
# Elastic Constant Matrix: (Units=GPa)
#
#
# Indices 1 2 3 4 5 6 
#
# 1 142.2652 56.7841 0.9383 0.0000 0.0000 0.0000
# 2 56.7841 139.5785 17.5533 0.0000 0.0000 0.0000
# 3 0.9383 17.5533 20.0520 0.0000 0.0000 0.0000
# 4 0.0000 0.0000 0.0000 8.9075 0.0000 0.0000
# 5 0.0000 0.0000 0.0000 0.0000 3.3877 0.0000
# 6 0.0000 0.0000 0.0000 0.0000 0.0000 47.0283
#
#
#
# Elastic Compliance Matrix: (Units=1/GPa)
#
#
# Indices 1 2 3 4 5 6 
#
# 1 0.008546 -0.003851 0.002971 0.000000 0.000000 0.000000
# 2 -0.003851 0.009786 -0.008386 0.000000 0.000000 0.000000
# 3 0.002971 -0.008386 0.057072 0.000000 0.000000 0.000000
# 4 0.000000 0.000000 0.000000 0.112265 0.000000 0.000000
# 5 0.000000 0.000000 0.000000 0.000000 0.295189 0.000000
# 6 0.000000 0.000000 0.000000 0.000000 0.000000 0.021264
#
#
# Mechanical properties :
#
#
# Convention : Reuss Voigt Hill
#
# Bulk Modulus (GPa) = 17.58305 50.27189 33.92747
# Shear Modulus (GPa) = 9.23171 26.97268 18.10219
#
# Velocity S-wave (km/s) = 2.13840 3.65519 2.99442
# Velocity P-wave (km/s) = 3.84791 6.53568 5.36290
#
# Compressibility (1/GPa) = 0.05687296
#
# Stress axis : x y z
#
# Youngs Moduli (GPa) = 117.00787 102.19173 17.52160
#
# Poissons Ratio (x) = 0.39349 -0.05205
# Poissons Ratio (y) = 0.45054 0.14694
# Poissons Ratio (z) = -0.34761 0.85698
#
# Static dielectric constant tensor:
#      x y z
#    x 3.790680 0.000000 0.000000 
#    y 0.000000 4.002030 0.000000 
#    z 0.000000 0.000000 3.127780 
# 
# 
# High freq. dielectric constant tensor:
#      x y z
#    x 1.808920 0.000000 0.000000 
#    y 0.000000 1.812480 0.000000 
#    z 0.000000 0.000000 1.734740 
# 
# From -- ./inp_files/2858.got.cif
#   From: 2010.03.12/outbox.cif.g09.slc.cpg/sg55_2_cif.got.tgz:2858.got - 2010.04.16 15:19:21.
