data_PCOD8225198
_publ_section_title
;
Structure prediction by ZEFSAII (Michael W. Deem and Ramdas Pophale) SiO2 
 PCOD8225198
Probable space group: P B A M
;
_chemical_formula_sum "Si O2"
_cell_formula_units_Z 56
_cell_length_a 22.180851
_cell_length_b 14.343084
_cell_length_c 9.263685
_cell_angle_alpha 90.000000
_cell_angle_beta 90.000000
_cell_angle_gamma 90.000000
_cell_volume 2947.165505
_symmetry_space_group_name_H-M "P B A M"
_symmetry_group_IT_number 55
_symmetry_cell_setting 'orthorhombic'
loop_
_space_group_symop_operation_xyz
x,y,z
-x,-y,z
1/2+x,1/2-y,-z
1/2-x,1/2+y,-z
-x,-y,-z
x,y,-z
1/2-x,1/2+y,z
1/2+x,1/2-y,z
loop_
_atom_site_type_symbol
_atom_site_label
_atom_site_fract_x
_atom_site_fract_y
_atom_site_fract_z
Si Si1 0.889297 0.773430 0.168928
Si Si2 0.354189 0.903767 0.331598
Si Si3 0.001523 0.895079 0.828624
Si Si4 0.787039 0.914538 0.834570
Si Si5 0.880084 0.211456 0.168005
Si Si6 0.648321 0.915385 0.164093
Si Si7 0.213757 0.903298 0.331397
O O1 0.892316 0.677016 0.255394
O O2 0.826354 0.824232 0.204256
O O3 0.943297 0.838760 0.225801
O O4 0.896025 0.751047 0.000000
O O5 0.368379 0.902740 0.500000
O O6 0.283956 0.888449 0.297083
O O7 0.375295 0.003401 0.268676
O O8 0.061297 0.842529 0.773687
O O9 0.001158 0.899137 0.000000
O O10 0.000000 0.000000 0.764759
O O11 0.717846 0.889621 0.804130
O O12 0.809072 0.999703 0.735919
O O13 0.798431 0.944368 0.000000
O O14 0.890240 0.321991 0.192240
O O15 0.822099 0.180809 0.258615
O O16 0.867616 0.190351 0.000000
O O17 0.640891 0.950538 0.000000
O O18 0.200350 0.904923 0.500000
#
# Coordination Sequence:
#
# PCOD8225198 Si02
#       7
#     8   8   8   8   8   8   8
#     4  10  19  33  55  79 103 135 173 212 255 302
#     4  10  21  35  51  74 105 137 168 208 258 309
#     4   9  18  33  54  80 106 131 164 208 255 302
#     4   9  17  30  50  75 101 131 168 210 255 302
#     4  10  19  33  54  77 102 135 174 214 255 300
#     4   9  18  32  51  75 100 129 170 215 254 298
#     4  10  20  32  49  76 107 137 168 206 256 310
#
# _framework density 19.001308000000002
#
# number of rings (size 3 to 8) (size 9 to 14) (size 15 to 20)
#    0.000    2.429    0.000    2.571    0.000    6.286 
#    0.000    4.286    0.000    6.000    0.000    0.000 
#    0.000    0.000    0.000    0.000    0.000    0.000 
#
# Total GULP energy -694546.122940 kJ/mol
# GULP energy per Si atom -12402.609338 kJ/mol
# Density = 1.895806 g / cm^3
# Si number density = 19.001308 Si / 1000 Ang^3
#
#
#
# Elastic Constant Matrix: (Units=GPa)
#
#
# Indices 1 2 3 4 5 6 
#
# 1 60.7424 54.6795 27.3656 0.0000 0.0000 0.0000
# 2 54.6795 150.5564 56.7724 0.0000 0.0000 0.0000
# 3 27.3656 56.7724 67.1763 0.0000 0.0000 0.0000
# 4 0.0000 0.0000 0.0000 14.7102 0.0000 0.0000
# 5 0.0000 0.0000 0.0000 0.0000 15.0902 0.0000
# 6 0.0000 0.0000 0.0000 0.0000 0.0000 32.6087
#
#
#
# Elastic Compliance Matrix: (Units=1/GPa)
#
#
# Indices 1 2 3 4 5 6 
#
# 1 0.025069 -0.007711 -0.003696 0.000000 0.000000 0.000000
# 2 -0.007711 0.012121 -0.007102 0.000000 0.000000 0.000000
# 3 -0.003696 -0.007102 0.022394 0.000000 0.000000 0.000000
# 4 0.000000 0.000000 0.000000 0.067980 0.000000 0.000000
# 5 0.000000 0.000000 0.000000 0.000000 0.066268 0.000000
# 6 0.000000 0.000000 0.000000 0.000000 0.000000 0.030667
#
#
# Mechanical properties :
#
#
# Convention : Reuss Voigt Hill
#
# Bulk Modulus (GPa) = 44.31434 61.79001 53.05217
# Shear Modulus (GPa) = 18.58464 21.79233 20.18848
#
# Velocity S-wave (km/s) = 3.13081 3.39024 3.26310
# Velocity P-wave (km/s) = 6.03669 6.92202 6.49446
#
# Compressibility (1/GPa) = 0.02256606
#
# Stress axis : x y z
#
# Youngs Moduli (GPa) = 39.88919 82.50311 44.65495
#
# Poissons Ratio (x) = 0.63620 0.16502
# Poissons Ratio (y) = 0.30760 0.31715
# Poissons Ratio (z) = 0.14741 0.58596
#
# Static dielectric constant tensor:
#      x y z
#    x 3.349450 0.000000 0.000000 
#    y 0.000000 3.527390 0.000000 
#    z 0.000000 0.000000 3.245550 
# 
# 
# High freq. dielectric constant tensor:
#      x y z
#    x 1.718840 0.000000 0.000000 
#    y 0.000000 1.748490 0.000000 
#    z 0.000000 0.000000 1.714700 
# 
# From -- ./inp_files/6092.got.cif
#   From: 2010.03.12/outbox.cif.g09.slc.cpg/sg55_4_cif.got.tgz:6092.got - 2010.04.16 15:19:21.
