data_PCOD8225518
_publ_section_title
;
Structure prediction by ZEFSAII (Michael W. Deem and Ramdas Pophale) SiO2 
 PCOD8225518
Probable space group: P B A M
;
_chemical_formula_sum "Si O2"
_cell_formula_units_Z 56
_cell_length_a 21.672627
_cell_length_b 14.471521
_cell_length_c 8.992345
_cell_angle_alpha 90.000000
_cell_angle_beta 90.000000
_cell_angle_gamma 90.000000
_cell_volume 2820.322008
_symmetry_space_group_name_H-M "P B A M"
_symmetry_group_IT_number 55
_symmetry_cell_setting 'orthorhombic'
loop_
_space_group_symop_operation_xyz
x,y,z
-x,-y,z
1/2+x,1/2-y,-z
1/2-x,1/2+y,-z
-x,-y,-z
x,y,-z
1/2-x,1/2+y,z
1/2+x,1/2-y,z
loop_
_atom_site_type_symbol
_atom_site_label
_atom_site_fract_x
_atom_site_fract_y
_atom_site_fract_z
Si Si1 0.380059 0.296350 0.824027
Si Si2 0.037014 0.651982 0.331467
Si Si3 0.648720 0.334305 0.830736
Si Si4 0.723666 0.816422 0.675867
Si Si5 0.069550 0.993529 0.823663
Si Si6 0.854947 0.487603 0.667170
Si Si7 0.586845 0.140838 0.167894
O O1 0.436168 0.232069 0.772688
O O2 0.315557 0.266027 0.750158
O O3 0.396595 0.399963 0.772434
O O4 0.373121 0.289016 0.000000
O O5 0.032525 0.689358 0.500000
O O6 0.079023 0.561692 0.325520
O O7 0.970674 0.621809 0.273651
O O8 0.706316 0.311999 0.726752
O O9 0.610903 0.421203 0.765372
O O10 0.603589 0.247697 0.824291
O O11 0.671082 0.352447 0.000000
O O12 0.717757 0.803573 0.500000
O O13 0.696798 0.916067 0.724862
O O14 0.064895 0.998962 0.000000
O O15 0.000000 0.000000 0.757020
O O16 0.839594 0.520208 0.500000
O O17 0.856553 0.577243 0.773313
O O18 0.570981 0.111489 0.000000
#
# Coordination Sequence:
#
# PCOD8225518 Si02
#       7
#     8   8   8   8   8   8   8
#     4  10  19  34  60  87 110 143 186 229 274 327
#     4  10  20  35  55  81 115 149 178 216 270 328
#     4  10  22  39  57  80 111 145 186 233 277 328
#     4  10  22  40  58  79 110 147 185 226 279 335
#     4   9  18  35  59  85 114 147 183 230 286 335
#     4   9  20  37  55  77 108 145 180 218 270 330
#     4  11  22  34  54  83 110 141 182 226 272 321
#
# _framework density 19.855888
#
# number of rings (size 3 to 8) (size 9 to 14) (size 15 to 20)
#    0.000    2.143    0.000    3.857    0.000    9.714 
#    0.000    5.714    0.000    3.000    0.000    0.000 
#    0.000    0.000    0.000    0.000    0.000    0.000 
#
# Total GULP energy -694518.961379 kJ/mol
# GULP energy per Si atom -12402.124310 kJ/mol
# Density = 1.981070 g / cm^3
# Si number density = 19.855888 Si / 1000 Ang^3
#
#
#
# Elastic Constant Matrix: (Units=GPa)
#
#
# Indices 1 2 3 4 5 6 
#
# 1 86.4234 17.1518 27.6983 0.0000 0.0000 0.0000
# 2 17.1518 101.7118 33.7995 0.0000 0.0000 0.0000
# 3 27.6983 33.7995 73.2195 0.0000 0.0000 0.0000
# 4 0.0000 0.0000 0.0000 17.7759 0.0000 0.0000
# 5 0.0000 0.0000 0.0000 0.0000 21.3998 0.0000
# 6 0.0000 0.0000 0.0000 0.0000 0.0000 19.1003
#
#
#
# Elastic Compliance Matrix: (Units=1/GPa)
#
#
# Indices 1 2 3 4 5 6 
#
# 1 0.013206 -0.000670 -0.004687 0.000000 0.000000 0.000000
# 2 -0.000670 0.011647 -0.005123 0.000000 0.000000 0.000000
# 3 -0.004687 -0.005123 0.017795 0.000000 0.000000 0.000000
# 4 0.000000 0.000000 0.000000 0.056256 0.000000 0.000000
# 5 0.000000 0.000000 0.000000 0.000000 0.046729 0.000000
# 6 0.000000 0.000000 0.000000 0.000000 0.000000 0.052355
#
#
# Mechanical properties :
#
#
# Convention : Reuss Voigt Hill
#
# Bulk Modulus (GPa) = 46.10493 46.51711 46.31102
# Shear Modulus (GPa) = 22.10653 23.83553 22.97103
#
# Velocity S-wave (km/s) = 3.34031 3.46848 3.40500
# Velocity P-wave (km/s) = 6.17633 6.28639 6.23160
#
# Compressibility (1/GPa) = 0.02168965
#
# Stress axis : x y z
#
# Youngs Moduli (GPa) = 75.72402 85.85827 56.19409
#
# Poissons Ratio (x) = 0.05749 0.26336
# Poissons Ratio (y) = 0.05070 0.28790
# Poissons Ratio (z) = 0.35489 0.43987
#
# Static dielectric constant tensor:
#      x y z
#    x 3.497700 0.000000 0.000000 
#    y 0.000000 3.663970 0.000000 
#    z 0.000000 0.000000 3.519570 
# 
# 
# High freq. dielectric constant tensor:
#      x y z
#    x 1.769660 0.000000 0.000000 
#    y 0.000000 1.779820 0.000000 
#    z 0.000000 0.000000 1.764020 
# 
# From -- ./inp_files/8712.got.cif
#   From: 2010.03.12/outbox.cif.g09.slc.cpg/sg55_5_cif.got.tgz:8712.got - 2010.04.16 15:19:21.
