data_PCOD8225933
_publ_section_title
;
Structure prediction by ZEFSAII (Michael W. Deem and Ramdas Pophale) SiO2 
 PCOD8225933
Probable space group: P B A M
;
_chemical_formula_sum "Si O2"
_cell_formula_units_Z 64
_cell_length_a 23.429597
_cell_length_b 15.451637
_cell_length_c 9.272290
_cell_angle_alpha 90.000000
_cell_angle_beta 90.000000
_cell_angle_gamma 90.000000
_cell_volume 3356.806609
_symmetry_space_group_name_H-M "P B A M"
_symmetry_group_IT_number 55
_symmetry_cell_setting 'orthorhombic'
loop_
_space_group_symop_operation_xyz
x,y,z
-x,-y,z
1/2+x,1/2-y,-z
1/2-x,1/2+y,-z
-x,-y,-z
x,y,-z
1/2-x,1/2+y,z
1/2+x,1/2-y,z
loop_
_atom_site_type_symbol
_atom_site_label
_atom_site_fract_x
_atom_site_fract_y
_atom_site_fract_z
Si Si1 0.187693 0.692102 0.836489
Si Si2 0.065410 0.741806 0.827938
Si Si3 0.136163 0.360087 0.661728
Si Si4 0.665466 0.480389 0.829630
Si Si5 0.708325 0.009747 0.836304
Si Si6 0.688238 0.290406 0.827596
Si Si7 0.504813 0.097427 0.662952
Si Si8 0.449935 0.436784 0.171480
O O1 0.130151 0.730787 0.765321
O O2 0.189491 0.589071 0.826470
O O3 0.247033 0.728200 0.769486
O O4 0.186108 0.723616 0.000000
O O5 0.027971 0.665627 0.761633
O O6 0.041318 0.836492 0.781315
O O7 0.063923 0.730738 0.000000
O O8 0.157989 0.342111 0.500000
O O9 0.169171 0.441725 0.723875
O O10 0.145599 0.278367 0.762894
O O11 0.070062 0.377785 0.663480
O O12 0.725701 0.525081 0.789520
O O13 0.665936 0.382639 0.770241
O O14 0.611124 0.531418 0.764815
O O15 0.660000 0.476902 0.000000
O O16 0.699174 0.043927 0.000000
O O17 0.687304 0.287520 0.000000
O O18 0.479822 0.100397 0.500000
O O19 0.500000 0.000000 0.726049
O O20 0.500000 0.500000 0.232134
O O21 0.449280 0.442426 0.000000
#
# Coordination Sequence:
#
# PCOD8225933 Si02
#       8
#     8   8   8   8   8   8   8   8
#     4   8  16  32  53  83 111 132 171 224 275 320
#     4  10  20  33  57  86 111 139 180 234 274 313
#     4  11  23  35  51  78 109 139 179 225 269 323
#     4   8  16  31  52  78 107 139 176 216 266 323
#     4   9  17  32  55  79 104 138 174 216 270 329
#     4   9  18  33  56  80 106 141 177 216 267 329
#     4  10  23  42  58  74 106 151 188 222 275 333
#     4   9  18  30  48  79 115 143 174 222 273 320
#
# _framework density 19.065740000000002
#
# number of rings (size 3 to 8) (size 9 to 14) (size 15 to 20)
#    0.000    2.750    0.000    2.625    3.500    1.250 
#    0.000    3.125    0.000    1.125    0.000    0.000 
#    0.000    0.000    0.000    0.000    0.000    0.000 
#
# Total GULP energy -793161.823929 kJ/mol
# GULP energy per Si atom -12393.153499 kJ/mol
# Density = 1.902235 g / cm^3
# Si number density = 19.065740 Si / 1000 Ang^3
#
#
#
# Elastic Constant Matrix: (Units=GPa)
#
#
# Indices 1 2 3 4 5 6 
#
# 1 100.4983 53.1940 27.8480 0.0000 0.0000 0.0000
# 2 53.1940 107.0126 27.0519 0.0000 0.0000 0.0000
# 3 27.8480 27.0519 34.0609 0.0000 0.0000 0.0000
# 4 0.0000 0.0000 0.0000 -15.8011 0.0000 0.0000
# 5 0.0000 0.0000 0.0000 0.0000 14.3597 0.0000
# 6 0.0000 0.0000 0.0000 0.0000 0.0000 34.7975
#
#
#
# Elastic Compliance Matrix: (Units=1/GPa)
#
#
# Indices 1 2 3 4 5 6 
#
# 1 0.015052 -0.005469 -0.007962 0.000000 0.000000 0.000000
# 2 -0.005469 0.013679 -0.006393 0.000000 0.000000 0.000000
# 3 -0.007962 -0.006393 0.040947 0.000000 0.000000 0.000000
# 4 0.000000 0.000000 0.000000 -0.063287 0.000000 0.000000
# 5 0.000000 0.000000 0.000000 0.000000 0.069639 0.000000
# 6 0.000000 0.000000 0.000000 0.000000 0.000000 0.028738
#
#
# Mechanical properties :
#
#
# Convention : Reuss Voigt Hill
#
# Bulk Modulus (GPa) = 33.30156 50.86219 42.08187
# Shear Modulus (GPa) = 32.37786 15.56975 23.97380
#
# Velocity S-wave (km/s) = 4.12542 2.86078 3.54987
# Velocity P-wave (km/s) = 6.34009 6.13574 6.23875
#
# Compressibility (1/GPa) = 0.03002862
#
# Stress axis : x y z
#
# Youngs Moduli (GPa) = 66.43825 73.10304 24.42202
#
# Poissons Ratio (x) = 0.39980 0.19446
# Poissons Ratio (y) = 0.36335 0.15613
# Poissons Ratio (z) = 0.52901 0.46735
#
# Static dielectric constant tensor:
#      x y z
#    x 3.824650 0.000000 0.000000 
#    y 0.000000 3.578040 0.000000 
#    z 0.000000 0.000000 3.114680 
# 
# 
# High freq. dielectric constant tensor:
#      x y z
#    x 1.754570 0.000000 0.000000 
#    y 0.000000 1.750540 0.000000 
#    z 0.000000 0.000000 1.684930 
# 
# From -- ./inp_files/9629.got.cif
#   From: 2010.03.12/outbox.cif.g09.slc.cpg/sg55_5_cif.got.tgz:9629.got - 2010.04.16 15:19:21.
