data_PCOD8225804
_publ_section_title
;
Structure prediction by ZEFSAII (Michael W. Deem and Ramdas Pophale) SiO2 
 PCOD8225804
Probable space group: P B A M
;
_chemical_formula_sum "Si O2"
_cell_formula_units_Z 48
_cell_length_a 17.186203
_cell_length_b 18.315114
_cell_length_c 9.260794
_cell_angle_alpha 90.000000
_cell_angle_beta 90.000000
_cell_angle_gamma 90.000000
_cell_volume 2914.994819
_symmetry_space_group_name_H-M "P B A M"
_symmetry_group_IT_number 55
_symmetry_cell_setting 'orthorhombic'
loop_
_space_group_symop_operation_xyz
x,y,z
-x,-y,z
1/2+x,1/2-y,-z
1/2-x,1/2+y,-z
-x,-y,-z
x,y,-z
1/2-x,1/2+y,z
1/2+x,1/2-y,z
loop_
_atom_site_type_symbol
_atom_site_label
_atom_site_fract_x
_atom_site_fract_y
_atom_site_fract_z
Si Si1 0.301878 0.794034 0.662164
Si Si2 0.310139 0.196792 0.833433
Si Si3 0.079811 0.821938 0.831377
Si Si4 0.924958 0.813646 0.662347
Si Si5 0.799900 0.077235 0.334090
Si Si6 0.276656 0.584665 0.667026
O O1 0.274833 0.767953 0.500000
O O2 0.255277 0.754020 0.787337
O O3 0.392202 0.769895 0.679833
O O4 0.283468 0.880206 0.678192
O O5 0.391766 0.238365 0.802496
O O6 0.297962 0.121955 0.744666
O O7 0.300135 0.177369 0.000000
O O8 0.133093 0.881132 0.752130
O O9 0.992347 0.828878 0.775443
O O10 0.081936 0.840435 0.000000
O O11 0.956887 0.825660 0.500000
O O12 0.854729 0.869376 0.695471
O O13 0.827542 0.072499 0.500000
O O14 0.788433 0.996526 0.269042
O O15 0.255128 0.579956 0.500000
#
# Coordination Sequence:
#
# PCOD8225804 Si02
#       6
#     8   8   8   8   8   8
#     4   8  15  29  48  67  86 113 151 187 220 262
#     4   9  17  29  45  64  87 116 151 187 219 257
#     4  10  20  31  44  66  93 121 153 184 218 263
#     4   9  17  29  45  66  91 118 148 182 221 265
#     4   9  17  31  50  69  91 118 147 184 227 268
#     4   9  18  31  48  70  92 116 148 184 225 271
#
# _framework density 16.466581999999999
#
# number of rings (size 3 to 8) (size 9 to 14) (size 15 to 20)
#    0.000    3.000    0.000    2.000    0.000    6.000 
#    0.000    3.333    0.000    1.000    0.000    7.000 
#    0.000    0.000    0.000    0.000    0.000    0.000 
#
# Total GULP energy -594696.397736 kJ/mol
# GULP energy per Si atom -12389.508286 kJ/mol
# Density = 1.642910 g / cm^3
# Si number density = 16.466582 Si / 1000 Ang^3
#
#
#
# Elastic Constant Matrix: (Units=GPa)
#
#
# Indices 1 2 3 4 5 6 
#
# 1 29.3037 49.6421 22.3771 0.0000 0.0000 0.0000
# 2 49.6421 113.0785 41.5535 0.0000 0.0000 0.0000
# 3 22.3771 41.5535 57.8052 0.0000 0.0000 0.0000
# 4 0.0000 0.0000 0.0000 19.9813 0.0000 0.0000
# 5 0.0000 0.0000 0.0000 0.0000 21.2887 0.0000
# 6 0.0000 0.0000 0.0000 0.0000 0.0000 16.3368
#
#
#
# Elastic Compliance Matrix: (Units=1/GPa)
#
#
# Indices 1 2 3 4 5 6 
#
# 1 0.140674 -0.056731 -0.013675 0.000000 0.000000 0.000000
# 2 -0.056731 0.034897 -0.003124 0.000000 0.000000 0.000000
# 3 -0.013675 -0.003124 0.024839 0.000000 0.000000 0.000000
# 4 0.000000 0.000000 0.000000 0.050047 0.000000 0.000000
# 5 0.000000 0.000000 0.000000 0.000000 0.046973 0.000000
# 6 0.000000 0.000000 0.000000 0.000000 0.000000 0.061211
#
#
# Mechanical properties :
#
#
# Convention : Reuss Voigt Hill
#
# Bulk Modulus (GPa) = 18.74469 47.48142 33.11305
# Shear Modulus (GPa) = 9.55136 17.29567 13.42352
#
# Velocity S-wave (km/s) = 2.41103 3.24443 2.85826
# Velocity P-wave (km/s) = 4.37709 6.55230 5.57188
#
# Compressibility (1/GPa) = 0.05334844
#
# Stress axis : x y z
#
# Youngs Moduli (GPa) = 7.10865 28.65584 40.25893
#
# Poissons Ratio (x) = 1.62568 0.55054
# Poissons Ratio (y) = 0.40328 0.12578
# Poissons Ratio (z) = 0.09721 0.08953
#
# Static dielectric constant tensor:
#      x y z
#    x 2.938620 0.000000 0.000000 
#    y 0.000000 3.304860 0.000000 
#    z 0.000000 0.000000 3.092950 
# 
# 
# High freq. dielectric constant tensor:
#      x y z
#    x 1.603220 0.000000 0.000000 
#    y 0.000000 1.627210 0.000000 
#    z 0.000000 0.000000 1.636810 
# 
# From -- ./inp_files/5614.got.cif
#   From: 2010.03.12/outbox.cif.g09.slc.cpg/sg55_3_cif.got.tgz:5614.got - 2010.04.16 15:19:21.
