data_PCOD8225836
_publ_section_title
;
Structure prediction by ZEFSAII (Michael W. Deem and Ramdas Pophale) SiO2 
 PCOD8225836
Probable space group: P B A M
;
_chemical_formula_sum "Si O2"
_cell_formula_units_Z 64
_cell_length_a 9.205811
_cell_length_b 23.254114
_cell_length_c 14.946141
_cell_angle_alpha 90.000000
_cell_angle_beta 90.000000
_cell_angle_gamma 90.000000
_cell_volume 3199.564920
_symmetry_space_group_name_H-M "P B A M"
_symmetry_group_IT_number 55
_symmetry_cell_setting 'orthorhombic'
loop_
_space_group_symop_operation_xyz
x,y,z
-x,-y,z
1/2+x,1/2-y,-z
1/2-x,1/2+y,-z
-x,-y,-z
x,y,-z
1/2-x,1/2+y,z
1/2+x,1/2-y,z
loop_
_atom_site_type_symbol
_atom_site_label
_atom_site_fract_x
_atom_site_fract_y
_atom_site_fract_z
Si Si1 0.318831 0.893564 0.108214
Si Si2 0.156995 0.888327 0.603716
Si Si3 0.149294 0.612192 0.901395
Si Si4 0.838310 0.194714 0.766342
Si Si5 0.158970 0.009180 0.148530
Si Si6 0.141667 0.077338 0.332009
Si Si7 0.325421 0.688488 0.772449
Si Si8 0.848450 0.510086 0.398339
O O1 0.487589 0.895896 0.139444
O O2 0.243701 0.838146 0.153422
O O3 0.239586 0.948352 0.151483
O O4 0.300241 0.892108 0.000000
O O5 0.181473 0.869876 0.500000
O O6 0.168092 0.834552 0.669135
O O7 0.271063 0.934388 0.642850
O O8 0.005147 0.921550 0.611834
O O9 0.236741 0.552187 0.905323
O O10 0.244812 0.661290 0.856656
O O11 0.124787 0.635553 0.000000
O O12 0.760392 0.254598 0.746606
O O13 0.006406 0.202098 0.795541
O O14 0.128865 0.036632 0.245383
O O15 0.000000 0.000000 0.102850
O O16 0.186620 0.142464 0.307865
O O17 0.261384 0.049496 0.395262
O O18 0.878636 0.526621 0.500000
O O19 0.000000 0.500000 0.346382
#
# Coordination Sequence:
#
# PCOD8225836 Si02
#       8
#     8   8   8   8   8   8   8   8
#     4  11  23  38  59  86 119 159 197 241 294 347
#     4  10  21  39  62  85 115 154 193 236 289 351
#     4  10  22  39  58  84 117 155 199 242 291 349
#     4  11  23  42  61  85 115 150 199 246 295 351
#     4  11  21  34  55  87 121 154 192 238 289 344
#     4  10  20  36  57  82 112 152 191 229 284 346
#     4  10  23  39  60  82 110 148 190 243 292 342
#     4  10  20  32  51  83 115 142 179 228 280 337
#
# _framework density 20.00272
#
# number of rings (size 3 to 8) (size 9 to 14) (size 15 to 20)
#    0.000    1.625    0.000    6.000    0.000   10.000 
#    0.000    3.125    0.000    0.000    0.000    0.000 
#    0.000    0.000    0.000    0.000    0.000    0.000 
#
# Total GULP energy -793276.965789 kJ/mol
# GULP energy per Si atom -12394.952590 kJ/mol
# Density = 1.995719 g / cm^3
# Si number density = 20.002720 Si / 1000 Ang^3
#
#
#
# Elastic Constant Matrix: (Units=GPa)
#
#
# Indices 1 2 3 4 5 6 
#
# 1 177.5848 72.5312 28.1675 0.0000 0.0000 0.0000
# 2 72.5312 122.4503 28.8646 0.0000 0.0000 0.0000
# 3 28.1675 28.8646 66.5059 0.0000 0.0000 0.0000
# 4 0.0000 0.0000 0.0000 11.1118 0.0000 0.0000
# 5 0.0000 0.0000 0.0000 0.0000 22.0609 0.0000
# 6 0.0000 0.0000 0.0000 0.0000 0.0000 43.0680
#
#
#
# Elastic Compliance Matrix: (Units=1/GPa)
#
#
# Indices 1 2 3 4 5 6 
#
# 1 0.007543 -0.004138 -0.001399 0.000000 0.000000 0.000000
# 2 -0.004138 0.011368 -0.003181 0.000000 0.000000 0.000000
# 3 -0.001399 -0.003181 0.017009 0.000000 0.000000 0.000000
# 4 0.000000 0.000000 0.000000 0.089994 0.000000 0.000000
# 5 0.000000 0.000000 0.000000 0.000000 0.045329 0.000000
# 6 0.000000 0.000000 0.000000 0.000000 0.000000 0.023219
#
#
# Mechanical properties :
#
#
# Convention : Reuss Voigt Hill
#
# Bulk Modulus (GPa) = 54.10080 69.51863 61.80972
# Shear Modulus (GPa) = 22.92946 31.04665 26.98805
#
# Velocity S-wave (km/s) = 3.38940 3.94397 3.67716
# Velocity P-wave (km/s) = 6.51328 7.45452 6.99974
#
# Compressibility (1/GPa) = 0.01848402
#
# Stress axis : x y z
#
# Youngs Moduli (GPa) = 132.56958 87.96841 58.79146
#
# Poissons Ratio (x) = 0.36405 0.08223
# Poissons Ratio (y) = 0.54862 0.18702
# Poissons Ratio (z) = 0.18542 0.27983
#
# Static dielectric constant tensor:
#      x y z
#    x 4.130670 0.000000 0.000000 
#    y 0.000000 3.664070 0.000000 
#    z 0.000000 0.000000 3.458390 
# 
# 
# High freq. dielectric constant tensor:
#      x y z
#    x 1.801660 0.000000 0.000000 
#    y 0.000000 1.775440 0.000000 
#    z 0.000000 0.000000 1.771010 
# 
# From -- ./inp_files/17838.got.cif
#   From: 2010.03.12/outbox.cif.g09.slc.cpg/sg55_9_cif.got.tgz:17838.got - 2010.04.16 15:19:21.
