data_PCOD8225378
_publ_section_title
;
Structure prediction by ZEFSAII (Michael W. Deem and Ramdas Pophale) SiO2 
 PCOD8225378
Probable space group: P B A M
;
_chemical_formula_sum "Si O2"
_cell_formula_units_Z 48
_cell_length_a 9.472985
_cell_length_b 30.800889
_cell_length_c 8.719351
_cell_angle_alpha 90.000000
_cell_angle_beta 90.000000
_cell_angle_gamma 90.000000
_cell_volume 2544.100492
_symmetry_space_group_name_H-M "P B A M"
_symmetry_group_IT_number 55
_symmetry_cell_setting 'orthorhombic'
loop_
_space_group_symop_operation_xyz
x,y,z
-x,-y,z
1/2+x,1/2-y,-z
1/2-x,1/2+y,-z
-x,-y,-z
x,y,-z
1/2-x,1/2+y,z
1/2+x,1/2-y,z
loop_
_atom_site_type_symbol
_atom_site_label
_atom_site_fract_x
_atom_site_fract_y
_atom_site_fract_z
Si Si1 0.910882 0.538367 0.323353
Si Si2 0.911296 0.291114 0.182718
Si Si3 0.403979 0.865671 0.317300
Si Si4 0.602669 0.631741 0.819327
Si Si5 0.908665 0.790114 0.818505
Si Si6 0.412718 0.459429 0.322835
O O1 0.955256 0.540047 0.500000
O O2 0.942335 0.586051 0.254481
O O3 0.748237 0.526897 0.301560
O O4 0.000000 0.500000 0.240287
O O5 0.750982 0.287566 0.245193
O O6 0.978493 0.334420 0.250216
O O7 0.999910 0.250146 0.245628
O O8 0.914482 0.293665 0.000000
O O9 0.402088 0.864083 0.500000
O O10 0.247745 0.853381 0.260142
O O11 0.481405 0.665122 0.765687
O O12 0.551344 0.583954 0.770879
O O13 0.627087 0.633686 0.000000
O O14 0.905186 0.787034 0.000000
O O15 0.500000 0.500000 0.256665
O O16 0.450077 0.450315 0.500000
#
# Coordination Sequence:
#
# PCOD8225378 Si02
#       6
#     8   8   8   8   8   8
#     4   8  15  29  48  68  93 128 167 203 242 295
#     4  10  19  35  56  76 100 132 170 208 251 305
#     4  10  20  34  52  77 105 133 169 212 259 308
#     4  10  19  34  55  77 103 138 177 216 258 304
#     4   9  19  34  55  79 101 132 173 212 252 304
#     4   9  18  32  50  73 102 136 172 211 258 309
#
# _framework density 18.867177999999999
#
# number of rings (size 3 to 8) (size 9 to 14) (size 15 to 20)
#    0.000    2.667    0.000    3.000    0.000    4.333 
#    0.000    7.500    0.000   12.500    0.000    0.000 
#    0.000    0.000    0.000    0.000    0.000    0.000 
#
# Total GULP energy -595097.955467 kJ/mol
# GULP energy per Si atom -12397.874072 kJ/mol
# Density = 1.882424 g / cm^3
# Si number density = 18.867178 Si / 1000 Ang^3
#
#
#
# Elastic Constant Matrix: (Units=GPa)
#
#
# Indices 1 2 3 4 5 6 
#
# 1 147.1643 100.2617 26.1982 0.0000 0.0000 0.0000
# 2 100.2617 146.4927 26.0645 0.0000 0.0000 0.0000
# 3 26.1982 26.0645 33.9447 0.0000 0.0000 0.0000
# 4 0.0000 0.0000 0.0000 25.6218 0.0000 0.0000
# 5 0.0000 0.0000 0.0000 0.0000 20.9895 0.0000
# 6 0.0000 0.0000 0.0000 0.0000 0.0000 45.9225
#
#
#
# Elastic Compliance Matrix: (Units=1/GPa)
#
#
# Indices 1 2 3 4 5 6 
#
# 1 0.013130 -0.008320 -0.003745 0.000000 0.000000 0.000000
# 2 -0.008320 0.013179 -0.003698 0.000000 0.000000 0.000000
# 3 -0.003745 -0.003698 0.035190 0.000000 0.000000 0.000000
# 4 0.000000 0.000000 0.000000 0.039029 0.000000 0.000000
# 5 0.000000 0.000000 0.000000 0.000000 0.047643 0.000000
# 6 0.000000 0.000000 0.000000 0.000000 0.000000 0.021776
#
#
# Mechanical properties :
#
#
# Convention : Reuss Voigt Hill
#
# Bulk Modulus (GPa) = 33.36429 70.29448 51.82938
# Shear Modulus (GPa) = 23.64473 30.17859 26.91166
#
# Velocity S-wave (km/s) = 3.54393 4.00375 3.78083
# Velocity P-wave (km/s) = 5.87095 7.66236 6.82568
#
# Compressibility (1/GPa) = 0.02997217
#
# Stress axis : x y z
#
# Youngs Moduli (GPa) = 76.15947 75.88000 28.41755
#
# Poissons Ratio (x) = 0.63134 0.10643
# Poissons Ratio (y) = 0.63367 0.10508
# Poissons Ratio (z) = 0.28523 0.28059
#
# Static dielectric constant tensor:
#      x y z
#    x 3.594600 0.000000 0.000000 
#    y 0.000000 3.810740 0.000000 
#    z 0.000000 0.000000 3.121340 
# 
# 
# High freq. dielectric constant tensor:
#      x y z
#    x 1.734720 0.000000 0.000000 
#    y 0.000000 1.748780 0.000000 
#    z 0.000000 0.000000 1.697300 
# 
# From -- ./inp_files/2901.got.cif
#   From: 2010.03.12/outbox.cif.g09.slc.cpg/sg55_2_cif.got.tgz:2901.got - 2010.04.16 15:19:21.
