data_PCOD8225812
_publ_section_title
;
Structure prediction by ZEFSAII (Michael W. Deem and Ramdas Pophale) SiO2 
 PCOD8225812
Probable space group: P B A M
;
_chemical_formula_sum "Si O2"
_cell_formula_units_Z 48
_cell_length_a 5.157586
_cell_length_b 34.057590
_cell_length_c 16.393171
_cell_angle_alpha 90.000000
_cell_angle_beta 90.000000
_cell_angle_gamma 90.000000
_cell_volume 2879.541622
_symmetry_space_group_name_H-M "P B A M"
_symmetry_group_IT_number 55
_symmetry_cell_setting 'orthorhombic'
loop_
_space_group_symop_operation_xyz
x,y,z
-x,-y,z
1/2+x,1/2-y,-z
1/2-x,1/2+y,-z
-x,-y,-z
x,y,-z
1/2-x,1/2+y,z
1/2+x,1/2-y,z
loop_
_atom_site_type_symbol
_atom_site_label
_atom_site_fract_x
_atom_site_fract_y
_atom_site_fract_z
Si Si1 0.250933 0.017669 0.908683
Si Si2 0.502487 0.046688 0.689099
Si Si3 0.916075 0.139305 0.903851
Si Si4 0.832452 0.227909 0.096904
Si Si5 0.503425 0.453749 0.590227
Si Si6 0.899395 0.403856 0.149020
O O1 0.268080 0.064450 0.911876
O O2 0.500000 0.000000 0.861862
O O3 0.243611 0.000088 0.000000
O O4 0.000000 0.000000 0.861458
O O5 0.774903 0.060171 0.650510
O O6 0.446104 0.073839 0.766718
O O7 0.280551 0.058709 0.625311
O O8 0.500000 0.000000 0.709352
O O9 0.837896 0.182798 0.875261
O O10 0.673259 0.111210 0.884682
O O11 0.175006 0.129295 0.851074
O O12 0.982208 0.137801 0.000000
O O13 0.577217 0.248537 0.133066
O O14 0.832784 0.230628 0.000000
O O15 0.500000 0.500000 0.581577
O O16 0.467429 0.434949 0.500000
#
# Coordination Sequence:
#
# PCOD8225812 Si02
#       6
#     8   8   8   8   8   8
#     4  10  20  32  44  56  75 112 160 203 234 256
#     4  10  20  32  47  67  91 122 157 194 236 276
#     4  11  22  34  49  68  91 123 160 198 239 278
#     4   9  17  31  50  69  87 109 146 194 236 279
#     4   9  17  31  50  69  87 110 149 197 237 279
#     4  12  22  33  46  65  94 122 156 197 239 278
#
# _framework density 16.669319999999999
#
# number of rings (size 3 to 8) (size 9 to 14) (size 15 to 20)
#    0.000    1.833    0.000    5.500    0.000    8.000 
#    0.000    0.000    0.000    0.000    0.000    0.000 
#    0.000    0.000    0.000    0.000    0.000  210.000 
#
# Total GULP energy -594893.020252 kJ/mol
# GULP energy per Si atom -12393.604589 kJ/mol
# Density = 1.663138 g / cm^3
# Si number density = 16.669320 Si / 1000 Ang^3
#
#
#
# Elastic Constant Matrix: (Units=GPa)
#
#
# Indices 1 2 3 4 5 6 
#
# 1 129.3043 28.6405 27.0989 0.0000 0.0000 0.0000
# 2 28.6405 70.0947 25.0975 0.0000 0.0000 0.0000
# 3 27.0989 25.0975 64.7294 0.0000 0.0000 0.0000
# 4 0.0000 0.0000 0.0000 -2.3944 0.0000 0.0000
# 5 0.0000 0.0000 0.0000 0.0000 167.0763 0.0000
# 6 0.0000 0.0000 0.0000 0.0000 0.0000 31.7962
#
#
#
# Elastic Compliance Matrix: (Units=1/GPa)
#
#
# Indices 1 2 3 4 5 6 
#
# 1 0.008888 -0.002670 -0.002686 0.000000 0.000000 0.000000
# 2 -0.002670 0.017368 -0.005616 0.000000 0.000000 0.000000
# 3 -0.002686 -0.005616 0.018751 0.000000 0.000000 0.000000
# 4 0.000000 0.000000 0.000000 -0.417637 0.000000 0.000000
# 5 0.000000 0.000000 0.000000 0.000000 0.005985 0.000000
# 6 0.000000 0.000000 0.000000 0.000000 0.000000 0.031450
#
#
# Mechanical properties :
#
#
# Convention : Reuss Voigt Hill
#
# Bulk Modulus (GPa) = 43.35948 47.31137 45.33542
# Shear Modulus (GPa) = -16.36328 51.51505 17.57588
#
# Velocity S-wave (km/s) = -3.13651 5.56518 3.25065
# Velocity P-wave (km/s) = 3.59876 8.35098 6.43000
#
# Compressibility (1/GPa) = 0.02306301
#
# Stress axis : x y z
#
# Youngs Moduli (GPa) = 112.51204 57.57613 53.33067
#
# Poissons Ratio (x) = 0.15373 0.14323
# Poissons Ratio (y) = 0.30040 0.29953
# Poissons Ratio (z) = 0.30217 0.32337
#
# Static dielectric constant tensor:
#      x y z
#    x 4.338050 0.000000 0.000000 
#    y 0.000000 3.030320 0.000000 
#    z 0.000000 0.000000 2.913130 
# 
# 
# High freq. dielectric constant tensor:
#      x y z
#    x 1.673630 0.000000 0.000000 
#    y 0.000000 1.608960 0.000000 
#    z 0.000000 0.000000 1.602740 
# 
# From -- ./inp_files/16723.got.cif
#   From: 2010.03.12/outbox.cif.g09.slc.cpg/sg55_9_cif.got.tgz:16723.got - 2010.04.16 15:19:21.
