data_PCOD8225699
_publ_section_title
;
Structure prediction by ZEFSAII (Michael W. Deem and Ramdas Pophale) SiO2 
 PCOD8225699
Probable space group: P B A M
;
_chemical_formula_sum "Si O2"
_cell_formula_units_Z 64
_cell_length_a 20.444727
_cell_length_b 19.038517
_cell_length_c 8.727664
_cell_angle_alpha 90.000000
_cell_angle_beta 90.000000
_cell_angle_gamma 90.000000
_cell_volume 3397.132218
_symmetry_space_group_name_H-M "P B A M"
_symmetry_group_IT_number 55
_symmetry_cell_setting 'orthorhombic'
loop_
_space_group_symop_operation_xyz
x,y,z
-x,-y,z
1/2+x,1/2-y,-z
1/2-x,1/2+y,-z
-x,-y,-z
x,y,-z
1/2-x,1/2+y,z
1/2+x,1/2-y,z
loop_
_atom_site_type_symbol
_atom_site_label
_atom_site_fract_x
_atom_site_fract_y
_atom_site_fract_z
Si Si1 0.491421 0.316967 0.825931
Si Si2 0.933083 0.036259 0.176111
Si Si3 0.360706 0.819959 0.318949
Si Si4 0.688790 0.466758 0.320908
Si Si5 0.937952 0.457992 0.180978
Si Si6 0.641075 0.327705 0.820699
Si Si7 0.510230 0.824763 0.322272
Si Si8 0.688016 0.041460 0.181153
O O1 0.440784 0.380270 0.803705
O O2 0.564753 0.341710 0.783363
O O3 0.467541 0.254169 0.717397
O O4 0.491315 0.289363 0.000000
O O5 0.876957 0.009803 0.287702
O O6 0.916285 0.016108 0.000000
O O7 0.000000 0.000000 0.226898
O O8 0.355213 0.810682 0.500000
O O9 0.336564 0.748337 0.239633
O O10 0.435325 0.836000 0.267835
O O11 0.314723 0.882685 0.261667
O O12 0.704739 0.469312 0.500000
O O13 0.682748 0.386341 0.267419
O O14 0.745872 0.503214 0.225992
O O15 0.871969 0.493950 0.242068
O O16 0.000000 0.500000 0.249321
O O17 0.941519 0.377950 0.236605
O O18 0.939303 0.458878 0.000000
O O19 0.656090 0.333428 0.000000
O O20 0.518157 0.838320 0.500000
O O21 0.684825 0.052737 0.000000
#
# Coordination Sequence:
#
# PCOD8225699 Si02
#       8
#     8   8   8   8   8   8   8   8
#     4   9  18  33  57  84 114 149 190 239 282 334
#     4  10  19  37  61  86 113 148 194 239 284 342
#     4  10  20  35  56  87 120 150 187 236 291 346
#     4  12  25  39  57  86 122 156 192 243 296 348
#     4  10  20  36  59  85 111 144 193 240 281 333
#     4  10  19  36  60  85 113 152 197 236 281 345
#     4  10  20  32  53  85 121 152 183 231 292 349
#     4  11  23  40  61  84 114 156 199 241 286 348
#
# _framework density 18.83942
#
# number of rings (size 3 to 8) (size 9 to 14) (size 15 to 20)
#    0.000    1.750    2.500    2.625    0.000    3.500 
#    0.000    1.250    0.000    4.500    0.000    0.000 
#    0.000    0.000    0.000    0.000    0.000    0.000 
#
# Total GULP energy -793890.668162 kJ/mol
# GULP energy per Si atom -12404.541690 kJ/mol
# Density = 1.879654 g / cm^3
# Si number density = 18.839420 Si / 1000 Ang^3
#
#
#
# Elastic Constant Matrix: (Units=GPa)
#
#
# Indices 1 2 3 4 5 6 
#
# 1 69.6320 40.4246 13.2977 0.0000 0.0000 0.0000
# 2 40.4246 114.3543 19.5234 0.0000 0.0000 0.0000
# 3 13.2977 19.5234 45.7153 0.0000 0.0000 0.0000
# 4 0.0000 0.0000 0.0000 31.3738 0.0000 0.0000
# 5 0.0000 0.0000 0.0000 0.0000 22.6135 0.0000
# 6 0.0000 0.0000 0.0000 0.0000 0.0000 27.2319
#
#
#
# Elastic Compliance Matrix: (Units=1/GPa)
#
#
# Indices 1 2 3 4 5 6 
#
# 1 0.018390 -0.006027 -0.002775 0.000000 0.000000 0.000000
# 2 -0.006027 0.011408 -0.003119 0.000000 0.000000 0.000000
# 3 -0.002775 -0.003119 0.024014 0.000000 0.000000 0.000000
# 4 0.000000 0.000000 0.000000 0.031874 0.000000 0.000000
# 5 0.000000 0.000000 0.000000 0.000000 0.044221 0.000000
# 6 0.000000 0.000000 0.000000 0.000000 0.000000 0.036722
#
#
# Mechanical properties :
#
#
# Convention : Reuss Voigt Hill
#
# Bulk Modulus (GPa) = 33.36748 41.79921 37.58335
# Shear Modulus (GPa) = 24.94254 26.67425 25.80839
#
# Velocity S-wave (km/s) = 3.64257 3.76689 3.70525
# Velocity P-wave (km/s) = 5.95324 6.41518 6.18852
#
# Compressibility (1/GPa) = 0.02996930
#
# Stress axis : x y z
#
# Youngs Moduli (GPa) = 54.37656 87.65909 41.64293
#
# Poissons Ratio (x) = 0.52834 0.11557
# Poissons Ratio (y) = 0.32774 0.12987
# Poissons Ratio (z) = 0.15091 0.27338
#
# Static dielectric constant tensor:
#      x y z
#    x 3.258000 0.000000 0.000000 
#    y 0.000000 3.543320 0.000000 
#    z 0.000000 0.000000 3.363210 
# 
# 
# High freq. dielectric constant tensor:
#      x y z
#    x 1.701340 0.000000 0.000000 
#    y 0.000000 1.746650 0.000000 
#    z 0.000000 0.000000 1.732830 
# 
# From -- ./inp_files/9050.got.cif
#   From: 2010.03.12/outbox.cif.g09.slc.cpg/sg55_5_cif.got.tgz:9050.got - 2010.04.16 15:19:21.
