data_PCOD8225041
_publ_section_title
;
Structure prediction by ZEFSAII (Michael W. Deem and Ramdas Pophale) SiO2 
 PCOD8225041
Probable space group: P B A M
;
_chemical_formula_sum "Si O2"
_cell_formula_units_Z 64
_cell_length_a 35.971824
_cell_length_b 10.375520
_cell_length_c 8.909804
_cell_angle_alpha 90.000000
_cell_angle_beta 90.000000
_cell_angle_gamma 90.000000
_cell_volume 3325.373888
_symmetry_space_group_name_H-M "P B A M"
_symmetry_group_IT_number 55
_symmetry_cell_setting 'orthorhombic'
loop_
_space_group_symop_operation_xyz
x,y,z
-x,-y,z
1/2+x,1/2-y,-z
1/2-x,1/2+y,-z
-x,-y,-z
x,y,-z
1/2-x,1/2+y,z
1/2+x,1/2-y,z
loop_
_atom_site_type_symbol
_atom_site_label
_atom_site_fract_x
_atom_site_fract_y
_atom_site_fract_z
Si Si1 0.334017 0.749408 0.178692
Si Si2 0.083755 0.737520 0.676997
Si Si3 0.418129 0.736845 0.822932
Si Si4 0.542192 0.503877 0.677108
Si Si5 0.956522 0.499111 0.174203
Si Si6 0.164083 0.746791 0.821676
Si Si7 0.292471 0.497688 0.821232
Si Si8 0.708725 0.001751 0.178799
O O1 0.376172 0.751942 0.236755
O O2 0.313595 0.622841 0.241863
O O3 0.312783 0.874054 0.242699
O O4 0.333017 0.750599 0.000000
O O5 0.088958 0.734172 0.500000
O O6 0.062262 0.610626 0.727642
O O7 0.123544 0.743713 0.753038
O O8 0.060219 0.861621 0.728766
O O9 0.435449 0.612095 0.748944
O O10 0.440628 0.863398 0.774013
O O11 0.419248 0.716926 0.000000
O O12 0.500000 0.500000 0.736597
O O13 0.543617 0.486739 0.500000
O O14 0.000000 0.500000 0.207133
O O15 0.947544 0.472634 0.000000
O O16 0.185688 0.872585 0.763209
O O17 0.187396 0.624545 0.763773
O O18 0.160156 0.746195 0.000000
O O19 0.250598 0.497301 0.757240
O O20 0.291508 0.499190 0.000000
O O21 0.709630 0.004157 0.000000
#
# Coordination Sequence:
#
# PCOD8225041 Si02
#       8
#     8   8   8   8   8   8   8   8
#     4   9  16  26  41  65  98 128 157 199 247 297
#     4  11  23  37  55  79 108 144 184 223 266 323
#     4  10  20  34  54  80 107 136 171 214 266 319
#     4  10  22  39  56  76 104 138 177 220 264 312
#     4  10  21  37  57  82 110 139 176 223 274 328
#     4  10  19  32  52  76 104 137 173 219 270 316
#     4   9  16  26  44  72 101 130 166 208 257 310
#     4   9  16  27  45  71 102 132 164 207 258 309
#
# _framework density 19.245956
#
# number of rings (size 3 to 8) (size 9 to 14) (size 15 to 20)
#    0.000    2.250    0.000    3.375    0.000    8.000 
#    0.000    0.000    0.000    0.750    0.000    1.750 
#    0.000    0.000    0.000    0.000    0.000    0.000 
#
# Total GULP energy -793752.011941 kJ/mol
# GULP energy per Si atom -12402.375187 kJ/mol
# Density = 1.920215 g / cm^3
# Si number density = 19.245956 Si / 1000 Ang^3
#
#
#
# Elastic Constant Matrix: (Units=GPa)
#
#
# Indices 1 2 3 4 5 6 
#
# 1 193.1185 123.6886 14.0162 0.0000 0.0000 0.0000
# 2 123.6886 246.6634 13.6157 0.0000 0.0000 0.0000
# 3 14.0162 13.6157 16.4133 0.0000 0.0000 0.0000
# 4 0.0000 0.0000 0.0000 12.4951 0.0000 0.0000
# 5 0.0000 0.0000 0.0000 0.0000 -31.9604 0.0000
# 6 0.0000 0.0000 0.0000 0.0000 0.0000 49.4741
#
#
#
# Elastic Compliance Matrix: (Units=1/GPa)
#
#
# Indices 1 2 3 4 5 6 
#
# 1 0.007825 -0.003726 -0.003592 0.000000 0.000000 0.000000
# 2 -0.003726 0.006022 -0.001814 0.000000 0.000000 0.000000
# 3 -0.003592 -0.001814 0.065499 0.000000 0.000000 0.000000
# 4 0.000000 0.000000 0.000000 0.080032 0.000000 0.000000
# 5 0.000000 0.000000 0.000000 0.000000 -0.031289 0.000000
# 6 0.000000 0.000000 0.000000 0.000000 0.000000 0.020213
#
#
# Mechanical properties :
#
#
# Convention : Reuss Voigt Hill
#
# Bulk Modulus (GPa) = 16.37123 84.31513 50.34318
# Shear Modulus (GPa) = 26.74858 26.32673 26.53766
#
# Velocity S-wave (km/s) = 3.73208 3.70254 3.71734
# Velocity P-wave (km/s) = 5.20539 7.88561 6.68127
#
# Compressibility (1/GPa) = 0.06108275
#
# Stress axis : x y z
#
# Youngs Moduli (GPa) = 127.79571 166.04580 15.26748
#
# Poissons Ratio (x) = 0.61861 0.05484
# Poissons Ratio (y) = 0.47611 0.02770
# Poissons Ratio (z) = 0.45900 0.30129
#
# Static dielectric constant tensor:
#      x y z
#    x 3.435320 0.000000 0.000000 
#    y 0.000000 3.790850 0.000000 
#    z 0.000000 0.000000 3.221060 
# 
# 
# High freq. dielectric constant tensor:
#      x y z
#    x 1.771200 0.000000 0.000000 
#    y 0.000000 1.769880 0.000000 
#    z 0.000000 0.000000 1.695150 
# 
# From -- ./inp_files/10742.got.cif
#   From: 2010.03.12/outbox.cif.g09.slc.cpg/sg55_6_cif.got.tgz:10742.got - 2010.04.16 15:19:21.
