data_PCOD8225559
_publ_section_title
;
Structure prediction by ZEFSAII (Michael W. Deem and Ramdas Pophale) SiO2 
 PCOD8225559
Probable space group: P B A M
;
_chemical_formula_sum "Si O2"
_cell_formula_units_Z 64
_cell_length_a 12.781552
_cell_length_b 28.085448
_cell_length_c 9.028620
_cell_angle_alpha 90.000000
_cell_angle_beta 90.000000
_cell_angle_gamma 90.000000
_cell_volume 3241.054409
_symmetry_space_group_name_H-M "P B A M"
_symmetry_group_IT_number 55
_symmetry_cell_setting 'orthorhombic'
loop_
_space_group_symop_operation_xyz
x,y,z
-x,-y,z
1/2+x,1/2-y,-z
1/2-x,1/2+y,-z
-x,-y,-z
x,y,-z
1/2-x,1/2+y,z
1/2+x,1/2-y,z
loop_
_atom_site_type_symbol
_atom_site_label
_atom_site_fract_x
_atom_site_fract_y
_atom_site_fract_z
Si Si1 0.476167 0.114210 0.325783
Si Si2 0.343184 0.681064 0.334275
Si Si3 0.409999 0.572476 0.334997
Si Si4 0.691544 0.965994 0.674408
Si Si5 0.040284 0.797617 0.829779
Si Si6 0.165681 0.437146 0.823883
Si Si7 0.867263 0.302834 0.828931
Si Si8 0.109286 0.901585 0.826775
O O1 0.497212 0.116406 0.500000
O O2 0.379141 0.079680 0.287809
O O3 0.580724 0.097925 0.244383
O O4 0.449297 0.166674 0.266436
O O5 0.313803 0.698423 0.500000
O O6 0.375012 0.626616 0.336601
O O7 0.439318 0.711649 0.271682
O O8 0.248800 0.686964 0.222877
O O9 0.436517 0.554951 0.500000
O O10 0.311261 0.542645 0.271846
O O11 0.515344 0.566284 0.239884
O O12 0.687167 0.976926 0.500000
O O13 0.644025 0.009958 0.764345
O O14 0.116018 0.753261 0.804143
O O15 0.099448 0.846061 0.781660
O O16 0.003725 0.801663 0.000000
O O17 0.279564 0.420089 0.767424
O O18 0.156285 0.436175 0.000000
O O19 0.879922 0.317221 0.000000
O O20 0.101982 0.908766 0.000000
#
# Coordination Sequence:
#
# PCOD8225559 Si02
#       8
#     8   8   8   8   8   8   8   8
#     4  11  23  41  61  83 116 154 197 244 296 352
#     4  10  19  35  57  83 114 147 188 240 290 338
#     4   9  18  35  59  84 111 146 192 240 285 341
#     4  10  21  39  60  84 115 154 194 242 299 350
#     4   9  20  38  58  82 112 152 194 232 287 349
#     4  11  24  39  57  86 121 156 196 242 293 351
#     4  11  22  36  59  88 116 150 194 241 293 352
#     4   9  20  39  58  80 116 155 190 237 292 346
#
# _framework density 19.746659000000001
#
# number of rings (size 3 to 8) (size 9 to 14) (size 15 to 20)
#    0.000    2.000    1.250    1.875    0.000    7.000 
#    0.000    5.000    0.000    0.000    0.000    0.000 
#    0.000    0.000    0.000    0.000    0.000    0.000 
#
# Total GULP energy -793706.069011 kJ/mol
# GULP energy per Si atom -12401.657328 kJ/mol
# Density = 1.970171 g / cm^3
# Si number density = 19.746659 Si / 1000 Ang^3
#
#
#
# Elastic Constant Matrix: (Units=GPa)
#
#
# Indices 1 2 3 4 5 6 
#
# 1 102.3411 8.4228 34.3371 0.0000 0.0000 0.0000
# 2 8.4228 43.6279 21.1751 0.0000 0.0000 0.0000
# 3 34.3371 21.1751 59.9472 0.0000 0.0000 0.0000
# 4 0.0000 0.0000 0.0000 27.8547 0.0000 0.0000
# 5 0.0000 0.0000 0.0000 0.0000 34.0659 0.0000
# 6 0.0000 0.0000 0.0000 0.0000 0.0000 12.0106
#
#
#
# Elastic Compliance Matrix: (Units=1/GPa)
#
#
# Indices 1 2 3 4 5 6 
#
# 1 0.012152 0.001246 -0.007400 0.000000 0.000000 0.000000
# 2 0.001246 0.027792 -0.010530 0.000000 0.000000 0.000000
# 3 -0.007400 -0.010530 0.024640 0.000000 0.000000 0.000000
# 4 0.000000 0.000000 0.000000 0.035901 0.000000 0.000000
# 5 0.000000 0.000000 0.000000 0.000000 0.029355 0.000000
# 6 0.000000 0.000000 0.000000 0.000000 0.000000 0.083260
#
#
# Mechanical properties :
#
#
# Convention : Reuss Voigt Hill
#
# Bulk Modulus (GPa) = 32.03773 37.08734 34.56253
# Shear Modulus (GPa) = 19.46490 24.25164 21.85827
#
# Velocity S-wave (km/s) = 3.14304 3.50828 3.33067
# Velocity P-wave (km/s) = 5.42505 5.93575 5.68614
#
# Compressibility (1/GPa) = 0.03121320
#
# Stress axis : x y z
#
# Youngs Moduli (GPa) = 82.29328 35.98211 40.58465
#
# Poissons Ratio (x) = -0.04483 0.30034
# Poissons Ratio (y) = -0.10252 0.42737
# Poissons Ratio (z) = 0.60900 0.37891
#
# Static dielectric constant tensor:
#      x y z
#    x 3.752830 0.000000 0.000000 
#    y 0.000000 3.594660 0.000000 
#    z 0.000000 0.000000 3.690040 
# 
# 
# High freq. dielectric constant tensor:
#      x y z
#    x 1.776210 0.000000 0.000000 
#    y 0.000000 1.763770 0.000000 
#    z 0.000000 0.000000 1.770240 
# 
# From -- ./inp_files/4521.got.cif
#   From: 2010.03.12/outbox.cif.g09.slc.cpg/sg55_3_cif.got.tgz:4521.got - 2010.04.16 15:19:21.
