data_PCOD8225048
_publ_section_title
;
Structure prediction by ZEFSAII (Michael W. Deem and Ramdas Pophale) SiO2 
 PCOD8225048
Probable space group: P B A M
;
_chemical_formula_sum "Si O2"
_cell_formula_units_Z 64
_cell_length_a 22.392360
_cell_length_b 16.190149
_cell_length_c 9.272200
_cell_angle_alpha 90.000000
_cell_angle_beta 90.000000
_cell_angle_gamma 90.000000
_cell_volume 3361.503006
_symmetry_space_group_name_H-M "P B A M"
_symmetry_group_IT_number 55
_symmetry_cell_setting 'orthorhombic'
loop_
_space_group_symop_operation_xyz
x,y,z
-x,-y,z
1/2+x,1/2-y,-z
1/2-x,1/2+y,-z
-x,-y,-z
x,y,-z
1/2-x,1/2+y,z
1/2+x,1/2-y,z
loop_
_atom_site_type_symbol
_atom_site_label
_atom_site_fract_x
_atom_site_fract_y
_atom_site_fract_z
Si Si1 0.663973 0.738393 0.667382
Si Si2 0.719804 0.561846 0.666677
Si Si3 0.018796 0.088689 0.831530
Si Si4 0.457861 0.244231 0.172298
Si Si5 0.348410 0.566457 0.841833
Si Si6 0.832774 0.607852 0.168967
Si Si7 0.032295 0.416379 0.171294
Si Si8 0.728839 0.274232 0.842096
O O1 0.652986 0.756655 0.500000
O O2 0.683724 0.645079 0.698970
O O3 0.606442 0.765203 0.756425
O O4 0.719329 0.791645 0.726376
O O5 0.734744 0.550760 0.500000
O O6 0.674042 0.493121 0.718103
O O7 0.782442 0.553272 0.751429
O O8 0.984850 0.168985 0.768002
O O9 0.087781 0.101904 0.796025
O O10 0.004510 0.086337 0.000000
O O11 0.000000 0.000000 0.762127
O O12 0.497786 0.166141 0.223968
O O13 0.451947 0.244215 0.000000
O O14 0.305305 0.642050 0.855669
O O15 0.352507 0.521979 0.000000
O O16 0.899144 0.586791 0.228179
O O17 0.817744 0.703085 0.205492
O O18 0.829054 0.587885 0.000000
O O19 0.000000 0.500000 0.229747
O O20 0.033012 0.417378 0.000000
O O21 0.755817 0.250433 0.000000
#
# Coordination Sequence:
#
# PCOD8225048 Si02
#       8
#     8   8   8   8   8   8   8   8
#     4  10  21  36  52  73 104 139 174 211 256 311
#     4  10  21  35  51  74 105 139 172 210 258 311
#     4   9  17  29  49  78 107 134 168 211 256 305
#     4  10  19  33  55  79 105 138 173 213 261 310
#     4  10  19  32  52  78 104 131 170 216 262 312
#     4   9  17  33  55  75  99 133 172 213 258 306
#     4   9  18  32  52  79 106 131 165 211 259 307
#     4   9  18  32  52  76  99 128 170 217 259 303
#
# _framework density 19.039102
#
# number of rings (size 3 to 8) (size 9 to 14) (size 15 to 20)
#    0.000    2.500    0.000    2.250    0.000    7.000 
#    0.000    3.750    0.000    4.500    0.000    0.000 
#    0.000    0.000    0.000    0.000    0.000    0.000 
#
# Total GULP energy -793300.680526 kJ/mol
# GULP energy per Si atom -12395.323133 kJ/mol
# Density = 1.899577 g / cm^3
# Si number density = 19.039102 Si / 1000 Ang^3
#
#
#
# Elastic Constant Matrix: (Units=GPa)
#
#
# Indices 1 2 3 4 5 6 
#
# 1 118.1977 33.2837 39.4684 0.0000 0.0000 0.0000
# 2 33.2837 80.9834 20.0701 0.0000 0.0000 0.0000
# 3 39.4684 20.0701 43.3430 0.0000 0.0000 0.0000
# 4 0.0000 0.0000 0.0000 15.8663 0.0000 0.0000
# 5 0.0000 0.0000 0.0000 0.0000 9.0754 0.0000
# 6 0.0000 0.0000 0.0000 0.0000 0.0000 24.8524
#
#
#
# Elastic Compliance Matrix: (Units=1/GPa)
#
#
# Indices 1 2 3 4 5 6 
#
# 1 0.012640 -0.002646 -0.010284 0.000000 0.000000 0.000000
# 2 -0.002646 0.014503 -0.004306 0.000000 0.000000 0.000000
# 3 -0.010284 -0.004306 0.034431 0.000000 0.000000 0.000000
# 4 0.000000 0.000000 0.000000 0.063027 0.000000 0.000000
# 5 0.000000 0.000000 0.000000 0.000000 0.110187 0.000000
# 6 0.000000 0.000000 0.000000 0.000000 0.000000 0.040238
#
#
# Mechanical properties :
#
#
# Convention : Reuss Voigt Hill
#
# Bulk Modulus (GPa) = 36.90024 47.57429 42.23726
# Shear Modulus (GPa) = 15.69703 19.93897 17.81800
#
# Velocity S-wave (km/s) = 2.87446 3.23966 3.06251
# Velocity P-wave (km/s) = 5.51725 6.24786 5.89389
#
# Compressibility (1/GPa) = 0.02710010
#
# Stress axis : x y z
#
# Youngs Moduli (GPa) = 79.11589 68.95170 29.04374
#
# Poissons Ratio (x) = 0.18245 0.29870
# Poissons Ratio (y) = 0.20934 0.12507
# Poissons Ratio (z) = 0.81367 0.29692
#
# Static dielectric constant tensor:
#      x y z
#    x 3.541650 0.000000 0.000000 
#    y 0.000000 3.576020 0.000000 
#    z 0.000000 0.000000 3.237540 
# 
# 
# High freq. dielectric constant tensor:
#      x y z
#    x 1.751560 0.000000 0.000000 
#    y 0.000000 1.737750 0.000000 
#    z 0.000000 0.000000 1.701890 
# 
# From -- ./inp_files/8960.got.cif
#   From: 2010.03.12/outbox.cif.g09.slc.cpg/sg55_5_cif.got.tgz:8960.got - 2010.04.16 15:19:21.
