data_PCOD8225918
_publ_section_title
;
Structure prediction by ZEFSAII (Michael W. Deem and Ramdas Pophale) SiO2 
 PCOD8225918
Probable space group: P B A M
;
_chemical_formula_sum "Si O2"
_cell_formula_units_Z 64
_cell_length_a 22.544761
_cell_length_b 15.510303
_cell_length_c 8.872928
_cell_angle_alpha 90.000000
_cell_angle_beta 90.000000
_cell_angle_gamma 90.000000
_cell_volume 3102.650629
_symmetry_space_group_name_H-M "P B A M"
_symmetry_group_IT_number 55
_symmetry_cell_setting 'orthorhombic'
loop_
_space_group_symop_operation_xyz
x,y,z
-x,-y,z
1/2+x,1/2-y,-z
1/2-x,1/2+y,-z
-x,-y,-z
x,y,-z
1/2-x,1/2+y,z
1/2+x,1/2-y,z
loop_
_atom_site_type_symbol
_atom_site_label
_atom_site_fract_x
_atom_site_fract_y
_atom_site_fract_z
Si Si1 0.064354 0.008104 0.169334
Si Si2 0.259940 0.596996 0.676304
Si Si3 0.868357 0.824380 0.831581
Si Si4 0.565666 0.179635 0.674687
Si Si5 0.681343 0.760743 0.827042
Si Si6 0.812575 0.066013 0.820245
Si Si7 0.556988 0.827379 0.170262
Si Si8 0.569631 0.990061 0.663026
O O1 0.120888 0.957696 0.242307
O O2 0.077336 0.109495 0.170332
O O3 0.056731 0.971701 0.000000
O O4 0.000000 0.000000 0.253684
O O5 0.251986 0.582463 0.500000
O O6 0.319466 0.648276 0.711930
O O7 0.206934 0.658865 0.733055
O O8 0.264052 0.501302 0.752424
O O9 0.892716 0.733306 0.782612
O O10 0.840741 0.818395 0.000000
O O11 0.571597 0.205689 0.500000
O O12 0.496747 0.193154 0.717957
O O13 0.592061 0.084782 0.707171
O O14 0.703268 0.665001 0.774204
O O15 0.609764 0.758577 0.810516
O O16 0.699663 0.775665 0.000000
O O17 0.812306 0.053349 0.000000
O O18 0.585778 0.920811 0.209713
O O19 0.532732 0.829255 0.000000
O O20 0.596401 0.961556 0.500000
O O21 0.500000 0.000000 0.644528
#
# Coordination Sequence:
#
# PCOD8225918 Si02
#       8
#     8   8   8   8   8   8   8   8
#     4   8  15  28  53  85 115 145 179 222 279 339
#     4  11  23  41  62  84 117 153 193 243 299 357
#     4  10  20  35  58  83 111 150 194 239 284 341
#     4  10  20  34  53  80 118 157 191 232 287 349
#     4  10  22  40  63  89 118 154 200 249 295 351
#     4   9  19  38  63  87 116 154 194 242 292 346
#     4  10  20  33  55  86 115 146 190 241 290 344
#     4   8  16  32  50  70 106 152 185 221 278 336
#
# _framework density 20.627523
#
# number of rings (size 3 to 8) (size 9 to 14) (size 15 to 20)
#    0.000    2.500    0.000    3.750    1.750    4.250 
#    2.250    0.000    0.000    1.875    0.000    0.000 
#    0.000    0.000    0.000    0.000    0.000    0.000 
#
# Total GULP energy -792988.577703 kJ/mol
# GULP energy per Si atom -12390.446527 kJ/mol
# Density = 2.058057 g / cm^3
# Si number density = 20.627523 Si / 1000 Ang^3
#
#
#
# Elastic Constant Matrix: (Units=GPa)
#
#
# Indices 1 2 3 4 5 6 
#
# 1 42.2556 8.8440 8.7047 0.0000 0.0000 0.0000
# 2 8.8440 91.9020 29.4792 0.0000 0.0000 0.0000
# 3 8.7047 29.4792 71.5615 0.0000 0.0000 0.0000
# 4 0.0000 0.0000 0.0000 15.7924 0.0000 0.0000
# 5 0.0000 0.0000 0.0000 0.0000 10.4933 0.0000
# 6 0.0000 0.0000 0.0000 0.0000 0.0000 27.0583
#
#
#
# Elastic Compliance Matrix: (Units=1/GPa)
#
#
# Indices 1 2 3 4 5 6 
#
# 1 0.024480 -0.001614 -0.002313 0.000000 0.000000 0.000000
# 2 -0.001614 0.012644 -0.005012 0.000000 0.000000 0.000000
# 3 -0.002313 -0.005012 0.016320 0.000000 0.000000 0.000000
# 4 0.000000 0.000000 0.000000 0.063321 0.000000 0.000000
# 5 0.000000 0.000000 0.000000 0.000000 0.095299 0.000000
# 6 0.000000 0.000000 0.000000 0.000000 0.000000 0.036957
#
#
# Mechanical properties :
#
#
# Convention : Reuss Voigt Hill
#
# Bulk Modulus (GPa) = 28.11684 33.30831 30.71258
# Shear Modulus (GPa) = 17.93687 21.24822 19.59254
#
# Velocity S-wave (km/s) = 2.95203 3.21298 3.08527
# Velocity P-wave (km/s) = 5.02789 5.47238 5.25483
#
# Compressibility (1/GPa) = 0.03556588
#
# Stress axis : x y z
#
# Youngs Moduli (GPa) = 40.85013 79.08713 61.27401
#
# Poissons Ratio (x) = 0.12764 0.14172
# Poissons Ratio (y) = 0.06593 0.30713
# Poissons Ratio (z) = 0.09448 0.39642
#
# Static dielectric constant tensor:
#      x y z
#    x 3.564260 0.000000 0.000000 
#    y 0.000000 4.072870 0.000000 
#    z 0.000000 0.000000 3.544000 
# 
# 
# High freq. dielectric constant tensor:
#      x y z
#    x 1.790160 0.000000 0.000000 
#    y 0.000000 1.812800 0.000000 
#    z 0.000000 0.000000 1.784500 
# 
# From -- ./inp_files/9635.got.cif
#   From: 2010.03.12/outbox.cif.g09.slc.cpg/sg55_5_cif.got.tgz:9635.got - 2010.04.16 15:19:21.
