data_PCOD8225653
_publ_section_title
;
Structure prediction by ZEFSAII (Michael W. Deem and Ramdas Pophale) SiO2 
 PCOD8225653
Probable space group: P B A M
;
_chemical_formula_sum "Si O2"
_cell_formula_units_Z 32
_cell_length_a 34.465709
_cell_length_b 5.151248
_cell_length_c 7.684872
_cell_angle_alpha 90.000000
_cell_angle_beta 90.000000
_cell_angle_gamma 90.000000
_cell_volume 1364.383046
_symmetry_space_group_name_H-M "P B A M"
_symmetry_group_IT_number 55
_symmetry_cell_setting 'orthorhombic'
loop_
_space_group_symop_operation_xyz
x,y,z
-x,-y,z
1/2+x,1/2-y,-z
1/2-x,1/2+y,-z
-x,-y,-z
x,y,-z
1/2-x,1/2+y,z
1/2+x,1/2-y,z
loop_
_atom_site_type_symbol
_atom_site_label
_atom_site_fract_x
_atom_site_fract_y
_atom_site_fract_z
Si Si1 0.674888 0.564226 0.692626
Si Si2 0.412698 0.491810 0.795763
Si Si3 0.224606 0.282259 0.500000
Si Si4 0.723753 0.767902 0.000000
Si Si5 0.956115 0.508362 0.792087
O O1 0.673387 0.700602 0.500000
O O2 0.632366 0.490683 0.753905
O O3 0.699233 0.292177 0.672203
O O4 0.696454 0.748169 0.829821
O O5 0.434786 0.738770 0.715586
O O6 0.432388 0.235651 0.716140
O O7 0.418741 0.491046 0.000000
O O8 0.261187 0.077200 0.500000
O O9 0.756410 0.546905 0.000000
O O10 0.000000 0.500000 0.721748
O O11 0.955754 0.508685 0.000000
#
# Coordination Sequence:
#
# PCOD8225653 Si02
#       5
#     8   8   4   4   8
#     4  10  24  43  64  94 127 168 205 258 314 370
#     4  10  19  36  56  87 121 158 203 250 304 366
#     4  10  22  40  60  84 115 156 201 244 296 358
#     4  12  26  44  68  94 125 164 213 262 310 368
#     4   9  18  32  58  88 120 158 203 251 303 363
#
# _framework density 23.453821999999999
#
# number of rings (size 3 to 8) (size 9 to 14) (size 15 to 20)
#    0.750    1.250    1.250    2.250    0.000    7.000 
#    0.000    0.000    0.000    4.500    0.000    0.000 
#    0.000    0.000    0.000    0.000    0.000    0.000 
#
# Total GULP energy -396580.512238 kJ/mol
# GULP energy per Si atom -12393.141007 kJ/mol
# Density = 2.340044 g / cm^3
# Si number density = 23.453822 Si / 1000 Ang^3
#
#
#
# Elastic Constant Matrix: (Units=GPa)
#
#
# Indices 1 2 3 4 5 6 
#
# 1 179.7677 68.2866 -11.3665 0.0000 0.0000 0.0000
# 2 68.2866 129.0035 12.7681 0.0000 0.0000 0.0000
# 3 -11.3665 12.7681 49.0918 0.0000 0.0000 0.0000
# 4 0.0000 0.0000 0.0000 4.0362 0.0000 0.0000
# 5 0.0000 0.0000 0.0000 0.0000 20.8469 0.0000
# 6 0.0000 0.0000 0.0000 0.0000 0.0000 15.0855
#
#
#
# Elastic Compliance Matrix: (Units=1/GPa)
#
#
# Indices 1 2 3 4 5 6 
#
# 1 0.007312 -0.004145 0.002771 0.000000 0.000000 0.000000
# 2 -0.004145 0.010306 -0.003640 0.000000 0.000000 0.000000
# 3 0.002771 -0.003640 0.021958 0.000000 0.000000 0.000000
# 4 0.000000 0.000000 0.000000 0.247758 0.000000 0.000000
# 5 0.000000 0.000000 0.000000 0.000000 0.047969 0.000000
# 6 0.000000 0.000000 0.000000 0.000000 0.000000 0.066289
#
#
# Mechanical properties :
#
#
# Convention : Reuss Voigt Hill
#
# Bulk Modulus (GPa) = 33.84228 55.24883 44.54555
# Shear Modulus (GPa) = 11.86323 27.20536 19.53429
#
# Velocity S-wave (km/s) = 2.25147 3.40950 2.88910
# Velocity P-wave (km/s) = 4.60646 6.25358 5.49211
#
# Compressibility (1/GPa) = 0.02954884
#
# Stress axis : x y z
#
# Youngs Moduli (GPa) = 136.75216 97.02934 45.54066
#
# Poissons Ratio (x) = 0.40219 -0.12620
# Poissons Ratio (y) = 0.56685 0.16578
# Poissons Ratio (z) = -0.37896 0.35321
#
# Static dielectric constant tensor:
#      x y z
#    x 4.317870 0.000000 0.000000 
#    y 0.000000 4.185900 0.000000 
#    z 0.000000 0.000000 4.083490 
# 
# 
# High freq. dielectric constant tensor:
#      x y z
#    x 1.944630 0.000000 0.000000 
#    y 0.000000 1.918990 0.000000 
#    z 0.000000 0.000000 1.907720 
# 
# From -- ./inp_files/1375.got.cif
#   From: 2010.03.12/outbox.cif.g09.slc.cpg/sg55_1_cif.got.tgz:1375.got - 2010.04.16 15:19:21.
