data_PCOD8225707
_publ_section_title
;
Structure prediction by ZEFSAII (Michael W. Deem and Ramdas Pophale) SiO2 
 PCOD8225707
Probable space group: P B A M
;
_chemical_formula_sum "Si O2"
_cell_formula_units_Z 64
_cell_length_a 32.352733
_cell_length_b 10.699339
_cell_length_c 8.792981
_cell_angle_alpha 90.000000
_cell_angle_beta 90.000000
_cell_angle_gamma 90.000000
_cell_volume 3043.715503
_symmetry_space_group_name_H-M "P B A M"
_symmetry_group_IT_number 55
_symmetry_cell_setting 'orthorhombic'
loop_
_space_group_symop_operation_xyz
x,y,z
-x,-y,z
1/2+x,1/2-y,-z
1/2-x,1/2+y,-z
-x,-y,-z
x,y,-z
1/2-x,1/2+y,z
1/2+x,1/2-y,z
loop_
_atom_site_type_symbol
_atom_site_label
_atom_site_fract_x
_atom_site_fract_y
_atom_site_fract_z
Si Si1 0.226609 0.918292 0.682554
Si Si2 0.777231 0.813106 0.180986
Si Si3 0.572943 0.449343 0.331571
Si Si4 0.635412 0.648550 0.679590
Si Si5 0.425400 0.194123 0.175360
Si Si6 0.140275 0.261982 0.330987
Si Si7 0.488897 0.710453 0.179331
Si Si8 0.423341 0.910191 0.824848
O O1 0.229915 0.924175 0.500000
O O2 0.254825 0.807191 0.746360
O O3 0.180594 0.884484 0.741857
O O4 0.239330 0.054634 0.749788
O O5 0.825147 0.797636 0.222826
O O6 0.770809 0.814666 0.000000
O O7 0.558897 0.490268 0.500000
O O8 0.600560 0.555832 0.251278
O O9 0.602203 0.330508 0.340929
O O10 0.531681 0.419103 0.235529
O O11 0.637245 0.638080 0.500000
O O12 0.617866 0.781761 0.735355
O O13 0.464274 0.274351 0.242259
O O14 0.437594 0.051103 0.199794
O O15 0.417312 0.224628 0.000000
O O16 0.158755 0.287198 0.500000
O O17 0.120444 0.387820 0.261242
O O18 0.460846 0.825611 0.238078
O O19 0.491168 0.711366 0.000000
O O20 0.414881 0.877944 0.000000
#
# Coordination Sequence:
#
# PCOD8225707 Si02
#       8
#     8   8   8   8   8   8   8   8
#     4  11  24  46  70  93 126 171 213 254 312 385
#     4  12  25  42  67 101 132 161 204 262 317 374
#     4   9  18  35  57  81 109 146 194 243 287 344
#     4  10  22  40  60  81 112 153 197 241 293 356
#     4  10  21  35  53  80 117 155 196 247 303 359
#     4  10  19  36  61  87 115 153 198 240 291 362
#     4   9  18  33  54  81 111 152 199 245 299 357
#     4   9  18  34  55  81 115 156 200 250 300 354
#
# _framework density 21.026934000000001
#
# number of rings (size 3 to 8) (size 9 to 14) (size 15 to 20)
#    0.000    2.000    1.250    2.250    0.000    6.000 
#    0.000    5.000    0.000    3.750    0.000    0.000 
#    0.000    0.000    0.000    0.000    0.000    0.000 
#
# Total GULP energy -793241.839477 kJ/mol
# GULP energy per Si atom -12394.403742 kJ/mol
# Density = 2.097908 g / cm^3
# Si number density = 21.026934 Si / 1000 Ang^3
#
#
#
# Elastic Constant Matrix: (Units=GPa)
#
#
# Indices 1 2 3 4 5 6 
#
# 1 74.1681 32.3202 31.1031 0.0000 0.0000 0.0000
# 2 32.3202 45.2011 26.0360 0.0000 0.0000 0.0000
# 3 31.1031 26.0360 68.1911 0.0000 0.0000 0.0000
# 4 0.0000 0.0000 0.0000 32.2418 0.0000 0.0000
# 5 0.0000 0.0000 0.0000 0.0000 27.3082 0.0000
# 6 0.0000 0.0000 0.0000 0.0000 0.0000 31.8552
#
#
#
# Elastic Compliance Matrix: (Units=1/GPa)
#
#
# Indices 1 2 3 4 5 6 
#
# 1 0.020778 -0.012048 -0.004877 0.000000 0.000000 0.000000
# 2 -0.012048 0.035346 -0.008000 0.000000 0.000000 0.000000
# 3 -0.004877 -0.008000 0.019944 0.000000 0.000000 0.000000
# 4 0.000000 0.000000 0.000000 0.031016 0.000000 0.000000
# 5 0.000000 0.000000 0.000000 0.000000 0.036619 0.000000
# 6 0.000000 0.000000 0.000000 0.000000 0.000000 0.031392
#
#
# Mechanical properties :
#
#
# Convention : Reuss Voigt Hill
#
# Bulk Modulus (GPa) = 38.14255 40.71989 39.43122
# Shear Modulus (GPa) = 21.39634 24.82111 23.10872
#
# Velocity S-wave (km/s) = 3.19340 3.43949 3.31872
# Velocity P-wave (km/s) = 5.63704 5.93136 5.78607
#
# Compressibility (1/GPa) = 0.02621744
#
# Stress axis : x y z
#
# Youngs Moduli (GPa) = 48.12715 28.29175 50.14058
#
# Poissons Ratio (x) = 0.34085 0.24456
# Poissons Ratio (y) = 0.57982 0.40114
# Poissons Ratio (z) = 0.23474 0.22634
#
# Static dielectric constant tensor:
#      x y z
#    x 3.899670 0.000000 0.000000 
#    y 0.000000 3.871480 0.000000 
#    z 0.000000 0.000000 3.824420 
# 
# 
# High freq. dielectric constant tensor:
#      x y z
#    x 1.825600 0.000000 0.000000 
#    y 0.000000 1.826350 0.000000 
#    z 0.000000 0.000000 1.810710 
# 
# From -- ./inp_files/10800.got.cif
#   From: 2010.03.12/outbox.cif.g09.slc.cpg/sg55_6_cif.got.tgz:10800.got - 2010.04.16 15:19:21.
