data_PCOD8225890
_publ_section_title
;
Structure prediction by ZEFSAII (Michael W. Deem and Ramdas Pophale) SiO2 
 PCOD8225890
Probable space group: P B A M
;
_chemical_formula_sum "Si O2"
_cell_formula_units_Z 56
_cell_length_a 13.386703
_cell_length_b 23.706928
_cell_length_c 9.725883
_cell_angle_alpha 90.000000
_cell_angle_beta 90.000000
_cell_angle_gamma 90.000000
_cell_volume 3086.582927
_symmetry_space_group_name_H-M "P B A M"
_symmetry_group_IT_number 55
_symmetry_cell_setting 'orthorhombic'
loop_
_space_group_symop_operation_xyz
x,y,z
-x,-y,z
1/2+x,1/2-y,-z
1/2-x,1/2+y,-z
-x,-y,-z
x,y,-z
1/2-x,1/2+y,z
1/2+x,1/2-y,z
loop_
_atom_site_type_symbol
_atom_site_label
_atom_site_fract_x
_atom_site_fract_y
_atom_site_fract_z
Si Si1 0.377873 0.863900 0.342913
Si Si2 0.316508 0.434182 0.343757
Si Si3 0.725131 0.438545 0.338620
Si Si4 0.088722 0.845516 0.156917
Si Si5 0.137788 0.157704 0.157553
Si Si6 0.948925 0.444506 0.661930
Si Si7 0.278144 0.775735 0.840570
O O1 0.376405 0.842674 0.500000
O O2 0.296238 0.912853 0.320220
O O3 0.485178 0.889658 0.303197
O O4 0.358631 0.810951 0.245618
O O5 0.350282 0.423297 0.500000
O O6 0.320765 0.500115 0.308496
O O7 0.393452 0.401166 0.247350
O O8 0.721158 0.424128 0.500000
O O9 0.659142 0.394041 0.256953
O O10 0.837911 0.435420 0.279592
O O11 0.165850 0.795523 0.198239
O O12 0.976945 0.822972 0.179921
O O13 0.107068 0.863618 0.000000
O O14 0.209368 0.210031 0.196808
O O15 0.155410 0.138981 0.000000
O O16 0.940364 0.454656 0.500000
O O17 0.000000 0.500000 0.728615
O O18 0.302708 0.785950 0.000000
#
# Coordination Sequence:
#
# PCOD8225890 Si02
#       7
#     8   8   8   8   8   8   8
#     4   9  16  29  53  80 103 133 171 208 250 303
#     4   9  17  31  52  78 104 132 168 209 251 297
#     4  10  20  33  52  78 107 137 170 210 254 301
#     4   9  19  36  56  74  97 134 172 206 253 310
#     4  10  22  38  53  73 103 137 170 210 260 306
#     4   9  15  28  51  78 108 138 164 198 254 314
#     4   9  19  36  55  73  98 134 175 214 253 302
#
# _framework density 18.143041
#
# number of rings (size 3 to 8) (size 9 to 14) (size 15 to 20)
#    0.000    2.714    1.429    0.000    0.000    3.429 
#    0.000    5.000    0.000    0.857    0.000    0.000 
#    0.000    0.000    0.000    0.000    0.000    0.000 
#
# Total GULP energy -694402.044247 kJ/mol
# GULP energy per Si atom -12400.036504 kJ/mol
# Density = 1.810175 g / cm^3
# Si number density = 18.143041 Si / 1000 Ang^3
#
#
#
# Elastic Constant Matrix: (Units=GPa)
#
#
# Indices 1 2 3 4 5 6 
#
# 1 83.7060 40.6634 30.4404 0.0000 0.0000 0.0000
# 2 40.6634 111.1776 54.0610 0.0000 0.0000 0.0000
# 3 30.4404 54.0610 57.7221 0.0000 0.0000 0.0000
# 4 0.0000 0.0000 0.0000 30.6219 0.0000 0.0000
# 5 0.0000 0.0000 0.0000 0.0000 22.3133 0.0000
# 6 0.0000 0.0000 0.0000 0.0000 0.0000 23.1001
#
#
#
# Elastic Compliance Matrix: (Units=1/GPa)
#
#
# Indices 1 2 3 4 5 6 
#
# 1 0.015334 -0.003078 -0.005204 0.000000 0.000000 0.000000
# 2 -0.003078 0.017134 -0.014424 0.000000 0.000000 0.000000
# 3 -0.005204 -0.014424 0.033578 0.000000 0.000000 0.000000
# 4 0.000000 0.000000 0.000000 0.032656 0.000000 0.000000
# 5 0.000000 0.000000 0.000000 0.000000 0.044816 0.000000
# 6 0.000000 0.000000 0.000000 0.000000 0.000000 0.043290
#
#
# Mechanical properties :
#
#
# Convention : Reuss Voigt Hill
#
# Bulk Modulus (GPa) = 48.46310 55.88170 52.17240
# Shear Modulus (GPa) = 20.91176 23.70311 22.30744
#
# Velocity S-wave (km/s) = 3.39869 3.61842 3.51027
# Velocity P-wave (km/s) = 6.49393 6.95160 6.72666
#
# Compressibility (1/GPa) = 0.02063426
#
# Stress axis : x y z
#
# Youngs Moduli (GPa) = 65.21323 58.36216 29.78137
#
# Poissons Ratio (x) = 0.17965 0.15498
# Poissons Ratio (y) = 0.20074 0.42958
# Poissons Ratio (z) = 0.33935 0.84183
#
# Static dielectric constant tensor:
#      x y z
#    x 3.394980 0.000000 0.000000 
#    y 0.000000 3.221080 0.000000 
#    z 0.000000 0.000000 3.209010 
# 
# 
# High freq. dielectric constant tensor:
#      x y z
#    x 1.703570 0.000000 0.000000 
#    y 0.000000 1.695190 0.000000 
#    z 0.000000 0.000000 1.683580 
# 
# From -- ./inp_files/6164.got.cif
#   From: 2010.03.12/outbox.cif.g09.slc.cpg/sg55_4_cif.got.tgz:6164.got - 2010.04.16 15:19:21.
