data_PCOD8225870
_publ_section_title
;
Structure prediction by ZEFSAII (Michael W. Deem and Ramdas Pophale) SiO2 
 PCOD8225870
Probable space group: P B A M
;
_chemical_formula_sum "Si O2"
_cell_formula_units_Z 48
_cell_length_a 13.535944
_cell_length_b 23.640368
_cell_length_c 8.613709
_cell_angle_alpha 90.000000
_cell_angle_beta 90.000000
_cell_angle_gamma 90.000000
_cell_volume 2756.341205
_symmetry_space_group_name_H-M "P B A M"
_symmetry_group_IT_number 55
_symmetry_cell_setting 'orthorhombic'
loop_
_space_group_symop_operation_xyz
x,y,z
-x,-y,z
1/2+x,1/2-y,-z
1/2-x,1/2+y,-z
-x,-y,-z
x,y,-z
1/2-x,1/2+y,z
1/2+x,1/2-y,z
loop_
_atom_site_type_symbol
_atom_site_label
_atom_site_fract_x
_atom_site_fract_y
_atom_site_fract_z
Si Si1 0.795888 0.336125 0.319195
Si Si2 0.898528 0.770299 0.682331
Si Si3 0.398354 0.061176 0.818466
Si Si4 0.297426 0.836033 0.819413
Si Si5 0.109004 0.442225 0.681764
Si Si6 0.397193 0.269573 0.181279
O O1 0.808951 0.348377 0.500000
O O2 0.685387 0.316106 0.277674
O O3 0.814915 0.393415 0.224841
O O4 0.873819 0.288456 0.269752
O O5 0.907312 0.760148 0.500000
O O6 0.874743 0.710739 0.762355
O O7 0.000322 0.794041 0.752764
O O8 0.499077 0.076860 0.729416
O O9 0.359822 0.999438 0.769747
O O10 0.420283 0.062216 0.000000
O O11 0.313384 0.893866 0.726634
O O12 0.186059 0.816244 0.783962
O O13 0.315901 0.846855 0.000000
O O14 0.112741 0.453901 0.500000
O O15 0.404643 0.256160 0.000000
#
# Coordination Sequence:
#
# PCOD8225870 Si02
#       6
#     8   8   8   8   8   8
#     4  10  20  34  51  73 101 132 166 202 244 292
#     4  10  20  33  51  74 101 132 165 203 245 291
#     4  11  21  34  52  74 101 131 164 202 245 292
#     4  10  20  34  51  73 101 132 166 202 244 292
#     4  11  21  34  52  74 101 131 164 202 245 292
#     4  10  20  33  51  74 101 132 165 203 245 291
#
# _framework density 17.414389
#
# number of rings (size 3 to 8) (size 9 to 14) (size 15 to 20)
#    0.000    1.667    0.000    7.000    0.000    4.000 
#    0.000    0.000    0.000    1.000    0.000    7.000 
#    0.000    0.000    0.000    0.000    0.000    0.000 
#
# Total GULP energy -595467.755771 kJ/mol
# GULP energy per Si atom -12405.578245 kJ/mol
# Density = 1.737475 g / cm^3
# Si number density = 17.414389 Si / 1000 Ang^3
#
#
#
# Elastic Constant Matrix: (Units=GPa)
#
#
# Indices 1 2 3 4 5 6 
#
# 1 98.9553 45.8192 28.3068 0.0000 0.0000 0.0000
# 2 45.8192 101.5267 27.3497 0.0000 0.0000 0.0000
# 3 28.3068 27.3497 70.2766 0.0000 0.0000 0.0000
# 4 0.0000 0.0000 0.0000 31.4860 0.0000 0.0000
# 5 0.0000 0.0000 0.0000 0.0000 29.7111 0.0000
# 6 0.0000 0.0000 0.0000 0.0000 0.0000 22.3584
#
#
#
# Elastic Compliance Matrix: (Units=1/GPa)
#
#
# Indices 1 2 3 4 5 6 
#
# 1 0.013472 -0.005159 -0.003419 0.000000 0.000000 0.000000
# 2 -0.005159 0.012979 -0.002973 0.000000 0.000000 0.000000
# 3 -0.003419 -0.002973 0.016763 0.000000 0.000000 0.000000
# 4 0.000000 0.000000 0.000000 0.031760 0.000000 0.000000
# 5 0.000000 0.000000 0.000000 0.000000 0.033657 0.000000
# 6 0.000000 0.000000 0.000000 0.000000 0.000000 0.044726
#
#
# Mechanical properties :
#
#
# Convention : Reuss Voigt Hill
#
# Bulk Modulus (GPa) = 49.71902 52.63444 51.17673
# Shear Modulus (GPa) = 27.29791 27.99663 27.64727
#
# Velocity S-wave (km/s) = 3.96352 4.01393 3.98881
# Velocity P-wave (km/s) = 7.03978 7.19531 7.11797
#
# Compressibility (1/GPa) = 0.02011303
#
# Stress axis : x y z
#
# Youngs Moduli (GPa) = 74.22601 77.04860 59.65342
#
# Poissons Ratio (x) = 0.39751 0.20394
# Poissons Ratio (y) = 0.38294 0.17735
# Poissons Ratio (z) = 0.25376 0.22906
#
# Static dielectric constant tensor:
#      x y z
#    x 3.240060 0.000000 0.000000 
#    y 0.000000 3.160180 0.000000 
#    z 0.000000 0.000000 3.386750 
# 
# 
# High freq. dielectric constant tensor:
#      x y z
#    x 1.660570 0.000000 0.000000 
#    y 0.000000 1.662300 0.000000 
#    z 0.000000 0.000000 1.695210 
# 
# From -- ./inp_files/4104.got.cif
#   From: 2010.03.12/outbox.cif.g09.slc.cpg/sg55_3_cif.got.tgz:4104.got - 2010.04.16 15:19:21.
