data_PCOD8225117
_publ_section_title
;
Structure prediction by ZEFSAII (Michael W. Deem and Ramdas Pophale) SiO2 
 PCOD8225117
Probable space group: P B A M
;
_chemical_formula_sum "Si O2"
_cell_formula_units_Z 56
_cell_length_a 17.287182
_cell_length_b 18.575414
_cell_length_c 9.235578
_cell_angle_alpha 90.000000
_cell_angle_beta 90.000000
_cell_angle_gamma 90.000000
_cell_volume 2965.697060
_symmetry_space_group_name_H-M "P B A M"
_symmetry_group_IT_number 55
_symmetry_cell_setting 'orthorhombic'
loop_
_space_group_symop_operation_xyz
x,y,z
-x,-y,z
1/2+x,1/2-y,-z
1/2-x,1/2+y,-z
-x,-y,-z
x,y,-z
1/2-x,1/2+y,z
1/2+x,1/2-y,z
loop_
_atom_site_type_symbol
_atom_site_label
_atom_site_fract_x
_atom_site_fract_y
_atom_site_fract_z
Si Si1 0.305131 0.387219 0.172067
Si Si2 0.252972 0.041233 0.162464
Si Si3 0.440575 0.902216 0.671169
Si Si4 0.396011 0.059717 0.670319
Si Si5 0.523347 0.578004 0.171393
Si Si6 0.872912 0.842836 0.835738
Si Si7 0.186171 0.291569 0.327196
O O1 0.260609 0.460046 0.218002
O O2 0.393556 0.394133 0.227558
O O3 0.265088 0.320950 0.255767
O O4 0.301253 0.373968 0.000000
O O5 0.316571 0.084776 0.255857
O O6 0.171738 0.081686 0.171729
O O7 0.284586 0.039780 0.000000
O O8 0.436479 0.904619 0.500000
O O9 0.530635 0.890758 0.717721
O O10 0.386265 0.839050 0.730510
O O11 0.411298 0.978978 0.728413
O O12 0.383898 0.062818 0.500000
O O13 0.500000 0.500000 0.238636
O O14 0.460185 0.638700 0.214708
O O15 0.526947 0.569043 0.000000
O O16 0.831513 0.788358 0.726723
O O17 0.871342 0.812036 0.000000
O O18 0.195004 0.292423 0.500000
#
# Coordination Sequence:
#
# PCOD8225117 Si02
#       7
#     8   8   8   8   8   8   8
#     4  10  19  34  60  88 112 142 184 231 281 337
#     4  10  19  32  54  84 112 136 174 229 276 322
#     4   8  16  31  52  74  99 138 181 219 262 319
#     4   9  16  31  54  76 101 137 180 220 265 320
#     4   9  16  33  62  88 108 140 185 232 284 339
#     4  10  21  38  58  81 112 146 183 229 280 336
#     4  11  22  38  56  78 112 152 189 228 280 338
#
# _framework density 18.882576
#
# number of rings (size 3 to 8) (size 9 to 14) (size 15 to 20)
#    0.000    2.429    2.857    1.286    0.000    0.571 
#    2.571    3.571    0.000    0.857    0.000    0.000 
#    0.000    0.000    0.000    0.000    0.000    0.000 
#
# Total GULP energy -694152.709067 kJ/mol
# GULP energy per Si atom -12395.584090 kJ/mol
# Density = 1.883960 g / cm^3
# Si number density = 18.882576 Si / 1000 Ang^3
#
#
#
# Elastic Constant Matrix: (Units=GPa)
#
#
# Indices 1 2 3 4 5 6 
#
# 1 145.7003 33.1031 41.9089 0.0000 0.0000 0.0000
# 2 33.1031 71.4681 26.0078 0.0000 0.0000 0.0000
# 3 41.9089 26.0078 50.2269 0.0000 0.0000 0.0000
# 4 0.0000 0.0000 0.0000 18.2894 0.0000 0.0000
# 5 0.0000 0.0000 0.0000 0.0000 24.9029 0.0000
# 6 0.0000 0.0000 0.0000 0.0000 0.0000 25.6471
#
#
#
# Elastic Compliance Matrix: (Units=1/GPa)
#
#
# Indices 1 2 3 4 5 6 
#
# 1 0.009217 -0.001812 -0.006753 0.000000 0.000000 0.000000
# 2 -0.001812 0.017597 -0.007600 0.000000 0.000000 0.000000
# 3 -0.006753 -0.007600 0.029479 0.000000 0.000000 0.000000
# 4 0.000000 0.000000 0.000000 0.054677 0.000000 0.000000
# 5 0.000000 0.000000 0.000000 0.000000 0.040156 0.000000
# 6 0.000000 0.000000 0.000000 0.000000 0.000000 0.038991
#
#
# Mechanical properties :
#
#
# Convention : Reuss Voigt Hill
#
# Bulk Modulus (GPa) = 41.72822 52.15943 46.94383
# Shear Modulus (GPa) = 21.69809 24.85957 23.27883
#
# Velocity S-wave (km/s) = 3.39352 3.63235 3.51496
# Velocity P-wave (km/s) = 6.12384 6.72866 6.43337
#
# Compressibility (1/GPa) = 0.02396460
#
# Stress axis : x y z
#
# Youngs Moduli (GPa) = 108.49024 56.82695 33.92202
#
# Poissons Ratio (x) = 0.10297 0.22906
# Poissons Ratio (y) = 0.19659 0.25781
# Poissons Ratio (z) = 0.73260 0.43189
#
# Static dielectric constant tensor:
#      x y z
#    x 3.770240 0.000000 0.000000 
#    y 0.000000 3.256420 0.000000 
#    z 0.000000 0.000000 3.069400 
# 
# 
# High freq. dielectric constant tensor:
#      x y z
#    x 1.751400 0.000000 0.000000 
#    y 0.000000 1.711530 0.000000 
#    z 0.000000 0.000000 1.697350 
# 
# From -- ./inp_files/7863.got.cif
#   From: 2010.03.12/outbox.cif.g09.slc.cpg/sg55_4_cif.got.tgz:7863.got - 2010.04.16 15:19:21.
