data_PCOD8225000
_publ_section_title
;
Structure prediction by ZEFSAII (Michael W. Deem and Ramdas Pophale) SiO2 
 PCOD8225000
Probable space group: P B A M
;
_chemical_formula_sum "Si O2"
_cell_formula_units_Z 56
_cell_length_a 18.538172
_cell_length_b 9.239678
_cell_length_c 14.227701
_cell_angle_alpha 90.000000
_cell_angle_beta 90.000000
_cell_angle_gamma 90.000000
_cell_volume 2437.016522
_symmetry_space_group_name_H-M "P B A M"
_symmetry_group_IT_number 55
_symmetry_cell_setting 'orthorhombic'
loop_
_space_group_symop_operation_xyz
x,y,z
-x,-y,z
1/2+x,1/2-y,-z
1/2-x,1/2+y,-z
-x,-y,-z
x,y,-z
1/2-x,1/2+y,z
1/2+x,1/2-y,z
loop_
_atom_site_type_symbol
_atom_site_label
_atom_site_fract_x
_atom_site_fract_y
_atom_site_fract_z
Si Si1 0.380579 0.199933 0.392629
Si Si2 0.963789 0.781917 0.226330
Si Si3 0.914636 0.625612 0.607350
Si Si4 0.214228 0.158623 0.394029
Si Si5 0.583178 0.047237 0.896815
Si Si6 0.132815 0.951907 0.735023
Si Si7 0.608513 0.733669 0.109829
O O1 0.400552 0.233462 0.500000
O O2 0.294709 0.209406 0.376028
O O3 0.409999 0.328086 0.325594
O O4 0.408728 0.041783 0.362524
O O5 0.975847 0.705015 0.329208
O O6 0.903703 0.674830 0.177832
O O7 0.030800 0.795426 0.157000
O O8 0.930084 0.938296 0.238455
O O9 0.941221 0.637709 0.500000
O O10 0.837727 0.703912 0.621454
O O11 0.205528 0.096840 0.500000
O O12 0.196212 0.028148 0.322622
O O13 0.500000 0.000000 0.894679
O O14 0.630154 0.902050 0.875431
O O15 0.603669 0.106302 0.000000
O O16 0.162247 0.872519 0.830957
O O17 0.607325 0.691338 0.000000
#
# Coordination Sequence:
#
# PCOD8225000 Si02
#       7
#     8   8   8   8   8   8   8
#     4  10  19  34  56  79 106 141 181 225 272 327
#     4  10  19  32  50  76 112 147 179 222 270 320
#     4   9  18  31  48  72 103 140 180 219 265 326
#     4   9  18  34  55  79 106 138 178 222 269 323
#     4   8  15  30  52  73  95 131 179 224 261 304
#     4  11  21  31  52  85 114 139 176 228 278 320
#     4  10  21  37  57  81 109 143 185 228 269 320
#
# _framework density 22.978915000000001
#
# number of rings (size 3 to 8) (size 9 to 14) (size 15 to 20)
#    0.000    2.429    0.000    3.857    0.000    4.571 
#    0.000    1.429    0.000   12.429    0.000    8.000 
#    0.000    0.000    0.000    0.000    0.000    0.000 
#
# Total GULP energy -694025.128819 kJ/mol
# GULP energy per Si atom -12393.305872 kJ/mol
# Density = 2.292661 g / cm^3
# Si number density = 22.978915 Si / 1000 Ang^3
#
#
#
# Elastic Constant Matrix: (Units=GPa)
#
#
# Indices 1 2 3 4 5 6 
#
# 1 21.3152 10.8249 4.5913 0.0000 0.0000 0.0000
# 2 10.8249 148.4602 77.2509 0.0000 0.0000 0.0000
# 3 4.5913 77.2509 145.0168 0.0000 0.0000 0.0000
# 4 0.0000 0.0000 0.0000 40.5616 0.0000 0.0000
# 5 0.0000 0.0000 0.0000 0.0000 14.2886 0.0000
# 6 0.0000 0.0000 0.0000 0.0000 0.0000 20.8561
#
#
#
# Elastic Compliance Matrix: (Units=1/GPa)
#
#
# Indices 1 2 3 4 5 6 
#
# 1 0.048743 -0.003806 0.000484 0.000000 0.000000 0.000000
# 2 -0.003806 0.009616 -0.005002 0.000000 0.000000 0.000000
# 3 0.000484 -0.005002 0.009545 0.000000 0.000000 0.000000
# 4 0.000000 0.000000 0.000000 0.024654 0.000000 0.000000
# 5 0.000000 0.000000 0.000000 0.000000 0.069986 0.000000
# 6 0.000000 0.000000 0.000000 0.000000 0.000000 0.047948
#
#
# Mechanical properties :
#
#
# Convention : Reuss Voigt Hill
#
# Bulk Modulus (GPa) = 19.50956 55.56959 37.53957
# Shear Modulus (GPa) = 20.47291 29.94961 25.21126
#
# Velocity S-wave (km/s) = 2.98811 3.61411 3.31592
# Velocity P-wave (km/s) = 4.51815 6.45377 5.57067
#
# Compressibility (1/GPa) = 0.05125693
#
# Stress axis : x y z
#
# Youngs Moduli (GPa) = 20.51556 103.99198 104.76672
#
# Poissons Ratio (x) = 0.39580 -0.05074
# Poissons Ratio (y) = 0.07808 0.52405
# Poissons Ratio (z) = -0.00994 0.52017
#
# Static dielectric constant tensor:
#      x y z
#    x 3.665170 0.000000 0.000000 
#    y 0.000000 4.656610 0.000000 
#    z 0.000000 0.000000 4.534980 
# 
# 
# High freq. dielectric constant tensor:
#      x y z
#    x 1.858670 0.000000 0.000000 
#    y 0.000000 1.926000 0.000000 
#    z 0.000000 0.000000 1.919870 
# 
# From -- ./inp_files/19764.got.cif
#   From: 2010.03.12/outbox.cif.g09.slc.cpg/sg55_10_cif.got.tgz:19764.got - 2010.04.16 15:19:21.
