data_PCOD8225352
_publ_section_title
;
Structure prediction by ZEFSAII (Michael W. Deem and Ramdas Pophale) SiO2 
 PCOD8225352
Probable space group: P B A M
;
_chemical_formula_sum "Si O2"
_cell_formula_units_Z 40
_cell_length_a 25.125025
_cell_length_b 5.240514
_cell_length_c 16.399521
_cell_angle_alpha 90.000000
_cell_angle_beta 90.000000
_cell_angle_gamma 90.000000
_cell_volume 2159.292873
_symmetry_space_group_name_H-M "P B A M"
_symmetry_group_IT_number 55
_symmetry_cell_setting 'orthorhombic'
loop_
_space_group_symop_operation_xyz
x,y,z
-x,-y,z
1/2+x,1/2-y,-z
1/2-x,1/2+y,-z
-x,-y,-z
x,y,-z
1/2-x,1/2+y,z
1/2+x,1/2-y,z
loop_
_atom_site_type_symbol
_atom_site_label
_atom_site_fract_x
_atom_site_fract_y
_atom_site_fract_z
Si Si1 0.716374 0.580245 0.094128
Si Si2 0.564443 0.734858 0.338727
Si Si3 0.604014 0.612720 0.160496
Si Si4 0.052140 0.263491 0.406213
Si Si5 0.556260 0.096921 0.906477
O O1 0.755802 0.348043 0.113388
O O2 0.666349 0.548824 0.154444
O O3 0.697301 0.564741 0.000000
O O4 0.584662 0.713479 0.247297
O O5 0.500355 0.749577 0.349174
O O6 0.586291 0.491538 0.389590
O O7 0.587714 0.994740 0.378401
O O8 0.572453 0.352831 0.141074
O O9 0.595534 0.854365 0.100393
O O10 0.034605 0.284453 0.500000
O O11 0.500000 0.000000 0.870965
O O12 0.551782 0.180065 0.000000
#
# Coordination Sequence:
#
# PCOD8225352 Si02
#       5
#     8   8   8   8   8
#     4  10  21  38  59  78 100 138 187 241 295 330
#     4  10  20  30  50  78 104 141 175 217 272 303
#     4  12  23  36  57  80 111 138 189 239 279 328
#     4  10  19  34  52  75 111 147 182 213 249 322
#     4  11  24  37  51  73 109 155 189 216 262 326
#
# _framework density 18.524584000000001
#
# number of rings (size 3 to 8) (size 9 to 14) (size 15 to 20)
#    0.000    1.400    0.000    7.800    8.400    3.200 
#    0.000    0.000    0.000    0.000    0.000    0.000 
#    0.000   27.200    0.000    0.000    0.000    0.000 
#
# Total GULP energy -495739.868654 kJ/mol
# GULP energy per Si atom -12393.496716 kJ/mol
# Density = 1.848242 g / cm^3
# Si number density = 18.524584 Si / 1000 Ang^3
#
#
#
# Elastic Constant Matrix: (Units=GPa)
#
#
# Indices 1 2 3 4 5 6 
#
# 1 68.6699 23.6998 48.2059 0.0000 0.0000 0.0000
# 2 23.6998 179.4837 39.3419 0.0000 0.0000 0.0000
# 3 48.2059 39.3419 97.0989 0.0000 0.0000 0.0000
# 4 0.0000 0.0000 0.0000 84.8970 0.0000 0.0000
# 5 0.0000 0.0000 0.0000 0.0000 45.8575 0.0000
# 6 0.0000 0.0000 0.0000 0.0000 0.0000 22.2812
#
#
#
# Elastic Compliance Matrix: (Units=1/GPa)
#
#
# Indices 1 2 3 4 5 6 
#
# 1 0.022406 -0.000571 -0.010892 0.000000 0.000000 0.000000
# 2 -0.000571 0.006129 -0.002200 0.000000 0.000000 0.000000
# 3 -0.010892 -0.002200 0.016598 0.000000 0.000000 0.000000
# 4 0.000000 0.000000 0.000000 0.011779 0.000000 0.000000
# 5 0.000000 0.000000 0.000000 0.000000 0.021807 0.000000
# 6 0.000000 0.000000 0.000000 0.000000 0.000000 0.044881
#
#
# Mechanical properties :
#
#
# Convention : Reuss Voigt Hill
#
# Bulk Modulus (GPa) = 56.15982 63.08308 59.62145
# Shear Modulus (GPa) = 31.87538 46.20747 39.04143
#
# Velocity S-wave (km/s) = 4.15264 4.99980 4.59578
# Velocity P-wave (km/s) = 7.30580 8.21330 7.77281
#
# Compressibility (1/GPa) = 0.01780633
#
# Stress axis : x y z
#
# Youngs Moduli (GPa) = 44.63128 163.15502 60.24936
#
# Poissons Ratio (x) = 0.09317 0.65625
# Poissons Ratio (y) = 0.02549 0.13254
# Poissons Ratio (z) = 0.48614 0.35892
#
# Static dielectric constant tensor:
#      x y z
#    x 2.987810 0.000000 0.000000 
#    y 0.000000 4.664490 0.000000 
#    z 0.000000 0.000000 3.223250 
# 
# 
# High freq. dielectric constant tensor:
#      x y z
#    x 1.655950 0.000000 0.000000 
#    y 0.000000 1.766330 0.000000 
#    z 0.000000 0.000000 1.704090 
# 
# From -- ./inp_files/19842.got.cif
#   From: 2010.03.12/outbox.cif.g09.slc.cpg/sg55_10_cif.got.tgz:19842.got - 2010.04.16 15:19:21.
