data_PCOD8225388
_publ_section_title
;
Structure prediction by ZEFSAII (Michael W. Deem and Ramdas Pophale) SiO2 
 PCOD8225388
Probable space group: P B A M
;
_chemical_formula_sum "Si O2"
_cell_formula_units_Z 56
_cell_length_a 10.031385
_cell_length_b 20.012157
_cell_length_c 14.123348
_cell_angle_alpha 90.000000
_cell_angle_beta 90.000000
_cell_angle_gamma 90.000000
_cell_volume 2835.257190
_symmetry_space_group_name_H-M "P B A M"
_symmetry_group_IT_number 55
_symmetry_cell_setting 'orthorhombic'
loop_
_space_group_symop_operation_xyz
x,y,z
-x,-y,z
1/2+x,1/2-y,-z
1/2-x,1/2+y,-z
-x,-y,-z
x,y,-z
1/2-x,1/2+y,z
1/2+x,1/2-y,z
loop_
_atom_site_type_symbol
_atom_site_label
_atom_site_fract_x
_atom_site_fract_y
_atom_site_fract_z
Si Si1 0.134005 0.686493 0.804396
Si Si2 0.027039 0.174185 0.604571
Si Si3 0.129625 0.272437 0.109921
Si Si4 0.516430 0.425311 0.771459
Si Si5 0.274448 0.059721 0.109917
Si Si6 0.263806 0.411389 0.892217
Si Si7 0.309201 0.221884 0.605068
O O1 0.269744 0.722697 0.837959
O O2 0.119280 0.611551 0.845865
O O3 0.135071 0.676413 0.690648
O O4 0.014045 0.734339 0.839577
O O5 0.032499 0.141468 0.500000
O O6 0.054042 0.117473 0.680551
O O7 0.881651 0.206849 0.619368
O O8 0.148230 0.228526 0.613074
O O9 0.164502 0.350278 0.121313
O O10 0.119642 0.251704 0.000000
O O11 0.500000 0.500000 0.733435
O O12 0.630624 0.421736 0.849501
O O13 0.384491 0.398211 0.821346
O O14 0.310367 0.982028 0.131377
O O15 0.271619 0.074510 0.000000
O O16 0.318141 0.414873 0.000000
O O17 0.347903 0.193287 0.500000
#
# Coordination Sequence:
#
# PCOD8225388 Si02
#       7
#     8   8   8   8   8   8   8
#     4  12  23  38  59  85 115 151 188 238 290 336
#     4  10  20  36  57  84 111 142 186 235 286 336
#     4  11  24  38  55  85 120 152 186 230 286 342
#     4  10  19  34  55  82 114 147 188 230 283 334
#     4  10  20  35  56  82 112 151 193 230 275 337
#     4   9  20  37  56  79 114 155 193 229 272 336
#     4  10  21  37  57  81 109 143 186 233 281 337
#
# _framework density 19.751296
#
# number of rings (size 3 to 8) (size 9 to 14) (size 15 to 20)
#    0.000    1.714    1.429    3.429    2.000    2.571 
#    0.000    2.143    0.000    0.000    0.000    1.000 
#    0.000    0.571    0.000    0.000    0.000    0.000 
#
# Total GULP energy -694118.682468 kJ/mol
# GULP energy per Si atom -12394.976473 kJ/mol
# Density = 1.970634 g / cm^3
# Si number density = 19.751296 Si / 1000 Ang^3
#
#
#
# Elastic Constant Matrix: (Units=GPa)
#
#
# Indices 1 2 3 4 5 6 
#
# 1 57.8931 8.8337 15.2517 0.0000 0.0000 0.0000
# 2 8.8337 71.2065 36.3233 0.0000 0.0000 0.0000
# 3 15.2517 36.3233 128.6109 0.0000 0.0000 0.0000
# 4 0.0000 0.0000 0.0000 22.7554 0.0000 0.0000
# 5 0.0000 0.0000 0.0000 0.0000 21.0108 0.0000
# 6 0.0000 0.0000 0.0000 0.0000 0.0000 26.6566
#
#
#
# Elastic Compliance Matrix: (Units=1/GPa)
#
#
# Indices 1 2 3 4 5 6 
#
# 1 0.017938 -0.001332 -0.001751 0.000000 0.000000 0.000000
# 2 -0.001332 0.016506 -0.004504 0.000000 0.000000 0.000000
# 3 -0.001751 -0.004504 0.009255 0.000000 0.000000 0.000000
# 4 0.000000 0.000000 0.000000 0.043946 0.000000 0.000000
# 5 0.000000 0.000000 0.000000 0.000000 0.047595 0.000000
# 6 0.000000 0.000000 0.000000 0.000000 0.000000 0.037514
#
#
# Mechanical properties :
#
#
# Convention : Reuss Voigt Hill
#
# Bulk Modulus (GPa) = 35.05664 42.05864 38.55764
# Shear Modulus (GPa) = 25.32465 27.23800 26.28133
#
# Velocity S-wave (km/s) = 3.58463 3.71758 3.65171
# Velocity P-wave (km/s) = 5.90935 6.30615 6.11097
#
# Compressibility (1/GPa) = 0.02852527
#
# Stress axis : x y z
#
# Youngs Moduli (GPa) = 55.74829 60.58245 108.04893
#
# Poissons Ratio (x) = 0.08070 0.18919
# Poissons Ratio (y) = 0.07426 0.48664
# Poissons Ratio (z) = 0.09761 0.27286
#
# Static dielectric constant tensor:
#      x y z
#    x 3.570790 0.000000 0.000000 
#    y 0.000000 3.670690 0.000000 
#    z 0.000000 0.000000 3.803780 
# 
# 
# High freq. dielectric constant tensor:
#      x y z
#    x 1.765970 0.000000 0.000000 
#    y 0.000000 1.754200 0.000000 
#    z 0.000000 0.000000 1.780010 
# 
# From -- ./inp_files/17615.got.cif
#   From: 2010.03.12/outbox.cif.g09.slc.cpg/sg55_9_cif.got.tgz:17615.got - 2010.04.16 15:19:21.
