data_PCOD8225780
_publ_section_title
;
Structure prediction by ZEFSAII (Michael W. Deem and Ramdas Pophale) SiO2 
 PCOD8225780
Probable space group: P B A M
;
_chemical_formula_sum "Si O2"
_cell_formula_units_Z 40
_cell_length_a 7.684531
_cell_length_b 20.164080
_cell_length_c 13.293093
_cell_angle_alpha 90.000000
_cell_angle_beta 90.000000
_cell_angle_gamma 90.000000
_cell_volume 2059.784671
_symmetry_space_group_name_H-M "P B A M"
_symmetry_group_IT_number 55
_symmetry_cell_setting 'orthorhombic'
loop_
_space_group_symop_operation_xyz
x,y,z
-x,-y,z
1/2+x,1/2-y,-z
1/2-x,1/2+y,-z
-x,-y,-z
x,y,-z
1/2-x,1/2+y,z
1/2+x,1/2-y,z
loop_
_atom_site_type_symbol
_atom_site_label
_atom_site_fract_x
_atom_site_fract_y
_atom_site_fract_z
Si Si1 0.940318 0.926376 0.780590
Si Si2 0.120608 0.309912 0.306053
Si Si3 0.977506 0.173931 0.613730
Si Si4 0.753013 0.638851 0.887073
Si Si5 0.546614 0.928037 0.216289
O O1 0.942512 0.886497 0.675873
O O2 0.744292 0.925325 0.823435
O O3 0.067706 0.895373 0.864064
O O4 0.000000 0.000000 0.753992
O O5 0.268099 0.329308 0.386580
O O6 0.025837 0.243274 0.335060
O O7 0.212494 0.302479 0.194657
O O8 0.983458 0.371236 0.301833
O O9 0.047851 0.169939 0.500000
O O10 0.911062 0.585540 0.875636
O O11 0.749710 0.667647 0.000000
O O12 0.500000 0.000000 0.262527
#
# Coordination Sequence:
#
# PCOD8225780 Si02
#       5
#     8   8   8   8   8
#     4  11  21  39  61  90 125 158 199 257 306 355
#     4   9  21  37  57  88 120 153 202 253 297 358
#     4  11  21  38  64  87 118 160 203 252 309 368
#     4   9  21  38  59  89 121 159 201 240 296 359
#     4  10  19  38  59  84 124 161 194 251 300 350
#
# _framework density 19.419505999999998
#
# number of rings (size 3 to 8) (size 9 to 14) (size 15 to 20)
#    1.200    0.800    2.000    1.800    0.000    2.000 
#    0.000    5.000    0.000    4.200    0.000    0.000 
#    0.000    0.000    0.000    0.000    0.000    0.000 
#
# Total GULP energy -495637.942824 kJ/mol
# GULP energy per Si atom -12390.948571 kJ/mol
# Density = 1.937531 g / cm^3
# Si number density = 19.419506 Si / 1000 Ang^3
#
#
#
# Elastic Constant Matrix: (Units=GPa)
#
#
# Indices 1 2 3 4 5 6 
#
# 1 145.2582 5.7082 21.8534 0.0000 0.0000 0.0000
# 2 5.7082 41.2455 34.8643 0.0000 0.0000 0.0000
# 3 21.8534 34.8643 114.6958 0.0000 0.0000 0.0000
# 4 0.0000 0.0000 0.0000 14.0022 0.0000 0.0000
# 5 0.0000 0.0000 0.0000 0.0000 5.6628 0.0000
# 6 0.0000 0.0000 0.0000 0.0000 0.0000 29.4879
#
#
#
# Elastic Compliance Matrix: (Units=1/GPa)
#
#
# Indices 1 2 3 4 5 6 
#
# 1 0.007089 0.000216 -0.001416 0.000000 0.000000 0.000000
# 2 0.000216 0.032635 -0.009961 0.000000 0.000000 0.000000
# 3 -0.001416 -0.009961 0.012017 0.000000 0.000000 0.000000
# 4 0.000000 0.000000 0.000000 0.071418 0.000000 0.000000
# 5 0.000000 0.000000 0.000000 0.000000 0.176592 0.000000
# 6 0.000000 0.000000 0.000000 0.000000 0.000000 0.033912
#
#
# Mechanical properties :
#
#
# Convention : Reuss Voigt Hill
#
# Bulk Modulus (GPa) = 33.99321 47.33903 40.66612
# Shear Modulus (GPa) = 13.66896 25.74881 19.70889
#
# Velocity S-wave (km/s) = 2.65595 3.64528 3.18921
# Velocity P-wave (km/s) = 5.19115 6.49210 5.87773
#
# Compressibility (1/GPa) = 0.02941764
#
# Stress axis : x y z
#
# Youngs Moduli (GPa) = 141.06590 30.64153 83.21834
#
# Poissons Ratio (x) = -0.00662 0.11787
# Poissons Ratio (y) = -0.03050 0.82897
# Poissons Ratio (z) = 0.19980 0.30523
#
# Static dielectric constant tensor:
#      x y z
#    x 3.793750 0.000000 0.000000 
#    y 0.000000 3.424790 0.000000 
#    z 0.000000 0.000000 3.135350 
# 
# 
# High freq. dielectric constant tensor:
#      x y z
#    x 1.773650 0.000000 0.000000 
#    y 0.000000 1.749260 0.000000 
#    z 0.000000 0.000000 1.719490 
# 
# From -- ./inp_files/11882.got.cif
#   From: 2010.03.12/outbox.cif.g09.slc.cpg/sg55_6_cif.got.tgz:11882.got - 2010.04.16 15:19:21.
