data_PCOD8225624
_publ_section_title
;
Structure prediction by ZEFSAII (Michael W. Deem and Ramdas Pophale) SiO2 
 PCOD8225624
Probable space group: P B A M
;
_chemical_formula_sum "Si O2"
_cell_formula_units_Z 64
_cell_length_a 11.875006
_cell_length_b 30.742155
_cell_length_c 8.932884
_cell_angle_alpha 90.000000
_cell_angle_beta 90.000000
_cell_angle_gamma 90.000000
_cell_volume 3261.067889
_symmetry_space_group_name_H-M "P B A M"
_symmetry_group_IT_number 55
_symmetry_cell_setting 'orthorhombic'
loop_
_space_group_symop_operation_xyz
x,y,z
-x,-y,z
1/2+x,1/2-y,-z
1/2-x,1/2+y,-z
-x,-y,-z
x,y,-z
1/2-x,1/2+y,z
1/2+x,1/2-y,z
loop_
_atom_site_type_symbol
_atom_site_label
_atom_site_fract_x
_atom_site_fract_y
_atom_site_fract_z
Si Si1 0.748233 0.045921 0.823757
Si Si2 0.282454 0.039970 0.324417
Si Si3 0.509246 0.160628 0.326716
Si Si4 0.498076 0.071177 0.824082
Si Si5 0.099460 0.873592 0.822671
Si Si6 0.858493 0.874811 0.322782
Si Si7 0.750132 0.197619 0.322676
Si Si8 0.715610 0.793686 0.673891
O O1 0.622423 0.057917 0.771968
O O2 0.829884 0.084435 0.769735
O O3 0.784799 0.001486 0.741406
O O4 0.757004 0.038738 0.000000
O O5 0.294954 0.034844 0.500000
O O6 0.406831 0.040016 0.252638
O O7 0.216319 0.083526 0.280771
O O8 0.508340 0.145828 0.500000
O O9 0.475488 0.120340 0.224906
O O10 0.629103 0.179079 0.276881
O O11 0.416139 0.197478 0.297334
O O12 0.483256 0.066551 0.000000
O O13 0.152573 0.830297 0.753412
O O14 0.974324 0.879313 0.763936
O O15 0.100522 0.869063 0.000000
O O16 0.880342 0.872477 0.500000
O O17 0.794013 0.832061 0.260068
O O18 0.769732 0.196821 0.500000
O O19 0.756074 0.246610 0.256755
O O20 0.743016 0.792033 0.500000
#
# Coordination Sequence:
#
# PCOD8225624 Si02
#       8
#     8   8   8   8   8   8   8   8
#     4  10  23  41  59  83 118 159 194 234 294 357
#     4  11  23  39  62  91 118 148 193 250 295 339
#     4  10  19  35  60  90 120 151 196 245 290 339
#     4  11  21  37  60  86 122 160 192 231 292 356
#     4  11  24  42  60  83 120 159 196 242 292 350
#     4  10  22  41  62  85 117 154 196 246 294 345
#     4  10  21  36  63  92 116 155 199 244 293 345
#     4   9  19  37  61  89 121 153 193 244 295 346
#
# _framework density 19.625473
#
# number of rings (size 3 to 8) (size 9 to 14) (size 15 to 20)
#    0.000    1.750    2.500    1.500    1.750    5.000 
#    0.000    3.750    0.000    0.000    0.000    0.000 
#    0.000    0.000    0.000    0.000    0.000    0.000 
#
# Total GULP energy -793808.865094 kJ/mol
# GULP energy per Si atom -12403.263517 kJ/mol
# Density = 1.958080 g / cm^3
# Si number density = 19.625473 Si / 1000 Ang^3
#
#
#
# Elastic Constant Matrix: (Units=GPa)
#
#
# Indices 1 2 3 4 5 6 
#
# 1 101.2727 29.2124 32.3581 0.0000 0.0000 0.0000
# 2 29.2124 125.3611 33.3172 0.0000 0.0000 0.0000
# 3 32.3581 33.3172 41.7432 0.0000 0.0000 0.0000
# 4 0.0000 0.0000 0.0000 16.7809 0.0000 0.0000
# 5 0.0000 0.0000 0.0000 0.0000 28.2544 0.0000
# 6 0.0000 0.0000 0.0000 0.0000 0.0000 24.5437
#
#
#
# Elastic Compliance Matrix: (Units=1/GPa)
#
#
# Indices 1 2 3 4 5 6 
#
# 1 0.013145 -0.000451 -0.009830 0.000000 0.000000 0.000000
# 2 -0.000451 0.010140 -0.007744 0.000000 0.000000 0.000000
# 3 -0.009830 -0.007744 0.037757 0.000000 0.000000 0.000000
# 4 0.000000 0.000000 0.000000 0.059592 0.000000 0.000000
# 5 0.000000 0.000000 0.000000 0.000000 0.035393 0.000000
# 6 0.000000 0.000000 0.000000 0.000000 0.000000 0.040744
#
#
# Mechanical properties :
#
#
# Convention : Reuss Voigt Hill
#
# Bulk Modulus (GPa) = 40.01168 50.90583 45.45875
# Shear Modulus (GPa) = 20.73395 25.48174 23.10784
#
# Velocity S-wave (km/s) = 3.25388 3.60724 3.43511
# Velocity P-wave (km/s) = 5.87783 6.58366 6.24073
#
# Compressibility (1/GPa) = 0.02499270
#
# Stress axis : x y z
#
# Youngs Moduli (GPa) = 76.07364 98.61864 26.48533
#
# Poissons Ratio (x) = 0.04444 0.26035
# Poissons Ratio (y) = 0.03428 0.20510
# Poissons Ratio (z) = 0.74781 0.76370
#
# Static dielectric constant tensor:
#      x y z
#    x 3.609190 0.000000 0.000000 
#    y 0.000000 3.871660 0.000000 
#    z 0.000000 0.000000 3.342330 
# 
# 
# High freq. dielectric constant tensor:
#      x y z
#    x 1.769370 0.000000 0.000000 
#    y 0.000000 1.779980 0.000000 
#    z 0.000000 0.000000 1.744100 
# 
# From -- ./inp_files/4478.got.cif
#   From: 2010.03.12/outbox.cif.g09.slc.cpg/sg55_3_cif.got.tgz:4478.got - 2010.04.16 15:19:21.
