data_PCOD8225002
_publ_section_title
;
Structure prediction by ZEFSAII (Michael W. Deem and Ramdas Pophale) SiO2 
 PCOD8225002
Probable space group: P B A M
;
_chemical_formula_sum "Si O2"
_cell_formula_units_Z 48
_cell_length_a 28.916609
_cell_length_b 10.285500
_cell_length_c 9.624623
_cell_angle_alpha 90.000000
_cell_angle_beta 90.000000
_cell_angle_gamma 90.000000
_cell_volume 2862.572522
_symmetry_space_group_name_H-M "P B A M"
_symmetry_group_IT_number 55
_symmetry_cell_setting 'orthorhombic'
loop_
_space_group_symop_operation_xyz
x,y,z
-x,-y,z
1/2+x,1/2-y,-z
1/2-x,1/2+y,-z
-x,-y,-z
x,y,-z
1/2-x,1/2+y,z
1/2+x,1/2-y,z
loop_
_atom_site_type_symbol
_atom_site_label
_atom_site_fract_x
_atom_site_fract_y
_atom_site_fract_z
Si Si1 0.467348 0.618634 0.161962
Si Si2 0.974071 0.368265 0.161375
Si Si3 0.287498 0.214251 0.334746
Si Si4 0.891790 0.281357 0.660258
Si Si5 0.283312 0.502799 0.665066
Si Si6 0.612510 0.478850 0.339903
O O1 0.500000 0.500000 0.205994
O O2 0.492443 0.751103 0.204360
O O3 0.419777 0.611953 0.246644
O O4 0.454990 0.613301 0.000000
O O5 0.926800 0.364153 0.247323
O O6 0.000000 0.500000 0.199445
O O7 0.960768 0.360148 0.000000
O O8 0.284100 0.217063 0.500000
O O9 0.339991 0.181098 0.291498
O O10 0.253424 0.104964 0.271102
O O11 0.273210 0.357257 0.277434
O O12 0.899618 0.318286 0.500000
O O13 0.900339 0.128925 0.684238
O O14 0.279592 0.499726 0.500000
O O15 0.334812 0.547191 0.707393
O O16 0.605305 0.440243 0.500000
#
# Coordination Sequence:
#
# PCOD8225002 Si02
#       6
#     8   8   8   8   8   8
#     4  10  19  32  51  71  89 119 162 194 223 276
#     4  10  21  36  50  66  93 127 158 191 236 284
#     4   8  14  26  44  65  91 122 151 183 224 272
#     4   9  17  30  49  72  97 124 155 191 232 275
#     4   8  14  26  43  64  92 122 151 182 223 274
#     4   9  17  29  48  74  98 121 152 194 237 270
#
# _framework density 16.768135000000001
#
# number of rings (size 3 to 8) (size 9 to 14) (size 15 to 20)
#    0.000    3.000    1.667    2.000    0.000    1.333 
#    3.000    0.000    0.000    1.000    0.000    0.000 
#    0.000    0.000    0.000    0.000    0.000    0.000 
#
# Total GULP energy -595094.206362 kJ/mol
# GULP energy per Si atom -12397.795966 kJ/mol
# Density = 1.672997 g / cm^3
# Si number density = 16.768135 Si / 1000 Ang^3
#
#
#
# Elastic Constant Matrix: (Units=GPa)
#
#
# Indices 1 2 3 4 5 6 
#
# 1 146.8701 86.0984 49.4941 0.0000 0.0000 0.0000
# 2 86.0984 118.9451 33.5915 0.0000 0.0000 0.0000
# 3 49.4941 33.5915 36.0637 0.0000 0.0000 0.0000
# 4 0.0000 0.0000 0.0000 12.5016 0.0000 0.0000
# 5 0.0000 0.0000 0.0000 0.0000 2.2151 0.0000
# 6 0.0000 0.0000 0.0000 0.0000 0.0000 29.5933
#
#
#
# Elastic Compliance Matrix: (Units=1/GPa)
#
#
# Indices 1 2 3 4 5 6 
#
# 1 0.016476 -0.007518 -0.015609 0.000000 0.000000 0.000000
# 2 -0.007518 0.014839 -0.003504 0.000000 0.000000 0.000000
# 3 -0.015609 -0.003504 0.052415 0.000000 0.000000 0.000000
# 4 0.000000 0.000000 0.000000 0.079990 0.000000 0.000000
# 5 0.000000 0.000000 0.000000 0.000000 0.451457 0.000000
# 6 0.000000 0.000000 0.000000 0.000000 0.000000 0.033791
#
#
# Mechanical properties :
#
#
# Convention : Reuss Voigt Hill
#
# Bulk Modulus (GPa) = 32.82201 71.13854 51.98028
# Shear Modulus (GPa) = 7.01867 17.70831 12.36349
#
# Velocity S-wave (km/s) = 2.04812 3.25325 2.71831
# Velocity P-wave (km/s) = 5.02092 7.52519 6.39680
#
# Compressibility (1/GPa) = 0.03046736
#
# Stress axis : x y z
#
# Youngs Moduli (GPa) = 60.69354 67.39175 19.07862
#
# Poissons Ratio (x) = 0.50665 0.29781
# Poissons Ratio (y) = 0.45629 0.06684
# Poissons Ratio (z) = 0.94739 0.23612
#
# Static dielectric constant tensor:
#      x y z
#    x 3.224220 0.000000 0.000000 
#    y 0.000000 3.285490 0.000000 
#    z 0.000000 0.000000 2.769850 
# 
# 
# High freq. dielectric constant tensor:
#      x y z
#    x 1.652470 0.000000 0.000000 
#    y 0.000000 1.639050 0.000000 
#    z 0.000000 0.000000 1.606870 
# 
# From -- ./inp_files/15279.got.cif
#   From: 2010.03.12/outbox.cif.g09.slc.cpg/sg55_8_cif.got.tgz:15279.got - 2010.04.16 15:19:21.
