data_PCOD8225687
_publ_section_title
;
Structure prediction by ZEFSAII (Michael W. Deem and Ramdas Pophale) SiO2 
 PCOD8225687
Probable space group: P B A M
;
_chemical_formula_sum "Si O2"
_cell_formula_units_Z 64
_cell_length_a 9.028420
_cell_length_b 20.839910
_cell_length_c 17.044597
_cell_angle_alpha 90.000000
_cell_angle_beta 90.000000
_cell_angle_gamma 90.000000
_cell_volume 3206.965815
_symmetry_space_group_name_H-M "P B A M"
_symmetry_group_IT_number 55
_symmetry_cell_setting 'orthorhombic'
loop_
_space_group_symop_operation_xyz
x,y,z
-x,-y,z
1/2+x,1/2-y,-z
1/2-x,1/2+y,-z
-x,-y,-z
x,y,-z
1/2-x,1/2+y,z
1/2+x,1/2-y,z
loop_
_atom_site_type_symbol
_atom_site_label
_atom_site_fract_x
_atom_site_fract_y
_atom_site_fract_z
Si Si1 0.323386 0.932689 0.818175
Si Si2 0.665831 0.198730 0.658390
Si Si3 0.853347 0.307907 0.909805
Si Si4 0.663349 0.574064 0.659450
Si Si5 0.681705 0.430765 0.348218
Si Si6 0.348201 0.186908 0.410496
Si Si7 0.661910 0.928434 0.815278
Si Si8 0.659509 0.202057 0.842697
O O1 0.201079 0.931629 0.750735
O O2 0.491683 0.922469 0.784966
O O3 0.294751 0.870224 0.872977
O O4 0.313799 0.002361 0.858833
O O5 0.743868 0.133894 0.624385
O O6 0.728221 0.259997 0.613304
O O7 0.490978 0.193508 0.644579
O O8 0.698383 0.208531 0.750800
O O9 0.792027 0.376202 0.879769
O O10 0.732448 0.253434 0.899189
O O11 0.986658 0.286437 0.854494
O O12 0.899906 0.314324 0.000000
O O13 0.490611 0.588121 0.647240
O O14 0.706207 0.504448 0.622082
O O15 0.774621 0.383299 0.403075
O O16 0.732445 0.420975 0.258940
O O17 0.396746 0.197128 0.500000
#
# Coordination Sequence:
#
# PCOD8225687 Si02
#       8
#     8   8   8   8   8   8   8   8
#     4   8  16  32  54  82 105 135 188 240 276 320
#     4  11  22  40  62  84 111 150 196 238 282 342
#     4  11  22  35  51  80 115 146 180 228 282 334
#     4   9  19  34  59  88 112 142 190 242 280 324
#     4  10  19  36  59  86 115 148 188 234 283 339
#     4  12  25  40  58  86 118 149 184 235 293 345
#     4   9  17  33  57  79 106 143 186 232 278 331
#     4  10  20  36  57  79 105 145 188 227 272 331
#
# _framework density 19.956558999999999
#
# number of rings (size 3 to 8) (size 9 to 14) (size 15 to 20)
#    0.000    2.000    0.000    5.250    0.000    4.500 
#    0.000    9.375    0.000    0.000    0.000    8.750 
#    0.000    0.000    0.000    0.000    0.000    0.000 
#
# Total GULP energy -793160.212869 kJ/mol
# GULP energy per Si atom -12393.128326 kJ/mol
# Density = 1.991114 g / cm^3
# Si number density = 19.956559 Si / 1000 Ang^3
#
#
#
# Elastic Constant Matrix: (Units=GPa)
#
#
# Indices 1 2 3 4 5 6 
#
# 1 73.7335 40.8191 4.6510 0.0000 0.0000 0.0000
# 2 40.8191 147.6021 29.0313 0.0000 0.0000 0.0000
# 3 4.6510 29.0313 61.0340 0.0000 0.0000 0.0000
# 4 0.0000 0.0000 0.0000 11.3346 0.0000 0.0000
# 5 0.0000 0.0000 0.0000 0.0000 17.6625 0.0000
# 6 0.0000 0.0000 0.0000 0.0000 0.0000 34.9073
#
#
#
# Elastic Compliance Matrix: (Units=1/GPa)
#
#
# Indices 1 2 3 4 5 6 
#
# 1 0.016067 -0.004636 0.000981 0.000000 0.000000 0.000000
# 2 -0.004636 0.008812 -0.003838 0.000000 0.000000 0.000000
# 3 0.000981 -0.003838 0.018135 0.000000 0.000000 0.000000
# 4 0.000000 0.000000 0.000000 0.088225 0.000000 0.000000
# 5 0.000000 0.000000 0.000000 0.000000 0.056617 0.000000
# 6 0.000000 0.000000 0.000000 0.000000 0.000000 0.028647
#
#
# Mechanical properties :
#
#
# Convention : Reuss Voigt Hill
#
# Bulk Modulus (GPa) = 35.67958 47.93029 41.80493
# Shear Modulus (GPa) = 20.76124 26.63878 23.70001
#
# Velocity S-wave (km/s) = 3.22890 3.65751 3.44987
# Velocity P-wave (km/s) = 5.64079 6.47348 6.07143
#
# Compressibility (1/GPa) = 0.02802723
#
# Stress axis : x y z
#
# Youngs Moduli (GPa) = 62.23888 113.48104 55.14131
#
# Poissons Ratio (x) = 0.52613 -0.05409
# Poissons Ratio (y) = 0.28856 0.21164
# Poissons Ratio (z) = -0.06105 0.43556
#
# Static dielectric constant tensor:
#      x y z
#    x 3.552950 0.000000 0.000000 
#    y 0.000000 4.257700 0.000000 
#    z 0.000000 0.000000 3.118600 
# 
# 
# High freq. dielectric constant tensor:
#      x y z
#    x 1.776830 0.000000 0.000000 
#    y 0.000000 1.809140 0.000000 
#    z 0.000000 0.000000 1.730700 
# 
# From -- ./inp_files/21091.got.cif
#   From: 2010.03.12/outbox.cif.g09.slc.cpg/sg55_11_cif.got.tgz:21091.got - 2010.04.16 15:19:21.
