data_PCOD8225718
_publ_section_title
;
Structure prediction by ZEFSAII (Michael W. Deem and Ramdas Pophale) SiO2 
 PCOD8225718
Probable space group: P B A M
;
_chemical_formula_sum "Si O2"
_cell_formula_units_Z 64
_cell_length_a 12.542003
_cell_length_b 29.288235
_cell_length_c 8.904244
_cell_angle_alpha 90.000000
_cell_angle_beta 90.000000
_cell_angle_gamma 90.000000
_cell_volume 3270.823830
_symmetry_space_group_name_H-M "P B A M"
_symmetry_group_IT_number 55
_symmetry_cell_setting 'orthorhombic'
loop_
_space_group_symop_operation_xyz
x,y,z
-x,-y,z
1/2+x,1/2-y,-z
1/2-x,1/2+y,-z
-x,-y,-z
x,y,-z
1/2-x,1/2+y,z
1/2+x,1/2-y,z
loop_
_atom_site_type_symbol
_atom_site_label
_atom_site_fract_x
_atom_site_fract_y
_atom_site_fract_z
Si Si1 0.007646 0.553861 0.169838
Si Si2 0.624257 0.497655 0.178801
Si Si3 0.613784 0.251249 0.670705
Si Si4 0.414807 0.243242 0.836534
Si Si5 0.228440 0.578368 0.677613
Si Si6 0.773453 0.827760 0.829141
Si Si7 0.725010 0.078786 0.823065
Si Si8 0.245326 0.819271 0.168979
O O1 0.107987 0.569279 0.268007
O O2 0.000000 0.500000 0.168732
O O3 0.895773 0.572253 0.240111
O O4 0.025042 0.572443 0.000000
O O5 0.500000 0.500000 0.230998
O O6 0.683459 0.454311 0.248850
O O7 0.689063 0.542155 0.238619
O O8 0.629952 0.493287 0.000000
O O9 0.637688 0.263585 0.500000
O O10 0.492607 0.236544 0.697083
O O11 0.630054 0.296298 0.771731
O O12 0.680331 0.207103 0.715972
O O13 0.328442 0.204237 0.816164
O O14 0.368067 0.294379 0.829677
O O15 0.470615 0.236858 0.000000
O O16 0.232127 0.572253 0.500000
O O17 0.260913 0.629288 0.721863
O O18 0.795009 0.843546 0.000000
O O19 0.767706 0.128626 0.776542
O O20 0.717854 0.071859 0.000000
O O21 0.294238 0.817944 0.000000
#
# Coordination Sequence:
#
# PCOD8225718 Si02
#       8
#     8   8   8   8   8   8   8   8
#     4  10  19  36  62  87 118 157 202 250 293 346
#     4  10  21  40  65  90 117 156 207 252 290 345
#     4  11  22  36  56  84 119 151 186 238 301 356
#     4   9  19  36  58  82 111 150 195 239 285 343
#     4  12  25  39  58  89 128 158 194 246 311 370
#     4  10  22  41  63  84 111 153 206 248 283 340
#     4   9  18  35  60  89 116 148 198 252 292 335
#     4   9  19  36  57  82 112 151 200 243 282 338
#
# _framework density 19.566936999999999
#
# number of rings (size 3 to 8) (size 9 to 14) (size 15 to 20)
#    0.000    2.000    1.250    3.375    1.750    4.000 
#    0.000    3.125    0.000    0.000    0.000    0.000 
#    0.000    0.000    0.000    0.000    0.000    0.000 
#
# Total GULP energy -793359.849496 kJ/mol
# GULP energy per Si atom -12396.247648 kJ/mol
# Density = 1.952240 g / cm^3
# Si number density = 19.566937 Si / 1000 Ang^3
#
#
#
# Elastic Constant Matrix: (Units=GPa)
#
#
# Indices 1 2 3 4 5 6 
#
# 1 105.6169 34.4431 38.0698 0.0000 0.0000 0.0000
# 2 34.4431 114.3862 26.2020 0.0000 0.0000 0.0000
# 3 38.0698 26.2020 71.1480 0.0000 0.0000 0.0000
# 4 0.0000 0.0000 0.0000 21.1847 0.0000 0.0000
# 5 0.0000 0.0000 0.0000 0.0000 74.0920 0.0000
# 6 0.0000 0.0000 0.0000 0.0000 0.0000 5.5218
#
#
#
# Elastic Compliance Matrix: (Units=1/GPa)
#
#
# Indices 1 2 3 4 5 6 
#
# 1 0.012306 -0.002399 -0.005701 0.000000 0.000000 0.000000
# 2 -0.002399 0.010016 -0.002405 0.000000 0.000000 0.000000
# 3 -0.005701 -0.002405 0.017991 0.000000 0.000000 0.000000
# 4 0.000000 0.000000 0.000000 0.047204 0.000000 0.000000
# 5 0.000000 0.000000 0.000000 0.000000 0.013497 0.000000
# 6 0.000000 0.000000 0.000000 0.000000 0.000000 0.181100
#
#
# Mechanical properties :
#
#
# Convention : Reuss Voigt Hill
#
# Bulk Modulus (GPa) = 51.80648 54.28677 53.04663
# Shear Modulus (GPa) = 16.15211 32.98879 24.57045
#
# Velocity S-wave (km/s) = 2.87623 4.11048 3.54745
# Velocity P-wave (km/s) = 6.12897 7.09454 6.62936
#
# Compressibility (1/GPa) = 0.01930260
#
# Stress axis : x y z
#
# Youngs Moduli (GPa) = 81.26424 99.84382 55.58302
#
# Poissons Ratio (x) = 0.23958 0.31687
# Poissons Ratio (y) = 0.19499 0.13365
# Poissons Ratio (z) = 0.46327 0.24008
#
# Static dielectric constant tensor:
#      x y z
#    x 5.414820 0.000000 0.000000 
#    y 0.000000 3.659100 0.000000 
#    z 0.000000 0.000000 3.365060 
# 
# 
# High freq. dielectric constant tensor:
#      x y z
#    x 1.763240 0.000000 0.000000 
#    y 0.000000 1.770090 0.000000 
#    z 0.000000 0.000000 1.738020 
# 
# From -- ./inp_files/4584.got.cif
#   From: 2010.03.12/outbox.cif.g09.slc.cpg/sg55_3_cif.got.tgz:4584.got - 2010.04.16 15:19:21.
