data_PCOD8225153
_publ_section_title
;
Structure prediction by ZEFSAII (Michael W. Deem and Ramdas Pophale) SiO2 
 PCOD8225153
Probable space group: P B A M
;
_chemical_formula_sum "Si O2"
_cell_formula_units_Z 64
_cell_length_a 23.335258
_cell_length_b 8.787219
_cell_length_c 16.803563
_cell_angle_alpha 90.000000
_cell_angle_beta 90.000000
_cell_angle_gamma 90.000000
_cell_volume 3445.604578
_symmetry_space_group_name_H-M "P B A M"
_symmetry_group_IT_number 55
_symmetry_cell_setting 'orthorhombic'
loop_
_space_group_symop_operation_xyz
x,y,z
-x,-y,z
1/2+x,1/2-y,-z
1/2-x,1/2+y,-z
-x,-y,-z
x,y,-z
1/2-x,1/2+y,z
1/2+x,1/2-y,z
loop_
_atom_site_type_symbol
_atom_site_label
_atom_site_fract_x
_atom_site_fract_y
_atom_site_fract_z
Si Si1 0.466056 0.155810 0.909392
Si Si2 0.116170 0.160526 0.414197
Si Si3 0.965923 0.852187 0.795670
Si Si4 0.734270 0.925148 0.702230
Si Si5 0.765110 0.689390 0.411314
Si Si6 0.376126 0.141663 0.776759
Si Si7 0.363171 0.491822 0.262622
Si Si8 0.552172 0.090336 0.673813
O O1 0.506062 0.294922 0.878381
O O2 0.405784 0.136035 0.862928
O O3 0.500000 0.000000 0.900922
O O4 0.450118 0.192986 0.000000
O O5 0.093494 0.102232 0.500000
O O6 0.183277 0.193177 0.420573
O O7 0.085725 0.319521 0.393909
O O8 0.107822 0.030796 0.348256
O O9 0.973898 0.709240 0.737295
O O10 0.898613 0.902928 0.801305
O O11 0.000000 0.000000 0.763747
O O12 0.716267 0.032469 0.628676
O O13 0.796683 0.957495 0.740401
O O14 0.725168 0.762594 0.657476
O O15 0.689201 0.924374 0.775845
O O16 0.737581 0.663058 0.500000
O O17 0.375103 0.316815 0.751363
O O18 0.408616 0.035766 0.714782
O O19 0.500000 0.000000 0.633138
#
# Coordination Sequence:
#
# PCOD8225153 Si02
#       8
#     8   8   8   8   8   8   8   8
#     4  11  23  40  65  97 122 146 183 242 305 346
#     4   9  20  35  50  75 115 152 194 250 297 338
#     4  11  19  36  61  88 118 147 188 241 293 349
#     4  11  21  34  54  84 112 157 201 239 291 354
#     4  10  19  33  50  77 113 149 197 253 292 327
#     4  12  20  39  59  85 118 152 203 239 288 368
#     4  10  22  35  56  84 112 157 201 241 294 345
#     4  11  19  33  59  83 109 153 199 237 295 350
#
# _framework density 18.574389
#
# number of rings (size 3 to 8) (size 9 to 14) (size 15 to 20)
#    0.000    1.375    6.250    0.375    0.000    1.000 
#    0.000    0.625    0.000   14.250    0.000    0.000 
#    0.000    0.000    0.000    0.000    0.000    0.000 
#
# Total GULP energy -792860.363320 kJ/mol
# GULP energy per Si atom -12388.443177 kJ/mol
# Density = 1.853211 g / cm^3
# Si number density = 18.574389 Si / 1000 Ang^3
#
#
#
# Elastic Constant Matrix: (Units=GPa)
#
#
# Indices 1 2 3 4 5 6 
#
# 1 97.2865 35.5771 59.3698 0.0000 0.0000 0.0000
# 2 35.5771 76.7021 29.4253 0.0000 0.0000 0.0000
# 3 59.3698 29.4253 106.2154 0.0000 0.0000 0.0000
# 4 0.0000 0.0000 0.0000 15.8498 0.0000 0.0000
# 5 0.0000 0.0000 0.0000 0.0000 21.7258 0.0000
# 6 0.0000 0.0000 0.0000 0.0000 0.0000 23.4321
#
#
#
# Elastic Compliance Matrix: (Units=1/GPa)
#
#
# Indices 1 2 3 4 5 6 
#
# 1 0.017017 -0.004749 -0.008196 0.000000 0.000000 0.000000
# 2 -0.004749 0.015913 -0.001754 0.000000 0.000000 0.000000
# 3 -0.008196 -0.001754 0.014482 0.000000 0.000000 0.000000
# 4 0.000000 0.000000 0.000000 0.063092 0.000000 0.000000
# 5 0.000000 0.000000 0.000000 0.000000 0.046028 0.000000
# 6 0.000000 0.000000 0.000000 0.000000 0.000000 0.042676
#
#
# Mechanical properties :
#
#
# Convention : Reuss Voigt Hill
#
# Bulk Modulus (GPa) = 55.51227 58.77203 57.14215
# Shear Modulus (GPa) = 21.31169 22.59034 21.95102
#
# Velocity S-wave (km/s) = 3.39096 3.49120 3.44145
# Velocity P-wave (km/s) = 6.72925 6.92542 6.82804
#
# Compressibility (1/GPa) = 0.01801404
#
# Stress axis : x y z
#
# Youngs Moduli (GPa) = 58.76305 62.84142 69.05026
#
# Poissons Ratio (x) = 0.29843 0.56597
# Poissons Ratio (y) = 0.27906 0.12112
# Poissons Ratio (z) = 0.48165 0.11023
#
# Static dielectric constant tensor:
#      x y z
#    x 3.622900 0.000000 0.000000 
#    y 0.000000 3.615240 0.000000 
#    z 0.000000 0.000000 3.386980 
# 
# 
# High freq. dielectric constant tensor:
#      x y z
#    x 1.718830 0.000000 0.000000 
#    y 0.000000 1.741160 0.000000 
#    z 0.000000 0.000000 1.681110 
# 
# From -- ./inp_files/22042.got.cif
#   From: 2010.03.12/outbox.cif.g09.slc.cpg/sg55_12_cif.got.tgz:22042.got - 2010.04.16 15:19:21.
