data_PCOD8225537
_publ_section_title
;
Structure prediction by ZEFSAII (Michael W. Deem and Ramdas Pophale) SiO2 
 PCOD8225537
Probable space group: P B A M
;
_chemical_formula_sum "Si O2"
_cell_formula_units_Z 56
_cell_length_a 10.834885
_cell_length_b 17.490205
_cell_length_c 16.659952
_cell_angle_alpha 90.000000
_cell_angle_beta 90.000000
_cell_angle_gamma 90.000000
_cell_volume 3157.133538
_symmetry_space_group_name_H-M "P B A M"
_symmetry_group_IT_number 55
_symmetry_cell_setting 'orthorhombic'
loop_
_space_group_symop_operation_xyz
x,y,z
-x,-y,z
1/2+x,1/2-y,-z
1/2-x,1/2+y,-z
-x,-y,-z
x,y,-z
1/2-x,1/2+y,z
1/2+x,1/2-y,z
loop_
_atom_site_type_symbol
_atom_site_label
_atom_site_fract_x
_atom_site_fract_y
_atom_site_fract_z
Si Si1 0.123319 0.088485 0.232490
Si Si2 0.203970 0.694047 0.319737
Si Si3 0.899411 0.804236 0.906851
Si Si4 0.655955 0.575370 0.260339
Si Si5 0.737112 0.155305 0.590172
Si Si6 0.335415 0.279308 0.163007
Si Si7 0.025235 0.585342 0.409523
O O1 0.170605 0.156558 0.288626
O O2 0.121074 0.116397 0.140204
O O3 0.989698 0.073456 0.266577
O O4 0.202925 0.009987 0.236910
O O5 0.235329 0.757257 0.386229
O O6 0.135682 0.730814 0.243174
O O7 0.125561 0.624950 0.354478
O O8 0.786276 0.747081 0.885388
O O9 0.037169 0.771785 0.887378
O O10 0.892877 0.823265 0.000000
O O11 0.702422 0.595793 0.348911
O O12 0.698094 0.634465 0.191169
O O13 0.788453 0.141392 0.500000
O O14 0.591930 0.140697 0.592612
O O15 0.076723 0.577444 0.500000
O O16 0.000000 0.500000 0.375546
#
# Coordination Sequence:
#
# PCOD8225537 Si02
#       7
#     8   8   8   8   8   8   8
#     4   9  19  35  53  79  99 141 167 216 264 320
#     4  10  20  33  53  75 104 137 180 214 264 319
#     4  10  19  35  54  80 108 135 171 219 267 317
#     4   9  18  35  55  74 109 130 179 215 256 323
#     4  10  21  33  52  76 104 139 176 224 266 304
#     4   9  20  32  56  79 104 139 177 212 264 316
#     4  10  21  35  51  75 105 139 180 225 269 315
#
# _framework density 17.737608999999999
#
# number of rings (size 3 to 8) (size 9 to 14) (size 15 to 20)
#    0.000    2.429    0.000    1.714   10.000    0.000 
#    0.000    9.286    0.000    0.000    0.000    3.000 
#    0.000    0.000    0.000    0.000    0.000    0.000 
#
# Total GULP energy -694090.826466 kJ/mol
# GULP energy per Si atom -12394.479044 kJ/mol
# Density = 1.769724 g / cm^3
# Si number density = 17.737609 Si / 1000 Ang^3
#
#
#
# Elastic Constant Matrix: (Units=GPa)
#
#
# Indices 1 2 3 4 5 6 
#
# 1 69.0223 28.3156 42.4386 0.0000 0.0000 0.0000
# 2 28.3156 89.2713 32.9561 0.0000 0.0000 0.0000
# 3 42.4386 32.9561 114.7856 0.0000 0.0000 0.0000
# 4 0.0000 0.0000 0.0000 17.2741 0.0000 0.0000
# 5 0.0000 0.0000 0.0000 0.0000 24.5152 0.0000
# 6 0.0000 0.0000 0.0000 0.0000 0.0000 24.7287
#
#
#
# Elastic Compliance Matrix: (Units=1/GPa)
#
#
# Indices 1 2 3 4 5 6 
#
# 1 0.019971 -0.004037 -0.006225 0.000000 0.000000 0.000000
# 2 -0.004037 0.013346 -0.002339 0.000000 0.000000 0.000000
# 3 -0.006225 -0.002339 0.011685 0.000000 0.000000 0.000000
# 4 0.000000 0.000000 0.000000 0.057890 0.000000 0.000000
# 5 0.000000 0.000000 0.000000 0.000000 0.040791 0.000000
# 6 0.000000 0.000000 0.000000 0.000000 0.000000 0.040439
#
#
# Mechanical properties :
#
#
# Convention : Reuss Voigt Hill
#
# Bulk Modulus (GPa) = 50.50355 53.38887 51.94621
# Shear Modulus (GPa) = 23.15629 24.59486 23.87558
#
# Velocity S-wave (km/s) = 3.61708 3.72774 3.67283
# Velocity P-wave (km/s) = 6.78076 6.97801 6.88009
#
# Compressibility (1/GPa) = 0.01980059
#
# Stress axis : x y z
#
# Youngs Moduli (GPa) = 50.07153 74.93022 85.57991
#
# Poissons Ratio (x) = 0.30247 0.53273
# Poissons Ratio (y) = 0.20212 0.20019
# Poissons Ratio (z) = 0.31169 0.17528
#
# Static dielectric constant tensor:
#      x y z
#    x 3.258070 0.000000 0.000000 
#    y 0.000000 3.718880 0.000000 
#    z 0.000000 0.000000 3.247030 
# 
# 
# High freq. dielectric constant tensor:
#      x y z
#    x 1.679870 0.000000 0.000000 
#    y 0.000000 1.694150 0.000000 
#    z 0.000000 0.000000 1.679780 
# 
# From -- ./inp_files/18398.got.cif
#   From: 2010.03.12/outbox.cif.g09.slc.cpg/sg55_10_cif.got.tgz:18398.got - 2010.04.16 15:19:21.
