data_PCOD8225423
_publ_section_title
;
Structure prediction by ZEFSAII (Michael W. Deem and Ramdas Pophale) SiO2 
 PCOD8225423
Probable space group: P B A M
;
_chemical_formula_sum "Si O2"
_cell_formula_units_Z 48
_cell_length_a 14.457022
_cell_length_b 20.553832
_cell_length_c 8.796135
_cell_angle_alpha 90.000000
_cell_angle_beta 90.000000
_cell_angle_gamma 90.000000
_cell_volume 2613.746898
_symmetry_space_group_name_H-M "P B A M"
_symmetry_group_IT_number 55
_symmetry_cell_setting 'orthorhombic'
loop_
_space_group_symop_operation_xyz
x,y,z
-x,-y,z
1/2+x,1/2-y,-z
1/2-x,1/2+y,-z
-x,-y,-z
x,y,-z
1/2-x,1/2+y,z
1/2+x,1/2-y,z
loop_
_atom_site_type_symbol
_atom_site_label
_atom_site_fract_x
_atom_site_fract_y
_atom_site_fract_z
Si Si1 0.490002 0.875436 0.680415
Si Si2 0.682824 0.925854 0.680438
Si Si3 0.999550 0.227746 0.322475
Si Si4 0.793340 0.801797 0.678014
Si Si5 0.703948 0.070530 0.680836
Si Si6 0.316101 0.317144 0.179143
O O1 0.487271 0.877342 0.500000
O O2 0.578795 0.914654 0.743097
O O3 0.496907 0.801524 0.737324
O O4 0.396522 0.907675 0.743211
O O5 0.679986 0.923335 0.500000
O O6 0.749577 0.868732 0.741378
O O7 0.720054 0.995996 0.733631
O O8 0.974223 0.225275 0.500000
O O9 0.097800 0.194325 0.288688
O O10 0.922066 0.189728 0.229507
O O11 0.773469 0.792334 0.500000
O O12 0.747603 0.740642 0.759373
O O13 0.710201 0.078454 0.500000
O O14 0.782400 0.113850 0.757141
O O15 0.309554 0.317531 0.000000
#
# Coordination Sequence:
#
# PCOD8225423 Si02
#       6
#     8   8   8   8   8   8
#     4   9  15  27  54  87 112 135 170 223 278 328
#     4   9  17  30  55  87 114 136 176 230 280 328
#     4  10  19  34  58  82 107 140 184 233 274 320
#     4  10  19  36  60  85 109 141 185 232 276 322
#     4  10  19  34  56  83 112 146 181 223 276 328
#     4  12  24  36  53  79 113 150 185 223 269 329
#
# _framework density 18.364440999999999
#
# number of rings (size 3 to 8) (size 9 to 14) (size 15 to 20)
#    0.000    2.000    3.333    2.000    0.000    2.667 
#    0.000    1.667    0.000    6.000    0.000    0.000 
#    0.000    0.000    0.000    0.000    0.000    0.000 
#
# Total GULP energy -595202.399441 kJ/mol
# GULP energy per Si atom -12400.049988 kJ/mol
# Density = 1.832264 g / cm^3
# Si number density = 18.364441 Si / 1000 Ang^3
#
#
#
# Elastic Constant Matrix: (Units=GPa)
#
#
# Indices 1 2 3 4 5 6 
#
# 1 91.0736 43.3803 26.1393 0.0000 0.0000 0.0000
# 2 43.3803 120.4244 23.1228 0.0000 0.0000 0.0000
# 3 26.1393 23.1228 45.1529 0.0000 0.0000 0.0000
# 4 0.0000 0.0000 0.0000 5.7710 0.0000 0.0000
# 5 0.0000 0.0000 0.0000 0.0000 9.0188 0.0000
# 6 0.0000 0.0000 0.0000 0.0000 0.0000 34.0965
#
#
#
# Elastic Compliance Matrix: (Units=1/GPa)
#
#
# Indices 1 2 3 4 5 6 
#
# 1 0.014781 -0.004083 -0.006466 0.000000 0.000000 0.000000
# 2 -0.004083 0.010337 -0.002930 0.000000 0.000000 0.000000
# 3 -0.006466 -0.002930 0.027391 0.000000 0.000000 0.000000
# 4 0.000000 0.000000 0.000000 0.173281 0.000000 0.000000
# 5 0.000000 0.000000 0.000000 0.000000 0.110879 0.000000
# 6 0.000000 0.000000 0.000000 0.000000 0.000000 0.029328
#
#
# Mechanical properties :
#
#
# Convention : Reuss Voigt Hill
#
# Bulk Modulus (GPa) = 39.13748 49.10397 44.12073
# Shear Modulus (GPa) = 12.45417 20.71117 16.58267
#
# Velocity S-wave (km/s) = 2.60699 3.36190 3.00822
# Velocity P-wave (km/s) = 5.51540 6.47043 6.01191
#
# Compressibility (1/GPa) = 0.02555096
#
# Stress axis : x y z
#
# Youngs Moduli (GPa) = 67.65590 96.73638 36.50893
#
# Poissons Ratio (x) = 0.39497 0.23606
# Poissons Ratio (y) = 0.27623 0.10698
# Poissons Ratio (z) = 0.43745 0.28345
#
# Static dielectric constant tensor:
#      x y z
#    x 3.535530 0.000000 0.000000 
#    y 0.000000 3.579050 0.000000 
#    z 0.000000 0.000000 2.936270 
# 
# 
# High freq. dielectric constant tensor:
#      x y z
#    x 1.718740 0.000000 0.000000 
#    y 0.000000 1.715570 0.000000 
#    z 0.000000 0.000000 1.664590 
# 
# From -- ./inp_files/5546.got.cif
#   From: 2010.03.12/outbox.cif.g09.slc.cpg/sg55_3_cif.got.tgz:5546.got - 2010.04.16 15:19:21.
