data_PCOD8225694
_publ_section_title
;
Structure prediction by ZEFSAII (Michael W. Deem and Ramdas Pophale) SiO2 
 PCOD8225694
Probable space group: P B A M
;
_chemical_formula_sum "Si O2"
_cell_formula_units_Z 56
_cell_length_a 16.268344
_cell_length_b 19.679898
_cell_length_c 9.110219
_cell_angle_alpha 90.000000
_cell_angle_beta 90.000000
_cell_angle_gamma 90.000000
_cell_volume 2916.721798
_symmetry_space_group_name_H-M "P B A M"
_symmetry_group_IT_number 55
_symmetry_cell_setting 'orthorhombic'
loop_
_space_group_symop_operation_xyz
x,y,z
-x,-y,z
1/2+x,1/2-y,-z
1/2-x,1/2+y,-z
-x,-y,-z
x,y,-z
1/2-x,1/2+y,z
1/2+x,1/2-y,z
loop_
_atom_site_type_symbol
_atom_site_label
_atom_site_fract_x
_atom_site_fract_y
_atom_site_fract_z
Si Si1 0.417021 0.692748 0.171943
Si Si2 0.940827 0.939659 0.330013
Si Si3 0.742885 0.258280 0.328143
Si Si4 0.242470 0.010651 0.329088
Si Si5 0.473703 0.839470 0.831384
Si Si6 0.708845 0.124356 0.173536
Si Si7 0.866844 0.374022 0.669323
O O1 0.463625 0.626763 0.234656
O O2 0.331646 0.700263 0.257214
O O3 0.473461 0.758748 0.201039
O O4 0.398094 0.684702 0.000000
O O5 0.956794 0.922508 0.500000
O O6 0.847319 0.959810 0.300509
O O7 0.000000 0.000000 0.276732
O O8 0.724295 0.248762 0.500000
O O9 0.756876 0.186052 0.250954
O O10 0.825200 0.301318 0.301248
O O11 0.254590 0.992326 0.500000
O O12 0.308338 0.065763 0.272862
O O13 0.252151 0.944615 0.230170
O O14 0.386991 0.871726 0.782165
O O15 0.545299 0.877637 0.745917
O O16 0.490108 0.854300 0.000000
O O17 0.720629 0.131608 0.000000
O O18 0.883363 0.385747 0.500000
#
# Coordination Sequence:
#
# PCOD8225694 Si02
#       7
#     8   8   8   8   8   8   8
#     4  10  20  36  57  82 113 147 186 235 287 341
#     4  10  21  38  60  84 115 154 194 239 290 345
#     4  10  19  36  60  83 110 148 191 240 287 340
#     4  10  21  39  58  84 117 150 193 239 286 345
#     4   9  21  38  55  81 116 149 189 237 283 339
#     4  10  22  39  57  84 117 153 195 237 287 344
#     4  10  21  36  58  86 114 146 194 240 284 342
#
# _framework density 19.199636000000002
#
# number of rings (size 3 to 8) (size 9 to 14) (size 15 to 20)
#    0.000    2.143    1.429    2.143    0.000    7.714 
#    0.000    7.143    0.000    0.000    0.000    0.000 
#    0.000    0.000    0.000    0.000    0.000    0.000 
#
# Total GULP energy -694550.832272 kJ/mol
# GULP energy per Si atom -12402.693433 kJ/mol
# Density = 1.915594 g / cm^3
# Si number density = 19.199636 Si / 1000 Ang^3
#
#
#
# Elastic Constant Matrix: (Units=GPa)
#
#
# Indices 1 2 3 4 5 6 
#
# 1 18.8896 -2.7281 5.4321 0.0000 0.0000 0.0000
# 2 -2.7281 84.9942 28.8469 0.0000 0.0000 0.0000
# 3 5.4321 28.8469 63.0315 0.0000 0.0000 0.0000
# 4 0.0000 0.0000 0.0000 33.9288 0.0000 0.0000
# 5 0.0000 0.0000 0.0000 0.0000 22.9033 0.0000
# 6 0.0000 0.0000 0.0000 0.0000 0.0000 25.8362
#
#
#
# Elastic Compliance Matrix: (Units=1/GPa)
#
#
# Indices 1 2 3 4 5 6 
#
# 1 0.055424 0.004025 -0.006619 0.000000 0.000000 0.000000
# 2 0.004025 0.014221 -0.006855 0.000000 0.000000 0.000000
# 3 -0.006619 -0.006855 0.019573 0.000000 0.000000 0.000000
# 4 0.000000 0.000000 0.000000 0.029473 0.000000 0.000000
# 5 0.000000 0.000000 0.000000 0.000000 0.043662 0.000000
# 6 0.000000 0.000000 0.000000 0.000000 0.000000 0.038705
#
#
# Mechanical properties :
#
#
# Convention : Reuss Voigt Hill
#
# Bulk Modulus (GPa) = 14.22055 25.55744 19.88899
# Shear Modulus (GPa) = 20.54257 25.55796 23.05027
#
# Velocity S-wave (km/s) = 3.27455 3.65248 3.46866
# Velocity P-wave (km/s) = 4.66044 5.57923 5.14040
#
# Compressibility (1/GPa) = 0.07032079
#
# Stress axis : x y z
#
# Youngs Moduli (GPa) = 18.04271 70.31629 51.09094
#
# Poissons Ratio (x) = -0.28305 0.33816
# Poissons Ratio (y) = -0.07263 0.35025
# Poissons Ratio (z) = 0.11942 0.48205
#
# Static dielectric constant tensor:
#      x y z
#    x 3.369540 0.000000 0.000000 
#    y 0.000000 3.581520 0.000000 
#    z 0.000000 0.000000 3.476480 
# 
# 
# High freq. dielectric constant tensor:
#      x y z
#    x 1.737050 0.000000 0.000000 
#    y 0.000000 1.754130 0.000000 
#    z 0.000000 0.000000 1.747070 
# 
# From -- ./inp_files/6116.got.cif
#   From: 2010.03.12/outbox.cif.g09.slc.cpg/sg55_4_cif.got.tgz:6116.got - 2010.04.16 15:19:21.
