data_PCOD8225913
_publ_section_title
;
Structure prediction by ZEFSAII (Michael W. Deem and Ramdas Pophale) SiO2 
 PCOD8225913
Probable space group: P B A M
;
_chemical_formula_sum "Si O2"
_cell_formula_units_Z 64
_cell_length_a 23.340663
_cell_length_b 15.093281
_cell_length_c 9.476727
_cell_angle_alpha 90.000000
_cell_angle_beta 90.000000
_cell_angle_gamma 90.000000
_cell_volume 3338.529481
_symmetry_space_group_name_H-M "P B A M"
_symmetry_group_IT_number 55
_symmetry_cell_setting 'orthorhombic'
loop_
_space_group_symop_operation_xyz
x,y,z
-x,-y,z
1/2+x,1/2-y,-z
1/2-x,1/2+y,-z
-x,-y,-z
x,y,-z
1/2-x,1/2+y,z
1/2+x,1/2-y,z
loop_
_atom_site_type_symbol
_atom_site_label
_atom_site_fract_x
_atom_site_fract_y
_atom_site_fract_z
Si Si1 0.197524 0.698967 0.836490
Si Si2 0.071349 0.758666 0.832867
Si Si3 0.131603 0.347321 0.158994
Si Si4 0.674015 0.488804 0.660428
Si Si5 0.718745 0.001816 0.837438
Si Si6 0.694956 0.283139 0.661382
Si Si7 0.502385 0.096746 0.839338
Si Si8 0.448242 0.434355 0.333662
O O1 0.138342 0.747062 0.797993
O O2 0.195089 0.595149 0.797620
O O3 0.246953 0.743460 0.743052
O O4 0.212824 0.712810 0.000000
O O5 0.039778 0.670489 0.773037
O O6 0.045527 0.843004 0.751783
O O7 0.060421 0.770803 0.000000
O O8 0.167386 0.433504 0.202974
O O9 0.143090 0.269735 0.269040
O O10 0.065639 0.367406 0.171741
O O11 0.147409 0.317369 0.000000
O O12 0.684827 0.517642 0.500000
O O13 0.724431 0.531467 0.753330
O O14 0.677201 0.384069 0.678965
O O15 0.611721 0.520654 0.711477
O O16 0.736028 0.007115 0.000000
O O17 0.702955 0.255360 0.500000
O O18 0.500000 0.000000 0.763218
O O19 0.481698 0.083237 0.000000
O O20 0.500000 0.500000 0.290804
O O21 0.450370 0.413771 0.500000
#
# Coordination Sequence:
#
# PCOD8225913 Si02
#       8
#     8   8   8   8   8   8   8   8
#     4   9  18  35  56  80 112 143 177 223 277 329
#     4  10  21  36  59  89 115 144 188 237 277 326
#     4  10  20  33  54  83 113 143 180 221 270 329
#     4   9  20  38  56  76 104 142 186 226 273 330
#     4   9  18  33  55  82 110 144 177 217 271 329
#     4  10  21  35  54  79 108 143 182 226 274 329
#     4   9  18  35  59  86 116 150 184 222 274 336
#     4  10  23  41  59  77 106 151 194 234 285 340
#
# _framework density 19.170117000000001
#
# number of rings (size 3 to 8) (size 9 to 14) (size 15 to 20)
#    0.000    2.500    0.000    1.125    3.500    5.250 
#    0.000    0.000    0.000    3.000    0.000    0.000 
#    0.000    0.000    0.000    0.000    0.000    0.000 
#
# Total GULP energy -793610.912456 kJ/mol
# GULP energy per Si atom -12400.170507 kJ/mol
# Density = 1.912649 g / cm^3
# Si number density = 19.170117 Si / 1000 Ang^3
#
#
#
# Elastic Constant Matrix: (Units=GPa)
#
#
# Indices 1 2 3 4 5 6 
#
# 1 80.5492 39.8181 29.3904 0.0000 0.0000 0.0000
# 2 39.8181 84.6520 39.6515 0.0000 0.0000 0.0000
# 3 29.3904 39.6515 57.7093 0.0000 0.0000 0.0000
# 4 0.0000 0.0000 0.0000 25.7341 0.0000 0.0000
# 5 0.0000 0.0000 0.0000 0.0000 19.9855 0.0000
# 6 0.0000 0.0000 0.0000 0.0000 0.0000 31.3379
#
#
#
# Elastic Compliance Matrix: (Units=1/GPa)
#
#
# Indices 1 2 3 4 5 6 
#
# 1 0.016986 -0.005806 -0.004661 0.000000 0.000000 0.000000
# 2 -0.005806 0.019404 -0.010375 0.000000 0.000000 0.000000
# 3 -0.004661 -0.010375 0.026831 0.000000 0.000000 0.000000
# 4 0.000000 0.000000 0.000000 0.038859 0.000000 0.000000
# 5 0.000000 0.000000 0.000000 0.000000 0.050036 0.000000
# 6 0.000000 0.000000 0.000000 0.000000 0.000000 0.031910
#
#
# Mechanical properties :
#
#
# Convention : Reuss Voigt Hill
#
# Bulk Modulus (GPa) = 46.43558 48.95894 47.69726
# Shear Modulus (GPa) = 21.46937 23.01487 22.24212
#
# Velocity S-wave (km/s) = 3.35018 3.46867 3.40994
# Velocity P-wave (km/s) = 6.26422 6.45266 6.35914
#
# Compressibility (1/GPa) = 0.02153521
#
# Stress axis : x y z
#
# Youngs Moduli (GPa) = 58.87280 51.53560 37.27061
#
# Poissons Ratio (x) = 0.29924 0.17372
# Poissons Ratio (y) = 0.34184 0.38669
# Poissons Ratio (z) = 0.27441 0.53470
#
# Static dielectric constant tensor:
#      x y z
#    x 3.581920 0.000000 0.000000 
#    y 0.000000 3.567250 0.000000 
#    z 0.000000 0.000000 3.383850 
# 
# 
# High freq. dielectric constant tensor:
#      x y z
#    x 1.753460 0.000000 0.000000 
#    y 0.000000 1.752120 0.000000 
#    z 0.000000 0.000000 1.720900 
# 
# From -- ./inp_files/9633.got.cif
#   From: 2010.03.12/outbox.cif.g09.slc.cpg/sg55_5_cif.got.tgz:9633.got - 2010.04.16 15:19:21.
