data_PCOD8225783
_publ_section_title
;
Structure prediction by ZEFSAII (Michael W. Deem and Ramdas Pophale) SiO2 
 PCOD8225783
Probable space group: P B A M
;
_chemical_formula_sum "Si O2"
_cell_formula_units_Z 40
_cell_length_a 25.742394
_cell_length_b 10.053149
_cell_length_c 7.693828
_cell_angle_alpha 90.000000
_cell_angle_beta 90.000000
_cell_angle_gamma 90.000000
_cell_volume 1991.102078
_symmetry_space_group_name_H-M "P B A M"
_symmetry_group_IT_number 55
_symmetry_cell_setting 'orthorhombic'
loop_
_space_group_symop_operation_xyz
x,y,z
-x,-y,z
1/2+x,1/2-y,-z
1/2-x,1/2+y,-z
-x,-y,-z
x,y,-z
1/2-x,1/2+y,z
1/2+x,1/2-y,z
loop_
_atom_site_type_symbol
_atom_site_label
_atom_site_fract_x
_atom_site_fract_y
_atom_site_fract_z
Si Si1 0.790963 0.747596 0.196079
Si Si2 0.177387 0.734923 0.800659
Si Si3 0.127836 0.465496 0.208971
Si Si4 0.048985 0.096017 0.500000
Si Si5 0.047792 0.401742 0.500000
Si Si6 0.355764 0.512516 0.690898
O O1 0.734498 0.753934 0.289959
O O2 0.827109 0.633832 0.277663
O O3 0.820413 0.888427 0.198293
O O4 0.780919 0.703567 0.000000
O O5 0.144426 0.612181 0.726481
O O6 0.143913 0.868455 0.779735
O O7 0.186940 0.700202 0.000000
O O8 0.077618 0.427501 0.319655
O O9 0.116783 0.453887 0.000000
O O10 0.029642 0.247804 0.500000
O O11 0.084769 0.065698 0.328676
O O12 0.000000 0.000000 0.500000
O O13 0.000000 0.500000 0.500000
O O14 0.330031 0.500496 0.500000
#
# Coordination Sequence:
#
# PCOD8225783 Si02
#       6
#     8   8   8   4   4   8
#     4  10  19  38  61  84 125 166 196 240 297 357
#     4  10  21  36  59  91 125 165 199 234 296 363
#     4  10  22  41  63  93 127 158 207 253 297 370
#     4  10  24  44  61  87 114 150 203 255 317 360
#     4  12  26  44  71  87 116 164 201 263 327 354
#     4  10  21  36  58  87 120 155 195 249 292 362
#
# _framework density 20.089378
#
# number of rings (size 3 to 8) (size 9 to 14) (size 15 to 20)
#    0.600    1.200    2.000    1.800    4.200    4.400 
#    3.600    0.000    0.000    3.000    0.000    0.000 
#    0.000    0.000    0.000    0.000    0.000    0.000 
#
# Total GULP energy -495728.958249 kJ/mol
# GULP energy per Si atom -12393.223956 kJ/mol
# Density = 2.004365 g / cm^3
# Si number density = 20.089378 Si / 1000 Ang^3
#
#
#
# Elastic Constant Matrix: (Units=GPa)
#
#
# Indices 1 2 3 4 5 6 
#
# 1 117.7204 61.7991 28.3455 0.0000 0.0000 0.0000
# 2 61.7991 186.2066 12.5779 0.0000 0.0000 0.0000
# 3 28.3455 12.5779 52.6416 0.0000 0.0000 0.0000
# 4 0.0000 0.0000 0.0000 24.6145 0.0000 0.0000
# 5 0.0000 0.0000 0.0000 0.0000 18.7381 0.0000
# 6 0.0000 0.0000 0.0000 0.0000 0.0000 40.7707
#
#
#
# Elastic Compliance Matrix: (Units=1/GPa)
#
#
# Indices 1 2 3 4 5 6 
#
# 1 0.011637 -0.003495 -0.005431 0.000000 0.000000 0.000000
# 2 -0.003495 0.006508 0.000327 0.000000 0.000000 0.000000
# 3 -0.005431 0.000327 0.021843 0.000000 0.000000 0.000000
# 4 0.000000 0.000000 0.000000 0.040626 0.000000 0.000000
# 5 0.000000 0.000000 0.000000 0.000000 0.053367 0.000000
# 6 0.000000 0.000000 0.000000 0.000000 0.000000 0.024527
#
#
# Mechanical properties :
#
#
# Convention : Reuss Voigt Hill
#
# Bulk Modulus (GPa) = 43.87981 62.44596 53.16288
# Shear Modulus (GPa) = 27.27692 33.74772 30.51232
#
# Velocity S-wave (km/s) = 3.68880 4.10308 3.90144
# Velocity P-wave (km/s) = 6.32714 7.32110 6.84220
#
# Compressibility (1/GPa) = 0.02278952
#
# Stress axis : x y z
#
# Youngs Moduli (GPa) = 85.92968 153.64848 45.78191
#
# Poissons Ratio (x) = 0.53707 0.24865
# Poissons Ratio (y) = 0.30036 -0.01497
# Poissons Ratio (z) = 0.46670 -0.05025
#
# Static dielectric constant tensor:
#      x y z
#    x 3.577450 0.000000 0.000000 
#    y 0.000000 3.747520 0.000000 
#    z 0.000000 0.000000 3.613090 
# 
# 
# High freq. dielectric constant tensor:
#      x y z
#    x 1.765620 0.000000 0.000000 
#    y 0.000000 1.803220 0.000000 
#    z 0.000000 0.000000 1.765560 
# 
# From -- ./inp_files/10031.got.cif
#   From: 2010.03.12/outbox.cif.g09.slc.cpg/sg55_6_cif.got.tgz:10031.got - 2010.04.16 15:19:21.
