data_PCOD8225456
_publ_section_title
;
Structure prediction by ZEFSAII (Michael W. Deem and Ramdas Pophale) SiO2 
 PCOD8225456
Probable space group: P B A M
;
_chemical_formula_sum "Si O2"
_cell_formula_units_Z 48
_cell_length_a 14.806103
_cell_length_b 19.578515
_cell_length_c 8.920225
_cell_angle_alpha 90.000000
_cell_angle_beta 90.000000
_cell_angle_gamma 90.000000
_cell_volume 2585.808290
_symmetry_space_group_name_H-M "P B A M"
_symmetry_group_IT_number 55
_symmetry_cell_setting 'orthorhombic'
loop_
_space_group_symop_operation_xyz
x,y,z
-x,-y,z
1/2+x,1/2-y,-z
1/2-x,1/2+y,-z
-x,-y,-z
x,y,-z
1/2-x,1/2+y,z
1/2+x,1/2-y,z
loop_
_atom_site_type_symbol
_atom_site_label
_atom_site_fract_x
_atom_site_fract_y
_atom_site_fract_z
Si Si1 0.295972 0.332084 0.673281
Si Si2 0.067610 0.058536 0.177350
Si Si3 0.907498 0.534635 0.172891
Si Si4 0.502120 0.695054 0.324687
Si Si5 0.272521 0.488045 0.674583
Si Si6 0.615695 0.192548 0.173347
O O1 0.268441 0.324399 0.500000
O O2 0.391282 0.296451 0.709433
O O3 0.304816 0.411752 0.716332
O O4 0.218629 0.296017 0.771843
O O5 0.037498 0.130993 0.238184
O O6 0.167185 0.042239 0.236844
O O7 0.069226 0.061657 0.000000
O O8 0.000000 0.000000 0.236629
O O9 0.830242 0.501132 0.274391
O O10 0.914504 0.615162 0.201672
O O11 0.000000 0.500000 0.224173
O O12 0.885263 0.519105 0.000000
O O13 0.485407 0.683882 0.500000
O O14 0.452966 0.762759 0.269360
O O15 0.281578 0.503389 0.500000
O O16 0.609949 0.213612 0.000000
#
# Coordination Sequence:
#
# PCOD8225456 Si02
#       6
#     8   8   8   8   8   8
#     4   9  19  36  58  80 107 149 189 227 280 338
#     4  11  22  35  56  86 117 148 186 231 283 339
#     4   9  19  38  61  83 112 150 190 234 284 338
#     4  11  22  38  59  82 114 151 190 235 283 338
#     4  10  19  34  57  84 113 145 187 234 280 334
#     4  10  21  37  58  84 112 147 190 235 285 339
#
# _framework density 18.562861999999999
#
# number of rings (size 3 to 8) (size 9 to 14) (size 15 to 20)
#    0.000    2.000    1.667    2.000    0.000    3.667 
#    3.000    0.000    0.000    0.000    0.000    0.000 
#    0.000    0.000    0.000    0.000    0.000    0.000 
#
# Total GULP energy -595425.225357 kJ/mol
# GULP energy per Si atom -12404.692195 kJ/mol
# Density = 1.852061 g / cm^3
# Si number density = 18.562862 Si / 1000 Ang^3
#
#
#
# Elastic Constant Matrix: (Units=GPa)
#
#
# Indices 1 2 3 4 5 6 
#
# 1 132.5615 51.9231 50.3759 0.0000 0.0000 0.0000
# 2 51.9231 57.4222 27.5118 0.0000 0.0000 0.0000
# 3 50.3759 27.5118 71.5815 0.0000 0.0000 0.0000
# 4 0.0000 0.0000 0.0000 30.3585 0.0000 0.0000
# 5 0.0000 0.0000 0.0000 0.0000 34.1105 0.0000
# 6 0.0000 0.0000 0.0000 0.0000 0.0000 32.2369
#
#
#
# Elastic Compliance Matrix: (Units=1/GPa)
#
#
# Indices 1 2 3 4 5 6 
#
# 1 0.013427 -0.009332 -0.005862 0.000000 0.000000 0.000000
# 2 -0.009332 0.027832 -0.004129 0.000000 0.000000 0.000000
# 3 -0.005862 -0.004129 0.019683 0.000000 0.000000 0.000000
# 4 0.000000 0.000000 0.000000 0.032940 0.000000 0.000000
# 5 0.000000 0.000000 0.000000 0.000000 0.029317 0.000000
# 6 0.000000 0.000000 0.000000 0.000000 0.000000 0.031020
#
#
# Mechanical properties :
#
#
# Convention : Reuss Voigt Hill
#
# Bulk Modulus (GPa) = 44.85610 57.90966 51.38288
# Shear Modulus (GPa) = 24.96289 28.12481 26.54385
#
# Velocity S-wave (km/s) = 3.67110 3.89667 3.78556
# Velocity P-wave (km/s) = 6.49509 7.17702 6.84455
#
# Compressibility (1/GPa) = 0.02229351
#
# Stress axis : x y z
#
# Youngs Moduli (GPa) = 74.47760 35.93015 50.80553
#
# Poissons Ratio (x) = 0.33531 0.29785
# Poissons Ratio (y) = 0.69504 0.20979
# Poissons Ratio (z) = 0.43662 0.14837
#
# Static dielectric constant tensor:
#      x y z
#    x 3.526110 0.000000 0.000000 
#    y 0.000000 3.239010 0.000000 
#    z 0.000000 0.000000 3.453540 
# 
# 
# High freq. dielectric constant tensor:
#      x y z
#    x 1.729390 0.000000 0.000000 
#    y 0.000000 1.702220 0.000000 
#    z 0.000000 0.000000 1.729460 
# 
# From -- ./inp_files/5657.got.cif
#   From: 2010.03.12/outbox.cif.g09.slc.cpg/sg55_3_cif.got.tgz:5657.got - 2010.04.16 15:19:21.
