data_PCOD8225256
_publ_section_title
;
Structure prediction by ZEFSAII (Michael W. Deem and Ramdas Pophale) SiO2 
 PCOD8225256
Probable space group: P B A M
;
_chemical_formula_sum "Si O2"
_cell_formula_units_Z 48
_cell_length_a 16.393163
_cell_length_b 18.071677
_cell_length_c 8.779956
_cell_angle_alpha 90.000000
_cell_angle_beta 90.000000
_cell_angle_gamma 90.000000
_cell_volume 2601.079057
_symmetry_space_group_name_H-M "P B A M"
_symmetry_group_IT_number 55
_symmetry_cell_setting 'orthorhombic'
loop_
_space_group_symop_operation_xyz
x,y,z
-x,-y,z
1/2+x,1/2-y,-z
1/2-x,1/2+y,-z
-x,-y,-z
x,y,-z
1/2-x,1/2+y,z
1/2+x,1/2-y,z
loop_
_atom_site_type_symbol
_atom_site_label
_atom_site_fract_x
_atom_site_fract_y
_atom_site_fract_z
Si Si1 0.151369 0.665212 0.320167
Si Si2 0.250758 0.545248 0.179141
Si Si3 0.998198 0.586765 0.177510
Si Si4 0.666275 0.667263 0.678268
Si Si5 0.167928 0.408761 0.679158
Si Si6 0.415711 0.468290 0.821118
O O1 0.163935 0.659842 0.500000
O O2 0.229105 0.627126 0.237999
O O3 0.149162 0.750022 0.264990
O O4 0.067900 0.626896 0.272250
O O5 0.188550 0.491008 0.264537
O O6 0.343716 0.525569 0.222512
O O7 0.234759 0.538259 0.000000
O O8 0.912187 0.620108 0.233924
O O9 0.000000 0.500000 0.213833
O O10 0.010988 0.603274 0.000000
O O11 0.653616 0.658663 0.500000
O O12 0.758446 0.645798 0.724385
O O13 0.601322 0.612810 0.755499
O O14 0.151135 0.410300 0.500000
O O15 0.500000 0.500000 0.752088
O O16 0.423337 0.458999 0.000000
#
# Coordination Sequence:
#
# PCOD8225256 Si02
#       6
#     8   8   8   8   8   8
#     4  11  22  37  56  80 113 147 182 226 278 327
#     4  10  19  33  55  81 109 141 182 225 268 324
#     4  11  22  35  55  84 115 143 183 227 269 326
#     4   9  21  39  57  81 111 144 183 228 275 325
#     4  10  19  35  58  80 107 143 182 221 270 325
#     4   9  19  37  60  83 110 144 185 229 272 324
#
# _framework density 18.453880000000002
#
# number of rings (size 3 to 8) (size 9 to 14) (size 15 to 20)
#    0.000    2.000    1.667    2.000    0.000    3.667 
#    3.000    0.000    0.000    0.000    0.000    0.000 
#    0.000    0.000    0.000    0.000    0.000    0.000 
#
# Total GULP energy -595328.566192 kJ/mol
# GULP energy per Si atom -12402.678462 kJ/mol
# Density = 1.841188 g / cm^3
# Si number density = 18.453880 Si / 1000 Ang^3
#
#
#
# Elastic Constant Matrix: (Units=GPa)
#
#
# Indices 1 2 3 4 5 6 
#
# 1 119.8097 60.5330 23.1669 0.0000 0.0000 0.0000
# 2 60.5330 124.3277 26.2382 0.0000 0.0000 0.0000
# 3 23.1669 26.2382 30.8045 0.0000 0.0000 0.0000
# 4 0.0000 0.0000 0.0000 21.9204 0.0000 0.0000
# 5 0.0000 0.0000 0.0000 0.0000 27.5724 0.0000
# 6 0.0000 0.0000 0.0000 0.0000 0.0000 22.1235
#
#
#
# Elastic Compliance Matrix: (Units=1/GPa)
#
#
# Indices 1 2 3 4 5 6 
#
# 1 0.011619 -0.004649 -0.004779 0.000000 0.000000 0.000000
# 2 -0.004649 0.011666 -0.006440 0.000000 0.000000 0.000000
# 3 -0.004779 -0.006440 0.041542 0.000000 0.000000 0.000000
# 4 0.000000 0.000000 0.000000 0.045620 0.000000 0.000000
# 5 0.000000 0.000000 0.000000 0.000000 0.036268 0.000000
# 6 0.000000 0.000000 0.000000 0.000000 0.000000 0.045201
#
#
# Mechanical properties :
#
#
# Convention : Reuss Voigt Hill
#
# Bulk Modulus (GPa) = 30.21910 54.97980 42.59945
# Shear Modulus (GPa) = 21.30536 25.32351 23.31444
#
# Velocity S-wave (km/s) = 3.40151 3.70842 3.55828
# Velocity P-wave (km/s) = 5.64252 6.94221 6.32583
#
# Compressibility (1/GPa) = 0.03309166
#
# Stress axis : x y z
#
# Youngs Moduli (GPa) = 86.06318 85.72036 24.07179
#
# Poissons Ratio (x) = 0.39849 0.11504
# Poissons Ratio (y) = 0.40009 0.15503
# Poissons Ratio (z) = 0.41128 0.55207
#
# Static dielectric constant tensor:
#      x y z
#    x 3.597620 0.000000 0.000000 
#    y 0.000000 3.428730 0.000000 
#    z 0.000000 0.000000 3.375820 
# 
# 
# High freq. dielectric constant tensor:
#      x y z
#    x 1.722160 0.000000 0.000000 
#    y 0.000000 1.702170 0.000000 
#    z 0.000000 0.000000 1.721520 
# 
# From -- ./inp_files/7571.got.cif
#   From: 2010.03.12/outbox.cif.g09.slc.cpg/sg55_4_cif.got.tgz:7571.got - 2010.04.16 15:19:21.
