data_PCOD8225656
_publ_section_title
;
Structure prediction by ZEFSAII (Michael W. Deem and Ramdas Pophale) SiO2 
 PCOD8225656
Probable space group: P B A M
;
_chemical_formula_sum "Si O2"
_cell_formula_units_Z 64
_cell_length_a 9.950301
_cell_length_b 26.910469
_cell_length_c 13.693864
_cell_angle_alpha 90.000000
_cell_angle_beta 90.000000
_cell_angle_gamma 90.000000
_cell_volume 3666.768532
_symmetry_space_group_name_H-M "P B A M"
_symmetry_group_IT_number 55
_symmetry_cell_setting 'orthorhombic'
loop_
_space_group_symop_operation_xyz
x,y,z
-x,-y,z
1/2+x,1/2-y,-z
1/2-x,1/2+y,-z
-x,-y,-z
x,y,-z
1/2-x,1/2+y,z
1/2+x,1/2-y,z
loop_
_atom_site_type_symbol
_atom_site_label
_atom_site_fract_x
_atom_site_fract_y
_atom_site_fract_z
Si Si1 0.444503 0.634203 0.888020
Si Si2 0.972272 0.580364 0.389226
Si Si3 0.122691 0.033744 0.794964
Si Si4 0.006580 0.359968 0.206108
Si Si5 0.732532 0.679287 0.113056
Si Si6 0.219516 0.507863 0.388719
Si Si7 0.100438 0.540641 0.886010
Si Si8 0.297803 0.208271 0.886712
O O1 0.416552 0.591019 0.810185
O O2 0.589240 0.655837 0.863532
O O3 0.337254 0.677429 0.871633
O O4 0.436017 0.614385 0.000000
O O5 0.970442 0.599625 0.500000
O O6 0.839449 0.547216 0.368081
O O7 0.978714 0.629121 0.321359
O O8 0.103036 0.547434 0.368635
O O9 0.156617 0.021089 0.682215
O O10 0.250814 0.021674 0.861936
O O11 0.000000 0.000000 0.831193
O O12 0.930044 0.405907 0.157442
O O13 0.917427 0.311724 0.182209
O O14 0.156675 0.353175 0.167590
O O15 0.733365 0.736151 0.148758
O O16 0.768381 0.676966 0.000000
O O17 0.271369 0.511504 0.500000
O O18 0.000000 0.500000 0.840314
O O19 0.080187 0.545250 0.000000
O O20 0.345942 0.207206 0.000000
#
# Coordination Sequence:
#
# PCOD8225656 Si02
#       8
#     8   8   8   8   8   8   8   8
#     4  10  21  36  50  73 112 147 178 215 267 330
#     4   9  18  33  59  84 104 134 181 235 277 319
#     4  12  24  35  52  77 114 152 179 213 275 332
#     4  12  20  34  60  81 107 140 185 231 270 323
#     4  10  22  35  54  82 108 142 184 228 272 317
#     4   9  18  36  56  78 106 139 184 232 272 313
#     4  11  23  36  52  78 110 148 191 223 257 320
#     4  10  19  36  57  79 108 142 183 228 269 316
#
# _framework density 17.454062
#
# number of rings (size 3 to 8) (size 9 to 14) (size 15 to 20)
#    0.000    1.625    2.500    3.750    3.500    3.250 
#    0.000    0.000    0.000    0.750    0.000    1.750 
#    0.000    0.000    0.000    0.000    0.000    0.000 
#
# Total GULP energy -793691.785153 kJ/mol
# GULP energy per Si atom -12401.434143 kJ/mol
# Density = 1.741434 g / cm^3
# Si number density = 17.454062 Si / 1000 Ang^3
#
#
#
# Elastic Constant Matrix: (Units=GPa)
#
#
# Indices 1 2 3 4 5 6 
#
# 1 108.6245 39.2423 35.5712 0.0000 0.0000 0.0000
# 2 39.2423 66.9825 38.7722 0.0000 0.0000 0.0000
# 3 35.5712 38.7722 78.9011 0.0000 0.0000 0.0000
# 4 0.0000 0.0000 0.0000 21.7732 0.0000 0.0000
# 5 0.0000 0.0000 0.0000 0.0000 25.7059 0.0000
# 6 0.0000 0.0000 0.0000 0.0000 0.0000 25.4158
#
#
#
# Elastic Compliance Matrix: (Units=1/GPa)
#
#
# Indices 1 2 3 4 5 6 
#
# 1 0.012091 -0.005490 -0.002753 0.000000 0.000000 0.000000
# 2 -0.005490 0.023357 -0.009002 0.000000 0.000000 0.000000
# 3 -0.002753 -0.009002 0.018339 0.000000 0.000000 0.000000
# 4 0.000000 0.000000 0.000000 0.045928 0.000000 0.000000
# 5 0.000000 0.000000 0.000000 0.000000 0.038902 0.000000
# 6 0.000000 0.000000 0.000000 0.000000 0.000000 0.039346
#
#
# Mechanical properties :
#
#
# Convention : Reuss Voigt Hill
#
# Bulk Modulus (GPa) = 51.82558 53.51997 52.67277
# Shear Modulus (GPa) = 22.84308 23.97382 23.40845
#
# Velocity S-wave (km/s) = 3.62160 3.71015 3.66614
# Velocity P-wave (km/s) = 6.87350 7.00596 6.94005
#
# Compressibility (1/GPa) = 0.01929549
#
# Stress axis : x y z
#
# Youngs Moduli (GPa) = 82.70649 42.81457 54.52815
#
# Poissons Ratio (x) = 0.23505 0.15013
# Poissons Ratio (y) = 0.45405 0.49089
# Poissons Ratio (z) = 0.22771 0.38543
#
# Static dielectric constant tensor:
#      x y z
#    x 3.307200 0.000000 0.000000 
#    y 0.000000 3.226210 0.000000 
#    z 0.000000 0.000000 3.213970 
# 
# 
# High freq. dielectric constant tensor:
#      x y z
#    x 1.682530 0.000000 0.000000 
#    y 0.000000 1.665230 0.000000 
#    z 0.000000 0.000000 1.656590 
# 
# From -- ./inp_files/17948.got.cif
#   From: 2010.03.12/outbox.cif.g09.slc.cpg/sg55_9_cif.got.tgz:17948.got - 2010.04.16 15:19:21.
