data_PCOD8225355
_publ_section_title
;
Structure prediction by ZEFSAII (Michael W. Deem and Ramdas Pophale) SiO2 
 PCOD8225355
Probable space group: P B A M
;
_chemical_formula_sum "Si O2"
_cell_formula_units_Z 64
_cell_length_a 23.119245
_cell_length_b 19.122114
_cell_length_c 8.504414
_cell_angle_alpha 90.000000
_cell_angle_beta 90.000000
_cell_angle_gamma 90.000000
_cell_volume 3759.706507
_symmetry_space_group_name_H-M "P B A M"
_symmetry_group_IT_number 55
_symmetry_cell_setting 'orthorhombic'
loop_
_space_group_symop_operation_xyz
x,y,z
-x,-y,z
1/2+x,1/2-y,-z
1/2-x,1/2+y,-z
-x,-y,-z
x,y,-z
1/2-x,1/2+y,z
1/2+x,1/2-y,z
loop_
_atom_site_type_symbol
_atom_site_label
_atom_site_fract_x
_atom_site_fract_y
_atom_site_fract_z
Si Si1 0.122934 0.498806 0.182497
Si Si2 0.057971 0.639576 0.818256
Si Si3 0.835133 0.734498 0.684321
Si Si4 0.227995 0.853579 0.314778
Si Si5 0.341909 0.224076 0.316758
Si Si6 0.232685 0.148458 0.181805
Si Si7 0.435289 0.865710 0.318138
Si Si8 0.248388 0.504376 0.316268
O O1 0.085402 0.565856 0.231775
O O2 0.084219 0.430857 0.212878
O O3 0.179926 0.498339 0.288035
O O4 0.140650 0.503056 0.000000
O O5 0.102993 0.701705 0.784382
O O6 0.001356 0.653102 0.715102
O O7 0.040550 0.640329 0.000000
O O8 0.827160 0.748296 0.500000
O O9 0.787249 0.680192 0.750753
O O10 0.825093 0.808271 0.772996
O O11 0.897807 0.703075 0.724892
O O12 0.234996 0.857266 0.500000
O O13 0.173802 0.804212 0.268468
O O14 0.221322 0.932851 0.252302
O O15 0.356961 0.217877 0.500000
O O16 0.287187 0.174633 0.282868
O O17 0.222221 0.067235 0.220669
O O18 0.247781 0.157633 0.000000
O O19 0.426173 0.885569 0.500000
O O20 0.259614 0.515997 0.500000
#
# Coordination Sequence:
#
# PCOD8225355 Si02
#       8
#     8   8   8   8   8   8   8   8
#     4  11  22  34  47  70 106 140 173 212 248 293
#     4  11  23  36  49  71 104 137 173 212 251 297
#     4   9  18  35  52  71  96 129 171 212 248 297
#     4   8  16  31  51  74  97 123 164 212 250 289
#     4  10  19  34  53  72  96 131 171 211 249 295
#     4  11  21  32  48  75 104 131 164 207 257 306
#     4  11  22  36  54  73  97 134 181 216 248 297
#     4  11  19  32  53  75 101 137 171 207 250 301
#
# _framework density 17.022606
#
# number of rings (size 3 to 8) (size 9 to 14) (size 15 to 20)
#    0.000    1.750    2.500    4.125    0.000    4.000 
#    0.000    1.875    0.000    0.000    0.000    0.875 
#    0.000    7.000    0.000    0.000    0.000    0.000 
#
# Total GULP energy -793669.214674 kJ/mol
# GULP energy per Si atom -12401.081479 kJ/mol
# Density = 1.698386 g / cm^3
# Si number density = 17.022606 Si / 1000 Ang^3
#
#
#
# Elastic Constant Matrix: (Units=GPa)
#
#
# Indices 1 2 3 4 5 6 
#
# 1 72.1259 52.6351 16.2275 0.0000 0.0000 0.0000
# 2 52.6351 131.5210 23.1112 0.0000 0.0000 0.0000
# 3 16.2275 23.1112 40.6712 0.0000 0.0000 0.0000
# 4 0.0000 0.0000 0.0000 18.5095 0.0000 0.0000
# 5 0.0000 0.0000 0.0000 0.0000 19.2346 0.0000
# 6 0.0000 0.0000 0.0000 0.0000 0.0000 23.6608
#
#
#
# Elastic Compliance Matrix: (Units=1/GPa)
#
#
# Indices 1 2 3 4 5 6 
#
# 1 0.020108 -0.007374 -0.003833 0.000000 0.000000 0.000000
# 2 -0.007374 0.011151 -0.003394 0.000000 0.000000 0.000000
# 3 -0.003833 -0.003394 0.028046 0.000000 0.000000 0.000000
# 4 0.000000 0.000000 0.000000 0.054026 0.000000 0.000000
# 5 0.000000 0.000000 0.000000 0.000000 0.051990 0.000000
# 6 0.000000 0.000000 0.000000 0.000000 0.000000 0.042264
#
#
# Mechanical properties :
#
#
# Convention : Reuss Voigt Hill
#
# Bulk Modulus (GPa) = 33.21981 47.58507 40.40244
# Shear Modulus (GPa) = 20.25763 22.43727 21.34745
#
# Velocity S-wave (km/s) = 3.45344 3.63448 3.54512
# Velocity P-wave (km/s) = 5.95476 6.75480 6.36736
#
# Compressibility (1/GPa) = 0.03010252
#
# Stress axis : x y z
#
# Youngs Moduli (GPa) = 49.73104 89.67938 35.65634
#
# Poissons Ratio (x) = 0.66128 0.13667
# Poissons Ratio (y) = 0.36671 0.12103
# Poissons Ratio (z) = 0.19061 0.30440
#
# Static dielectric constant tensor:
#      x y z
#    x 2.973260 0.000000 0.000000 
#    y 0.000000 3.476120 0.000000 
#    z 0.000000 0.000000 3.085100 
# 
# 
# High freq. dielectric constant tensor:
#      x y z
#    x 1.623640 0.000000 0.000000 
#    y 0.000000 1.655720 0.000000 
#    z 0.000000 0.000000 1.657660 
# 
# From -- ./inp_files/9871.got.cif
#   From: 2010.03.12/outbox.cif.g09.slc.cpg/sg55_5_cif.got.tgz:9871.got - 2010.04.16 15:19:21.
