data_PCOD8225033
_publ_section_title
;
Structure prediction by ZEFSAII (Michael W. Deem and Ramdas Pophale) SiO2 
 PCOD8225033
Probable space group: P B A M
;
_chemical_formula_sum "Si O2"
_cell_formula_units_Z 48
_cell_length_a 10.306520
_cell_length_b 29.052040
_cell_length_c 9.201387
_cell_angle_alpha 90.000000
_cell_angle_beta 90.000000
_cell_angle_gamma 90.000000
_cell_volume 2755.129271
_symmetry_space_group_name_H-M "P B A M"
_symmetry_group_IT_number 55
_symmetry_cell_setting 'orthorhombic'
loop_
_space_group_symop_operation_xyz
x,y,z
-x,-y,z
1/2+x,1/2-y,-z
1/2-x,1/2+y,-z
-x,-y,-z
x,y,-z
1/2-x,1/2+y,z
1/2+x,1/2-y,z
loop_
_atom_site_type_symbol
_atom_site_label
_atom_site_fract_x
_atom_site_fract_y
_atom_site_fract_z
Si Si1 0.136863 0.516644 0.331214
Si Si2 0.873457 0.025946 0.166280
Si Si3 0.724120 0.785853 0.330354
Si Si4 0.751405 0.888016 0.332170
Si Si5 0.008826 0.878250 0.166996
Si Si6 0.017331 0.786382 0.326432
O O1 0.145892 0.504610 0.500000
O O2 0.248913 0.488209 0.255641
O O3 0.148507 0.571494 0.303786
O O4 0.000000 0.500000 0.266040
O O5 0.887149 0.080931 0.180576
O O6 0.853502 0.010639 0.000000
O O7 0.000000 0.000000 0.229683
O O8 0.719813 0.776982 0.500000
O O9 0.687375 0.838695 0.292300
O O10 0.870154 0.774640 0.274498
O O11 0.615354 0.752200 0.262179
O O12 0.798265 0.887200 0.500000
O O13 0.874315 0.897343 0.230998
O O14 0.060908 0.834811 0.257718
O O15 0.987186 0.863916 0.000000
O O16 0.022874 0.790962 0.500000
#
# Coordination Sequence:
#
# PCOD8225033 Si02
#       6
#     8   8   8   8   8   8
#     4  10  21  35  51  79 111 134 166 214 261 304
#     4  10  20  35  54  75 100 136 178 211 247 304
#     4   8  15  29  50  72  94 124 164 199 239 297
#     4   9  17  32  53  74 101 135 168 203 249 304
#     4  10  19  32  52  76 100 128 170 217 251 291
#     4   9  17  32  51  73  98 129 165 203 249 302
#
# _framework density 17.422049000000001
#
# number of rings (size 3 to 8) (size 9 to 14) (size 15 to 20)
#    0.000    2.667    1.667    1.500    0.000    2.000 
#    3.000    3.333    0.000    0.000    0.000    0.000 
#    0.000    0.000    0.000    0.000    0.000    0.000 
#
# Total GULP energy -595059.096990 kJ/mol
# GULP energy per Si atom -12397.064521 kJ/mol
# Density = 1.738240 g / cm^3
# Si number density = 17.422049 Si / 1000 Ang^3
#
#
#
# Elastic Constant Matrix: (Units=GPa)
#
#
# Indices 1 2 3 4 5 6 
#
# 1 127.5927 80.8966 37.9097 0.0000 0.0000 0.0000
# 2 80.8966 127.2217 36.6945 0.0000 0.0000 0.0000
# 3 37.9097 36.6945 46.6130 0.0000 0.0000 0.0000
# 4 0.0000 0.0000 0.0000 38.6886 0.0000 0.0000
# 5 0.0000 0.0000 0.0000 0.0000 -0.2119 0.0000
# 6 0.0000 0.0000 0.0000 0.0000 0.0000 34.6595
#
#
#
# Elastic Compliance Matrix: (Units=1/GPa)
#
#
# Indices 1 2 3 4 5 6 
#
# 1 0.014234 -0.007390 -0.005759 0.000000 0.000000 0.000000
# 2 -0.007390 0.014006 -0.005016 0.000000 0.000000 0.000000
# 3 -0.005759 -0.005016 0.030085 0.000000 0.000000 0.000000
# 4 0.000000 0.000000 0.000000 0.025847 0.000000 0.000000
# 5 0.000000 0.000000 0.000000 0.000000 -4.719228 0.000000
# 6 0.000000 0.000000 0.000000 0.000000 0.000000 0.028852
#
#
# Mechanical properties :
#
#
# Convention : Reuss Voigt Hill
#
# Bulk Modulus (GPa) = 45.46198 68.04766 56.75482
# Shear Modulus (GPa) = -1.09588 24.35569 11.62990
#
# Velocity S-wave (km/s) = -0.79397 3.74301 2.58648
# Velocity P-wave (km/s) = 5.03097 7.60417 6.44725
#
# Compressibility (1/GPa) = 0.02199640
#
# Stress axis : x y z
#
# Youngs Moduli (GPa) = 70.25536 71.39817 33.23908
#
# Poissons Ratio (x) = 0.52762 0.19141
# Poissons Ratio (y) = 0.51918 0.16671
# Poissons Ratio (z) = 0.40458 0.35811
#
# Static dielectric constant tensor:
#      x y z
#    x 3.264640 0.000000 0.000000 
#    y 0.000000 3.469840 0.000000 
#    z 0.000000 0.000000 3.061540 
# 
# 
# High freq. dielectric constant tensor:
#      x y z
#    x 1.654800 0.000000 0.000000 
#    y 0.000000 1.684340 0.000000 
#    z 0.000000 0.000000 1.653380 
# 
# From -- ./inp_files/4171.got.cif
#   From: 2010.03.12/outbox.cif.g09.slc.cpg/sg55_3_cif.got.tgz:4171.got - 2010.04.16 15:19:21.
