data_PCOD8225237
_publ_section_title
;
Structure prediction by ZEFSAII (Michael W. Deem and Ramdas Pophale) SiO2 
 PCOD8225237
Probable space group: P B A M
;
_chemical_formula_sum "Si O2"
_cell_formula_units_Z 56
_cell_length_a 18.507687
_cell_length_b 18.940432
_cell_length_c 8.869495
_cell_angle_alpha 90.000000
_cell_angle_beta 90.000000
_cell_angle_gamma 90.000000
_cell_volume 3109.144593
_symmetry_space_group_name_H-M "P B A M"
_symmetry_group_IT_number 55
_symmetry_cell_setting 'orthorhombic'
loop_
_space_group_symop_operation_xyz
x,y,z
-x,-y,z
1/2+x,1/2-y,-z
1/2-x,1/2+y,-z
-x,-y,-z
x,y,-z
1/2-x,1/2+y,z
1/2+x,1/2-y,z
loop_
_atom_site_type_symbol
_atom_site_label
_atom_site_fract_x
_atom_site_fract_y
_atom_site_fract_z
Si Si1 0.343281 0.241730 0.835479
Si Si2 0.305783 0.389841 0.819196
Si Si3 0.167786 0.457108 0.324078
Si Si4 0.035155 0.929034 0.179545
Si Si5 0.891303 0.402517 0.180402
Si Si6 0.963476 0.643685 0.325212
Si Si7 0.009326 0.218367 0.165999
O O1 0.301955 0.307879 0.757686
O O2 0.343925 0.164647 0.754995
O O3 0.425847 0.264081 0.852965
O O4 0.308175 0.231924 0.000000
O O5 0.244730 0.434392 0.738562
O O6 0.381714 0.424036 0.767893
O O7 0.297060 0.391713 0.000000
O O8 0.173084 0.473790 0.500000
O O9 0.144981 0.527257 0.238460
O O10 0.110877 0.395684 0.289518
O O11 0.987465 0.861264 0.234401
O O12 0.032492 0.929486 0.000000
O O13 0.000000 0.000000 0.248112
O O14 0.973590 0.396858 0.236189
O O15 0.892620 0.401015 0.000000
O O16 0.983714 0.641273 0.500000
O O17 0.952502 0.724968 0.274776
O O18 0.046193 0.222262 0.000000
#
# Coordination Sequence:
#
# PCOD8225237 Si02
#       7
#     8   8   8   8   8   8   8
#     4   7  13  28  49  71  91 113 150 199 241 281
#     4   9  17  32  53  73  96 129 166 202 245 297
#     4  11  23  35  46  68 105 140 167 200 245 295
#     4   8  14  28  53  81 103 124 159 212 263 297
#     4  10  19  33  55  78  97 123 165 211 250 293
#     4  10  20  33  48  68  99 135 166 202 249 296
#     4   8  14  27  49  74  96 120 156 199 240 291
#
# _framework density 18.011385000000001
#
# number of rings (size 3 to 8) (size 9 to 14) (size 15 to 20)
#    0.000    3.000    0.000    4.286    0.000    4.000 
#    0.000    8.571    0.000    8.571    0.000    0.000 
#    0.000    0.000    0.000    0.000    0.000    0.000 
#
# Total GULP energy -693774.592326 kJ/mol
# GULP energy per Si atom -12388.832006 kJ/mol
# Density = 1.797039 g / cm^3
# Si number density = 18.011385 Si / 1000 Ang^3
#
#
#
# Elastic Constant Matrix: (Units=GPa)
#
#
# Indices 1 2 3 4 5 6 
#
# 1 75.6802 60.9728 30.3788 0.0000 0.0000 0.0000
# 2 60.9728 167.0600 45.5397 0.0000 0.0000 0.0000
# 3 30.3788 45.5397 54.1517 0.0000 0.0000 0.0000
# 4 0.0000 0.0000 0.0000 8.7176 0.0000 0.0000
# 5 0.0000 0.0000 0.0000 0.0000 -3.2153 0.0000
# 6 0.0000 0.0000 0.0000 0.0000 0.0000 12.5324
#
#
#
# Elastic Compliance Matrix: (Units=1/GPa)
#
#
# Indices 1 2 3 4 5 6 
#
# 1 0.020453 -0.005627 -0.006742 0.000000 0.000000 0.000000
# 2 -0.005627 0.009314 -0.004676 0.000000 0.000000 0.000000
# 3 -0.006742 -0.004676 0.026181 0.000000 0.000000 0.000000
# 4 0.000000 0.000000 0.000000 0.114710 0.000000 0.000000
# 5 0.000000 0.000000 0.000000 0.000000 -0.311015 0.000000
# 6 0.000000 0.000000 0.000000 0.000000 0.000000 0.079793
#
#
# Mechanical properties :
#
#
# Convention : Reuss Voigt Hill
#
# Bulk Modulus (GPa) = 45.74909 63.40828 54.57868
# Shear Modulus (GPa) = -260.60682 14.27366 -123.16658
#
# Velocity S-wave (km/s) = -12.04177 2.81816 -8.27835
# Velocity P-wave (km/s) = 12.95699 6.77276 7.81068
#
# Compressibility (1/GPa) = 0.02185836
#
# Stress axis : x y z
#
# Youngs Moduli (GPa) = 48.89160 107.36104 38.19503
#
# Poissons Ratio (x) = 0.60414 0.25751
# Poissons Ratio (y) = 0.27512 0.17861
# Poissons Ratio (z) = 0.32963 0.50205
#
# Static dielectric constant tensor:
#      x y z
#    x 3.055660 0.000000 0.000000 
#    y 0.000000 4.033220 0.000000 
#    z 0.000000 0.000000 3.077210 
# 
# 
# High freq. dielectric constant tensor:
#      x y z
#    x 1.663010 0.000000 0.000000 
#    y 0.000000 1.719620 0.000000 
#    z 0.000000 0.000000 1.667800 
# 
# From -- ./inp_files/7809.got.cif
#   From: 2010.03.12/outbox.cif.g09.slc.cpg/sg55_4_cif.got.tgz:7809.got - 2010.04.16 15:19:21.
