data_PCOD8225154
_publ_section_title
;
Structure prediction by ZEFSAII (Michael W. Deem and Ramdas Pophale) SiO2 
 PCOD8225154
Probable space group: P B A M
;
_chemical_formula_sum "Si O2"
_cell_formula_units_Z 44
_cell_length_a 29.381153
_cell_length_b 5.061010
_cell_length_c 15.451779
_cell_angle_alpha 90.000000
_cell_angle_beta 90.000000
_cell_angle_gamma 90.000000
_cell_volume 2297.653411
_symmetry_space_group_name_H-M "P B A M"
_symmetry_group_IT_number 55
_symmetry_cell_setting 'orthorhombic'
loop_
_space_group_symop_operation_xyz
x,y,z
-x,-y,z
1/2+x,1/2-y,-z
1/2-x,1/2+y,-z
-x,-y,-z
x,y,-z
1/2-x,1/2+y,z
1/2+x,1/2-y,z
loop_
_atom_site_type_symbol
_atom_site_label
_atom_site_fract_x
_atom_site_fract_y
_atom_site_fract_z
Si Si1 0.939611 0.077761 0.597285
Si Si2 0.046741 0.413167 0.293809
Si Si3 0.276963 0.453991 0.500000
Si Si4 0.779791 0.586046 0.898806
Si Si5 0.341834 0.467911 0.652654
Si Si6 0.854476 0.542822 0.238547
O O1 0.958983 0.062259 0.500000
O O2 0.943674 0.374959 0.631311
O O3 0.886930 0.996745 0.596085
O O4 0.964906 0.864201 0.658764
O O5 0.090809 0.395141 0.230132
O O6 0.000000 0.500000 0.243417
O O7 0.266947 0.765938 0.500000
O O8 0.302799 0.379923 0.587641
O O9 0.753444 0.849552 0.870819
O O10 0.829090 0.567270 0.853234
O O11 0.790721 0.578771 0.000000
O O12 0.330985 0.749164 0.696645
O O13 0.347394 0.252228 0.727677
#
# Coordination Sequence:
#
# PCOD8225154 Si02
#       6
#     8   8   4   8   8   8
#     4  10  19  33  51  66  98 137 174 223 264 299
#     4  10  21  33  49  76 102 134 177 216 260 309
#     4  12  24  34  48  70  99 136 179 224 258 292
#     4  10  21  37  59  86 110 131 166 216 264 318
#     4  10  21  36  49  71 101 140 179 212 254 310
#     4  10  21  36  57  75 105 142 168 212 267 311
#
# _framework density 19.149972999999999
#
# number of rings (size 3 to 8) (size 9 to 14) (size 15 to 20)
#    0.000    1.818    0.909    3.273    0.000    6.545 
#    0.000    0.000    0.000    0.545    0.000    0.000 
#    0.000   13.091    0.000    0.000    0.000    2.182 
#
# Total GULP energy -545510.479390 kJ/mol
# GULP energy per Si atom -12397.965441 kJ/mol
# Density = 1.910639 g / cm^3
# Si number density = 19.149973 Si / 1000 Ang^3
#
#
#
# Elastic Constant Matrix: (Units=GPa)
#
#
# Indices 1 2 3 4 5 6 
#
# 1 98.1454 16.6628 49.2957 0.0000 0.0000 0.0000
# 2 16.6628 99.1570 12.8966 0.0000 0.0000 0.0000
# 3 49.2957 12.8966 59.7389 0.0000 0.0000 0.0000
# 4 0.0000 0.0000 0.0000 14.9548 0.0000 0.0000
# 5 0.0000 0.0000 0.0000 0.0000 -20.7333 0.0000
# 6 0.0000 0.0000 0.0000 0.0000 0.0000 26.6084
#
#
#
# Elastic Compliance Matrix: (Units=1/GPa)
#
#
# Indices 1 2 3 4 5 6 
#
# 1 0.017516 -0.001094 -0.014218 0.000000 0.000000 0.000000
# 2 -0.001094 0.010445 -0.001352 0.000000 0.000000 0.000000
# 3 -0.014218 -0.001352 0.028763 0.000000 0.000000 0.000000
# 4 0.000000 0.000000 0.000000 0.066868 0.000000 0.000000
# 5 0.000000 0.000000 0.000000 0.000000 -0.048232 0.000000
# 6 0.000000 0.000000 0.000000 0.000000 0.000000 0.037582
#
#
# Mechanical properties :
#
#
# Convention : Reuss Voigt Hill
#
# Bulk Modulus (GPa) = 42.74120 46.08349 44.41235
# Shear Modulus (GPa) = 32.45298 16.04506 24.24902
#
# Velocity S-wave (km/s) = 4.12111 2.89773 3.56233
# Velocity P-wave (km/s) = 6.70913 5.94243 6.33738
#
# Compressibility (1/GPa) = 0.02339663
#
# Stress axis : x y z
#
# Youngs Moduli (GPa) = 57.09121 95.74205 34.76632
#
# Poissons Ratio (x) = 0.10477 0.49429
# Poissons Ratio (y) = 0.06247 0.04700
# Poissons Ratio (z) = 0.81170 0.12943
#
# Static dielectric constant tensor:
#      x y z
#    x 3.753960 0.000000 0.000000 
#    y 0.000000 3.643330 0.000000 
#    z 0.000000 0.000000 3.084920 
# 
# 
# High freq. dielectric constant tensor:
#      x y z
#    x 1.757600 0.000000 0.000000 
#    y 0.000000 1.768670 0.000000 
#    z 0.000000 0.000000 1.690770 
# 
# From -- ./inp_files/16620.got.cif
#   From: 2010.03.12/outbox.cif.g09.slc.cpg/sg55_9_cif.got.tgz:16620.got - 2010.04.16 15:19:21.
