data_PCOD8225342
_publ_section_title
;
Structure prediction by ZEFSAII (Michael W. Deem and Ramdas Pophale) SiO2 
 PCOD8225342
Probable space group: P B A M
;
_chemical_formula_sum "Si O2"
_cell_formula_units_Z 48
_cell_length_a 22.051865
_cell_length_b 12.376012
_cell_length_c 8.663112
_cell_angle_alpha 90.000000
_cell_angle_beta 90.000000
_cell_angle_gamma 90.000000
_cell_volume 2364.285812
_symmetry_space_group_name_H-M "P B A M"
_symmetry_group_IT_number 55
_symmetry_cell_setting 'orthorhombic'
loop_
_space_group_symop_operation_xyz
x,y,z
-x,-y,z
1/2+x,1/2-y,-z
1/2-x,1/2+y,-z
-x,-y,-z
x,y,-z
1/2-x,1/2+y,z
1/2+x,1/2-y,z
loop_
_atom_site_type_symbol
_atom_site_label
_atom_site_fract_x
_atom_site_fract_y
_atom_site_fract_z
Si Si1 0.698414 0.581914 0.184043
Si Si2 0.569138 0.983458 0.318143
Si Si3 0.639981 0.365069 0.180170
Si Si4 0.831070 0.630347 0.819232
Si Si5 0.396590 0.241525 0.183493
Si Si6 0.992507 0.879968 0.816672
O O1 0.669001 0.472652 0.255545
O O2 0.767967 0.580557 0.241181
O O3 0.661710 0.688569 0.239985
O O4 0.697195 0.580407 0.000000
O O5 0.566829 0.972709 0.500000
O O6 0.602949 0.878509 0.250755
O O7 0.500000 0.000000 0.254142
O O8 0.610911 0.084543 0.270743
O O9 0.678190 0.257941 0.214397
O O10 0.572638 0.339955 0.242859
O O11 0.635045 0.390275 0.000000
O O12 0.842179 0.608782 0.000000
O O13 0.456094 0.301459 0.250164
O O14 0.396813 0.232114 0.000000
O O15 0.998947 0.880140 0.000000
O O16 0.000000 0.000000 0.750821
#
# Coordination Sequence:
#
# PCOD8225342 Si02
#       6
#     8   8   8   8   8   8
#     4   9  18  31  52  88 122 145 177 230 288 338
#     4  11  25  43  59  78 112 155 198 246 294 337
#     4   9  16  28  48  79 116 144 174 222 279 332
#     4  10  21  35  58  86 112 147 190 234 284 345
#     4  10  19  33  59  90 118 147 186 233 285 345
#     4   9  14  24  45  79 114 141 172 218 273 326
#
# _framework density 20.302112999999999
#
# number of rings (size 3 to 8) (size 9 to 14) (size 15 to 20)
#    0.000    2.333    1.667    1.500    2.333    2.667 
#    0.000    0.833    0.000    1.500    0.000    0.000 
#    0.000    0.000    0.000    0.000    0.000    0.000 
#
# Total GULP energy -594929.707892 kJ/mol
# GULP energy per Si atom -12394.368914 kJ/mol
# Density = 2.025590 g / cm^3
# Si number density = 20.302113 Si / 1000 Ang^3
#
#
#
# Elastic Constant Matrix: (Units=GPa)
#
#
# Indices 1 2 3 4 5 6 
#
# 1 147.3408 48.6583 18.2779 0.0000 0.0000 0.0000
# 2 48.6583 106.2140 15.6231 0.0000 0.0000 0.0000
# 3 18.2779 15.6231 23.1309 0.0000 0.0000 0.0000
# 4 0.0000 0.0000 0.0000 2.1784 0.0000 0.0000
# 5 0.0000 0.0000 0.0000 0.0000 13.1751 0.0000
# 6 0.0000 0.0000 0.0000 0.0000 0.0000 34.4057
#
#
#
# Elastic Compliance Matrix: (Units=1/GPa)
#
#
# Indices 1 2 3 4 5 6 
#
# 1 0.008395 -0.003187 -0.004481 0.000000 0.000000 0.000000
# 2 -0.003187 0.011663 -0.005359 0.000000 0.000000 0.000000
# 3 -0.004481 -0.005359 0.050393 0.000000 0.000000 0.000000
# 4 0.000000 0.000000 0.000000 0.459053 0.000000 0.000000
# 5 0.000000 0.000000 0.000000 0.000000 0.075901 0.000000
# 6 0.000000 0.000000 0.000000 0.000000 0.000000 0.029065
#
#
# Mechanical properties :
#
#
# Convention : Reuss Voigt Hill
#
# Bulk Modulus (GPa) = 22.52428 49.08935 35.80681
# Shear Modulus (GPa) = 7.40385 22.89361 15.14873
#
# Velocity S-wave (km/s) = 1.91174 3.36169 2.73457
# Velocity P-wave (km/s) = 3.99895 6.26896 5.25792
#
# Compressibility (1/GPa) = 0.04439654
#
# Stress axis : x y z
#
# Youngs Moduli (GPa) = 119.11334 85.73966 19.84389
#
# Poissons Ratio (x) = 0.27324 0.08893
# Poissons Ratio (y) = 0.37960 0.10635
# Poissons Ratio (z) = 0.53381 0.45951
#
# Static dielectric constant tensor:
#      x y z
#    x 3.963920 0.000000 0.000000 
#    y 0.000000 3.805550 0.000000 
#    z 0.000000 0.000000 2.986960 
# 
# 
# High freq. dielectric constant tensor:
#      x y z
#    x 1.807250 0.000000 0.000000 
#    y 0.000000 1.806890 0.000000 
#    z 0.000000 0.000000 1.718170 
# 
# From -- ./inp_files/9428.got.cif
#   From: 2010.03.12/outbox.cif.g09.slc.cpg/sg55_5_cif.got.tgz:9428.got - 2010.04.16 15:19:21.
