data_PCOD8225326
_publ_section_title
;
Structure prediction by ZEFSAII (Michael W. Deem and Ramdas Pophale) SiO2 
 PCOD8225326
Probable space group: P B A M
;
_chemical_formula_sum "Si O2"
_cell_formula_units_Z 56
_cell_length_a 17.212119
_cell_length_b 18.184933
_cell_length_c 9.080352
_cell_angle_alpha 90.000000
_cell_angle_beta 90.000000
_cell_angle_gamma 90.000000
_cell_volume 2842.161352
_symmetry_space_group_name_H-M "P B A M"
_symmetry_group_IT_number 55
_symmetry_cell_setting 'orthorhombic'
loop_
_space_group_symop_operation_xyz
x,y,z
-x,-y,z
1/2+x,1/2-y,-z
1/2-x,1/2+y,-z
-x,-y,-z
x,y,-z
1/2-x,1/2+y,z
1/2+x,1/2-y,z
loop_
_atom_site_type_symbol
_atom_site_label
_atom_site_fract_x
_atom_site_fract_y
_atom_site_fract_z
Si Si1 0.910758 0.182367 0.673889
Si Si2 0.650724 0.840780 0.326296
Si Si3 0.072068 0.179454 0.832123
Si Si4 0.985720 0.414476 0.166806
Si Si5 0.211718 0.914137 0.174553
Si Si6 0.135868 0.334378 0.828602
Si Si7 0.713147 0.417113 0.169418
O O1 0.907351 0.172843 0.500000
O O2 0.871872 0.258774 0.725605
O O3 0.865864 0.115378 0.749327
O O4 0.000023 0.179338 0.722773
O O5 0.651646 0.846732 0.500000
O O6 0.588965 0.898340 0.264123
O O7 0.734658 0.862648 0.265657
O O8 0.129391 0.247856 0.796603
O O9 0.123195 0.106224 0.809225
O O10 0.041317 0.185454 0.000000
O O11 0.000000 0.500000 0.168775
O O12 0.059975 0.373906 0.239041
O O13 0.970910 0.386376 0.000000
O O14 0.284881 0.867772 0.238747
O O15 0.222854 0.998895 0.220637
O O16 0.201674 0.905939 0.000000
O O17 0.137956 0.353878 0.000000
O O18 0.738661 0.407953 0.000000
#
# Coordination Sequence:
#
# PCOD8225326 Si02
#       7
#     8   8   8   8   8   8   8
#     4  11  24  40  58  85 119 158 199 238 288 352
#     4  11  23  38  57  85 122 159 195 235 291 358
#     4  10  20  37  61  86 111 149 198 245 292 345
#     4  10  19  33  57  86 117 152 193 242 290 342
#     4  10  21  39  62  88 117 150 193 247 298 345
#     4   9  17  32  56  84 111 144 189 236 288 343
#     4  10  22  39  62  90 118 150 196 250 298 346
#
# _framework density 19.703313999999999
#
# number of rings (size 3 to 8) (size 9 to 14) (size 15 to 20)
#    0.000    1.857    1.429    2.571    0.000    7.143 
#    0.000    4.286    0.000    0.000    0.000    0.000 
#    0.000    0.000    0.000    0.000    0.000    0.000 
#
# Total GULP energy -694584.889034 kJ/mol
# GULP energy per Si atom -12403.301590 kJ/mol
# Density = 1.965847 g / cm^3
# Si number density = 19.703314 Si / 1000 Ang^3
#
#
#
# Elastic Constant Matrix: (Units=GPa)
#
#
# Indices 1 2 3 4 5 6 
#
# 1 103.8707 46.4475 36.1741 0.0000 0.0000 0.0000
# 2 46.4475 75.2447 31.3389 0.0000 0.0000 0.0000
# 3 36.1741 31.3389 53.7824 0.0000 0.0000 0.0000
# 4 0.0000 0.0000 0.0000 16.6017 0.0000 0.0000
# 5 0.0000 0.0000 0.0000 0.0000 16.7719 0.0000
# 6 0.0000 0.0000 0.0000 0.0000 0.0000 36.3548
#
#
#
# Elastic Compliance Matrix: (Units=1/GPa)
#
#
# Indices 1 2 3 4 5 6 
#
# 1 0.014653 -0.006523 -0.006054 0.000000 0.000000 0.000000
# 2 -0.006523 0.020453 -0.007530 0.000000 0.000000 0.000000
# 3 -0.006054 -0.007530 0.027054 0.000000 0.000000 0.000000
# 4 0.000000 0.000000 0.000000 0.060235 0.000000 0.000000
# 5 0.000000 0.000000 0.000000 0.000000 0.059624 0.000000
# 6 0.000000 0.000000 0.000000 0.000000 0.000000 0.027507
#
#
# Mechanical properties :
#
#
# Convention : Reuss Voigt Hill
#
# Bulk Modulus (GPa) = 45.57202 51.20210 48.38706
# Shear Modulus (GPa) = 19.45107 21.87485 20.66296
#
# Velocity S-wave (km/s) = 3.14538 3.33560 3.24188
# Velocity P-wave (km/s) = 6.03080 6.39358 6.21484
#
# Compressibility (1/GPa) = 0.02194329
#
# Stress axis : x y z
#
# Youngs Moduli (GPa) = 68.24582 48.89229 36.96374
#
# Poissons Ratio (x) = 0.31895 0.22379
# Poissons Ratio (y) = 0.44520 0.27835
# Poissons Ratio (z) = 0.41319 0.36818
#
# Static dielectric constant tensor:
#      x y z
#    x 3.611820 0.000000 0.000000 
#    y 0.000000 3.641130 0.000000 
#    z 0.000000 0.000000 3.333580 
# 
# 
# High freq. dielectric constant tensor:
#      x y z
#    x 1.776260 0.000000 0.000000 
#    y 0.000000 1.775710 0.000000 
#    z 0.000000 0.000000 1.739380 
# 
# From -- ./inp_files/6068.got.cif
#   From: 2010.03.12/outbox.cif.g09.slc.cpg/sg55_4_cif.got.tgz:6068.got - 2010.04.16 15:19:21.
