data_PCOD8225177
_publ_section_title
;
Structure prediction by ZEFSAII (Michael W. Deem and Ramdas Pophale) SiO2 
 PCOD8225177
Probable space group: P B A M
;
_chemical_formula_sum "Si O2"
_cell_formula_units_Z 48
_cell_length_a 13.522679
_cell_length_b 23.727386
_cell_length_c 8.696269
_cell_angle_alpha 90.000000
_cell_angle_beta 90.000000
_cell_angle_gamma 90.000000
_cell_volume 2790.265952
_symmetry_space_group_name_H-M "P B A M"
_symmetry_group_IT_number 55
_symmetry_cell_setting 'orthorhombic'
loop_
_space_group_symop_operation_xyz
x,y,z
-x,-y,z
1/2+x,1/2-y,-z
1/2-x,1/2+y,-z
-x,-y,-z
x,y,-z
1/2-x,1/2+y,z
1/2+x,1/2-y,z
loop_
_atom_site_type_symbol
_atom_site_label
_atom_site_fract_x
_atom_site_fract_y
_atom_site_fract_z
Si Si1 0.724928 0.666499 0.820917
Si Si2 0.397248 0.560877 0.319508
Si Si3 0.901062 0.273230 0.176628
Si Si4 0.891885 0.056573 0.819043
Si Si5 0.796334 0.836525 0.822006
Si Si6 0.605009 0.230356 0.678373
O O1 0.640233 0.711636 0.779586
O O2 0.686425 0.604824 0.776109
O O3 0.823457 0.678729 0.723851
O O4 0.752135 0.671660 0.000000
O O5 0.415454 0.559387 0.500000
O O6 0.356773 0.500354 0.264367
O O7 0.500166 0.575543 0.236920
O O8 0.317084 0.607870 0.276731
O O9 0.816893 0.319604 0.208865
O O10 0.993272 0.287838 0.284457
O O11 0.935227 0.274937 0.000000
O O12 0.896453 0.046043 0.000000
O O13 0.868842 0.786088 0.774049
O O14 0.815946 0.849530 0.000000
O O15 0.616651 0.244075 0.500000
#
# Coordination Sequence:
#
# PCOD8225177 Si02
#       6
#     8   8   8   8   8   8
#     4   9  19  34  52  72  96 131 169 202 236 283
#     4  11  21  32  49  75 105 131 159 203 253 293
#     4   9  18  33  52  72  97 130 166 202 239 287
#     4  10  19  33  53  74  99 134 171 201 236 289
#     4  10  20  35  53  71  96 132 170 203 238 288
#     4  11  21  31  49  76 104 130 157 199 251 296
#
# _framework density 17.202660999999999
#
# number of rings (size 3 to 8) (size 9 to 14) (size 15 to 20)
#    0.000    2.000    0.000    7.000    0.000    6.000 
#    0.000    0.000    0.000    1.000    0.000    7.000 
#    0.000    0.000    0.000    0.000    0.000    0.000 
#
# Total GULP energy -595385.738620 kJ/mol
# GULP energy per Si atom -12403.869555 kJ/mol
# Density = 1.716351 g / cm^3
# Si number density = 17.202661 Si / 1000 Ang^3
#
#
#
# Elastic Constant Matrix: (Units=GPa)
#
#
# Indices 1 2 3 4 5 6 
#
# 1 91.5912 44.1539 25.6081 0.0000 0.0000 0.0000
# 2 44.1539 96.8167 17.4563 0.0000 0.0000 0.0000
# 3 25.6081 17.4563 34.6278 0.0000 0.0000 0.0000
# 4 0.0000 0.0000 0.0000 21.2985 0.0000 0.0000
# 5 0.0000 0.0000 0.0000 0.0000 12.8196 0.0000
# 6 0.0000 0.0000 0.0000 0.0000 0.0000 22.4434
#
#
#
# Elastic Compliance Matrix: (Units=1/GPa)
#
#
# Indices 1 2 3 4 5 6 
#
# 1 0.016244 -0.005766 -0.009106 0.000000 0.000000 0.000000
# 2 -0.005766 0.013408 -0.002495 0.000000 0.000000 0.000000
# 3 -0.009106 -0.002495 0.036870 0.000000 0.000000 0.000000
# 4 0.000000 0.000000 0.000000 0.046952 0.000000 0.000000
# 5 0.000000 0.000000 0.000000 0.000000 0.078006 0.000000
# 6 0.000000 0.000000 0.000000 0.000000 0.000000 0.044556
#
#
# Mechanical properties :
#
#
# Convention : Reuss Voigt Hill
#
# Bulk Modulus (GPa) = 31.45819 44.16359 37.81089
# Shear Modulus (GPa) = 17.77040 20.36678 19.06859
#
# Velocity S-wave (km/s) = 3.21752 3.44456 3.33298
# Velocity P-wave (km/s) = 5.66831 6.44580 6.06952
#
# Compressibility (1/GPa) = 0.03178823
#
# Stress axis : x y z
#
# Youngs Moduli (GPa) = 61.56203 74.58008 27.12206
#
# Poissons Ratio (x) = 0.43005 0.24697
# Poissons Ratio (y) = 0.35498 0.06767
# Poissons Ratio (z) = 0.56057 0.18608
#
# Static dielectric constant tensor:
#      x y z
#    x 3.077630 0.000000 0.000000 
#    y 0.000000 3.199130 0.000000 
#    z 0.000000 0.000000 3.210550 
# 
# 
# High freq. dielectric constant tensor:
#      x y z
#    x 1.650400 0.000000 0.000000 
#    y 0.000000 1.655570 0.000000 
#    z 0.000000 0.000000 1.673220 
# 
# From -- ./inp_files/4055.got.cif
#   From: 2010.03.12/outbox.cif.g09.slc.cpg/sg55_3_cif.got.tgz:4055.got - 2010.04.16 15:19:21.
