data_PCOD8225969
_publ_section_title
;
Structure prediction by ZEFSAII (Michael W. Deem and Ramdas Pophale) SiO2 
 PCOD8225969
Probable space group: P B A M
;
_chemical_formula_sum "Si O2"
_cell_formula_units_Z 40
_cell_length_a 29.253887
_cell_length_b 9.167186
_cell_length_c 7.864797
_cell_angle_alpha 90.000000
_cell_angle_beta 90.000000
_cell_angle_gamma 90.000000
_cell_volume 2109.148411
_symmetry_space_group_name_H-M "P B A M"
_symmetry_group_IT_number 55
_symmetry_cell_setting 'orthorhombic'
loop_
_space_group_symop_operation_xyz
x,y,z
-x,-y,z
1/2+x,1/2-y,-z
1/2-x,1/2+y,-z
-x,-y,-z
x,y,-z
1/2-x,1/2+y,z
1/2+x,1/2-y,z
loop_
_atom_site_type_symbol
_atom_site_label
_atom_site_fract_x
_atom_site_fract_y
_atom_site_fract_z
Si Si1 0.451468 0.424577 0.000000
Si Si2 0.109432 0.577851 0.310946
Si Si3 0.451585 0.075980 0.000000
Si Si4 0.791142 0.385612 0.692298
Si Si5 0.791386 0.070514 0.191883
Si Si6 0.109675 0.924351 0.312307
O O1 0.500000 0.500000 0.000000
O O2 0.456773 0.250159 0.000000
O O3 0.424812 0.481584 0.167580
O O4 0.095143 0.520511 0.500000
O O5 0.161339 0.529960 0.263772
O O6 0.109242 0.751340 0.308335
O O7 0.074880 0.518647 0.168090
O O8 0.500000 0.000000 0.000000
O O9 0.794569 0.326633 0.500000
O O10 0.749987 0.497952 0.707431
O O11 0.784573 0.244832 0.810266
O O12 0.839033 0.020735 0.275747
O O13 0.790685 0.013763 0.000000
O O14 0.094611 0.981440 0.500000
#
# Coordination Sequence:
#
# PCOD8225969 Si02
#       6
#     4   8   4   8   8   8
#     4  10  20  36  55  76 102 128 171 218 259 310
#     4   8  17  32  53  75 100 134 173 206 245 307
#     4  10  20  34  55  76  98 130 165 212 263 304
#     4  10  20  34  52  77 108 144 178 214 258 310
#     4  11  20  32  53  81 108 141 179 218 258 307
#     4   9  17  33  54  76 102 138 174 208 253 312
#
# _framework density 18.965
#
# number of rings (size 3 to 8) (size 9 to 14) (size 15 to 20)
#    0.000    2.400    1.000    3.600    5.600    0.800 
#    0.000    2.000    0.000    2.400    0.000    0.000 
#    0.000    0.000    0.000    0.000    0.000    0.000 
#
# Total GULP energy -495870.201013 kJ/mol
# GULP energy per Si atom -12396.755025 kJ/mol
# Density = 1.892183 g / cm^3
# Si number density = 18.965000 Si / 1000 Ang^3
#
#
#
# Elastic Constant Matrix: (Units=GPa)
#
#
# Indices 1 2 3 4 5 6 
#
# 1 174.5421 32.1401 84.1550 0.0000 0.0000 0.0000
# 2 32.1401 23.3816 17.3762 0.0000 0.0000 0.0000
# 3 84.1550 17.3762 144.9158 0.0000 0.0000 0.0000
# 4 0.0000 0.0000 0.0000 13.4463 0.0000 0.0000
# 5 0.0000 0.0000 0.0000 0.0000 29.7843 0.0000
# 6 0.0000 0.0000 0.0000 0.0000 0.0000 31.4338
#
#
#
# Elastic Compliance Matrix: (Units=1/GPa)
#
#
# Indices 1 2 3 4 5 6 
#
# 1 0.009723 -0.010066 -0.004440 0.000000 0.000000 0.000000
# 2 -0.010066 0.057374 -0.001034 0.000000 0.000000 0.000000
# 3 -0.004440 -0.001034 0.009603 0.000000 0.000000 0.000000
# 4 0.000000 0.000000 0.000000 0.074370 0.000000 0.000000
# 5 0.000000 0.000000 0.000000 0.000000 0.033575 0.000000
# 6 0.000000 0.000000 0.000000 0.000000 0.000000 0.031813
#
#
# Mechanical properties :
#
#
# Convention : Reuss Voigt Hill
#
# Bulk Modulus (GPa) = 21.91989 67.79800 44.85895
# Shear Modulus (GPa) = 19.02994 28.87744 23.95369
#
# Velocity S-wave (km/s) = 3.17112 3.90637 3.55779
# Velocity P-wave (km/s) = 4.99912 7.49486 6.37041
#
# Compressibility (1/GPa) = 0.04562067
#
# Stress axis : x y z
#
# Youngs Moduli (GPa) = 102.84472 17.42951 104.13833
#
# Poissons Ratio (x) = 0.17545 0.46232
# Poissons Ratio (y) = 1.03527 0.10765
# Poissons Ratio (z) = 0.45658 0.01802
#
# Static dielectric constant tensor:
#      x y z
#    x 3.556470 0.000000 0.000000 
#    y 0.000000 2.852430 0.000000 
#    z 0.000000 0.000000 3.878610 
# 
# 
# High freq. dielectric constant tensor:
#      x y z
#    x 1.740530 0.000000 0.000000 
#    y 0.000000 1.675600 0.000000 
#    z 0.000000 0.000000 1.759190 
# 
# From -- ./inp_files/10012.got.cif
#   From: 2010.03.12/outbox.cif.g09.slc.cpg/sg55_6_cif.got.tgz:10012.got - 2010.04.16 15:19:21.
