data_PCOD8225026
_publ_section_title
;
Structure prediction by ZEFSAII (Michael W. Deem and Ramdas Pophale) SiO2 
 PCOD8225026
Probable space group: P B A M
;
_chemical_formula_sum "Si O2"
_cell_formula_units_Z 64
_cell_length_a 19.053279
_cell_length_b 23.253617
_cell_length_c 8.551390
_cell_angle_alpha 90.000000
_cell_angle_beta 90.000000
_cell_angle_gamma 90.000000
_cell_volume 3788.758779
_symmetry_space_group_name_H-M "P B A M"
_symmetry_group_IT_number 55
_symmetry_cell_setting 'orthorhombic'
loop_
_space_group_symop_operation_xyz
x,y,z
-x,-y,z
1/2+x,1/2-y,-z
1/2-x,1/2+y,-z
-x,-y,-z
x,y,-z
1/2-x,1/2+y,z
1/2+x,1/2-y,z
loop_
_atom_site_type_symbol
_atom_site_label
_atom_site_fract_x
_atom_site_fract_y
_atom_site_fract_z
Si Si1 0.007159 0.884096 0.816875
Si Si2 0.631030 0.435918 0.684093
Si Si3 0.231106 0.835667 0.181723
Si Si4 0.147511 0.933323 0.318305
Si Si5 0.858411 0.720779 0.683848
Si Si6 0.721732 0.331905 0.684341
Si Si7 0.999383 0.752363 0.182215
Si Si8 0.145404 0.732320 0.683386
O O1 0.070000 0.911695 0.720551
O O2 0.997656 0.818436 0.760444
O O3 0.938108 0.920464 0.780469
O O4 0.024990 0.886790 0.000000
O O5 0.614974 0.428689 0.500000
O O6 0.654504 0.499872 0.726825
O O7 0.694212 0.393917 0.740746
O O8 0.206589 0.900325 0.218938
O O9 0.312242 0.828623 0.232469
O O10 0.180844 0.793427 0.279469
O O11 0.221464 0.822190 0.000000
O O12 0.162356 0.923470 0.500000
O O13 0.849095 0.713344 0.500000
O O14 0.830213 0.782257 0.747549
O O15 0.939712 0.715693 0.729856
O O16 0.720056 0.328169 0.500000
O O17 0.801499 0.318650 0.739041
O O18 0.073740 0.723755 0.222631
O O19 0.984790 0.748016 0.000000
O O20 0.129151 0.729672 0.500000
#
# Coordination Sequence:
#
# PCOD8225026 Si02
#       8
#     8   8   8   8   8   8   8   8
#     4  11  22  33  46  69 103 139 172 208 248 293
#     4  10  20  35  52  71  97 133 175 216 249 291
#     4  11  21  34  50  71 101 131 164 210 257 300
#     4  11  22  34  51  71  96 135 179 212 247 295
#     4  10  19  33  54  74  97 129 167 208 249 302
#     4   8  16  31  50  72  95 122 161 207 250 287
#     4  11  21  32  48  75 105 136 166 202 252 299
#     4  10  19  32  52  74  97 130 169 206 249 303
#
# _framework density 16.892075999999999
#
# number of rings (size 3 to 8) (size 9 to 14) (size 15 to 20)
#    0.000    1.750    2.500    4.125    0.000    3.500 
#    0.000    0.625    0.000    0.000    0.000    0.875 
#    0.000    7.000    0.000    0.000    0.000    0.000 
#
# Total GULP energy -793693.514680 kJ/mol
# GULP energy per Si atom -12401.461167 kJ/mol
# Density = 1.685363 g / cm^3
# Si number density = 16.892076 Si / 1000 Ang^3
#
#
#
# Elastic Constant Matrix: (Units=GPa)
#
#
# Indices 1 2 3 4 5 6 
#
# 1 104.0241 49.3245 15.1595 0.0000 0.0000 0.0000
# 2 49.3245 81.7076 21.7528 0.0000 0.0000 0.0000
# 3 15.1595 21.7528 44.2507 0.0000 0.0000 0.0000
# 4 0.0000 0.0000 0.0000 17.6118 0.0000 0.0000
# 5 0.0000 0.0000 0.0000 0.0000 23.2406 0.0000
# 6 0.0000 0.0000 0.0000 0.0000 0.0000 21.0785
#
#
#
# Elastic Compliance Matrix: (Units=1/GPa)
#
#
# Indices 1 2 3 4 5 6 
#
# 1 0.013488 -0.007953 -0.000711 0.000000 0.000000 0.000000
# 2 -0.007953 0.018771 -0.006503 0.000000 0.000000 0.000000
# 3 -0.000711 -0.006503 0.026039 0.000000 0.000000 0.000000
# 4 0.000000 0.000000 0.000000 0.056780 0.000000 0.000000
# 5 0.000000 0.000000 0.000000 0.000000 0.043028 0.000000
# 6 0.000000 0.000000 0.000000 0.000000 0.000000 0.047442
#
#
# Mechanical properties :
#
#
# Convention : Reuss Voigt Hill
#
# Bulk Modulus (GPa) = 35.76074 44.71733 40.23904
# Shear Modulus (GPa) = 20.39129 21.96921 21.18025
#
# Velocity S-wave (km/s) = 3.47818 3.61024 3.54483
# Velocity P-wave (km/s) = 6.11117 6.62634 6.37396
#
# Compressibility (1/GPa) = 0.02796363
#
# Stress axis : x y z
#
# Youngs Moduli (GPa) = 74.14132 53.27393 38.40413
#
# Poissons Ratio (x) = 0.42368 0.02731
# Poissons Ratio (y) = 0.58963 0.24974
# Poissons Ratio (z) = 0.05273 0.34644
#
# Static dielectric constant tensor:
#      x y z
#    x 3.252950 0.000000 0.000000 
#    y 0.000000 3.165730 0.000000 
#    z 0.000000 0.000000 3.088110 
# 
# 
# High freq. dielectric constant tensor:
#      x y z
#    x 1.648410 0.000000 0.000000 
#    y 0.000000 1.621290 0.000000 
#    z 0.000000 0.000000 1.654300 
# 
# From -- ./inp_files/8136.got.cif
#   From: 2010.03.12/outbox.cif.g09.slc.cpg/sg55_5_cif.got.tgz:8136.got - 2010.04.16 15:19:21.
