data_PCOD8225725
_publ_section_title
;
Structure prediction by ZEFSAII (Michael W. Deem and Ramdas Pophale) SiO2 
 PCOD8225725
Probable space group: P B A M
;
_chemical_formula_sum "Si O2"
_cell_formula_units_Z 64
_cell_length_a 12.127997
_cell_length_b 30.807653
_cell_length_c 8.428725
_cell_angle_alpha 90.000000
_cell_angle_beta 90.000000
_cell_angle_gamma 90.000000
_cell_volume 3149.267703
_symmetry_space_group_name_H-M "P B A M"
_symmetry_group_IT_number 55
_symmetry_cell_setting 'orthorhombic'
loop_
_space_group_symop_operation_xyz
x,y,z
-x,-y,z
1/2+x,1/2-y,-z
1/2-x,1/2+y,-z
-x,-y,-z
x,y,-z
1/2-x,1/2+y,z
1/2+x,1/2-y,z
loop_
_atom_site_type_symbol
_atom_site_label
_atom_site_fract_x
_atom_site_fract_y
_atom_site_fract_z
Si Si1 0.009841 0.199422 0.310833
Si Si2 0.980822 0.451912 0.182634
Si Si3 0.124978 0.375197 0.685920
Si Si4 0.744536 0.417224 0.178159
Si Si5 0.029182 0.049716 0.681649
Si Si6 0.471780 0.202894 0.311143
Si Si7 0.369088 0.378329 0.185431
Si Si8 0.756748 0.828227 0.319004
O O1 0.003545 0.195130 0.500000
O O2 0.996082 0.248706 0.253033
O O3 0.128940 0.186531 0.239289
O O4 0.917041 0.168172 0.239121
O O5 0.048468 0.416899 0.283564
O O6 0.000000 0.500000 0.250181
O O7 0.850368 0.446929 0.202024
O O8 0.018891 0.447699 0.000000
O O9 0.149615 0.371469 0.500000
O O10 0.062474 0.331813 0.749955
O O11 0.239851 0.379801 0.776605
O O12 0.634653 0.444349 0.207338
O O13 0.751435 0.379655 0.307528
O O14 0.741289 0.397852 0.000000
O O15 0.059728 0.059783 0.500000
O O16 0.929756 0.081763 0.728493
O O17 0.000000 0.000000 0.706624
O O18 0.467751 0.199277 0.500000
O O19 0.351678 0.192013 0.237031
O O20 0.387468 0.384066 0.000000
O O21 0.759857 0.813021 0.500000
#
# Coordination Sequence:
#
# PCOD8225725 Si02
#       8
#     8   8   8   8   8   8   8   8
#     4  10  21  38  64  92 121 161 207 254 301 361
#     4  10  23  42  62  90 127 168 207 249 308 369
#     4  11  23  41  65  92 123 164 211 257 306 363
#     4  11  22  38  63  91 124 163 203 251 307 367
#     4  11  25  44  66  93 122 157 206 258 305 361
#     4   9  20  37  62  94 122 158 207 254 305 359
#     4  12  26  43  62  89 127 165 202 251 313 374
#     4  10  19  36  62  89 120 158 204 257 303 353
#
# _framework density 20.322185000000001
#
# number of rings (size 3 to 8) (size 9 to 14) (size 15 to 20)
#    0.000    1.500    2.500    2.250    3.500    1.750 
#    0.000    1.875    0.000    0.000    0.000    0.000 
#    0.000    0.000    0.000    0.000    0.000    0.000 
#
# Total GULP energy -793588.840476 kJ/mol
# GULP energy per Si atom -12399.825632 kJ/mol
# Density = 2.027593 g / cm^3
# Si number density = 20.322185 Si / 1000 Ang^3
#
#
#
# Elastic Constant Matrix: (Units=GPa)
#
#
# Indices 1 2 3 4 5 6 
#
# 1 131.9890 40.5300 23.5066 0.0000 0.0000 0.0000
# 2 40.5300 136.3850 25.7516 0.0000 0.0000 0.0000
# 3 23.5066 25.7516 35.8528 0.0000 0.0000 0.0000
# 4 0.0000 0.0000 0.0000 12.4814 0.0000 0.0000
# 5 0.0000 0.0000 0.0000 0.0000 21.5374 0.0000
# 6 0.0000 0.0000 0.0000 0.0000 0.0000 31.0488
#
#
#
# Elastic Compliance Matrix: (Units=1/GPa)
#
#
# Indices 1 2 3 4 5 6 
#
# 1 0.008942 -0.001794 -0.004574 0.000000 0.000000 0.000000
# 2 -0.001794 0.008842 -0.005175 0.000000 0.000000 0.000000
# 3 -0.004574 -0.005175 0.034608 0.000000 0.000000 0.000000
# 4 0.000000 0.000000 0.000000 0.080119 0.000000 0.000000
# 5 0.000000 0.000000 0.000000 0.000000 0.046431 0.000000
# 6 0.000000 0.000000 0.000000 0.000000 0.000000 0.032207
#
#
# Mechanical properties :
#
#
# Convention : Reuss Voigt Hill
#
# Bulk Modulus (GPa) = 34.12269 53.75590 43.93930
# Shear Modulus (GPa) = 20.49142 27.30943 23.90043
#
# Velocity S-wave (km/s) = 3.17886 3.66980 3.43312
# Velocity P-wave (km/s) = 5.50462 6.66827 6.11419
#
# Compressibility (1/GPa) = 0.02930601
#
# Stress axis : x y z
#
# Youngs Moduli (GPa) = 111.83422 113.09238 28.89505
#
# Poissons Ratio (x) = 0.20284 0.13218
# Poissons Ratio (y) = 0.20058 0.14954
# Poissons Ratio (z) = 0.51157 0.58527
#
# Static dielectric constant tensor:
#      x y z
#    x 4.161120 0.000000 0.000000 
#    y 0.000000 3.732850 0.000000 
#    z 0.000000 0.000000 3.532450 
# 
# 
# High freq. dielectric constant tensor:
#      x y z
#    x 1.812080 0.000000 0.000000 
#    y 0.000000 1.800250 0.000000 
#    z 0.000000 0.000000 1.774590 
# 
# From -- ./inp_files/4602.got.cif
#   From: 2010.03.12/outbox.cif.g09.slc.cpg/sg55_3_cif.got.tgz:4602.got - 2010.04.16 15:19:21.
