data_PCOD8225192
_publ_section_title
;
Structure prediction by ZEFSAII (Michael W. Deem and Ramdas Pophale) SiO2 
 PCOD8225192
Probable space group: P B A M
;
_chemical_formula_sum "Si O2"
_cell_formula_units_Z 52
_cell_length_a 24.098950
_cell_length_b 5.013631
_cell_length_c 22.804108
_cell_angle_alpha 90.000000
_cell_angle_beta 90.000000
_cell_angle_gamma 90.000000
_cell_volume 2755.266277
_symmetry_space_group_name_H-M "P B A M"
_symmetry_group_IT_number 55
_symmetry_cell_setting 'orthorhombic'
loop_
_space_group_symop_operation_xyz
x,y,z
-x,-y,z
1/2+x,1/2-y,-z
1/2-x,1/2+y,-z
-x,-y,-z
x,y,-z
1/2-x,1/2+y,z
1/2+x,1/2-y,z
loop_
_atom_site_type_symbol
_atom_site_label
_atom_site_fract_x
_atom_site_fract_y
_atom_site_fract_z
Si Si1 0.284844 0.392611 0.000000
Si Si2 0.869997 0.053074 0.768267
Si Si3 0.786462 0.035255 0.663978
Si Si4 0.938292 0.565561 0.259651
Si Si5 0.127496 0.995839 0.566602
Si Si6 0.711761 0.505275 0.873903
Si Si7 0.562306 0.009788 0.396290
O O1 0.316038 0.463979 0.060947
O O2 0.229409 0.578792 0.000000
O O3 0.829302 0.973206 0.715533
O O4 0.894679 0.344391 0.759862
O O5 0.837598 0.049708 0.829028
O O6 0.920119 0.842373 0.769849
O O7 0.765711 0.338129 0.669598
O O8 0.814625 0.987395 0.601032
O O9 0.937849 0.602914 0.329335
O O10 0.000000 0.500000 0.237126
O O11 0.140162 0.910927 0.500000
O O12 0.097562 0.281415 0.566132
O O13 0.088198 0.782655 0.598421
O O14 0.738423 0.215325 0.864743
O O15 0.500000 0.000000 0.421487
#
# Coordination Sequence:
#
# PCOD8225192 Si02
#       7
#     4   8   8   8   8   8   8
#     4   8  16  30  50  76 119 154 187 224 264 314
#     4  12  21  37  59  85 111 143 184 228 272 326
#     4  12  24  39  57  78 107 142 178 221 264 314
#     4  11  22  38  60  83 110 142 178 227 285 333
#     4  12  25  41  59  82 108 141 182 220 273 339
#     4  10  19  33  53  86 119 155 187 224 269 320
#     4  11  22  41  62  83 109 136 173 229 287 335
#
# _framework density 18.872948999999998
#
# number of rings (size 3 to 8) (size 9 to 14) (size 15 to 20)
#    0.000    0.923    3.077    5.077    0.000    4.923 
#    0.000    0.000    0.000    0.000    0.000    3.231 
#    0.000    0.000    0.000    0.000    0.000    0.000 
#
# Total GULP energy -645052.179867 kJ/mol
# GULP energy per Si atom -12404.849613 kJ/mol
# Density = 1.882999 g / cm^3
# Si number density = 18.872949 Si / 1000 Ang^3
#
#
#
# Elastic Constant Matrix: (Units=GPa)
#
#
# Indices 1 2 3 4 5 6 
#
# 1 72.4581 9.3496 30.0867 0.0000 0.0000 0.0000
# 2 9.3496 76.0399 2.6611 0.0000 0.0000 0.0000
# 3 30.0867 2.6611 90.2998 0.0000 0.0000 0.0000
# 4 0.0000 0.0000 0.0000 21.7998 0.0000 0.0000
# 5 0.0000 0.0000 0.0000 0.0000 17.7991 0.0000
# 6 0.0000 0.0000 0.0000 0.0000 0.0000 35.8138
#
#
#
# Elastic Compliance Matrix: (Units=1/GPa)
#
#
# Indices 1 2 3 4 5 6 
#
# 1 0.016263 -0.001812 -0.005365 0.000000 0.000000 0.000000
# 2 -0.001812 0.013366 0.000210 0.000000 0.000000 0.000000
# 3 -0.005365 0.000210 0.012856 0.000000 0.000000 0.000000
# 4 0.000000 0.000000 0.000000 0.045872 0.000000 0.000000
# 5 0.000000 0.000000 0.000000 0.000000 0.056183 0.000000
# 6 0.000000 0.000000 0.000000 0.000000 0.000000 0.027922
#
#
# Mechanical properties :
#
#
# Convention : Reuss Voigt Hill
#
# Bulk Modulus (GPa) = 35.02581 35.88804 35.45693
# Shear Modulus (GPa) = 25.52158 28.19590 26.85874
#
# Velocity S-wave (km/s) = 3.68133 3.86940 3.77654
# Velocity P-wave (km/s) = 6.05546 6.24659 6.15177
#
# Compressibility (1/GPa) = 0.02855037
#
# Stress axis : x y z
#
# Youngs Moduli (GPa) = 61.49074 74.81429 77.78698
#
# Poissons Ratio (x) = 0.13555 0.41733
# Poissons Ratio (y) = 0.11141 -0.01632
# Poissons Ratio (z) = 0.32990 -0.01569
#
# Static dielectric constant tensor:
#      x y z
#    x 3.358830 0.000000 0.000000 
#    y 0.000000 3.546130 0.000000 
#    z 0.000000 0.000000 3.511870 
# 
# 
# High freq. dielectric constant tensor:
#      x y z
#    x 1.713300 0.000000 0.000000 
#    y 0.000000 1.755120 0.000000 
#    z 0.000000 0.000000 1.724500 
# 
# From -- ./inp_files/22353.got.cif
#   From: 2010.03.12/outbox.cif.g09.slc.cpg/sg55_12_cif.got.tgz:22353.got - 2010.04.16 15:19:21.
