data_PCOD8225562
_publ_section_title
;
Structure prediction by ZEFSAII (Michael W. Deem and Ramdas Pophale) SiO2 
 PCOD8225562
Probable space group: P B A M
;
_chemical_formula_sum "Si O2"
_cell_formula_units_Z 36
_cell_length_a 18.232083
_cell_length_b 7.995461
_cell_length_c 12.383061
_cell_angle_alpha 90.000000
_cell_angle_beta 90.000000
_cell_angle_gamma 90.000000
_cell_volume 1805.127202
_symmetry_space_group_name_H-M "P B A M"
_symmetry_group_IT_number 55
_symmetry_cell_setting 'orthorhombic'
loop_
_space_group_symop_operation_xyz
x,y,z
-x,-y,z
1/2+x,1/2-y,-z
1/2-x,1/2+y,-z
-x,-y,-z
x,y,-z
1/2-x,1/2+y,z
1/2+x,1/2-y,z
loop_
_atom_site_type_symbol
_atom_site_label
_atom_site_fract_x
_atom_site_fract_y
_atom_site_fract_z
Si Si1 0.500000 0.000000 0.261369
Si Si2 0.518192 0.685562 0.877556
Si Si3 0.778811 0.806675 0.258395
Si Si4 0.348046 0.991655 0.627286
Si Si5 0.321878 0.402700 0.878604
O O1 0.481701 0.835909 0.189600
O O2 0.429619 0.038778 0.334626
O O3 0.500000 0.500000 0.831306
O O4 0.605786 0.711623 0.874038
O O5 0.487734 0.697755 0.000000
O O6 0.828093 0.696616 0.337995
O O7 0.831488 0.945521 0.206040
O O8 0.748515 0.702777 0.156785
O O9 0.710413 0.879317 0.324592
O O10 0.345220 0.006633 0.500000
O O11 0.308713 0.469633 0.000000
#
# Coordination Sequence:
#
# PCOD8225562 Si02
#       5
#     4   8   8   8   8
#     4  12  22  40  62  92 122 158 208 252 310 352
#     4  10  21  37  58  87 125 162 194 238 304 376
#     4  10  21  38  60  86 116 156 197 250 305 362
#     4  11  23  40  62  84 117 158 208 257 301 351
#     4  10  19  35  57  88 118 150 190 240 301 367
#
# _framework density 19.943193000000001
#
# number of rings (size 3 to 8) (size 9 to 14) (size 15 to 20)
#    0.000    1.556    2.222    3.333    0.000    0.000 
#    0.000    2.222    0.000    2.667    0.000    0.000 
#    0.000    0.000    0.000    0.000    0.000    0.000 
#
# Total GULP energy -446441.213519 kJ/mol
# GULP energy per Si atom -12401.144820 kJ/mol
# Density = 1.989780 g / cm^3
# Si number density = 19.943193 Si / 1000 Ang^3
#
#
#
# Elastic Constant Matrix: (Units=GPa)
#
#
# Indices 1 2 3 4 5 6 
#
# 1 62.3810 10.2747 33.0819 0.0000 0.0000 0.0000
# 2 10.2747 91.8548 38.3284 0.0000 0.0000 0.0000
# 3 33.0819 38.3284 122.2420 0.0000 0.0000 0.0000
# 4 0.0000 0.0000 0.0000 21.0797 0.0000 0.0000
# 5 0.0000 0.0000 0.0000 0.0000 25.6278 0.0000
# 6 0.0000 0.0000 0.0000 0.0000 0.0000 28.2720
#
#
#
# Elastic Compliance Matrix: (Units=1/GPa)
#
#
# Indices 1 2 3 4 5 6 
#
# 1 0.018717 0.000023 -0.005072 0.000000 0.000000 0.000000
# 2 0.000023 0.012526 -0.003934 0.000000 0.000000 0.000000
# 3 -0.005072 -0.003934 0.010787 0.000000 0.000000 0.000000
# 4 0.000000 0.000000 0.000000 0.047439 0.000000 0.000000
# 5 0.000000 0.000000 0.000000 0.000000 0.039020 0.000000
# 6 0.000000 0.000000 0.000000 0.000000 0.000000 0.035371
#
#
# Mechanical properties :
#
#
# Convention : Reuss Voigt Hill
#
# Bulk Modulus (GPa) = 41.55788 48.87198 45.21493
# Shear Modulus (GPa) = 26.33717 27.98208 27.15963
#
# Velocity S-wave (km/s) = 3.63796 3.74985 3.69433
# Velocity P-wave (km/s) = 6.20723 6.58083 6.39676
#
# Compressibility (1/GPa) = 0.02406283
#
# Stress axis : x y z
#
# Youngs Moduli (GPa) = 53.42807 79.83689 92.70783
#
# Poissons Ratio (x) = -0.00183 0.47026
# Poissons Ratio (y) = -0.00123 0.36467
# Poissons Ratio (z) = 0.27101 0.31404
#
# Static dielectric constant tensor:
#      x y z
#    x 3.502260 0.000000 0.000000 
#    y 0.000000 3.748410 0.000000 
#    z 0.000000 0.000000 3.509590 
# 
# 
# High freq. dielectric constant tensor:
#      x y z
#    x 1.780060 0.000000 0.000000 
#    y 0.000000 1.779150 0.000000 
#    z 0.000000 0.000000 1.770510 
# 
# From -- ./inp_files/11983.got.cif
#   From: 2010.03.12/outbox.cif.g09.slc.cpg/sg55_6_cif.got.tgz:11983.got - 2010.04.16 15:19:21.
