data_PCOD8225655
_publ_section_title
;
Structure prediction by ZEFSAII (Michael W. Deem and Ramdas Pophale) SiO2 
 PCOD8225655
Probable space group: P B A M
;
_chemical_formula_sum "Si O2"
_cell_formula_units_Z 56
_cell_length_a 19.271433
_cell_length_b 18.982199
_cell_length_c 8.552321
_cell_angle_alpha 90.000000
_cell_angle_beta 90.000000
_cell_angle_gamma 90.000000
_cell_volume 3128.560261
_symmetry_space_group_name_H-M "P B A M"
_symmetry_group_IT_number 55
_symmetry_cell_setting 'orthorhombic'
loop_
_space_group_symop_operation_xyz
x,y,z
-x,-y,z
1/2+x,1/2-y,-z
1/2-x,1/2+y,-z
-x,-y,-z
x,y,-z
1/2-x,1/2+y,z
1/2+x,1/2-y,z
loop_
_atom_site_type_symbol
_atom_site_label
_atom_site_fract_x
_atom_site_fract_y
_atom_site_fract_z
Si Si1 0.270242 0.855304 0.816048
Si Si2 0.373767 0.751374 0.318326
Si Si3 0.949413 0.064125 0.317909
Si Si4 0.836695 0.259861 0.183795
Si Si5 0.296550 0.485499 0.318082
Si Si6 0.777321 0.863595 0.182629
Si Si7 0.017133 0.787570 0.816417
O O1 0.342964 0.818034 0.775426
O O2 0.209185 0.804763 0.751412
O O3 0.262411 0.929005 0.725945
O O4 0.265973 0.869130 0.000000
O O5 0.363452 0.765574 0.500000
O O6 0.337436 0.677821 0.273380
O O7 0.454425 0.745770 0.278951
O O8 0.953386 0.084476 0.500000
O O9 0.871815 0.042977 0.267826
O O10 0.974297 0.129683 0.215678
O O11 0.000000 0.000000 0.277761
O O12 0.798689 0.332855 0.230825
O O13 0.914896 0.254276 0.248087
O O14 0.840231 0.250913 0.000000
O O15 0.293969 0.503924 0.500000
O O16 0.279355 0.554968 0.221530
O O17 0.790594 0.850649 0.000000
O O18 0.004588 0.776457 0.000000
#
# Coordination Sequence:
#
# PCOD8225655 Si02
#       7
#     8   8   8   8   8   8   8
#     4  10  19  36  57  78 104 142 187 227 266 322
#     4  11  22  36  53  79 111 142 178 226 276 325
#     4  10  21  34  48  73 113 150 178 214 264 322
#     4   8  17  33  54  78 103 133 179 227 265 313
#     4  11  21  33  52  81 114 146 179 222 274 323
#     4  10  20  36  56  79 107 143 183 225 268 322
#     4  11  20  34  55  79 105 140 181 222 269 324
#
# _framework density 17.899608000000001
#
# number of rings (size 3 to 8) (size 9 to 14) (size 15 to 20)
#    0.000    1.857    1.429    4.714    0.000    2.000 
#    0.000    2.143    0.000    0.857    0.000    6.000 
#    0.000    0.000    0.000    0.000    0.000    0.000 
#
# Total GULP energy -694496.123763 kJ/mol
# GULP energy per Si atom -12401.716496 kJ/mol
# Density = 1.785887 g / cm^3
# Si number density = 17.899608 Si / 1000 Ang^3
#
#
#
# Elastic Constant Matrix: (Units=GPa)
#
#
# Indices 1 2 3 4 5 6 
#
# 1 115.4908 40.6804 20.2247 0.0000 0.0000 0.0000
# 2 40.6804 44.1112 13.0826 0.0000 0.0000 0.0000
# 3 20.2247 13.0826 50.4065 0.0000 0.0000 0.0000
# 4 0.0000 0.0000 0.0000 26.8760 0.0000 0.0000
# 5 0.0000 0.0000 0.0000 0.0000 23.4635 0.0000
# 6 0.0000 0.0000 0.0000 0.0000 0.0000 26.4620
#
#
#
# Elastic Compliance Matrix: (Units=1/GPa)
#
#
# Indices 1 2 3 4 5 6 
#
# 1 0.013064 -0.011369 -0.002291 0.000000 0.000000 0.000000
# 2 -0.011369 0.034454 -0.004381 0.000000 0.000000 0.000000
# 3 -0.002291 -0.004381 0.021895 0.000000 0.000000 0.000000
# 4 0.000000 0.000000 0.000000 0.037208 0.000000 0.000000
# 5 0.000000 0.000000 0.000000 0.000000 0.042619 0.000000
# 6 0.000000 0.000000 0.000000 0.000000 0.000000 0.037790
#
#
# Mechanical properties :
#
#
# Convention : Reuss Voigt Hill
#
# Bulk Modulus (GPa) = 30.00132 39.77601 34.88867
# Shear Modulus (GPa) = 21.34719 24.42834 22.88776
#
# Velocity S-wave (km/s) = 3.45716 3.69825 3.57973
# Velocity P-wave (km/s) = 5.72129 6.36443 6.05141
#
# Compressibility (1/GPa) = 0.03333186
#
# Stress axis : x y z
#
# Youngs Moduli (GPa) = 76.54331 29.02431 45.67260
#
# Poissons Ratio (x) = 0.32997 0.10465
# Poissons Ratio (y) = 0.87021 0.20008
# Poissons Ratio (z) = 0.17538 0.12715
#
# Static dielectric constant tensor:
#      x y z
#    x 3.504780 0.000000 0.000000 
#    y 0.000000 3.203490 0.000000 
#    z 0.000000 0.000000 3.210230 
# 
# 
# High freq. dielectric constant tensor:
#      x y z
#    x 1.688900 0.000000 0.000000 
#    y 0.000000 1.680850 0.000000 
#    z 0.000000 0.000000 1.692930 
# 
# From -- ./inp_files/7795.got.cif
#   From: 2010.03.12/outbox.cif.g09.slc.cpg/sg55_4_cif.got.tgz:7795.got - 2010.04.16 15:19:21.
