data_PCOD8225871
_publ_section_title
;
Structure prediction by ZEFSAII (Michael W. Deem and Ramdas Pophale) SiO2 
 PCOD8225871
Probable space group: P B A M
;
_chemical_formula_sum "Si O2"
_cell_formula_units_Z 64
_cell_length_a 23.093955
_cell_length_b 18.855009
_cell_length_c 8.723126
_cell_angle_alpha 90.000000
_cell_angle_beta 90.000000
_cell_angle_gamma 90.000000
_cell_volume 3798.369455
_symmetry_space_group_name_H-M "P B A M"
_symmetry_group_IT_number 55
_symmetry_cell_setting 'orthorhombic'
loop_
_space_group_symop_operation_xyz
x,y,z
-x,-y,z
1/2+x,1/2-y,-z
1/2-x,1/2+y,-z
-x,-y,-z
x,y,-z
1/2-x,1/2+y,z
1/2+x,1/2-y,z
loop_
_atom_site_type_symbol
_atom_site_label
_atom_site_fract_x
_atom_site_fract_y
_atom_site_fract_z
Si Si1 0.159864 0.272866 0.323530
Si Si2 0.384105 0.004884 0.678757
Si Si3 0.260852 0.000245 0.824631
Si Si4 0.270941 0.654910 0.823888
Si Si5 0.432430 0.865353 0.822598
Si Si6 0.773627 0.135658 0.675123
Si Si7 0.934257 0.355554 0.822493
Si Si8 0.836559 0.273566 0.320828
O O1 0.141189 0.270872 0.500000
O O2 0.179617 0.194297 0.273475
O O3 0.105690 0.297155 0.221828
O O4 0.212231 0.326993 0.295066
O O5 0.391640 0.020950 0.500000
O O6 0.316442 0.000020 0.715717
O O7 0.414705 0.066414 0.773794
O O8 0.414990 0.931370 0.717954
O O9 0.222460 0.070603 0.799650
O O10 0.220630 0.933167 0.782214
O O11 0.281829 0.994587 0.000000
O O12 0.206621 0.675350 0.770532
O O13 0.278387 0.676985 0.000000
O O14 0.498373 0.845182 0.788411
O O15 0.422869 0.885214 0.000000
O O16 0.779234 0.111144 0.500000
O O17 0.824442 0.191119 0.718843
O O18 0.901337 0.294428 0.727139
O O19 0.919459 0.345561 0.000000
O O20 0.825734 0.286851 0.500000
#
# Coordination Sequence:
#
# PCOD8225871 Si02
#       8
#     8   8   8   8   8   8   8   8
#     4  10  20  34  52  75 101 132 172 213 255 303
#     4  12  23  34  50  72 103 139 176 215 250 296
#     4  11  21  32  51  77 104 136 171 206 252 307
#     4  10  20  33  51  74 103 135 169 209 255 306
#     4  11  23  37  53  72 101 138 176 216 255 302
#     4   9  19  33  50  74 102 131 167 208 254 304
#     4  11  23  37  52  73 101 137 178 215 255 304
#     4  10  20  34  52  74 100 133 172 214 256 302
#
# _framework density 16.849335
#
# number of rings (size 3 to 8) (size 9 to 14) (size 15 to 20)
#    0.000    1.500    2.500    4.500    0.000    7.500 
#    0.000    0.000    0.000    0.000    0.000    0.875 
#    0.000    7.000    0.000    0.000    0.000    0.000 
#
# Total GULP energy -793865.108503 kJ/mol
# GULP energy per Si atom -12404.142320 kJ/mol
# Density = 1.681099 g / cm^3
# Si number density = 16.849335 Si / 1000 Ang^3
#
#
#
# Elastic Constant Matrix: (Units=GPa)
#
#
# Indices 1 2 3 4 5 6 
#
# 1 73.0328 43.0999 17.0756 0.0000 0.0000 0.0000
# 2 43.0999 103.6813 34.6535 0.0000 0.0000 0.0000
# 3 17.0756 34.6535 43.9583 0.0000 0.0000 0.0000
# 4 0.0000 0.0000 0.0000 28.6811 0.0000 0.0000
# 5 0.0000 0.0000 0.0000 0.0000 21.2961 0.0000
# 6 0.0000 0.0000 0.0000 0.0000 0.0000 18.9892
#
#
#
# Elastic Compliance Matrix: (Units=1/GPa)
#
#
# Indices 1 2 3 4 5 6 
#
# 1 0.018216 -0.007070 -0.001502 0.000000 0.000000 0.000000
# 2 -0.007070 0.015840 -0.009740 0.000000 0.000000 0.000000
# 3 -0.001502 -0.009740 0.031011 0.000000 0.000000 0.000000
# 4 0.000000 0.000000 0.000000 0.034866 0.000000 0.000000
# 5 0.000000 0.000000 0.000000 0.000000 0.046957 0.000000
# 6 0.000000 0.000000 0.000000 0.000000 0.000000 0.052662
#
#
# Mechanical properties :
#
#
# Convention : Reuss Voigt Hill
#
# Bulk Modulus (GPa) = 35.16074 45.59225 40.37650
# Shear Modulus (GPa) = 20.35353 22.18283 21.26818
#
# Velocity S-wave (km/s) = 3.47936 3.63235 3.55668
# Velocity P-wave (km/s) = 6.08722 6.68652 6.39390
#
# Compressibility (1/GPa) = 0.02844081
#
# Stress axis : x y z
#
# Youngs Moduli (GPa) = 54.89612 63.13324 32.24667
#
# Poissons Ratio (x) = 0.44637 0.04845
# Poissons Ratio (y) = 0.38813 0.31409
# Poissons Ratio (z) = 0.08248 0.61493
#
# Static dielectric constant tensor:
#      x y z
#    x 2.989460 0.000000 0.000000 
#    y 0.000000 3.217730 0.000000 
#    z 0.000000 0.000000 3.262950 
# 
# 
# High freq. dielectric constant tensor:
#      x y z
#    x 1.618230 0.000000 0.000000 
#    y 0.000000 1.644580 0.000000 
#    z 0.000000 0.000000 1.667200 
# 
# From -- ./inp_files/8190.got.cif
#   From: 2010.03.12/outbox.cif.g09.slc.cpg/sg55_5_cif.got.tgz:8190.got - 2010.04.16 15:19:21.
