data_PCOD8225961
_publ_section_title
;
Structure prediction by ZEFSAII (Michael W. Deem and Ramdas Pophale) SiO2 
 PCOD8225961
Probable space group: P B A M
;
_chemical_formula_sum "Si O2"
_cell_formula_units_Z 64
_cell_length_a 18.946891
_cell_length_b 22.902868
_cell_length_c 8.682040
_cell_angle_alpha 90.000000
_cell_angle_beta 90.000000
_cell_angle_gamma 90.000000
_cell_volume 3767.468320
_symmetry_space_group_name_H-M "P B A M"
_symmetry_group_IT_number 55
_symmetry_cell_setting 'orthorhombic'
loop_
_space_group_symop_operation_xyz
x,y,z
-x,-y,z
1/2+x,1/2-y,-z
1/2-x,1/2+y,-z
-x,-y,-z
x,y,-z
1/2-x,1/2+y,z
1/2+x,1/2-y,z
loop_
_atom_site_type_symbol
_atom_site_label
_atom_site_fract_x
_atom_site_fract_y
_atom_site_fract_z
Si Si1 0.493010 0.382504 0.179322
Si Si2 0.505558 0.752598 0.179913
Si Si3 0.355227 0.434725 0.679245
Si Si4 0.779992 0.840283 0.322975
Si Si5 0.861633 0.723366 0.679940
Si Si6 0.140937 0.058574 0.821725
Si Si7 0.350846 0.234135 0.678465
Si Si8 0.266520 0.337116 0.180073
O O1 0.499450 0.315148 0.227175
O O2 0.433209 0.413509 0.278013
O O3 0.565909 0.413644 0.221249
O O4 0.473962 0.389295 0.000000
O O5 0.434690 0.785562 0.230537
O O6 0.570482 0.782531 0.269689
O O7 0.517259 0.761082 0.000000
O O8 0.342381 0.424214 0.500000
O O9 0.346539 0.502448 0.717683
O O10 0.295646 0.400276 0.773801
O O11 0.792205 0.857900 0.500000
O O12 0.829625 0.786178 0.276752
O O13 0.797898 0.894742 0.214814
O O14 0.698987 0.821822 0.292339
O O15 0.875599 0.717186 0.500000
O O16 0.806875 0.673724 0.732009
O O17 0.144435 0.040962 0.000000
O O18 0.347679 0.252469 0.500000
O O19 0.325743 0.289619 0.776712
O O20 0.251822 0.334395 0.000000
#
# Coordination Sequence:
#
# PCOD8225961 Si02
#       8
#     8   8   8   8   8   8   8   8
#     4  10  21  35  49  72 105 140 178 216 252 299
#     4  11  20  32  52  79 107 140 174 212 259 310
#     4  12  24  36  52  73 101 138 180 218 260 306
#     4   9  19  34  51  73 101 132 171 213 257 305
#     4  10  20  34  53  76 105 136 170 214 261 311
#     4  11  22  36  53  72 101 138 178 217 258 303
#     4  10  20  34  52  76 104 136 171 214 263 310
#     4  11  21  35  53  74 101 134 174 217 261 309
#
# _framework density 16.987534
#
# number of rings (size 3 to 8) (size 9 to 14) (size 15 to 20)
#    0.000    1.500    2.500    4.875    0.000    5.500 
#    0.000    0.000    0.000    0.000    0.000    0.875 
#    0.000    7.000    0.000    0.000    0.000    0.000 
#
# Total GULP energy -793954.905427 kJ/mol
# GULP energy per Si atom -12405.545397 kJ/mol
# Density = 1.694887 g / cm^3
# Si number density = 16.987534 Si / 1000 Ang^3
#
#
#
# Elastic Constant Matrix: (Units=GPa)
#
#
# Indices 1 2 3 4 5 6 
#
# 1 104.0423 36.9591 21.1810 0.0000 0.0000 0.0000
# 2 36.9591 62.1710 24.7547 0.0000 0.0000 0.0000
# 3 21.1810 24.7547 57.9951 0.0000 0.0000 0.0000
# 4 0.0000 0.0000 0.0000 25.8441 0.0000 0.0000
# 5 0.0000 0.0000 0.0000 0.0000 31.8668 0.0000
# 6 0.0000 0.0000 0.0000 0.0000 0.0000 21.0327
#
#
#
# Elastic Compliance Matrix: (Units=1/GPa)
#
#
# Indices 1 2 3 4 5 6 
#
# 1 0.012315 -0.006662 -0.001654 0.000000 0.000000 0.000000
# 2 -0.006662 0.022982 -0.007377 0.000000 0.000000 0.000000
# 3 -0.001654 -0.007377 0.020996 0.000000 0.000000 0.000000
# 4 0.000000 0.000000 0.000000 0.038694 0.000000 0.000000
# 5 0.000000 0.000000 0.000000 0.000000 0.031381 0.000000
# 6 0.000000 0.000000 0.000000 0.000000 0.000000 0.047545
#
#
# Mechanical properties :
#
#
# Convention : Reuss Voigt Hill
#
# Bulk Modulus (GPa) = 40.14922 43.33314 41.74118
# Shear Modulus (GPa) = 23.40825 25.16964 24.28894
#
# Velocity S-wave (km/s) = 3.71612 3.85340 3.78538
# Velocity P-wave (km/s) = 6.48834 6.73516 6.61291
#
# Compressibility (1/GPa) = 0.02490709
#
# Stress axis : x y z
#
# Youngs Moduli (GPa) = 81.20281 43.51151 47.62922
#
# Poissons Ratio (x) = 0.28989 0.07877
# Poissons Ratio (y) = 0.54100 0.35134
# Poissons Ratio (z) = 0.13430 0.32097
#
# Static dielectric constant tensor:
#      x y z
#    x 3.218940 0.000000 0.000000 
#    y 0.000000 2.981840 0.000000 
#    z 0.000000 0.000000 3.208990 
# 
# 
# High freq. dielectric constant tensor:
#      x y z
#    x 1.653530 0.000000 0.000000 
#    y 0.000000 1.624240 0.000000 
#    z 0.000000 0.000000 1.668810 
# 
# From -- ./inp_files/7998.got.cif
#   From: 2010.03.12/outbox.cif.g09.slc.cpg/sg55_4_cif.got.tgz:7998.got - 2010.04.16 15:19:21.
