data_PCOD8225413
_publ_section_title
;
Structure prediction by ZEFSAII (Michael W. Deem and Ramdas Pophale) SiO2 
 PCOD8225413
Probable space group: P B A M
;
_chemical_formula_sum "Si O2"
_cell_formula_units_Z 56
_cell_length_a 22.562310
_cell_length_b 14.481526
_cell_length_c 8.379333
_cell_angle_alpha 90.000000
_cell_angle_beta 90.000000
_cell_angle_gamma 90.000000
_cell_volume 2737.835436
_symmetry_space_group_name_H-M "P B A M"
_symmetry_group_IT_number 55
_symmetry_cell_setting 'orthorhombic'
loop_
_space_group_symop_operation_xyz
x,y,z
-x,-y,z
1/2+x,1/2-y,-z
1/2-x,1/2+y,-z
-x,-y,-z
x,y,-z
1/2-x,1/2+y,z
1/2+x,1/2-y,z
loop_
_atom_site_type_symbol
_atom_site_label
_atom_site_fract_x
_atom_site_fract_y
_atom_site_fract_z
Si Si1 0.115358 0.288648 0.188802
Si Si2 0.220228 0.403376 0.312955
Si Si3 0.393168 0.211123 0.682832
Si Si4 0.150306 0.892480 0.812178
Si Si5 0.712438 0.900395 0.812111
Si Si6 0.501821 0.102957 0.813738
Si Si7 0.844986 0.905206 0.186875
O O1 0.172532 0.324154 0.281868
O O2 0.110574 0.178633 0.228663
O O3 0.056857 0.338669 0.257516
O O4 0.123831 0.303642 0.000000
O O5 0.230677 0.418226 0.500000
O O6 0.281287 0.373412 0.229926
O O7 0.193766 0.495487 0.231950
O O8 0.410289 0.198027 0.500000
O O9 0.392678 0.319555 0.725827
O O10 0.328524 0.171000 0.718544
O O11 0.441188 0.156674 0.785888
O O12 0.131963 0.995390 0.749025
O O13 0.141315 0.880705 0.000000
O O14 0.779079 0.883356 0.747935
O O15 0.704582 0.883617 0.000000
O O16 0.500000 0.000000 0.736602
O O17 0.512649 0.093021 0.000000
O O18 0.836951 0.918424 0.000000
#
# Coordination Sequence:
#
# PCOD8225413 Si02
#       7
#     8   8   8   8   8   8   8
#     4  10  19  35  58  81 108 146 193 236 278 333
#     4  11  21  33  53  86 122 150 182 227 283 337
#     4  12  24  37  56  83 114 147 186 235 291 341
#     4  10  20  37  58  80 111 149 190 232 278 337
#     4  10  19  34  56  81 112 149 187 226 277 340
#     4  10  22  39  59  82 109 146 190 231 277 342
#     4   8  17  33  56  83 106 137 183 233 274 317
#
# _framework density 20.454115000000002
#
# number of rings (size 3 to 8) (size 9 to 14) (size 15 to 20)
#    0.000    1.857    0.000    6.000    0.000    3.143 
#    0.000    4.286    0.000    4.286    0.000    0.000 
#    0.000    0.000    0.000    0.000    0.000    0.000 
#
# Total GULP energy -694394.693476 kJ/mol
# GULP energy per Si atom -12399.905241 kJ/mol
# Density = 2.040756 g / cm^3
# Si number density = 20.454115 Si / 1000 Ang^3
#
#
#
# Elastic Constant Matrix: (Units=GPa)
#
#
# Indices 1 2 3 4 5 6 
#
# 1 61.7102 66.7867 2.4566 0.0000 0.0000 0.0000
# 2 66.7867 159.9186 6.1959 0.0000 0.0000 0.0000
# 3 2.4566 6.1959 39.9285 0.0000 0.0000 0.0000
# 4 0.0000 0.0000 0.0000 16.8716 0.0000 0.0000
# 5 0.0000 0.0000 0.0000 0.0000 8.4839 0.0000
# 6 0.0000 0.0000 0.0000 0.0000 0.0000 36.3639
#
#
#
# Elastic Compliance Matrix: (Units=1/GPa)
#
#
# Indices 1 2 3 4 5 6 
#
# 1 0.029570 -0.012353 0.000098 0.000000 0.000000 0.000000
# 2 -0.012353 0.011452 -0.001017 0.000000 0.000000 0.000000
# 3 0.000098 -0.001017 0.025197 0.000000 0.000000 0.000000
# 4 0.000000 0.000000 0.000000 0.059271 0.000000 0.000000
# 5 0.000000 0.000000 0.000000 0.000000 0.117870 0.000000
# 6 0.000000 0.000000 0.000000 0.000000 0.000000 0.027500
#
#
# Mechanical properties :
#
#
# Convention : Reuss Voigt Hill
#
# Bulk Modulus (GPa) = 25.20586 45.82620 35.51603
# Shear Modulus (GPa) = 16.09637 24.75176 20.42407
#
# Velocity S-wave (km/s) = 2.80831 3.48244 3.16338
# Velocity P-wave (km/s) = 4.78177 6.21473 5.54474
#
# Compressibility (1/GPa) = 0.03967332
#
# Stress axis : x y z
#
# Youngs Moduli (GPa) = 33.81759 87.32348 39.68798
#
# Poissons Ratio (x) = 1.07873 -0.00387
# Poissons Ratio (y) = 0.41776 0.04036
# Poissons Ratio (z) = -0.00330 0.08880
#
# Static dielectric constant tensor:
#      x y z
#    x 3.438470 0.000000 0.000000 
#    y 0.000000 4.081390 0.000000 
#    z 0.000000 0.000000 3.439110 
# 
# 
# High freq. dielectric constant tensor:
#      x y z
#    x 1.772420 0.000000 0.000000 
#    y 0.000000 1.819140 0.000000 
#    z 0.000000 0.000000 1.779170 
# 
# From -- ./inp_files/8722.got.cif
#   From: 2010.03.12/outbox.cif.g09.slc.cpg/sg55_5_cif.got.tgz:8722.got - 2010.04.16 15:19:21.
