data_PCOD8225404
_publ_section_title
;
Structure prediction by ZEFSAII (Michael W. Deem and Ramdas Pophale) SiO2 
 PCOD8225404
Probable space group: P B A M
;
_chemical_formula_sum "Si O2"
_cell_formula_units_Z 64
_cell_length_a 19.150762
_cell_length_b 8.098318
_cell_length_c 20.739457
_cell_angle_alpha 90.000000
_cell_angle_beta 90.000000
_cell_angle_gamma 90.000000
_cell_volume 3216.460830
_symmetry_space_group_name_H-M "P B A M"
_symmetry_group_IT_number 55
_symmetry_cell_setting 'orthorhombic'
loop_
_space_group_symop_operation_xyz
x,y,z
-x,-y,z
1/2+x,1/2-y,-z
1/2-x,1/2+y,-z
-x,-y,-z
x,y,-z
1/2-x,1/2+y,z
1/2+x,1/2-y,z
loop_
_atom_site_type_symbol
_atom_site_label
_atom_site_fract_x
_atom_site_fract_y
_atom_site_fract_z
Si Si1 0.899796 0.124117 0.428359
Si Si2 0.147664 0.373217 0.929140
Si Si3 0.794667 0.038504 0.674302
Si Si4 0.777316 0.933829 0.882905
Si Si5 0.648949 0.167937 0.321201
Si Si6 0.919648 0.515442 0.802774
Si Si7 0.179722 0.775357 0.194860
Si Si8 0.453594 0.746918 0.572366
O O1 0.874245 0.171365 0.500000
O O2 0.834279 0.141763 0.381175
O O3 0.964246 0.244011 0.408069
O O4 0.925998 0.937745 0.427129
O O5 0.176330 0.186662 0.925880
O O6 0.211098 0.502394 0.923311
O O7 0.091055 0.400931 0.872856
O O8 0.113295 0.396842 0.000000
O O9 0.711446 0.041409 0.661134
O O10 0.809631 0.138504 0.738109
O O11 0.821414 0.852813 0.679724
O O12 0.747047 0.840642 0.819266
O O13 0.825650 0.086433 0.861001
O O14 0.618344 0.126431 0.250935
O O15 0.589274 0.145068 0.375726
O O16 0.890784 0.329484 0.803970
O O17 0.000000 0.500000 0.785808
O O18 0.444496 0.821502 0.500000
#
# Coordination Sequence:
#
# PCOD8225404 Si02
#       8
#     8   8   8   8   8   8   8   8
#     4   8  16  31  52  79 111 148 191 231 281 345
#     4  10  19  35  60  87 116 148 184 229 281 340
#     4  11  20  33  58  85 111 148 191 242 299 340
#     4   9  18  34  58  88 114 141 183 231 281 332
#     4  11  22  36  57  85 114 148 192 243 293 351
#     4  11  25  40  55  79 114 154 192 239 292 346
#     4  10  19  34  56  79 114 146 181 235 284 334
#     4   8  16  33  54  78 111 150 188 234 283 343
#
# _framework density 19.897646999999999
#
# number of rings (size 3 to 8) (size 9 to 14) (size 15 to 20)
#    0.000    2.250    0.000    5.625    1.750    0.750 
#    0.000    2.500    0.000    3.375    0.000    0.000 
#    0.000    0.000    0.000    0.000    0.000    0.000 
#
# Total GULP energy -793448.020631 kJ/mol
# GULP energy per Si atom -12397.625322 kJ/mol
# Density = 1.985236 g / cm^3
# Si number density = 19.897647 Si / 1000 Ang^3
#
#
#
# Elastic Constant Matrix: (Units=GPa)
#
#
# Indices 1 2 3 4 5 6 
#
# 1 110.6579 27.7651 55.2585 0.0000 0.0000 0.0000
# 2 27.7651 78.8332 26.9061 0.0000 0.0000 0.0000
# 3 55.2585 26.9061 132.5156 0.0000 0.0000 0.0000
# 4 0.0000 0.0000 0.0000 3.4749 0.0000 0.0000
# 5 0.0000 0.0000 0.0000 0.0000 23.2227 0.0000
# 6 0.0000 0.0000 0.0000 0.0000 0.0000 8.2789
#
#
#
# Elastic Compliance Matrix: (Units=1/GPa)
#
#
# Indices 1 2 3 4 5 6 
#
# 1 0.011921 -0.002688 -0.004425 0.000000 0.000000 0.000000
# 2 -0.002688 0.014236 -0.001769 0.000000 0.000000 0.000000
# 3 -0.004425 -0.001769 0.009751 0.000000 0.000000 0.000000
# 4 0.000000 0.000000 0.000000 0.287776 0.000000 0.000000
# 5 0.000000 0.000000 0.000000 0.000000 0.043061 0.000000
# 6 0.000000 0.000000 0.000000 0.000000 0.000000 0.120789
#
#
# Mechanical properties :
#
#
# Convention : Reuss Voigt Hill
#
# Bulk Modulus (GPa) = 55.12123 60.20737 57.66430
# Shear Modulus (GPa) = 9.77808 21.13376 15.45592
#
# Velocity S-wave (km/s) = 2.21920 3.26256 2.79009
# Velocity P-wave (km/s) = 5.85910 6.67208 6.27876
#
# Compressibility (1/GPa) = 0.01814183
#
# Stress axis : x y z
#
# Youngs Moduli (GPa) = 83.88426 70.24565 102.55502
#
# Poissons Ratio (x) = 0.18884 0.45383
# Poissons Ratio (y) = 0.22551 0.18146
# Poissons Ratio (z) = 0.37121 0.12430
#
# Static dielectric constant tensor:
#      x y z
#    x 3.677460 0.000000 0.000000 
#    y 0.000000 3.704170 0.000000 
#    z 0.000000 0.000000 3.751220 
# 
# 
# High freq. dielectric constant tensor:
#      x y z
#    x 1.753050 0.000000 0.000000 
#    y 0.000000 1.773920 0.000000 
#    z 0.000000 0.000000 1.780050 
# 
# From -- ./inp_files/23079.got.cif
#   From: 2010.03.12/outbox.cif.g09.slc.cpg/sg55_12_cif.got.tgz:23079.got - 2010.04.16 15:19:21.
