data_PCOD8225674
_publ_section_title
;
Structure prediction by ZEFSAII (Michael W. Deem and Ramdas Pophale) SiO2 
 PCOD8225674
Probable space group: P B A M
;
_chemical_formula_sum "Si O2"
_cell_formula_units_Z 64
_cell_length_a 19.369404
_cell_length_b 19.078302
_cell_length_c 8.933428
_cell_angle_alpha 90.000000
_cell_angle_beta 90.000000
_cell_angle_gamma 90.000000
_cell_volume 3301.217345
_symmetry_space_group_name_H-M "P B A M"
_symmetry_group_IT_number 55
_symmetry_cell_setting 'orthorhombic'
loop_
_space_group_symop_operation_xyz
x,y,z
-x,-y,z
1/2+x,1/2-y,-z
1/2-x,1/2+y,-z
-x,-y,-z
x,y,-z
1/2-x,1/2+y,z
1/2+x,1/2-y,z
loop_
_atom_site_type_symbol
_atom_site_label
_atom_site_fract_x
_atom_site_fract_y
_atom_site_fract_z
Si Si1 0.539398 0.646377 0.674122
Si Si2 0.963914 0.398301 0.823475
Si Si3 0.879266 0.267860 0.177723
Si Si4 0.384660 0.631838 0.321787
Si Si5 0.733344 0.104648 0.322837
Si Si6 0.264431 0.736454 0.678013
Si Si7 0.865424 0.023615 0.674144
Si Si8 0.103849 0.460325 0.823131
O O1 0.546150 0.666655 0.500000
O O2 0.592720 0.693943 0.765279
O O3 0.460993 0.655488 0.733030
O O4 0.563068 0.565754 0.700005
O O5 0.933732 0.325611 0.763397
O O6 0.918505 0.463166 0.764681
O O7 0.043752 0.405569 0.775444
O O8 0.959884 0.402282 0.000000
O O9 0.806117 0.289770 0.247662
O O10 0.872228 0.266522 0.000000
O O11 0.385833 0.628321 0.500000
O O12 0.327597 0.687492 0.264896
O O13 0.368978 0.554350 0.254127
O O14 0.735354 0.105509 0.500000
O O15 0.723620 0.184175 0.265025
O O16 0.802846 0.069454 0.256523
O O17 0.671463 0.057716 0.266745
O O18 0.257247 0.731853 0.500000
O O19 0.850658 0.013698 0.500000
O O20 0.118204 0.457946 0.000000
#
# Coordination Sequence:
#
# PCOD8225674 Si02
#       8
#     8   8   8   8   8   8   8   8
#     4  10  19  36  59  82 107 142 183 224 270 319
#     4   8  18  36  55  76 104 138 180 224 262 313
#     4  11  22  36  55  79 109 144 180 219 268 322
#     4   9  19  33  58  85 106 139 184 226 266 318
#     4  10  20  33  51  80 115 141 169 222 271 312
#     4  10  21  38  54  78 112 143 178 221 268 319
#     4   9  17  33  54  80 110 141 179 220 266 318
#     4   9  18  36  58  76 100 141 184 218 261 321
#
# _framework density 19.386787000000002
#
# number of rings (size 3 to 8) (size 9 to 14) (size 15 to 20)
#    0.000    2.500    1.250    1.500    3.500    2.000 
#    0.000    3.125    0.000    3.000    0.000    0.000 
#    0.000    0.000    0.000    0.000    0.000    0.000 
#
# Total GULP energy -793379.256956 kJ/mol
# GULP energy per Si atom -12396.550890 kJ/mol
# Density = 1.934266 g / cm^3
# Si number density = 19.386787 Si / 1000 Ang^3
#
#
#
# Elastic Constant Matrix: (Units=GPa)
#
#
# Indices 1 2 3 4 5 6 
#
# 1 139.1632 49.0302 16.6237 0.0000 0.0000 0.0000
# 2 49.0302 88.6081 10.8915 0.0000 0.0000 0.0000
# 3 16.6237 10.8915 12.5899 0.0000 0.0000 0.0000
# 4 0.0000 0.0000 0.0000 15.1148 0.0000 0.0000
# 5 0.0000 0.0000 0.0000 0.0000 18.2695 0.0000
# 6 0.0000 0.0000 0.0000 0.0000 0.0000 35.0972
#
#
#
# Elastic Compliance Matrix: (Units=1/GPa)
#
#
# Indices 1 2 3 4 5 6 
#
# 1 0.009799 -0.004288 -0.009229 0.000000 0.000000 0.000000
# 2 -0.004288 0.014505 -0.006887 0.000000 0.000000 0.000000
# 3 -0.009229 -0.006887 0.097572 0.000000 0.000000 0.000000
# 4 0.000000 0.000000 0.000000 0.066160 0.000000 0.000000
# 5 0.000000 0.000000 0.000000 0.000000 0.054736 0.000000
# 6 0.000000 0.000000 0.000000 0.000000 0.000000 0.028492
#
#
# Mechanical properties :
#
#
# Convention : Reuss Voigt Hill
#
# Bulk Modulus (GPa) = 12.33515 43.71689 28.02602
# Shear Modulus (GPa) = 14.74515 24.61735 19.68125
#
# Velocity S-wave (km/s) = 2.76085 3.56729 3.18966
# Velocity P-wave (km/s) = 4.06688 6.29017 5.29650
#
# Compressibility (1/GPa) = 0.08106914
#
# Stress axis : x y z
#
# Youngs Moduli (GPa) = 102.05217 68.94340 10.24880
#
# Poissons Ratio (x) = 0.29561 0.09459
# Poissons Ratio (y) = 0.43757 0.07058
# Poissons Ratio (z) = 0.94186 0.47478
#
# Static dielectric constant tensor:
#      x y z
#    x 3.730480 0.000000 0.000000 
#    y 0.000000 3.916840 0.000000 
#    z 0.000000 0.000000 3.012390 
# 
# 
# High freq. dielectric constant tensor:
#      x y z
#    x 1.767990 0.000000 0.000000 
#    y 0.000000 1.764250 0.000000 
#    z 0.000000 0.000000 1.703400 
# 
# From -- ./inp_files/15033.got.cif
#   From: 2010.03.12/outbox.cif.g09.slc.cpg/sg55_8_cif.got.tgz:15033.got - 2010.04.16 15:19:21.
