data_PCOD8225776
_publ_section_title
;
Structure prediction by ZEFSAII (Michael W. Deem and Ramdas Pophale) SiO2 
 PCOD8225776
Probable space group: P B A M
;
_chemical_formula_sum "Si O2"
_cell_formula_units_Z 64
_cell_length_a 30.347109
_cell_length_b 11.955925
_cell_length_c 9.037787
_cell_angle_alpha 90.000000
_cell_angle_beta 90.000000
_cell_angle_gamma 90.000000
_cell_volume 3279.160005
_symmetry_space_group_name_H-M "P B A M"
_symmetry_group_IT_number 55
_symmetry_cell_setting 'orthorhombic'
loop_
_space_group_symop_operation_xyz
x,y,z
-x,-y,z
1/2+x,1/2-y,-z
1/2-x,1/2+y,-z
-x,-y,-z
x,y,-z
1/2-x,1/2+y,z
1/2+x,1/2-y,z
loop_
_atom_site_type_symbol
_atom_site_label
_atom_site_fract_x
_atom_site_fract_y
_atom_site_fract_z
Si Si1 0.374757 0.098903 0.825761
Si Si2 0.697942 0.487155 0.325674
Si Si3 0.324181 0.731822 0.164962
Si Si4 0.450895 0.510486 0.175282
Si Si5 0.712061 0.032473 0.172485
Si Si6 0.575964 0.246751 0.166491
Si Si7 0.950515 0.536111 0.670014
Si Si8 0.127819 0.856896 0.175291
O O1 0.418023 0.045700 0.755864
O O2 0.371923 0.227983 0.776373
O O3 0.330960 0.034721 0.772177
O O4 0.380287 0.087529 0.000000
O O5 0.696071 0.503773 0.500000
O O6 0.679740 0.364935 0.285152
O O7 0.747792 0.490410 0.270049
O O8 0.669351 0.583771 0.250257
O O9 0.292094 0.834823 0.201011
O O10 0.372772 0.783887 0.168559
O O11 0.314471 0.683387 0.000000
O O12 0.500000 0.500000 0.243934
O O13 0.430923 0.628256 0.227263
O O14 0.418000 0.412964 0.231705
O O15 0.453575 0.503167 0.000000
O O16 0.720849 0.007203 0.000000
O O17 0.550962 0.162677 0.272939
O O18 0.556914 0.235427 0.000000
O O19 0.936800 0.532831 0.500000
O O20 0.000000 0.500000 0.698086
O O21 0.133191 0.871663 0.000000
#
# Coordination Sequence:
#
# PCOD8225776 Si02
#       8
#     8   8   8   8   8   8   8   8
#     4  10  22  41  66  92 115 153 208 256 299 349
#     4  12  26  40  59  90 126 161 199 240 296 369
#     4  10  20  40  66  88 115 153 200 255 303 347
#     4   9  18  33  58  93 122 148 190 250 307 343
#     4  10  22  41  63  89 118 153 204 256 304 352
#     4  10  19  37  65  90 116 151 205 261 295 344
#     4  11  25  41  58  86 128 168 198 238 301 367
#     4  10  21  40  63  88 122 159 200 250 299 353
#
# _framework density 19.517194
#
# number of rings (size 3 to 8) (size 9 to 14) (size 15 to 20)
#    0.000    1.750    2.500    1.500    3.500    3.000 
#    0.000    0.000    0.000    0.750    0.000    0.000 
#    0.000    0.000    0.000    0.000    0.000    0.000 
#
# Total GULP energy -793757.739256 kJ/mol
# GULP energy per Si atom -12402.464676 kJ/mol
# Density = 1.947277 g / cm^3
# Si number density = 19.517194 Si / 1000 Ang^3
#
#
#
# Elastic Constant Matrix: (Units=GPa)
#
#
# Indices 1 2 3 4 5 6 
#
# 1 87.0898 46.2236 43.8311 0.0000 0.0000 0.0000
# 2 46.2236 117.9597 38.1498 0.0000 0.0000 0.0000
# 3 43.8311 38.1498 51.1013 0.0000 0.0000 0.0000
# 4 0.0000 0.0000 0.0000 12.6120 0.0000 0.0000
# 5 0.0000 0.0000 0.0000 0.0000 19.8573 0.0000
# 6 0.0000 0.0000 0.0000 0.0000 0.0000 29.4441
#
#
#
# Elastic Compliance Matrix: (Units=1/GPa)
#
#
# Indices 1 2 3 4 5 6 
#
# 1 0.021072 -0.003179 -0.015700 0.000000 0.000000 0.000000
# 2 -0.003179 0.011656 -0.005974 0.000000 0.000000 0.000000
# 3 -0.015700 -0.005974 0.037496 0.000000 0.000000 0.000000
# 4 0.000000 0.000000 0.000000 0.079290 0.000000 0.000000
# 5 0.000000 0.000000 0.000000 0.000000 0.050359 0.000000
# 6 0.000000 0.000000 0.000000 0.000000 0.000000 0.033963
#
#
# Mechanical properties :
#
#
# Convention : Reuss Voigt Hill
#
# Bulk Modulus (GPa) = 48.74510 56.95111 52.84810
# Shear Modulus (GPa) = 17.21879 20.91243 19.06561
#
# Velocity S-wave (km/s) = 2.97347 3.27691 3.12887
# Velocity P-wave (km/s) = 6.06782 6.60006 6.33953
#
# Compressibility (1/GPa) = 0.02051488
#
# Stress axis : x y z
#
# Youngs Moduli (GPa) = 47.45734 85.79589 26.66984
#
# Poissons Ratio (x) = 0.27279 0.41872
# Poissons Ratio (y) = 0.15089 0.15934
# Poissons Ratio (z) = 0.74508 0.51258
#
# Static dielectric constant tensor:
#      x y z
#    x 3.661470 0.000000 0.000000 
#    y 0.000000 3.649650 0.000000 
#    z 0.000000 0.000000 3.305360 
# 
# 
# High freq. dielectric constant tensor:
#      x y z
#    x 1.769340 0.000000 0.000000 
#    y 0.000000 1.773400 0.000000 
#    z 0.000000 0.000000 1.729970 
# 
# From -- ./inp_files/10756.got.cif
#   From: 2010.03.12/outbox.cif.g09.slc.cpg/sg55_6_cif.got.tgz:10756.got - 2010.04.16 15:19:21.
