data_PCOD8225528
_publ_section_title
;
Structure prediction by ZEFSAII (Michael W. Deem and Ramdas Pophale) SiO2 
 PCOD8225528
Probable space group: P B A M
;
_chemical_formula_sum "Si O2"
_cell_formula_units_Z 56
_cell_length_a 12.855796
_cell_length_b 15.070869
_cell_length_c 13.506326
_cell_angle_alpha 90.000000
_cell_angle_beta 90.000000
_cell_angle_gamma 90.000000
_cell_volume 2616.823885
_symmetry_space_group_name_H-M "P B A M"
_symmetry_group_IT_number 55
_symmetry_cell_setting 'orthorhombic'
loop_
_space_group_symop_operation_xyz
x,y,z
-x,-y,z
1/2+x,1/2-y,-z
1/2-x,1/2+y,-z
-x,-y,-z
x,y,-z
1/2-x,1/2+y,z
1/2+x,1/2-y,z
loop_
_atom_site_type_symbol
_atom_site_label
_atom_site_fract_x
_atom_site_fract_y
_atom_site_fract_z
Si Si1 0.290490 0.532607 0.113461
Si Si2 0.910329 0.120431 0.195110
Si Si3 0.123774 0.503579 0.269086
Si Si4 0.255271 0.149115 0.614829
Si Si5 0.901681 0.789502 0.890735
Si Si6 0.204980 0.317643 0.265058
Si Si7 0.025520 0.100201 0.392562
O O1 0.387362 0.482976 0.169062
O O2 0.178356 0.513084 0.161977
O O3 0.311918 0.636987 0.123383
O O4 0.286311 0.501044 0.000000
O O5 0.798982 0.167739 0.188221
O O6 0.985859 0.164157 0.115354
O O7 0.953239 0.137923 0.306154
O O8 0.155800 0.588338 0.335341
O O9 0.165480 0.409808 0.315574
O O10 0.000000 0.500000 0.257260
O O11 0.282168 0.151869 0.500000
O O12 0.246593 0.250317 0.651919
O O13 0.145228 0.104587 0.640412
O O14 0.889394 0.718353 0.803112
O O15 0.893545 0.746052 0.000000
O O16 0.008892 0.149884 0.500000
O O17 0.000000 0.000000 0.410713
#
# Coordination Sequence:
#
# PCOD8225528 Si02
#       7
#     8   8   8   8   8   8   8
#     4  10  21  40  66  96 129 173 225 280 343 407
#     4  11  21  37  63  90 131 168 218 284 333 405
#     4  11  25  44  69  97 141 183 223 279 344 408
#     4  11  24  45  68  94 132 173 227 278 332 401
#     4  11  22  38  64  94 127 171 227 284 342 403
#     4  11  25  41  64  96 134 178 223 278 336 404
#     4  10  19  34  63  94 118 155 207 268 334 390
#
# _framework density 21.399988
#
# number of rings (size 3 to 8) (size 9 to 14) (size 15 to 20)
#    0.000    1.286    2.857    3.429    2.000    5.714 
#    0.000    2.857    0.000    0.000    0.000    0.000 
#    0.000    0.000    0.000    0.000    0.000    0.000 
#
# Total GULP energy -694206.633772 kJ/mol
# GULP energy per Si atom -12396.547032 kJ/mol
# Density = 2.135128 g / cm^3
# Si number density = 21.399988 Si / 1000 Ang^3
#
#
#
# Elastic Constant Matrix: (Units=GPa)
#
#
# Indices 1 2 3 4 5 6 
#
# 1 109.9057 25.3892 27.3505 0.0000 0.0000 0.0000
# 2 25.3892 82.1109 19.4981 0.0000 0.0000 0.0000
# 3 27.3505 19.4981 109.7646 0.0000 0.0000 0.0000
# 4 0.0000 0.0000 0.0000 24.7960 0.0000 0.0000
# 5 0.0000 0.0000 0.0000 0.0000 25.3579 0.0000
# 6 0.0000 0.0000 0.0000 0.0000 0.0000 25.0935
#
#
#
# Elastic Compliance Matrix: (Units=1/GPa)
#
#
# Indices 1 2 3 4 5 6 
#
# 1 0.010232 -0.002671 -0.002075 0.000000 0.000000 0.000000
# 2 -0.002671 0.013412 -0.001717 0.000000 0.000000 0.000000
# 3 -0.002075 -0.001717 0.009932 0.000000 0.000000 0.000000
# 4 0.000000 0.000000 0.000000 0.040329 0.000000 0.000000
# 5 0.000000 0.000000 0.000000 0.000000 0.039436 0.000000
# 6 0.000000 0.000000 0.000000 0.000000 0.000000 0.039851
#
#
# Mechanical properties :
#
#
# Convention : Reuss Voigt Hill
#
# Bulk Modulus (GPa) = 48.42468 49.58409 49.00438
# Shear Modulus (GPa) = 28.90137 30.35237 29.62687
#
# Velocity S-wave (km/s) = 3.67895 3.77017 3.72483
# Velocity P-wave (km/s) = 6.38151 6.49405 6.43802
#
# Compressibility (1/GPa) = 0.02065063
#
# Stress axis : x y z
#
# Youngs Moduli (GPa) = 97.73111 74.55853 100.68005
#
# Poissons Ratio (x) = 0.19915 0.20892
# Poissons Ratio (y) = 0.26105 0.17286
# Poissons Ratio (z) = 0.20280 0.12801
#
# Static dielectric constant tensor:
#      x y z
#    x 3.738200 0.000000 0.000000 
#    y 0.000000 3.710360 0.000000 
#    z 0.000000 0.000000 4.056210 
# 
# 
# High freq. dielectric constant tensor:
#      x y z
#    x 1.835140 0.000000 0.000000 
#    y 0.000000 1.831460 0.000000 
#    z 0.000000 0.000000 1.838950 
# 
# From -- ./inp_files/18369.got.cif
#   From: 2010.03.12/outbox.cif.g09.slc.cpg/sg55_10_cif.got.tgz:18369.got - 2010.04.16 15:19:21.
