data_PCOD8225847
_publ_section_title
;
Structure prediction by ZEFSAII (Michael W. Deem and Ramdas Pophale) SiO2 
 PCOD8225847
Probable space group: P B A M
;
_chemical_formula_sum "Si O2"
_cell_formula_units_Z 56
_cell_length_a 14.073683
_cell_length_b 14.429761
_cell_length_c 16.230422
_cell_angle_alpha 90.000000
_cell_angle_beta 90.000000
_cell_angle_gamma 90.000000
_cell_volume 3296.072186
_symmetry_space_group_name_H-M "P B A M"
_symmetry_group_IT_number 55
_symmetry_cell_setting 'orthorhombic'
loop_
_space_group_symop_operation_xyz
x,y,z
-x,-y,z
1/2+x,1/2-y,-z
1/2-x,1/2+y,-z
-x,-y,-z
x,y,-z
1/2-x,1/2+y,z
1/2+x,1/2-y,z
loop_
_atom_site_type_symbol
_atom_site_label
_atom_site_fract_x
_atom_site_fract_y
_atom_site_fract_z
Si Si1 0.187376 0.322757 0.203994
Si Si2 0.012595 0.392838 0.096618
Si Si3 0.526005 0.594334 0.147877
Si Si4 0.391223 0.654442 0.281381
Si Si5 0.352312 0.247096 0.091510
Si Si6 0.541057 0.602467 0.591609
Si Si7 0.176528 0.958186 0.715964
O O1 0.100033 0.351204 0.146946
O O2 0.160879 0.253443 0.278301
O O3 0.265953 0.266892 0.151939
O O4 0.227112 0.416386 0.246361
O O5 0.000000 0.500000 0.119110
O O6 0.914594 0.340899 0.121581
O O7 0.034282 0.378512 0.000000
O O8 0.500000 0.500000 0.097675
O O9 0.435590 0.643758 0.189595
O O10 0.578417 0.664016 0.086952
O O11 0.589768 0.559062 0.223046
O O12 0.469877 0.664014 0.353209
O O13 0.317058 0.569586 0.298182
O O14 0.312093 0.228990 0.000000
O O15 0.500000 0.500000 0.588253
O O16 0.549273 0.645704 0.500000
O O17 0.646590 0.595558 0.631818
#
# Coordination Sequence:
#
# PCOD8225847 Si02
#       7
#     8   8   8   8   8   8   8
#     4  11  20  32  53  71 100 133 172 213 256 297
#     4  10  22  38  52  70 100 138 178 215 259 314
#     4   8  14  29  47  66  92 117 153 207 255 295
#     4   9  16  29  48  72  96 126 166 202 247 296
#     4  10  20  33  48  69  95 128 171 215 258 301
#     4   8  14  29  52  74 100 128 155 201 258 303
#     4   8  17  28  46  75  98 123 160 204 248 298
#
# _framework density 16.989919
#
# number of rings (size 3 to 8) (size 9 to 14) (size 15 to 20)
#    0.000    2.857    1.429    2.143    2.000    0.286 
#    0.000    0.714    0.000    0.000    0.000    0.000 
#    0.000    2.286    0.000    0.000    0.000    0.000 
#
# Total GULP energy -693951.356399 kJ/mol
# GULP energy per Si atom -12391.988507 kJ/mol
# Density = 1.695125 g / cm^3
# Si number density = 16.989919 Si / 1000 Ang^3
#
#
#
# Elastic Constant Matrix: (Units=GPa)
#
#
# Indices 1 2 3 4 5 6 
#
# 1 62.4148 31.8148 35.8070 0.0000 0.0000 0.0000
# 2 31.8148 90.0628 25.5081 0.0000 0.0000 0.0000
# 3 35.8070 25.5081 72.8354 0.0000 0.0000 0.0000
# 4 0.0000 0.0000 0.0000 14.7686 0.0000 0.0000
# 5 0.0000 0.0000 0.0000 0.0000 15.9836 0.0000
# 6 0.0000 0.0000 0.0000 0.0000 0.0000 25.9937
#
#
#
# Elastic Compliance Matrix: (Units=1/GPa)
#
#
# Indices 1 2 3 4 5 6 
#
# 1 0.024856 -0.005905 -0.010151 0.000000 0.000000 0.000000
# 2 -0.005905 0.013729 -0.001905 0.000000 0.000000 0.000000
# 3 -0.010151 -0.001905 0.019387 0.000000 0.000000 0.000000
# 4 0.000000 0.000000 0.000000 0.067711 0.000000 0.000000
# 5 0.000000 0.000000 0.000000 0.000000 0.062564 0.000000
# 6 0.000000 0.000000 0.000000 0.000000 0.000000 0.038471
#
#
# Mechanical properties :
#
#
# Convention : Reuss Voigt Hill
#
# Bulk Modulus (GPa) = 45.35385 45.73031 45.54208
# Shear Modulus (GPa) = 18.51917 20.16140 19.34028
#
# Velocity S-wave (km/s) = 3.30511 3.44854 3.37759
# Velocity P-wave (km/s) = 6.42787 6.54455 6.48647
#
# Compressibility (1/GPa) = 0.02204884
#
# Stress axis : x y z
#
# Youngs Moduli (GPa) = 40.23230 72.83891 51.58012
#
# Poissons Ratio (x) = 0.43013 0.52361
# Poissons Ratio (y) = 0.23758 0.09826
# Poissons Ratio (z) = 0.40841 0.13876
#
# Static dielectric constant tensor:
#      x y z
#    x 3.012960 0.000000 0.000000 
#    y 0.000000 3.253370 0.000000 
#    z 0.000000 0.000000 3.149580 
# 
# 
# High freq. dielectric constant tensor:
#      x y z
#    x 1.636610 0.000000 0.000000 
#    y 0.000000 1.651860 0.000000 
#    z 0.000000 0.000000 1.631150 
# 
# From -- ./inp_files/19030.got.cif
#   From: 2010.03.12/outbox.cif.g09.slc.cpg/sg55_10_cif.got.tgz:19030.got - 2010.04.16 15:19:21.
