data_PCOD8225464
_publ_section_title
;
Structure prediction by ZEFSAII (Michael W. Deem and Ramdas Pophale) SiO2 
 PCOD8225464
Probable space group: P B A M
;
_chemical_formula_sum "Si O2"
_cell_formula_units_Z 56
_cell_length_a 14.140967
_cell_length_b 22.784455
_cell_length_c 8.660204
_cell_angle_alpha 90.000000
_cell_angle_beta 90.000000
_cell_angle_gamma 90.000000
_cell_volume 2790.267727
_symmetry_space_group_name_H-M "P B A M"
_symmetry_group_IT_number 55
_symmetry_cell_setting 'orthorhombic'
loop_
_space_group_symop_operation_xyz
x,y,z
-x,-y,z
1/2+x,1/2-y,-z
1/2-x,1/2+y,-z
-x,-y,-z
x,y,-z
1/2-x,1/2+y,z
1/2+x,1/2-y,z
loop_
_atom_site_type_symbol
_atom_site_label
_atom_site_fract_x
_atom_site_fract_y
_atom_site_fract_z
Si Si1 0.086316 0.357171 0.819040
Si Si2 0.362051 0.738709 0.330649
Si Si3 0.195908 0.124947 0.180921
Si Si4 0.650982 0.722506 0.666685
Si Si5 0.777253 0.104149 0.683493
Si Si6 0.609060 0.488715 0.679845
Si Si7 0.394950 0.154967 0.315376
O O1 0.095892 0.288765 0.778041
O O2 0.171352 0.396303 0.750347
O O3 0.986748 0.379679 0.747619
O O4 0.085051 0.366443 0.000000
O O5 0.412287 0.738938 0.500000
O O6 0.372719 0.675159 0.251037
O O7 0.252773 0.749261 0.356924
O O8 0.145857 0.063716 0.215760
O O9 0.301084 0.124012 0.251706
O O10 0.204782 0.135320 0.000000
O O11 0.604272 0.709331 0.500000
O O12 0.662692 0.659924 0.754785
O O13 0.594362 0.776417 0.746635
O O14 0.769036 0.113071 0.500000
O O15 0.830950 0.045496 0.729763
O O16 0.500000 0.500000 0.717327
O O17 0.624225 0.473829 0.500000
O O18 0.391811 0.153303 0.500000
#
# Coordination Sequence:
#
# PCOD8225464 Si02
#       7
#     8   8   8   8   8   8   8
#     4  11  21  33  53  86 122 151 185 232 288 341
#     4   9  17  33  55  78 108 148 190 226 270 331
#     4  11  22  37  57  84 118 150 186 238 294 339
#     4   7  13  27  50  77 102 135 179 224 264 311
#     4   9  18  36  58  80 110 148 191 234 278 335
#     4  10  22  40  62  85 108 143 193 239 280 338
#     4  10  19  34  57  84 116 154 191 226 276 344
#
# _framework density 20.069759000000001
#
# number of rings (size 3 to 8) (size 9 to 14) (size 15 to 20)
#    0.000    2.429    0.000    5.143    0.000    2.000 
#    0.000    4.286    0.000    4.286    0.000    0.000 
#    0.000    0.000    0.000    0.000    0.000    0.000 
#
# Total GULP energy -693881.214497 kJ/mol
# GULP energy per Si atom -12390.735973 kJ/mol
# Density = 2.002408 g / cm^3
# Si number density = 20.069759 Si / 1000 Ang^3
#
#
#
# Elastic Constant Matrix: (Units=GPa)
#
#
# Indices 1 2 3 4 5 6 
#
# 1 76.5246 21.8575 21.4087 0.0000 0.0000 0.0000
# 2 21.8575 96.3650 27.1243 0.0000 0.0000 0.0000
# 3 21.4087 27.1243 88.3903 0.0000 0.0000 0.0000
# 4 0.0000 0.0000 0.0000 24.3145 0.0000 0.0000
# 5 0.0000 0.0000 0.0000 0.0000 21.2028 0.0000
# 6 0.0000 0.0000 0.0000 0.0000 0.0000 21.6907
#
#
#
# Elastic Compliance Matrix: (Units=1/GPa)
#
#
# Indices 1 2 3 4 5 6 
#
# 1 0.014559 -0.002528 -0.002751 0.000000 0.000000 0.000000
# 2 -0.002528 0.011797 -0.003008 0.000000 0.000000 0.000000
# 3 -0.002751 -0.003008 0.012903 0.000000 0.000000 0.000000
# 4 0.000000 0.000000 0.000000 0.041128 0.000000 0.000000
# 5 0.000000 0.000000 0.000000 0.000000 0.047164 0.000000
# 6 0.000000 0.000000 0.000000 0.000000 0.000000 0.046103
#
#
# Mechanical properties :
#
#
# Convention : Reuss Voigt Hill
#
# Bulk Modulus (GPa) = 44.07984 44.67345 44.37665
# Shear Modulus (GPa) = 25.27952 26.16755 25.72354
#
# Velocity S-wave (km/s) = 3.55291 3.61478 3.58398
# Velocity P-wave (km/s) = 6.23233 6.30314 6.26783
#
# Compressibility (1/GPa) = 0.02268611
#
# Stress axis : x y z
#
# Youngs Moduli (GPa) = 68.68462 84.76522 77.50320
#
# Poissons Ratio (x) = 0.21430 0.21318
# Poissons Ratio (y) = 0.17364 0.23312
# Poissons Ratio (z) = 0.18892 0.25497
#
# Static dielectric constant tensor:
#      x y z
#    x 3.809530 0.000000 0.000000 
#    y 0.000000 3.645970 0.000000 
#    z 0.000000 0.000000 3.503560 
# 
# 
# High freq. dielectric constant tensor:
#      x y z
#    x 1.787950 0.000000 0.000000 
#    y 0.000000 1.768170 0.000000 
#    z 0.000000 0.000000 1.762370 
# 
# From -- ./inp_files/6089.got.cif
#   From: 2010.03.12/outbox.cif.g09.slc.cpg/sg55_4_cif.got.tgz:6089.got - 2010.04.16 15:19:21.
