data_PCOD8225758
_publ_section_title
;
Structure prediction by ZEFSAII (Michael W. Deem and Ramdas Pophale) SiO2 
 PCOD8225758
Probable space group: P B A M
;
_chemical_formula_sum "Si O2"
_cell_formula_units_Z 48
_cell_length_a 30.776555
_cell_length_b 8.935180
_cell_length_c 8.397143
_cell_angle_alpha 90.000000
_cell_angle_beta 90.000000
_cell_angle_gamma 90.000000
_cell_volume 2309.164435
_symmetry_space_group_name_H-M "P B A M"
_symmetry_group_IT_number 55
_symmetry_cell_setting 'orthorhombic'
loop_
_space_group_symop_operation_xyz
x,y,z
-x,-y,z
1/2+x,1/2-y,-z
1/2-x,1/2+y,-z
-x,-y,-z
x,y,-z
1/2-x,1/2+y,z
1/2+x,1/2-y,z
loop_
_atom_site_type_symbol
_atom_site_label
_atom_site_fract_x
_atom_site_fract_y
_atom_site_fract_z
Si Si1 0.793284 0.919804 0.689884
Si Si2 0.873484 0.425668 0.182399
Si Si3 0.043677 0.415358 0.685828
Si Si4 0.377373 0.400848 0.686608
Si Si5 0.455497 0.588535 0.817326
Si Si6 0.791402 0.585180 0.314047
O O1 0.792746 0.913766 0.500000
O O2 0.835084 0.011230 0.749342
O O3 0.750267 0.999967 0.759453
O O4 0.795589 0.751357 0.760665
O O5 0.916988 0.517050 0.214896
O O6 0.881590 0.253125 0.219754
O O7 0.834457 0.489518 0.287235
O O8 0.860387 0.445235 0.000000
O O9 0.053882 0.435074 0.500000
O O10 0.037447 0.243690 0.728626
O O11 0.000000 0.500000 0.735917
O O12 0.374259 0.366223 0.500000
O O13 0.419198 0.499433 0.721739
O O14 0.500000 0.500000 0.806899
O O15 0.441129 0.612765 0.000000
O O16 0.783449 0.601666 0.500000
#
# Coordination Sequence:
#
# PCOD8225758 Si02
#       6
#     8   8   8   8   8   8
#     4   9  19  35  61  91 117 151 197 250 300 352
#     4  12  25  40  59  87 122 159 199 248 308 362
#     4  11  24  42  65  91 118 155 205 253 295 349
#     4  11  22  39  63  90 120 158 205 251 296 353
#     4  11  24  41  62  91 127 162 195 239 299 360
#     4  10  19  37  62  88 118 154 199 246 298 360
#
# _framework density 20.786740000000002
#
# number of rings (size 3 to 8) (size 9 to 14) (size 15 to 20)
#    0.000    1.333    0.000    6.000    0.000    9.333 
#    0.000    5.000    0.000    0.000    0.000    0.000 
#    0.000    0.000    0.000    0.000    0.000    0.000 
#
# Total GULP energy -595478.699869 kJ/mol
# GULP energy per Si atom -12405.806247 kJ/mol
# Density = 2.073943 g / cm^3
# Si number density = 20.786740 Si / 1000 Ang^3
#
#
#
# Elastic Constant Matrix: (Units=GPa)
#
#
# Indices 1 2 3 4 5 6 
#
# 1 129.5947 49.7932 12.1090 0.0000 0.0000 0.0000
# 2 49.7932 138.1539 4.5735 0.0000 0.0000 0.0000
# 3 12.1090 4.5735 33.3081 0.0000 0.0000 0.0000
# 4 0.0000 0.0000 0.0000 8.5137 0.0000 0.0000
# 5 0.0000 0.0000 0.0000 0.0000 12.4707 0.0000
# 6 0.0000 0.0000 0.0000 0.0000 0.0000 35.2632
#
#
#
# Elastic Compliance Matrix: (Units=1/GPa)
#
#
# Indices 1 2 3 4 5 6 
#
# 1 0.009230 -0.003230 -0.002912 0.000000 0.000000 0.000000
# 2 -0.003230 0.008402 0.000021 0.000000 0.000000 0.000000
# 3 -0.002912 0.000021 0.031078 0.000000 0.000000 0.000000
# 4 0.000000 0.000000 0.000000 0.117458 0.000000 0.000000
# 5 0.000000 0.000000 0.000000 0.000000 0.080188 0.000000
# 6 0.000000 0.000000 0.000000 0.000000 0.000000 0.028358
#
#
# Mechanical properties :
#
#
# Convention : Reuss Voigt Hill
#
# Bulk Modulus (GPa) = 27.42186 48.22312 37.82249
# Shear Modulus (GPa) = 16.71614 26.88825 21.80219
#
# Velocity S-wave (km/s) = 2.83887 3.60047 3.24211
# Velocity P-wave (km/s) = 4.89553 6.36662 5.67891
#
# Compressibility (1/GPa) = 0.03646725
#
# Stress axis : x y z
#
# Youngs Moduli (GPa) = 108.34802 119.02200 32.17661
#
# Poissons Ratio (x) = 0.38445 0.09369
# Poissons Ratio (y) = 0.34997 -0.00066
# Poissons Ratio (z) = 0.31549 -0.00246
#
# Static dielectric constant tensor:
#      x y z
#    x 3.837660 0.000000 0.000000 
#    y 0.000000 4.008460 0.000000 
#    z 0.000000 0.000000 3.590630 
# 
# 
# High freq. dielectric constant tensor:
#      x y z
#    x 1.830040 0.000000 0.000000 
#    y 0.000000 1.834780 0.000000 
#    z 0.000000 0.000000 1.795290 
# 
# From -- ./inp_files/10490.got.cif
#   From: 2010.03.12/outbox.cif.g09.slc.cpg/sg55_6_cif.got.tgz:10490.got - 2010.04.16 15:19:21.
