data_PCOD8225145
_publ_section_title
;
Structure prediction by ZEFSAII (Michael W. Deem and Ramdas Pophale) SiO2 
 PCOD8225145
Probable space group: P B A M
;
_chemical_formula_sum "Si O2"
_cell_formula_units_Z 64
_cell_length_a 25.090722
_cell_length_b 14.728113
_cell_length_c 8.810343
_cell_angle_alpha 90.000000
_cell_angle_beta 90.000000
_cell_angle_gamma 90.000000
_cell_volume 3255.765244
_symmetry_space_group_name_H-M "P B A M"
_symmetry_group_IT_number 55
_symmetry_cell_setting 'orthorhombic'
loop_
_space_group_symop_operation_xyz
x,y,z
-x,-y,z
1/2+x,1/2-y,-z
1/2-x,1/2+y,-z
-x,-y,-z
x,y,-z
1/2-x,1/2+y,z
1/2+x,1/2-y,z
loop_
_atom_site_type_symbol
_atom_site_label
_atom_site_fract_x
_atom_site_fract_y
_atom_site_fract_z
Si Si1 0.021412 0.095641 0.181775
Si Si2 0.133968 0.060518 0.827972
Si Si3 0.348342 0.360009 0.827957
Si Si4 0.256697 0.628500 0.821036
Si Si5 0.051905 0.556934 0.322233
Si Si6 0.266711 0.839697 0.178374
Si Si7 0.443766 0.249666 0.180874
Si Si8 0.170071 0.499326 0.679267
O O1 0.082346 0.110566 0.242191
O O2 0.987845 0.180321 0.244233
O O3 0.021432 0.091887 0.000000
O O4 0.000000 0.000000 0.246721
O O5 0.190608 0.080748 0.749355
O O6 0.119737 0.953997 0.820512
O O7 0.141531 0.094021 0.000000
O O8 0.290370 0.371720 0.753117
O O9 0.385974 0.282551 0.754911
O O10 0.336340 0.329786 0.000000
O O11 0.267447 0.733423 0.781919
O O12 0.204715 0.583579 0.744480
O O13 0.249306 0.611955 0.000000
O O14 0.052193 0.575543 0.500000
O O15 0.043431 0.650927 0.237719
O O16 0.107911 0.511051 0.272095
O O17 0.000000 0.500000 0.273251
O O18 0.311491 0.900438 0.260396
O O19 0.273736 0.858310 0.000000
O O20 0.443460 0.252948 0.000000
O O21 0.175969 0.500622 0.500000
#
# Coordination Sequence:
#
# PCOD8225145 Si02
#       8
#     8   8   8   8   8   8   8   8
#     4   9  15  25  45  78 115 143 171 213 266 322
#     4   9  15  26  47  75 111 150 177 208 265 333
#     4   9  15  27  49  78 113 147 177 214 271 331
#     4  10  20  35  57  84 115 150 186 226 277 337
#     4  10  24  45  61  74 103 150 190 225 282 343
#     4  10  20  34  56  84 114 150 187 226 278 337
#     4  10  19  32  58  91 112 138 186 238 275 312
#     4  11  23  39  60  83 109 145 190 238 281 329
#
# _framework density 19.657437000000002
#
# number of rings (size 3 to 8) (size 9 to 14) (size 15 to 20)
#    0.000    2.250    2.500    1.125    0.000    3.750 
#    0.000    1.875    0.000    1.125    0.000    0.000 
#    0.000    0.000    0.000    0.000    0.000    0.000 
#
# Total GULP energy -792973.844602 kJ/mol
# GULP energy per Si atom -12390.216322 kJ/mol
# Density = 1.961270 g / cm^3
# Si number density = 19.657437 Si / 1000 Ang^3
#
#
#
# Elastic Constant Matrix: (Units=GPa)
#
#
# Indices 1 2 3 4 5 6 
#
# 1 177.8666 73.6379 34.9240 0.0000 0.0000 0.0000
# 2 73.6379 118.7840 34.2001 0.0000 0.0000 0.0000
# 3 34.9240 34.2001 30.9857 0.0000 0.0000 0.0000
# 4 0.0000 0.0000 0.0000 -0.0995 0.0000 0.0000
# 5 0.0000 0.0000 0.0000 0.0000 20.0161 0.0000
# 6 0.0000 0.0000 0.0000 0.0000 0.0000 35.6975
#
#
#
# Elastic Compliance Matrix: (Units=1/GPa)
#
#
# Indices 1 2 3 4 5 6 
#
# 1 0.008110 -0.003512 -0.005264 0.000000 0.000000 0.000000
# 2 -0.003512 0.013861 -0.011341 0.000000 0.000000 0.000000
# 3 -0.005264 -0.011341 0.050724 0.000000 0.000000 0.000000
# 4 0.000000 0.000000 0.000000-10.051750 0.000000 0.000000
# 5 0.000000 0.000000 0.000000 0.000000 0.049960 0.000000
# 6 0.000000 0.000000 0.000000 0.000000 0.000000 0.028013
#
#
# Mechanical properties :
#
#
# Convention : Reuss Voigt Hill
#
# Bulk Modulus (GPa) = 30.80664 68.12894 49.46779
# Shear Modulus (GPa) = -0.50761 23.44776 11.47007
#
# Velocity S-wave (km/s) = -0.50871 3.45747 2.41819
# Velocity P-wave (km/s) = 3.91927 7.11843 5.74599
#
# Compressibility (1/GPa) = 0.03246054
#
# Stress axis : x y z
#
# Youngs Moduli (GPa) = 123.30826 72.14538 19.71463
#
# Poissons Ratio (x) = 0.25336 0.10379
# Poissons Ratio (y) = 0.43303 0.22358
# Poissons Ratio (z) = 0.64915 0.81818
#
# Static dielectric constant tensor:
#      x y z
#    x 3.990140 0.000000 0.000000 
#    y 0.000000 3.559830 0.000000 
#    z 0.000000 0.000000 3.029710 
# 
# 
# High freq. dielectric constant tensor:
#      x y z
#    x 1.788290 0.000000 0.000000 
#    y 0.000000 1.769070 0.000000 
#    z 0.000000 0.000000 1.703990 
# 
# From -- ./inp_files/9751.got.cif
#   From: 2010.03.12/outbox.cif.g09.slc.cpg/sg55_5_cif.got.tgz:9751.got - 2010.04.16 15:19:21.
