data_PCOD8225006
_publ_section_title
;
Structure prediction by ZEFSAII (Michael W. Deem and Ramdas Pophale) SiO2 
 PCOD8225006
Probable space group: P B A M
;
_chemical_formula_sum "Si O2"
_cell_formula_units_Z 64
_cell_length_a 11.979384
_cell_length_b 23.259412
_cell_length_c 12.938965
_cell_angle_alpha 90.000000
_cell_angle_beta 90.000000
_cell_angle_gamma 90.000000
_cell_volume 3605.228172
_symmetry_space_group_name_H-M "P B A M"
_symmetry_group_IT_number 55
_symmetry_cell_setting 'orthorhombic'
loop_
_space_group_symop_operation_xyz
x,y,z
-x,-y,z
1/2+x,1/2-y,-z
1/2-x,1/2+y,-z
-x,-y,-z
x,y,-z
1/2-x,1/2+y,z
1/2+x,1/2-y,z
loop_
_atom_site_type_symbol
_atom_site_label
_atom_site_fract_x
_atom_site_fract_y
_atom_site_fract_z
Si Si1 0.381125 0.822236 0.882287
Si Si2 0.870236 0.354191 0.879052
Si Si3 0.675586 0.666645 0.384799
Si Si4 0.246477 0.031622 0.117049
Si Si5 0.714042 0.588825 0.204942
Si Si6 0.469286 0.562208 0.214850
Si Si7 0.417614 0.646587 0.614293
Si Si8 0.774591 0.768100 0.742272
O O1 0.499482 0.849886 0.851099
O O2 0.283865 0.869228 0.868381
O O3 0.361312 0.765423 0.815189
O O4 0.382239 0.801945 0.000000
O O5 0.833885 0.419177 0.850066
O O6 0.802863 0.308357 0.812008
O O7 0.846600 0.342035 0.000000
O O8 0.729007 0.666789 0.500000
O O9 0.723508 0.610467 0.324021
O O10 0.543794 0.666750 0.393217
O O11 0.700428 0.723733 0.321107
O O12 0.120774 0.057524 0.122738
O O13 0.259458 0.976359 0.192346
O O14 0.267865 0.011119 0.000000
O O15 0.582151 0.593109 0.173231
O O16 0.500000 0.500000 0.259203
O O17 0.407782 0.592798 0.309756
O O18 0.373734 0.629629 0.500000
O O19 0.342983 0.697476 0.657669
#
# Coordination Sequence:
#
# PCOD8225006 Si02
#       8
#     8   8   8   8   8   8   8   8
#     4  10  21  35  52  78 106 138 179 215 254 311
#     4  10  21  35  52  76 109 141 171 214 262 310
#     4   9  19  34  52  76 103 134 173 219 266 308
#     4  10  19  33  53  77 107 142 174 213 263 312
#     4   9  19  33  54  76 103 138 177 214 256 309
#     4   9  18  33  51  77 107 134 172 214 263 306
#     4  10  19  32  51  75 101 131 172 216 262 311
#     4  11  19  34  54  74 104 138 174 213 262 313
#
# _framework density 17.751995999999998
#
# number of rings (size 3 to 8) (size 9 to 14) (size 15 to 20)
#    0.000    2.250    1.250    1.875    0.000    3.500 
#    0.000    3.750    0.000    0.750    0.000    3.500 
#    0.000    0.000    0.000    0.000    0.000    0.000 
#
# Total GULP energy -793375.515429 kJ/mol
# GULP energy per Si atom -12396.492429 kJ/mol
# Density = 1.771159 g / cm^3
# Si number density = 17.751996 Si / 1000 Ang^3
#
#
#
# Elastic Constant Matrix: (Units=GPa)
#
#
# Indices 1 2 3 4 5 6 
#
# 1 55.9811 32.2465 25.3211 0.0000 0.0000 0.0000
# 2 32.2465 90.7492 40.5222 0.0000 0.0000 0.0000
# 3 25.3211 40.5222 81.9849 0.0000 0.0000 0.0000
# 4 0.0000 0.0000 0.0000 20.8502 0.0000 0.0000
# 5 0.0000 0.0000 0.0000 0.0000 21.0420 0.0000
# 6 0.0000 0.0000 0.0000 0.0000 0.0000 29.8155
#
#
#
# Elastic Compliance Matrix: (Units=1/GPa)
#
#
# Indices 1 2 3 4 5 6 
#
# 1 0.023444 -0.006541 -0.004008 0.000000 0.000000 0.000000
# 2 -0.006541 0.015965 -0.005871 0.000000 0.000000 0.000000
# 3 -0.004008 -0.005871 0.016337 0.000000 0.000000 0.000000
# 4 0.000000 0.000000 0.000000 0.047961 0.000000 0.000000
# 5 0.000000 0.000000 0.000000 0.000000 0.047524 0.000000
# 6 0.000000 0.000000 0.000000 0.000000 0.000000 0.033540
#
#
# Mechanical properties :
#
#
# Convention : Reuss Voigt Hill
#
# Bulk Modulus (GPa) = 43.65499 47.21055 45.43277
# Shear Modulus (GPa) = 22.19810 23.04990 22.62400
#
# Velocity S-wave (km/s) = 3.54002 3.60730 3.57381
# Velocity P-wave (km/s) = 6.43070 6.63343 6.53285
#
# Compressibility (1/GPa) = 0.02290689
#
# Stress axis : x y z
#
# Youngs Moduli (GPa) = 42.65557 62.63672 61.21124
#
# Poissons Ratio (x) = 0.40970 0.24531
# Poissons Ratio (y) = 0.27900 0.35936
# Poissons Ratio (z) = 0.17095 0.36773
#
# Static dielectric constant tensor:
#      x y z
#    x 3.347730 0.000000 0.000000 
#    y 0.000000 3.337160 0.000000 
#    z 0.000000 0.000000 3.404080 
# 
# 
# High freq. dielectric constant tensor:
#      x y z
#    x 1.682160 0.000000 0.000000 
#    y 0.000000 1.690750 0.000000 
#    z 0.000000 0.000000 1.680960 
# 
# From -- ./inp_files/13565.got.cif
#   From: 2010.03.12/outbox.cif.g09.slc.cpg/sg55_7_cif.got.tgz:13565.got - 2010.04.16 15:19:21.
