data_PCOD8225991
_publ_section_title
;
Structure prediction by ZEFSAII (Michael W. Deem and Ramdas Pophale) SiO2 
 PCOD8225991
Probable space group: P B A M
;
_chemical_formula_sum "Si O2"
_cell_formula_units_Z 40
_cell_length_a 8.773954
_cell_length_b 10.735064
_cell_length_c 21.251127
_cell_angle_alpha 90.000000
_cell_angle_beta 90.000000
_cell_angle_gamma 90.000000
_cell_volume 2001.621503
_symmetry_space_group_name_H-M "P B A M"
_symmetry_group_IT_number 55
_symmetry_cell_setting 'orthorhombic'
loop_
_space_group_symop_operation_xyz
x,y,z
-x,-y,z
1/2+x,1/2-y,-z
1/2-x,1/2+y,-z
-x,-y,-z
x,y,-z
1/2-x,1/2+y,z
1/2+x,1/2-y,z
loop_
_atom_site_type_symbol
_atom_site_label
_atom_site_fract_x
_atom_site_fract_y
_atom_site_fract_z
Si Si1 0.408082 0.875804 0.926995
Si Si2 0.476522 0.359419 0.736032
Si Si3 0.073798 0.861816 0.125178
Si Si4 0.270789 0.750242 0.347523
Si Si5 0.472896 0.140662 0.431581
O O1 0.498818 0.745365 0.918154
O O2 0.252280 0.872963 0.888212
O O3 0.500000 0.000000 0.904936
O O4 0.367118 0.888686 0.000000
O O5 0.500000 0.500000 0.751810
O O6 0.441363 0.302676 0.804451
O O7 0.342007 0.348426 0.685065
O O8 0.633536 0.307276 0.708912
O O9 0.000000 0.000000 0.114904
O O10 0.374217 0.809689 0.400443
O O11 0.168846 0.649649 0.384163
O O12 0.444954 0.207374 0.500000
O O13 0.500000 0.000000 0.446540
#
# Coordination Sequence:
#
# PCOD8225991 Si02
#       5
#     8   8   8   8   8
#     4  11  24  41  62  89 120 155 195 240 292 348
#     4  10  21  37  56  81 110 143 184 228 277 331
#     4  11  23  40  62  88 119 155 197 243 292 348
#     4  10  20  35  55  78 108 143 180 225 275 328
#     4  10  20  34  53  78 107 141 181 224 272 326
#
# _framework density 19.983799000000001
#
# number of rings (size 3 to 8) (size 9 to 14) (size 15 to 20)
#    0.000    1.600    0.000    4.800    0.000    4.800 
#    0.000    5.000    0.000    9.600    0.000    0.000 
#    0.000    0.000    0.000    0.000    0.000    0.000 
#
# Total GULP energy -495730.986438 kJ/mol
# GULP energy per Si atom -12393.274661 kJ/mol
# Density = 1.993831 g / cm^3
# Si number density = 19.983799 Si / 1000 Ang^3
#
#
#
# Elastic Constant Matrix: (Units=GPa)
#
#
# Indices 1 2 3 4 5 6 
#
# 1 142.3040 33.5529 49.4312 0.0000 0.0000 0.0000
# 2 33.5529 88.2958 18.9326 0.0000 0.0000 0.0000
# 3 49.4312 18.9326 119.5563 0.0000 0.0000 0.0000
# 4 0.0000 0.0000 0.0000 31.0692 0.0000 0.0000
# 5 0.0000 0.0000 0.0000 0.0000 39.9584 0.0000
# 6 0.0000 0.0000 0.0000 0.0000 0.0000 23.5474
#
#
#
# Elastic Compliance Matrix: (Units=1/GPa)
#
#
# Indices 1 2 3 4 5 6 
#
# 1 0.008764 -0.002643 -0.003205 0.000000 0.000000 0.000000
# 2 -0.002643 0.012521 -0.000890 0.000000 0.000000 0.000000
# 3 -0.003205 -0.000890 0.009830 0.000000 0.000000 0.000000
# 4 0.000000 0.000000 0.000000 0.032186 0.000000 0.000000
# 5 0.000000 0.000000 0.000000 0.000000 0.025026 0.000000
# 6 0.000000 0.000000 0.000000 0.000000 0.000000 0.042468
#
#
# Mechanical properties :
#
#
# Convention : Reuss Voigt Hill
#
# Bulk Modulus (GPa) = 56.69267 61.55439 59.12353
# Shear Modulus (GPa) = 33.30006 35.46428 34.38217
#
# Velocity S-wave (km/s) = 4.08653 4.21723 4.15239
# Velocity P-wave (km/s) = 7.12020 7.38799 7.25533
#
# Compressibility (1/GPa) = 0.01763896
#
# Stress axis : x y z
#
# Youngs Moduli (GPa) = 114.10784 79.86726 101.72680
#
# Poissons Ratio (x) = 0.21109 0.32602
# Poissons Ratio (y) = 0.30159 0.09053
# Poissons Ratio (z) = 0.36570 0.07108
#
# Static dielectric constant tensor:
#      x y z
#    x 3.841540 0.000000 0.000000 
#    y 0.000000 3.169170 0.000000 
#    z 0.000000 0.000000 3.841090 
# 
# 
# High freq. dielectric constant tensor:
#      x y z
#    x 1.791630 0.000000 0.000000 
#    y 0.000000 1.769410 0.000000 
#    z 0.000000 0.000000 1.801710 
# 
# From -- ./inp_files/20603.got.cif
#   From: 2010.03.12/outbox.cif.g09.slc.cpg/sg55_11_cif.got.tgz:20603.got - 2010.04.16 15:19:21.
