data_PCOD8225481
_publ_section_title
;
Structure prediction by ZEFSAII (Michael W. Deem and Ramdas Pophale) SiO2 
 PCOD8225481
Probable space group: P B A M
;
_chemical_formula_sum "Si O2"
_cell_formula_units_Z 64
_cell_length_a 23.535039
_cell_length_b 15.120436
_cell_length_c 9.605824
_cell_angle_alpha 90.000000
_cell_angle_beta 90.000000
_cell_angle_gamma 90.000000
_cell_volume 3418.329018
_symmetry_space_group_name_H-M "P B A M"
_symmetry_group_IT_number 55
_symmetry_cell_setting 'orthorhombic'
loop_
_space_group_symop_operation_xyz
x,y,z
-x,-y,z
1/2+x,1/2-y,-z
1/2-x,1/2+y,-z
-x,-y,-z
x,y,-z
1/2-x,1/2+y,z
1/2+x,1/2-y,z
loop_
_atom_site_type_symbol
_atom_site_label
_atom_site_fract_x
_atom_site_fract_y
_atom_site_fract_z
Si Si1 0.555953 0.246874 0.662028
Si Si2 0.748394 0.350670 0.842405
Si Si3 0.925496 0.253265 0.337847
Si Si4 0.372042 0.094952 0.159678
Si Si5 0.754107 0.646209 0.159281
Si Si6 0.141750 0.103479 0.340584
Si Si7 0.153023 0.907004 0.660072
Si Si8 0.618889 0.106922 0.161131
O O1 0.565876 0.226144 0.500000
O O2 0.490750 0.268774 0.693645
O O3 0.591684 0.332347 0.712063
O O4 0.573952 0.161086 0.748683
O O5 0.805274 0.403725 0.802202
O O6 0.762477 0.247932 0.823199
O O7 0.698800 0.380456 0.742875
O O8 0.729341 0.370928 0.000000
O O9 0.915043 0.271624 0.500000
O O10 0.907998 0.340770 0.256206
O O11 0.889394 0.168949 0.285762
O O12 0.394756 0.996109 0.183476
O O13 0.380168 0.125089 0.000000
O O14 0.710711 0.589824 0.251189
O O15 0.817832 0.630119 0.213708
O O16 0.748807 0.613673 0.000000
O O17 0.156223 0.124372 0.500000
O O18 0.122002 0.001775 0.321912
O O19 0.169711 0.890104 0.500000
O O20 0.612350 0.134286 0.000000
#
# Coordination Sequence:
#
# PCOD8225481 Si02
#       8
#     8   8   8   8   8   8   8   8
#     4  10  22  39  57  78 107 144 185 228 271 316
#     4  10  19  34  58  84 111 143 177 218 270 326
#     4  10  22  39  57  78 107 144 185 228 271 316
#     4  10  21  37  57  82 111 143 179 220 270 326
#     4  10  19  34  58  84 111 143 177 218 270 326
#     4  10  21  36  56  83 112 143 180 222 270 323
#     4  10  21  36  56  83 112 143 180 222 270 323
#     4  10  21  37  57  82 111 143 179 220 270 326
#
# _framework density 18.722598000000001
#
# number of rings (size 3 to 8) (size 9 to 14) (size 15 to 20)
#    0.000    2.000    2.500    0.750    0.000    5.000 
#    0.000    5.000    0.000    0.000    0.000    3.500 
#    0.000    0.000    0.000    0.000    0.000    0.000 
#
# Total GULP energy -793824.025572 kJ/mol
# GULP energy per Si atom -12403.500400 kJ/mol
# Density = 1.867998 g / cm^3
# Si number density = 18.722598 Si / 1000 Ang^3
#
#
#
# Elastic Constant Matrix: (Units=GPa)
#
#
# Indices 1 2 3 4 5 6 
#
# 1 89.4174 33.7364 43.3479 0.0000 0.0000 0.0000
# 2 33.7364 82.1677 35.8715 0.0000 0.0000 0.0000
# 3 43.3479 35.8715 55.4498 0.0000 0.0000 0.0000
# 4 0.0000 0.0000 0.0000 27.5703 0.0000 0.0000
# 5 0.0000 0.0000 0.0000 0.0000 23.2303 0.0000
# 6 0.0000 0.0000 0.0000 0.0000 0.0000 15.9080
#
#
#
# Elastic Compliance Matrix: (Units=1/GPa)
#
#
# Indices 1 2 3 4 5 6 
#
# 1 0.018188 -0.001756 -0.013082 0.000000 0.000000 0.000000
# 2 -0.001756 0.017130 -0.009708 0.000000 0.000000 0.000000
# 3 -0.013082 -0.009708 0.034542 0.000000 0.000000 0.000000
# 4 0.000000 0.000000 0.000000 0.036271 0.000000 0.000000
# 5 0.000000 0.000000 0.000000 0.000000 0.043047 0.000000
# 6 0.000000 0.000000 0.000000 0.000000 0.000000 0.062861
#
#
# Mechanical properties :
#
#
# Convention : Reuss Voigt Hill
#
# Bulk Modulus (GPa) = 48.15680 50.32740 49.24210
# Shear Modulus (GPa) = 18.65280 20.94700 19.79990
#
# Velocity S-wave (km/s) = 3.15980 3.34849 3.25551
# Velocity P-wave (km/s) = 6.25216 6.47215 6.36311
#
# Compressibility (1/GPa) = 0.02076550
#
# Stress axis : x y z
#
# Youngs Moduli (GPa) = 54.98030 58.37795 28.95014
#
# Poissons Ratio (x) = 0.10254 0.37874
# Poissons Ratio (y) = 0.09657 0.28106
# Poissons Ratio (z) = 0.71928 0.56676
#
# Static dielectric constant tensor:
#      x y z
#    x 3.330940 0.000000 0.000000 
#    y 0.000000 3.590350 0.000000 
#    z 0.000000 0.000000 3.419110 
# 
# 
# High freq. dielectric constant tensor:
#      x y z
#    x 1.719400 0.000000 0.000000 
#    y 0.000000 1.738940 0.000000 
#    z 0.000000 0.000000 1.720010 
# 
# From -- ./inp_files/9683.got.cif
#   From: 2010.03.12/outbox.cif.g09.slc.cpg/sg55_5_cif.got.tgz:9683.got - 2010.04.16 15:19:21.
