data_PCOD8225668
_publ_section_title
;
Structure prediction by ZEFSAII (Michael W. Deem and Ramdas Pophale) SiO2 
 PCOD8225668
Probable space group: P B A M
;
_chemical_formula_sum "Si O2"
_cell_formula_units_Z 40
_cell_length_a 8.857626
_cell_length_b 29.086793
_cell_length_c 7.770079
_cell_angle_alpha 90.000000
_cell_angle_beta 90.000000
_cell_angle_gamma 90.000000
_cell_volume 2001.882640
_symmetry_space_group_name_H-M "P B A M"
_symmetry_group_IT_number 55
_symmetry_cell_setting 'orthorhombic'
loop_
_space_group_symop_operation_xyz
x,y,z
-x,-y,z
1/2+x,1/2-y,-z
1/2-x,1/2+y,-z
-x,-y,-z
x,y,-z
1/2-x,1/2+y,z
1/2+x,1/2-y,z
loop_
_atom_site_type_symbol
_atom_site_label
_atom_site_fract_x
_atom_site_fract_y
_atom_site_fract_z
Si Si1 0.348081 0.701207 0.806219
Si Si2 0.693284 0.953696 0.000000
Si Si3 0.206928 0.610041 0.692541
Si Si4 0.325156 0.289437 0.305147
Si Si5 0.357991 0.879022 0.302373
Si Si6 0.336550 0.944332 0.000000
O O1 0.315396 0.653738 0.709062
O O2 0.263907 0.742078 0.709946
O O3 0.526880 0.710173 0.812104
O O4 0.286868 0.697951 0.000000
O O5 0.756589 0.928858 0.171175
O O6 0.514015 0.952348 0.000000
O O7 0.748833 0.006588 0.000000
O O8 0.223428 0.589517 0.500000
O O9 0.036307 0.626446 0.727513
O O10 0.379967 0.295609 0.500000
O O11 0.213670 0.330414 0.250729
O O12 0.321539 0.893101 0.500000
O O13 0.289413 0.917212 0.173536
#
# Coordination Sequence:
#
# PCOD8225668 Si02
#       6
#     8   4   8   8   8   4
#     4  12  24  37  57  85 114 149 191 230 277 332
#     4   9  18  34  52  89 110 147 182 231 284 337
#     4  10  19  36  58  82 115 150 187 231 277 331
#     4  11  23  39  57  81 114 151 189 228 277 332
#     4   9  20  35  57  84 111 149 189 227 277 334
#     4   9  18  32  58  79 120 141 180 235 286 327
#
# _framework density 19.981190999999999
#
# number of rings (size 3 to 8) (size 9 to 14) (size 15 to 20)
#    0.000    1.800    1.000    3.600    2.800    2.400 
#    0.000    4.000    0.000    2.400    0.000    4.200 
#    0.000    0.000    0.000    0.000    0.000    0.000 
#
# Total GULP energy -496115.493548 kJ/mol
# GULP energy per Si atom -12402.887339 kJ/mol
# Density = 1.993571 g / cm^3
# Si number density = 19.981191 Si / 1000 Ang^3
#
#
#
# Elastic Constant Matrix: (Units=GPa)
#
#
# Indices 1 2 3 4 5 6 
#
# 1 35.8415 -10.8542 10.5395 0.0000 0.0000 0.0000
# 2 -10.8542 80.4283 42.7994 0.0000 0.0000 0.0000
# 3 10.5395 42.7994 116.6466 0.0000 0.0000 0.0000
# 4 0.0000 0.0000 0.0000 27.6194 0.0000 0.0000
# 5 0.0000 0.0000 0.0000 0.0000 21.4703 0.0000
# 6 0.0000 0.0000 0.0000 0.0000 0.0000 21.6159
#
#
#
# Elastic Compliance Matrix: (Units=1/GPa)
#
#
# Indices 1 2 3 4 5 6 
#
# 1 0.031705 0.007211 -0.005511 0.000000 0.000000 0.000000
# 2 0.007211 0.017090 -0.006922 0.000000 0.000000 0.000000
# 3 -0.005511 -0.006922 0.011611 0.000000 0.000000 0.000000
# 4 0.000000 0.000000 0.000000 0.036206 0.000000 0.000000
# 5 0.000000 0.000000 0.000000 0.000000 0.046576 0.000000
# 6 0.000000 0.000000 0.000000 0.000000 0.000000 0.046262
#
#
# Mechanical properties :
#
#
# Convention : Reuss Voigt Hill
#
# Bulk Modulus (GPa) = 20.01504 35.32065 27.66784
# Shear Modulus (GPa) = 23.08960 26.83657 24.96309
#
# Velocity S-wave (km/s) = 3.40305 3.66880 3.53842
# Velocity P-wave (km/s) = 5.04774 5.97177 5.52909
#
# Compressibility (1/GPa) = 0.04996244
#
# Stress axis : x y z
#
# Youngs Moduli (GPa) = 31.54094 58.51299 86.12769
#
# Poissons Ratio (x) = -0.42194 0.47461
# Poissons Ratio (y) = -0.22745 0.59619
# Poissons Ratio (z) = 0.17381 0.40504
#
# Static dielectric constant tensor:
#      x y z
#    x 3.290830 0.000000 0.000000 
#    y 0.000000 3.692260 0.000000 
#    z 0.000000 0.000000 3.758820 
# 
# 
# High freq. dielectric constant tensor:
#      x y z
#    x 1.751090 0.000000 0.000000 
#    y 0.000000 1.772780 0.000000 
#    z 0.000000 0.000000 1.796410 
# 
# From -- ./inp_files/2392.got.cif
#   From: 2010.03.12/outbox.cif.g09.slc.cpg/sg55_2_cif.got.tgz:2392.got - 2010.04.16 15:19:21.
