data_PCOD8225347
_publ_section_title
;
Structure prediction by ZEFSAII (Michael W. Deem and Ramdas Pophale) SiO2 
 PCOD8225347
Probable space group: P B A M
;
_chemical_formula_sum "Si O2"
_cell_formula_units_Z 56
_cell_length_a 14.331352
_cell_length_b 28.372662
_cell_length_c 8.744449
_cell_angle_alpha 90.000000
_cell_angle_beta 90.000000
_cell_angle_gamma 90.000000
_cell_volume 3555.655665
_symmetry_space_group_name_H-M "P B A M"
_symmetry_group_IT_number 55
_symmetry_cell_setting 'orthorhombic'
loop_
_space_group_symop_operation_xyz
x,y,z
-x,-y,z
1/2+x,1/2-y,-z
1/2-x,1/2+y,-z
-x,-y,-z
x,y,-z
1/2-x,1/2+y,z
1/2+x,1/2-y,z
loop_
_atom_site_type_symbol
_atom_site_label
_atom_site_fract_x
_atom_site_fract_y
_atom_site_fract_z
Si Si1 0.385713 0.948447 0.500000
Si Si2 0.274404 0.281942 0.679119
Si Si3 0.182136 0.637626 0.669404
Si Si4 0.014697 0.682863 0.825999
Si Si5 0.168650 0.192415 0.180538
Si Si6 0.889989 0.444565 0.500000
Si Si7 0.859535 0.636161 0.330580
Si Si8 0.013313 0.778181 0.677975
O O1 0.498321 0.943564 0.500000
O O2 0.343582 0.920737 0.649923
O O3 0.352168 0.002120 0.500000
O O4 0.271988 0.269929 0.500000
O O5 0.219352 0.240697 0.766404
O O6 0.230927 0.333420 0.716528
O O7 0.381112 0.285928 0.737325
O O8 0.174929 0.661432 0.500000
O O9 0.284576 0.646429 0.739147
O O10 0.152292 0.582438 0.650327
O O11 0.116731 0.664368 0.788500
O O12 0.939587 0.641943 0.796018
O O13 0.984541 0.724627 0.713421
O O14 0.011592 0.700201 0.000000
O O15 0.060336 0.189808 0.230151
O O16 0.176457 0.188149 0.000000
O O17 0.894344 0.653672 0.500000
O O18 0.002995 0.789391 0.500000
#
# Coordination Sequence:
#
# PCOD8225347 Si02
#       8
#     4   8   8   8   8   4   8   8
#     4   9  16  32  55  81  99 121 169 216 253 307
#     4  10  20  32  50  70  96 138 174 200 242 298
#     4  10  19  34  50  70  95 139 171 201 250 304
#     4  12  20  28  44  73 107 137 173 207 242 290
#     4  12  23  32  47  73 104 136 173 211 248 291
#     4   9  18  30  57  79  95 129 169 210 259 307
#     4   9  17  32  51  71  97 134 167 203 249 301
#     4  11  22  33  47  67 101 142 179 205 232 292
#
# _framework density 15.749556
#
# number of rings (size 3 to 8) (size 9 to 14) (size 15 to 20)
#    0.857    0.714    4.286    3.429    0.000    0.571 
#    0.000    0.000    0.000    2.571    0.000    2.000 
#    0.000    1.143    0.000    0.000    0.000    0.000 
#
# Total GULP energy -693747.130443 kJ/mol
# GULP energy per Si atom -12388.341615 kJ/mol
# Density = 1.571371 g / cm^3
# Si number density = 15.749556 Si / 1000 Ang^3
#
#
#
# Elastic Constant Matrix: (Units=GPa)
#
#
# Indices 1 2 3 4 5 6 
#
# 1 73.3424 18.3715 30.5640 0.0000 0.0000 0.0000
# 2 18.3715 80.3896 20.2531 0.0000 0.0000 0.0000
# 3 30.5640 20.2531 63.1973 0.0000 0.0000 0.0000
# 4 0.0000 0.0000 0.0000 2.1408 0.0000 0.0000
# 5 0.0000 0.0000 0.0000 0.0000 18.4110 0.0000
# 6 0.0000 0.0000 0.0000 0.0000 0.0000 20.2334
#
#
#
# Elastic Compliance Matrix: (Units=1/GPa)
#
#
# Indices 1 2 3 4 5 6 
#
# 1 0.017372 -0.002016 -0.007755 0.000000 0.000000 0.000000
# 2 -0.002016 0.013766 -0.003437 0.000000 0.000000 0.000000
# 3 -0.007755 -0.003437 0.020675 0.000000 0.000000 0.000000
# 4 0.000000 0.000000 0.000000 0.467113 0.000000 0.000000
# 5 0.000000 0.000000 0.000000 0.000000 0.054316 0.000000
# 6 0.000000 0.000000 0.000000 0.000000 0.000000 0.049423
#
#
# Mechanical properties :
#
#
# Convention : Reuss Voigt Hill
#
# Bulk Modulus (GPa) = 39.37462 39.47850 39.42656
# Shear Modulus (GPa) = 7.60403 18.00642 12.80522
#
# Velocity S-wave (km/s) = 2.19968 3.38494 2.85450
# Velocity P-wave (km/s) = 5.61304 6.35593 5.99600
#
# Compressibility (1/GPa) = 0.02539707
#
# Stress axis : x y z
#
# Youngs Moduli (GPa) = 57.56542 72.64294 48.36653
#
# Poissons Ratio (x) = 0.14646 0.37509
# Poissons Ratio (y) = 0.11606 0.16622
# Poissons Ratio (z) = 0.44643 0.24964
#
# Static dielectric constant tensor:
#      x y z
#    x 3.121160 0.000000 0.000000 
#    y 0.000000 2.843230 0.000000 
#    z 0.000000 0.000000 2.836460 
# 
# 
# High freq. dielectric constant tensor:
#      x y z
#    x 1.604570 0.000000 0.000000 
#    y 0.000000 1.562600 0.000000 
#    z 0.000000 0.000000 1.593820 
# 
# From -- ./inp_files/6897.got.cif
#   From: 2010.03.12/outbox.cif.g09.slc.cpg/sg55_4_cif.got.tgz:6897.got - 2010.04.16 15:19:21.
