data_PCOD8225934
_publ_section_title
;
Structure prediction by ZEFSAII (Michael W. Deem and Ramdas Pophale) SiO2 
 PCOD8225934
Probable space group: P B A M
;
_chemical_formula_sum "Si O2"
_cell_formula_units_Z 64
_cell_length_a 23.207168
_cell_length_b 15.594308
_cell_length_c 9.241583
_cell_angle_alpha 90.000000
_cell_angle_beta 90.000000
_cell_angle_gamma 90.000000
_cell_volume 3344.526352
_symmetry_space_group_name_H-M "P B A M"
_symmetry_group_IT_number 55
_symmetry_cell_setting 'orthorhombic'
loop_
_space_group_symop_operation_xyz
x,y,z
-x,-y,z
1/2+x,1/2-y,-z
1/2-x,1/2+y,-z
-x,-y,-z
x,y,-z
1/2-x,1/2+y,z
1/2+x,1/2-y,z
loop_
_atom_site_type_symbol
_atom_site_label
_atom_site_fract_x
_atom_site_fract_y
_atom_site_fract_z
Si Si1 0.050754 0.938654 0.171235
Si Si2 0.312629 0.701743 0.667625
Si Si3 0.837027 0.964352 0.830840
Si Si4 0.634031 0.150368 0.837619
Si Si5 0.681000 0.820268 0.669448
Si Si6 0.925188 0.252105 0.827703
Si Si7 0.507123 0.095373 0.830138
Si Si8 0.707901 0.981770 0.837923
O O1 0.044841 0.838505 0.218358
O O2 0.113049 0.972248 0.226321
O O3 0.047545 0.944241 0.000000
O O4 0.000000 0.000000 0.236447
O O5 0.322280 0.684717 0.500000
O O6 0.343955 0.626035 0.752593
O O7 0.343387 0.787531 0.715395
O O8 0.245273 0.711789 0.704912
O O9 0.773939 0.002200 0.792528
O O10 0.844802 0.948069 0.000000
O O11 0.570133 0.126868 0.790858
O O12 0.673564 0.068255 0.832953
O O13 0.635243 0.190390 0.000000
O O14 0.666996 0.820121 0.500000
O O15 0.637025 0.757714 0.751858
O O16 0.676232 0.916911 0.729507
O O17 0.962756 0.332898 0.769917
O O18 0.916631 0.254751 0.000000
O O19 0.500000 0.000000 0.760923
O O20 0.496748 0.088084 0.000000
O O21 0.706547 0.941957 0.000000
#
# Coordination Sequence:
#
# PCOD8225934 Si02
#       8
#     8   8   8   8   8   8   8   8
#     4   9  19  33  54  83 111 140 184 238 287 331
#     4  10  22  37  53  78 111 147 182 221 272 334
#     4   9  18  34  56  79 106 139 181 231 278 325
#     4  10  20  33  57  86 112 141 180 226 275 330
#     4  10  21  37  55  78 111 148 184 222 274 333
#     4  10  20  34  58  84 110 145 186 234 279 327
#     4   9  18  33  54  84 115 144 179 221 273 331
#     4   9  18  33  55  84 110 138 179 229 277 327
#
# _framework density 19.135743000000002
#
# number of rings (size 3 to 8) (size 9 to 14) (size 15 to 20)
#    0.000    2.500    0.000    1.500    3.500    4.000 
#    0.000    1.250    0.000    2.250    0.000    0.000 
#    0.000    0.000    0.000    0.000    0.000    0.000 
#
# Total GULP energy -793426.697596 kJ/mol
# GULP energy per Si atom -12397.292150 kJ/mol
# Density = 1.909219 g / cm^3
# Si number density = 19.135743 Si / 1000 Ang^3
#
#
#
# Elastic Constant Matrix: (Units=GPa)
#
#
# Indices 1 2 3 4 5 6 
#
# 1 101.4121 63.4428 27.5160 0.0000 0.0000 0.0000
# 2 63.4428 117.9550 32.9520 0.0000 0.0000 0.0000
# 3 27.5160 32.9520 35.5296 0.0000 0.0000 0.0000
# 4 0.0000 0.0000 0.0000 9.4439 0.0000 0.0000
# 5 0.0000 0.0000 0.0000 0.0000 19.2832 0.0000
# 6 0.0000 0.0000 0.0000 0.0000 0.0000 29.9177
#
#
#
# Elastic Compliance Matrix: (Units=1/GPa)
#
#
# Indices 1 2 3 4 5 6 
#
# 1 0.015712 -0.006818 -0.005845 0.000000 0.000000 0.000000
# 2 -0.006818 0.014401 -0.008076 0.000000 0.000000 0.000000
# 3 -0.005845 -0.008076 0.040162 0.000000 0.000000 0.000000
# 4 0.000000 0.000000 0.000000 0.105888 0.000000 0.000000
# 5 0.000000 0.000000 0.000000 0.000000 0.051859 0.000000
# 6 0.000000 0.000000 0.000000 0.000000 0.000000 0.033425
#
#
# Mechanical properties :
#
#
# Convention : Reuss Voigt Hill
#
# Bulk Modulus (GPa) = 34.72524 55.85760 45.29142
# Shear Modulus (GPa) = 15.99879 20.46136 18.23007
#
# Velocity S-wave (km/s) = 2.89462 3.27352 3.08989
# Velocity P-wave (km/s) = 5.41830 6.59860 6.03736
#
# Compressibility (1/GPa) = 0.02879749
#
# Stress axis : x y z
#
# Youngs Moduli (GPa) = 63.64626 69.43957 24.89901
#
# Poissons Ratio (x) = 0.47343 0.14553
# Poissons Ratio (y) = 0.43393 0.20109
# Poissons Ratio (z) = 0.37200 0.56080
#
# Static dielectric constant tensor:
#      x y z
#    x 3.661290 0.000000 0.000000 
#    y 0.000000 3.478530 0.000000 
#    z 0.000000 0.000000 3.256570 
# 
# 
# High freq. dielectric constant tensor:
#      x y z
#    x 1.754570 0.000000 0.000000 
#    y 0.000000 1.746640 0.000000 
#    z 0.000000 0.000000 1.706020 
# 
# From -- ./inp_files/9638.got.cif
#   From: 2010.03.12/outbox.cif.g09.slc.cpg/sg55_5_cif.got.tgz:9638.got - 2010.04.16 15:19:21.
