data_PCOD8225130
_publ_section_title
;
Structure prediction by ZEFSAII (Michael W. Deem and Ramdas Pophale) SiO2 
 PCOD8225130
Probable space group: P B A M
;
_chemical_formula_sum "Si O2"
_cell_formula_units_Z 64
_cell_length_a 19.982583
_cell_length_b 20.010252
_cell_length_c 8.773329
_cell_angle_alpha 90.000000
_cell_angle_beta 90.000000
_cell_angle_gamma 90.000000
_cell_volume 3508.072815
_symmetry_space_group_name_H-M "P B A M"
_symmetry_group_IT_number 55
_symmetry_cell_setting 'orthorhombic'
loop_
_space_group_symop_operation_xyz
x,y,z
-x,-y,z
1/2+x,1/2-y,-z
1/2-x,1/2+y,-z
-x,-y,-z
x,y,-z
1/2-x,1/2+y,z
1/2+x,1/2-y,z
loop_
_atom_site_type_symbol
_atom_site_label
_atom_site_fract_x
_atom_site_fract_y
_atom_site_fract_z
Si Si1 0.175900 0.919293 0.680379
Si Si2 0.952443 0.833728 0.173724
Si Si3 0.912139 0.197900 0.321352
Si Si4 0.909101 0.690507 0.822086
Si Si5 0.950372 0.340735 0.319194
Si Si6 0.573605 0.975386 0.820836
Si Si7 0.827233 0.581549 0.680130
Si Si8 0.074204 0.018889 0.175847
O O1 0.174876 0.917046 0.500000
O O2 0.146239 0.849270 0.747857
O O3 0.251456 0.928475 0.737943
O O4 0.131260 0.981391 0.731771
O O5 0.905376 0.770063 0.210812
O O6 0.912028 0.902148 0.200788
O O7 0.016997 0.834271 0.279645
O O8 0.978142 0.828928 0.000000
O O9 0.905607 0.196456 0.500000
O O10 0.908173 0.275092 0.266274
O O11 0.849540 0.656140 0.727853
O O12 0.978779 0.659642 0.765644
O O13 0.901496 0.673610 0.000000
O O14 0.962325 0.341428 0.500000
O O15 0.910247 0.405957 0.265308
O O16 0.500000 0.000000 0.773163
O O17 0.627766 0.028491 0.767745
O O18 0.579571 0.963970 0.000000
O O19 0.834799 0.571956 0.500000
O O20 0.080279 0.997960 0.000000
O O21 0.000000 0.000000 0.235865
#
# Coordination Sequence:
#
# PCOD8225130 Si02
#       8
#     8   8   8   8   8   8   8   8
#     4  10  22  38  55  79 111 147 184 226 274 327
#     4   9  18  32  52  80 111 138 175 224 268 314
#     4   9  18  33  53  79 109 140 176 219 269 320
#     4  10  19  33  53  78 108 140 176 222 271 320
#     4  10  19  32  55  83 109 138 175 222 271 319
#     4  11  22  36  56  82 110 142 181 227 275 325
#     4  11  23  38  56  78 108 146 186 225 274 331
#     4  10  19  33  55  83 112 146 185 225 270 321
#
# _framework density 18.243635999999999
#
# number of rings (size 3 to 8) (size 9 to 14) (size 15 to 20)
#    0.000    2.000    2.500    1.500    0.000    3.250 
#    0.000    1.250    0.000    4.500    0.000    0.000 
#    0.000    0.000    0.000    0.000    0.000    0.000 
#
# Total GULP energy -793527.428252 kJ/mol
# GULP energy per Si atom -12398.866066 kJ/mol
# Density = 1.820211 g / cm^3
# Si number density = 18.243636 Si / 1000 Ang^3
#
#
#
# Elastic Constant Matrix: (Units=GPa)
#
#
# Indices 1 2 3 4 5 6 
#
# 1 109.0019 60.3401 15.3689 0.0000 0.0000 0.0000
# 2 60.3401 135.0957 19.1013 0.0000 0.0000 0.0000
# 3 15.3689 19.1013 21.0946 0.0000 0.0000 0.0000
# 4 0.0000 0.0000 0.0000 29.2509 0.0000 0.0000
# 5 0.0000 0.0000 0.0000 0.0000 9.1115 0.0000
# 6 0.0000 0.0000 0.0000 0.0000 0.0000 26.3014
#
#
#
# Elastic Compliance Matrix: (Units=1/GPa)
#
#
# Indices 1 2 3 4 5 6 
#
# 1 0.012577 -0.004957 -0.004675 0.000000 0.000000 0.000000
# 2 -0.004957 0.010442 -0.005844 0.000000 0.000000 0.000000
# 3 -0.004675 -0.005844 0.056104 0.000000 0.000000 0.000000
# 4 0.000000 0.000000 0.000000 0.034187 0.000000 0.000000
# 5 0.000000 0.000000 0.000000 0.000000 0.109751 0.000000
# 6 0.000000 0.000000 0.000000 0.000000 0.000000 0.038021
#
#
# Mechanical properties :
#
#
# Convention : Reuss Voigt Hill
#
# Bulk Modulus (GPa) = 20.75934 50.53476 35.64705
# Shear Modulus (GPa) = 16.22897 24.29155 20.26026
#
# Velocity S-wave (km/s) = 2.98580 3.65294 3.33609
# Velocity P-wave (km/s) = 4.82600 6.74923 5.86696
#
# Compressibility (1/GPa) = 0.04817109
#
# Stress axis : x y z
#
# Youngs Moduli (GPa) = 79.50959 95.76409 17.82409
#
# Poissons Ratio (x) = 0.47466 0.08333
# Poissons Ratio (y) = 0.39409 0.10417
# Poissons Ratio (z) = 0.37172 0.55969
#
# Static dielectric constant tensor:
#      x y z
#    x 3.312500 0.000000 0.000000 
#    y 0.000000 3.782950 0.000000 
#    z 0.000000 0.000000 3.330700 
# 
# 
# High freq. dielectric constant tensor:
#      x y z
#    x 1.673150 0.000000 0.000000 
#    y 0.000000 1.726590 0.000000 
#    z 0.000000 0.000000 1.707640 
# 
# From -- ./inp_files/8032.got.cif
#   From: 2010.03.12/outbox.cif.g09.slc.cpg/sg55_5_cif.got.tgz:8032.got - 2010.04.16 15:19:21.
