data_PCOD8225189
_publ_section_title
;
Structure prediction by ZEFSAII (Michael W. Deem and Ramdas Pophale) SiO2 
 PCOD8225189
Probable space group: P B A M
;
_chemical_formula_sum "Si O2"
_cell_formula_units_Z 64
_cell_length_a 19.129870
_cell_length_b 20.586222
_cell_length_c 9.061603
_cell_angle_alpha 90.000000
_cell_angle_beta 90.000000
_cell_angle_gamma 90.000000
_cell_volume 3568.565741
_symmetry_space_group_name_H-M "P B A M"
_symmetry_group_IT_number 55
_symmetry_cell_setting 'orthorhombic'
loop_
_space_group_symop_operation_xyz
x,y,z
-x,-y,z
1/2+x,1/2-y,-z
1/2-x,1/2+y,-z
-x,-y,-z
x,y,-z
1/2-x,1/2+y,z
1/2+x,1/2-y,z
loop_
_atom_site_type_symbol
_atom_site_label
_atom_site_fract_x
_atom_site_fract_y
_atom_site_fract_z
Si Si1 0.032856 0.809409 0.675041
Si Si2 0.679391 0.137691 0.828514
Si Si3 0.312560 0.509528 0.329912
Si Si4 0.318091 0.359988 0.329752
Si Si5 0.970250 0.683943 0.825930
Si Si6 0.539771 0.438558 0.327239
Si Si7 0.043902 0.564546 0.671473
Si Si8 0.325807 0.010579 0.826269
O O1 0.023727 0.800177 0.500000
O O2 0.114239 0.818589 0.718118
O O3 0.003469 0.747853 0.758991
O O4 0.989299 0.871024 0.736447
O O5 0.748860 0.165966 0.752133
O O6 0.612632 0.182021 0.788830
O O7 0.663673 0.064104 0.775743
O O8 0.695607 0.137249 0.000000
O O9 0.288866 0.515746 0.500000
O O10 0.333782 0.435326 0.294137
O O11 0.377944 0.555920 0.295222
O O12 0.251040 0.533577 0.223177
O O13 0.302544 0.349756 0.500000
O O14 0.006313 0.622157 0.755089
O O15 0.982866 0.681695 0.000000
O O16 0.500000 0.500000 0.253981
O O17 0.522825 0.439199 0.500000
O O18 0.051088 0.582096 0.500000
O O19 0.120134 0.555744 0.740564
O O20 0.000000 0.500000 0.698354
O O21 0.335805 0.019999 0.000000
#
# Coordination Sequence:
#
# PCOD8225189 Si02
#       8
#     8   8   8   8   8   8   8   8
#     4  10  20  35  55  83 113 144 185 231 274 324
#     4   9  19  34  53  76 105 142 184 222 264 327
#     4   9  16  29  52  82 110 141 184 230 273 322
#     4   9  17  30  53  81 108 137 178 229 274 320
#     4  11  23  39  56  78 111 150 184 221 272 330
#     4   9  15  29  55  82 109 142 181 226 277 322
#     4  11  22  36  58  85 108 134 176 228 274 322
#     4  10  19  33  53  79 112 146 179 222 275 329
#
# _framework density 17.934376
#
# number of rings (size 3 to 8) (size 9 to 14) (size 15 to 20)
#    0.000    2.250    2.500    1.125    0.000    2.500 
#    0.000    1.875    0.000    5.250    0.000    0.000 
#    0.000    0.000    0.000    0.000    0.000    0.000 
#
# Total GULP energy -793613.259726 kJ/mol
# GULP energy per Si atom -12400.207183 kJ/mol
# Density = 1.789356 g / cm^3
# Si number density = 17.934376 Si / 1000 Ang^3
#
#
#
# Elastic Constant Matrix: (Units=GPa)
#
#
# Indices 1 2 3 4 5 6 
#
# 1 142.4145 69.7199 65.2336 0.0000 0.0000 0.0000
# 2 69.7199 89.9661 49.3305 0.0000 0.0000 0.0000
# 3 65.2336 49.3305 66.8894 0.0000 0.0000 0.0000
# 4 0.0000 0.0000 0.0000 17.8159 0.0000 0.0000
# 5 0.0000 0.0000 0.0000 0.0000 24.8422 0.0000
# 6 0.0000 0.0000 0.0000 0.0000 0.0000 25.0525
#
#
#
# Elastic Compliance Matrix: (Units=1/GPa)
#
#
# Indices 1 2 3 4 5 6 
#
# 1 0.014269 -0.005755 -0.009672 0.000000 0.000000 0.000000
# 2 -0.005755 0.020983 -0.009862 0.000000 0.000000 0.000000
# 3 -0.009672 -0.009862 0.031656 0.000000 0.000000 0.000000
# 4 0.000000 0.000000 0.000000 0.056130 0.000000 0.000000
# 5 0.000000 0.000000 0.000000 0.000000 0.040254 0.000000
# 6 0.000000 0.000000 0.000000 0.000000 0.000000 0.039916
#
#
# Mechanical properties :
#
#
# Convention : Reuss Voigt Hill
#
# Bulk Modulus (GPa) = 61.23726 74.20421 67.72073
# Shear Modulus (GPa) = 19.28792 21.20786 20.24789
#
# Velocity S-wave (km/s) = 3.28300 3.44252 3.36370
# Velocity P-wave (km/s) = 6.97066 7.56746 7.27518
#
# Compressibility (1/GPa) = 0.01632993
#
# Stress axis : x y z
#
# Youngs Moduli (GPa) = 70.08026 47.65835 31.58948
#
# Poissons Ratio (x) = 0.27426 0.30554
# Poissons Ratio (y) = 0.40329 0.31155
# Poissons Ratio (z) = 0.67782 0.47002
#
# Static dielectric constant tensor:
#      x y z
#    x 3.400440 0.000000 0.000000 
#    y 0.000000 3.433180 0.000000 
#    z 0.000000 0.000000 3.189160 
# 
# 
# High freq. dielectric constant tensor:
#      x y z
#    x 1.709150 0.000000 0.000000 
#    y 0.000000 1.668660 0.000000 
#    z 0.000000 0.000000 1.681730 
# 
# From -- ./inp_files/8995.got.cif
#   From: 2010.03.12/outbox.cif.g09.slc.cpg/sg55_5_cif.got.tgz:8995.got - 2010.04.16 15:19:21.
