data_PCOD8225554
_publ_section_title
;
Structure prediction by ZEFSAII (Michael W. Deem and Ramdas Pophale) SiO2 
 PCOD8225554
Probable space group: P B A M
;
_chemical_formula_sum "Si O2"
_cell_formula_units_Z 64
_cell_length_a 9.169843
_cell_length_b 25.100606
_cell_length_c 15.519390
_cell_angle_alpha 90.000000
_cell_angle_beta 90.000000
_cell_angle_gamma 90.000000
_cell_volume 3572.076521
_symmetry_space_group_name_H-M "P B A M"
_symmetry_group_IT_number 55
_symmetry_cell_setting 'orthorhombic'
loop_
_space_group_symop_operation_xyz
x,y,z
-x,-y,z
1/2+x,1/2-y,-z
1/2-x,1/2+y,-z
-x,-y,-z
x,y,-z
1/2-x,1/2+y,z
1/2+x,1/2-y,z
loop_
_atom_site_type_symbol
_atom_site_label
_atom_site_fract_x
_atom_site_fract_y
_atom_site_fract_z
Si Si1 0.624383 0.686407 0.903573
Si Si2 0.292562 0.743940 0.323519
Si Si3 0.591367 0.050666 0.791470
Si Si4 0.940452 0.192370 0.597938
Si Si5 0.163085 0.005337 0.099793
Si Si6 0.753514 0.144263 0.268364
Si Si7 0.790714 0.789849 0.137620
Si Si8 0.351837 0.102196 0.904870
O O1 0.681466 0.646099 0.829423
O O2 0.461829 0.705242 0.880905
O O3 0.731638 0.736680 0.906443
O O4 0.627059 0.660134 0.000000
O O5 0.395818 0.709840 0.384546
O O6 0.150043 0.753620 0.381760
O O7 0.345978 0.802986 0.289064
O O8 0.259048 0.709085 0.239565
O O9 0.661842 0.089489 0.718769
O O10 0.484204 0.089700 0.842141
O O11 0.500000 0.000000 0.753406
O O12 0.722103 0.031807 0.851850
O O13 0.921161 0.173143 0.500000
O O14 0.886865 0.144883 0.661984
O O15 0.209886 0.066346 0.114980
O O16 0.164178 0.988436 0.000000
O O17 0.000000 0.000000 0.138343
O O18 0.697717 0.837379 0.098311
O O19 0.410490 0.088704 0.000000
#
# Coordination Sequence:
#
# PCOD8225554 Si02
#       8
#     8   8   8   8   8   8   8   8
#     4  11  22  34  48  72 109 150 182 214 261 321
#     4   9  19  34  53  79 112 140 169 219 264 322
#     4  10  21  37  55  73 102 143 186 231 282 322
#     4  10  19  35  57  81 108 139 171 214 271 326
#     4   9  19  34  51  73 101 134 186 245 282 311
#     4   9  22  34  54  80 107 139 180 227 262 324
#     4  11  21  36  48  73 110 146 186 221 259 318
#     4  10  21  33  50  73 101 144 193 230 266 317
#
# _framework density 17.91675
#
# number of rings (size 3 to 8) (size 9 to 14) (size 15 to 20)
#    0.750    1.375    1.250    1.875    7.000    2.500 
#    0.000    0.000    0.000    0.375    0.000    0.000 
#    0.000    4.500    0.000    0.000    0.000    0.000 
#
# Total GULP energy -792911.365555 kJ/mol
# GULP energy per Si atom -12389.240087 kJ/mol
# Density = 1.787597 g / cm^3
# Si number density = 17.916750 Si / 1000 Ang^3
#
#
#
# Elastic Constant Matrix: (Units=GPa)
#
#
# Indices 1 2 3 4 5 6 
#
# 1 61.4398 5.6215 0.2621 0.0000 0.0000 0.0000
# 2 5.6215 45.8159 4.6570 0.0000 0.0000 0.0000
# 3 0.2621 4.6570 84.3723 0.0000 0.0000 0.0000
# 4 0.0000 0.0000 0.0000 9.2367 0.0000 0.0000
# 5 0.0000 0.0000 0.0000 0.0000 22.6143 0.0000
# 6 0.0000 0.0000 0.0000 0.0000 0.0000 22.6597
#
#
#
# Elastic Compliance Matrix: (Units=1/GPa)
#
#
# Indices 1 2 3 4 5 6 
#
# 1 0.016461 -0.002026 0.000061 0.000000 0.000000 0.000000
# 2 -0.002026 0.022199 -0.001219 0.000000 0.000000 0.000000
# 3 0.000061 -0.001219 0.011919 0.000000 0.000000 0.000000
# 4 0.000000 0.000000 0.000000 0.108263 0.000000 0.000000
# 5 0.000000 0.000000 0.000000 0.000000 0.044220 0.000000
# 6 0.000000 0.000000 0.000000 0.000000 0.000000 0.044131
#
#
# Mechanical properties :
#
#
# Convention : Reuss Voigt Hill
#
# Bulk Modulus (GPa) = 22.61880 23.63436 23.12658
# Shear Modulus (GPa) = 18.63591 22.97464 20.80528
#
# Velocity S-wave (km/s) = 3.22862 3.58481 3.41136
# Velocity P-wave (km/s) = 5.15271 5.50947 5.33407
#
# Compressibility (1/GPa) = 0.04421102
#
# Stress axis : x y z
#
# Youngs Moduli (GPa) = 60.74891 45.04718 83.89737
#
# Poissons Ratio (x) = 0.09126 -0.00509
# Poissons Ratio (y) = 0.12307 0.10227
# Poissons Ratio (z) = -0.00369 0.05491
#
# Static dielectric constant tensor:
#      x y z
#    x 3.370300 0.000000 0.000000 
#    y 0.000000 3.174230 0.000000 
#    z 0.000000 0.000000 3.083140 
# 
# 
# High freq. dielectric constant tensor:
#      x y z
#    x 1.699230 0.000000 0.000000 
#    y 0.000000 1.674120 0.000000 
#    z 0.000000 0.000000 1.662490 
# 
# From -- ./inp_files/21142.got.cif
#   From: 2010.03.12/outbox.cif.g09.slc.cpg/sg55_11_cif.got.tgz:21142.got - 2010.04.16 15:19:21.
