data_PCOD8225929
_publ_section_title
;
Structure prediction by ZEFSAII (Michael W. Deem and Ramdas Pophale) SiO2 
 PCOD8225929
Probable space group: P B A M
;
_chemical_formula_sum "Si O2"
_cell_formula_units_Z 64
_cell_length_a 28.019108
_cell_length_b 12.723258
_cell_length_c 9.097237
_cell_angle_alpha 90.000000
_cell_angle_beta 90.000000
_cell_angle_gamma 90.000000
_cell_volume 3243.113500
_symmetry_space_group_name_H-M "P B A M"
_symmetry_group_IT_number 55
_symmetry_cell_setting 'orthorhombic'
loop_
_space_group_symop_operation_xyz
x,y,z
-x,-y,z
1/2+x,1/2-y,-z
1/2-x,1/2+y,-z
-x,-y,-z
x,y,-z
1/2-x,1/2+y,z
1/2+x,1/2-y,z
loop_
_atom_site_type_symbol
_atom_site_label
_atom_site_fract_x
_atom_site_fract_y
_atom_site_fract_z
Si Si1 0.716037 0.278238 0.826541
Si Si2 0.910428 0.655877 0.841045
Si Si3 0.810931 0.561627 0.160029
Si Si4 0.190209 0.644830 0.326581
Si Si5 0.053347 0.531005 0.340485
Si Si6 0.119222 0.157498 0.672946
Si Si7 0.407231 0.248332 0.327257
Si Si8 0.447900 0.465974 0.673822
O O1 0.725948 0.153417 0.789942
O O2 0.762125 0.334117 0.761444
O O3 0.670472 0.334296 0.750307
O O4 0.713006 0.299489 0.000000
O O5 0.854583 0.641453 0.864220
O O6 0.927951 0.545115 0.783042
O O7 0.917698 0.751905 0.728191
O O8 0.934519 0.680245 0.000000
O O9 0.822539 0.475678 0.283546
O O10 0.797757 0.510672 0.000000
O O11 0.198924 0.652034 0.500000
O O12 0.146946 0.721241 0.275041
O O13 0.080440 0.521317 0.500000
O O14 0.058717 0.650555 0.282907
O O15 0.000000 0.500000 0.369957
O O16 0.126480 0.170374 0.500000
O O17 0.093358 0.048824 0.714588
O O18 0.406010 0.264869 0.500000
O O19 0.429603 0.354536 0.257025
O O20 0.500000 0.500000 0.738731
O O21 0.453523 0.455535 0.500000
#
# Coordination Sequence:
#
# PCOD8225929 Si02
#       8
#     8   8   8   8   8   8   8   8
#     4  10  22  39  58  83 116 156 199 244 300 362
#     4  10  20  35  56  80 114 151 186 233 294 352
#     4   9  19  36  55  76 107 148 188 231 284 348
#     4  11  21  34  57  86 118 152 189 243 299 353
#     4  10  20  33  56  87 116 146 189 241 292 350
#     4  10  20  35  59  88 115 151 203 249 295 351
#     4   9  19  35  53  84 123 151 187 242 298 346
#     4   9  19  35  58  87 121 159 197 244 299 354
#
# _framework density 19.734121999999999
#
# number of rings (size 3 to 8) (size 9 to 14) (size 15 to 20)
#    0.000    2.250    1.250    2.250    1.750    3.750 
#    0.000    1.250    0.000    5.250    0.000    0.000 
#    0.000    0.000    0.000    0.000    0.000    0.000 
#
# Total GULP energy -792860.803727 kJ/mol
# GULP energy per Si atom -12388.450058 kJ/mol
# Density = 1.968921 g / cm^3
# Si number density = 19.734122 Si / 1000 Ang^3
#
#
#
# Elastic Constant Matrix: (Units=GPa)
#
#
# Indices 1 2 3 4 5 6 
#
# 1 98.8979 61.1593 37.5915 0.0000 0.0000 0.0000
# 2 61.1593 146.0811 48.4999 0.0000 0.0000 0.0000
# 3 37.5915 48.4999 87.7342 0.0000 0.0000 0.0000
# 4 0.0000 0.0000 0.0000 25.0314 0.0000 0.0000
# 5 0.0000 0.0000 0.0000 0.0000 9.7318 0.0000
# 6 0.0000 0.0000 0.0000 0.0000 0.0000 20.8790
#
#
#
# Elastic Compliance Matrix: (Units=1/GPa)
#
#
# Indices 1 2 3 4 5 6 
#
# 1 0.014467 -0.004898 -0.003491 0.000000 0.000000 0.000000
# 2 -0.004898 0.010042 -0.003453 0.000000 0.000000 0.000000
# 3 -0.003491 -0.003453 0.014803 0.000000 0.000000 0.000000
# 4 0.000000 0.000000 0.000000 0.039950 0.000000 0.000000
# 5 0.000000 0.000000 0.000000 0.000000 0.102756 0.000000
# 6 0.000000 0.000000 0.000000 0.000000 0.000000 0.047895
#
#
# Mechanical properties :
#
#
# Convention : Reuss Voigt Hill
#
# Bulk Modulus (GPa) = 63.98584 69.69051 66.83818
# Shear Modulus (GPa) = 19.31941 23.49261 21.40601
#
# Velocity S-wave (km/s) = 3.13227 3.45404 3.29708
# Velocity P-wave (km/s) = 6.75099 7.16230 6.95968
#
# Compressibility (1/GPa) = 0.01562846
#
# Stress axis : x y z
#
# Youngs Moduli (GPa) = 69.12108 99.57688 67.55498
#
# Poissons Ratio (x) = 0.48772 0.23585
# Poissons Ratio (y) = 0.33855 0.23326
# Poissons Ratio (z) = 0.24132 0.34383
#
# Static dielectric constant tensor:
#      x y z
#    x 3.348730 0.000000 0.000000 
#    y 0.000000 3.739980 0.000000 
#    z 0.000000 0.000000 3.522260 
# 
# 
# High freq. dielectric constant tensor:
#      x y z
#    x 1.760820 0.000000 0.000000 
#    y 0.000000 1.776550 0.000000 
#    z 0.000000 0.000000 1.749100 
# 
# From -- ./inp_files/10782.got.cif
#   From: 2010.03.12/outbox.cif.g09.slc.cpg/sg55_6_cif.got.tgz:10782.got - 2010.04.16 15:19:21.
