data_PCOD8225690
_publ_section_title
;
Structure prediction by ZEFSAII (Michael W. Deem and Ramdas Pophale) SiO2 
 PCOD8225690
Probable space group: P B A M
;
_chemical_formula_sum "Si O2"
_cell_formula_units_Z 64
_cell_length_a 14.079014
_cell_length_b 14.776570
_cell_length_c 15.755695
_cell_angle_alpha 90.000000
_cell_angle_beta 90.000000
_cell_angle_gamma 90.000000
_cell_volume 3277.807476
_symmetry_space_group_name_H-M "P B A M"
_symmetry_group_IT_number 55
_symmetry_cell_setting 'orthorhombic'
loop_
_space_group_symop_operation_xyz
x,y,z
-x,-y,z
1/2+x,1/2-y,-z
1/2-x,1/2+y,-z
-x,-y,-z
x,y,-z
1/2-x,1/2+y,z
1/2+x,1/2-y,z
loop_
_atom_site_type_symbol
_atom_site_label
_atom_site_fract_x
_atom_site_fract_y
_atom_site_fract_z
Si Si1 0.633354 0.271279 0.098703
Si Si2 0.151153 0.249493 0.400594
Si Si3 0.561138 0.702245 0.190998
Si Si4 0.459652 0.589208 0.320508
Si Si5 0.501860 0.101998 0.400265
Si Si6 0.795315 0.935791 0.199691
Si Si7 0.172654 0.677814 0.308919
Si Si8 0.276650 0.389340 0.902570
O O1 0.536206 0.261008 0.151024
O O2 0.695183 0.355420 0.131185
O O3 0.693455 0.181406 0.116100
O O4 0.610401 0.284765 0.000000
O O5 0.172918 0.257365 0.500000
O O6 0.095007 0.155423 0.384825
O O7 0.089811 0.335801 0.366972
O O8 0.250209 0.247663 0.348973
O O9 0.544675 0.643632 0.275880
O O10 0.624499 0.784720 0.223785
O O11 0.619250 0.648670 0.119535
O O12 0.500000 0.500000 0.369643
O O13 0.397088 0.549221 0.243099
O O14 0.511849 0.095311 0.500000
O O15 0.403685 0.151978 0.379816
O O16 0.500000 0.000000 0.361023
O O17 0.724394 0.912430 0.276559
O O18 0.754684 0.023548 0.153880
O O19 0.278549 0.418665 0.000000
#
# Coordination Sequence:
#
# PCOD8225690 Si02
#       8
#     8   8   8   8   8   8   8   8
#     4  10  22  38  56  82 117 149 192 242 289 353
#     4  10  22  40  61  88 123 158 197 246 300 358
#     4  11  21  37  59  86 114 154 199 236 294 347
#     4  10  19  36  59  87 119 149 193 247 290 355
#     4  10  22  41  63  89 123 165 205 243 299 366
#     4  10  21  36  57  88 115 151 198 242 292 348
#     4  11  22  38  63  87 120 159 199 255 294 351
#     4  11  22  38  61  85 118 157 193 243 303 356
#
# _framework density 19.525248000000001
#
# number of rings (size 3 to 8) (size 9 to 14) (size 15 to 20)
#    0.000    1.625    3.750    1.125    0.000    2.250 
#    0.000    1.875    0.000    1.500    0.000    0.000 
#    0.000    0.000    0.000    0.000    0.000    0.000 
#
# Total GULP energy -793481.909886 kJ/mol
# GULP energy per Si atom -12398.154842 kJ/mol
# Density = 1.948081 g / cm^3
# Si number density = 19.525248 Si / 1000 Ang^3
#
#
#
# Elastic Constant Matrix: (Units=GPa)
#
#
# Indices 1 2 3 4 5 6 
#
# 1 109.8078 43.8627 29.1093 0.0000 0.0000 0.0000
# 2 43.8627 106.9134 28.2490 0.0000 0.0000 0.0000
# 3 29.1093 28.2490 53.9584 0.0000 0.0000 0.0000
# 4 0.0000 0.0000 0.0000 31.6393 0.0000 0.0000
# 5 0.0000 0.0000 0.0000 0.0000 32.7558 0.0000
# 6 0.0000 0.0000 0.0000 0.0000 0.0000 23.6975
#
#
#
# Elastic Compliance Matrix: (Units=1/GPa)
#
#
# Indices 1 2 3 4 5 6 
#
# 1 0.011736 -0.003646 -0.004422 0.000000 0.000000 0.000000
# 2 -0.003646 0.011988 -0.004309 0.000000 0.000000 0.000000
# 3 -0.004422 -0.004309 0.023174 0.000000 0.000000 0.000000
# 4 0.000000 0.000000 0.000000 0.031606 0.000000 0.000000
# 5 0.000000 0.000000 0.000000 0.000000 0.030529 0.000000
# 6 0.000000 0.000000 0.000000 0.000000 0.000000 0.042198
#
#
# Mechanical properties :
#
#
# Convention : Reuss Voigt Hill
#
# Bulk Modulus (GPa) = 45.16096 52.56908 48.86502
# Shear Modulus (GPa) = 27.26771 28.91577 28.09174
#
# Velocity S-wave (km/s) = 3.74108 3.85248 3.79719
# Velocity P-wave (km/s) = 6.46843 6.83892 6.65626
#
# Compressibility (1/GPa) = 0.02214302
#
# Stress axis : x y z
#
# Youngs Moduli (GPa) = 85.21081 83.41802 43.15127
#
# Poissons Ratio (x) = 0.30416 0.19082
# Poissons Ratio (y) = 0.31070 0.18594
# Poissons Ratio (z) = 0.37681 0.35944
#
# Static dielectric constant tensor:
#      x y z
#    x 3.609450 0.000000 0.000000 
#    y 0.000000 3.658720 0.000000 
#    z 0.000000 0.000000 3.444820 
# 
# 
# High freq. dielectric constant tensor:
#      x y z
#    x 1.764930 0.000000 0.000000 
#    y 0.000000 1.758710 0.000000 
#    z 0.000000 0.000000 1.753350 
# 
# From -- ./inp_files/21335.got.cif
#   From: 2010.03.12/outbox.cif.g09.slc.cpg/sg55_11_cif.got.tgz:21335.got - 2010.04.16 15:19:21.
