data_PCOD8225617
_publ_section_title
;
Structure prediction by ZEFSAII (Michael W. Deem and Ramdas Pophale) SiO2 
 PCOD8225617
Probable space group: P B A M
;
_chemical_formula_sum "Si O2"
_cell_formula_units_Z 64
_cell_length_a 18.318815
_cell_length_b 19.705222
_cell_length_c 8.884676
_cell_angle_alpha 90.000000
_cell_angle_beta 90.000000
_cell_angle_gamma 90.000000
_cell_volume 3207.157614
_symmetry_space_group_name_H-M "P B A M"
_symmetry_group_IT_number 55
_symmetry_cell_setting 'orthorhombic'
loop_
_space_group_symop_operation_xyz
x,y,z
-x,-y,z
1/2+x,1/2-y,-z
1/2-x,1/2+y,-z
-x,-y,-z
x,y,-z
1/2-x,1/2+y,z
1/2+x,1/2-y,z
loop_
_atom_site_type_symbol
_atom_site_label
_atom_site_fract_x
_atom_site_fract_y
_atom_site_fract_z
Si Si1 0.331375 0.368540 0.178318
Si Si2 0.434862 0.949243 0.324853
Si Si3 0.282988 0.978107 0.821879
Si Si4 0.595028 0.330232 0.328781
Si Si5 0.517559 0.573990 0.821946
Si Si6 0.251716 0.117173 0.324125
Si Si7 0.989286 0.697508 0.326922
Si Si8 0.640411 0.781095 0.177390
O O1 0.262209 0.412145 0.234965
O O2 0.405756 0.400149 0.247031
O O3 0.323785 0.290314 0.230410
O O4 0.337019 0.371078 0.000000
O O5 0.413998 0.951727 0.500000
O O6 0.365851 0.972536 0.229763
O O7 0.458287 0.874478 0.273390
O O8 0.500000 0.000000 0.285979
O O9 0.244872 0.044156 0.752871
O O10 0.279922 0.984671 0.000000
O O11 0.580087 0.353217 0.500000
O O12 0.546758 0.375337 0.219688
O O13 0.679510 0.339849 0.286400
O O14 0.575861 0.251333 0.305779
O O15 0.500000 0.500000 0.754108
O O16 0.522830 0.570362 0.000000
O O17 0.263919 0.106285 0.500000
O O18 0.320887 0.157112 0.260454
O O19 0.016057 0.693973 0.500000
O O20 0.055723 0.719439 0.221454
O O21 0.647786 0.791587 0.000000
#
# Coordination Sequence:
#
# PCOD8225617 Si02
#       8
#     8   8   8   8   8   8   8   8
#     4   9  20  37  56  87 124 156 193 243 299 357
#     4  10  22  40  63  89 122 161 200 248 309 365
#     4  11  23  41  64  91 122 157 204 254 303 364
#     4  10  22  38  57  86 121 158 202 248 292 352
#     4  10  19  35  60  85 116 157 196 238 293 350
#     4  11  24  41  60  86 122 160 202 250 304 362
#     4  10  21  39  61  88 123 161 201 247 301 359
#     4  11  22  39  63  90 121 159 203 249 302 362
#
# _framework density 19.955363999999999
#
# number of rings (size 3 to 8) (size 9 to 14) (size 15 to 20)
#    0.000    1.750    1.250    2.625    1.750    4.000 
#    0.000    3.125    0.000    0.000    0.000    0.000 
#    0.000    0.000    0.000    0.000    0.000    0.000 
#
# Total GULP energy -793873.723661 kJ/mol
# GULP energy per Si atom -12404.276932 kJ/mol
# Density = 1.990994 g / cm^3
# Si number density = 19.955364 Si / 1000 Ang^3
#
#
#
# Elastic Constant Matrix: (Units=GPa)
#
#
# Indices 1 2 3 4 5 6 
#
# 1 99.9901 39.1486 33.3067 0.0000 0.0000 0.0000
# 2 39.1486 137.0608 32.8266 0.0000 0.0000 0.0000
# 3 33.3067 32.8266 55.5531 0.0000 0.0000 0.0000
# 4 0.0000 0.0000 0.0000 22.2829 0.0000 0.0000
# 5 0.0000 0.0000 0.0000 0.0000 23.5212 0.0000
# 6 0.0000 0.0000 0.0000 0.0000 0.0000 41.2689
#
#
#
# Elastic Compliance Matrix: (Units=1/GPa)
#
#
# Indices 1 2 3 4 5 6 
#
# 1 0.013021 -0.002154 -0.006534 0.000000 0.000000 0.000000
# 2 -0.002154 0.008855 -0.003941 0.000000 0.000000 0.000000
# 3 -0.006534 -0.003941 0.024247 0.000000 0.000000 0.000000
# 4 0.000000 0.000000 0.000000 0.044877 0.000000 0.000000
# 5 0.000000 0.000000 0.000000 0.000000 0.042515 0.000000
# 6 0.000000 0.000000 0.000000 0.000000 0.000000 0.024231
#
#
# Mechanical properties :
#
#
# Convention : Reuss Voigt Hill
#
# Bulk Modulus (GPa) = 47.92716 55.90755 51.91735
# Shear Modulus (GPa) = 26.32144 29.90274 28.11209
#
# Velocity S-wave (km/s) = 3.63577 3.87522 3.75740
# Velocity P-wave (km/s) = 6.45712 6.93543 6.70055
#
# Compressibility (1/GPa) = 0.02086500
#
# Stress axis : x y z
#
# Youngs Moduli (GPa) = 76.80029 112.92735 41.24263
#
# Poissons Ratio (x) = 0.24328 0.26946
# Poissons Ratio (y) = 0.16545 0.16254
# Poissons Ratio (z) = 0.50178 0.44505
#
# Static dielectric constant tensor:
#      x y z
#    x 3.633120 0.000000 0.000000 
#    y 0.000000 3.910260 0.000000 
#    z 0.000000 0.000000 3.439210 
# 
# 
# High freq. dielectric constant tensor:
#      x y z
#    x 1.783530 0.000000 0.000000 
#    y 0.000000 1.796240 0.000000 
#    z 0.000000 0.000000 1.762190 
# 
# From -- ./inp_files/7974.got.cif
#   From: 2010.03.12/outbox.cif.g09.slc.cpg/sg55_4_cif.got.tgz:7974.got - 2010.04.16 15:19:21.
