data_PCOD8225144
_publ_section_title
;
Structure prediction by ZEFSAII (Michael W. Deem and Ramdas Pophale) SiO2 
 PCOD8225144
Probable space group: P B A M
;
_chemical_formula_sum "Si O2"
_cell_formula_units_Z 64
_cell_length_a 12.777153
_cell_length_b 27.237457
_cell_length_c 9.505831
_cell_angle_alpha 90.000000
_cell_angle_beta 90.000000
_cell_angle_gamma 90.000000
_cell_volume 3308.192265
_symmetry_space_group_name_H-M "P B A M"
_symmetry_group_IT_number 55
_symmetry_cell_setting 'orthorhombic'
loop_
_space_group_symop_operation_xyz
x,y,z
-x,-y,z
1/2+x,1/2-y,-z
1/2-x,1/2+y,-z
-x,-y,-z
x,y,-z
1/2-x,1/2+y,z
1/2+x,1/2-y,z
loop_
_atom_site_type_symbol
_atom_site_label
_atom_site_fract_x
_atom_site_fract_y
_atom_site_fract_z
Si Si1 0.405213 0.030984 0.158138
Si Si2 0.699398 0.836977 0.345127
Si Si3 0.478696 0.142078 0.842402
Si Si4 0.468928 0.555913 0.837155
Si Si5 0.809442 0.683217 0.835407
Si Si6 0.769334 0.943939 0.345904
Si Si7 0.414646 0.347127 0.165076
Si Si8 0.120964 0.209085 0.833372
O O1 0.438333 0.087181 0.156258
O O2 0.303461 0.019923 0.253382
O O3 0.500000 0.000000 0.223064
O O4 0.378867 0.012896 0.000000
O O5 0.699911 0.811198 0.500000
O O6 0.591823 0.824657 0.262009
O O7 0.703603 0.894902 0.368922
O O8 0.796617 0.823396 0.249192
O O9 0.600668 0.143725 0.794850
O O10 0.469497 0.165006 0.000000
O O11 0.500000 0.500000 0.805542
O O12 0.373378 0.568902 0.737779
O O13 0.558862 0.595742 0.797688
O O14 0.435725 0.562378 0.000000
O O15 0.697346 0.668532 0.764495
O O16 0.856251 0.735351 0.785487
O O17 0.789487 0.684802 0.000000
O O18 0.794267 0.967155 0.500000
O O19 0.505708 0.309460 0.215213
O O20 0.403730 0.342159 0.000000
O O21 0.136147 0.200932 0.000000
#
# Coordination Sequence:
#
# PCOD8225144 Si02
#       8
#     8   8   8   8   8   8   8   8
#     4   9  18  32  53  80 108 140 179 222 269 318
#     4  10  20  34  53  76 104 139 176 222 269 315
#     4   9  18  33  54  79 108 139 173 218 266 318
#     4  10  20  34  55  80 106 142 184 226 275 325
#     4   9  19  32  52  82 110 138 176 221 275 327
#     4  10  20  34  52  75 105 140 180 225 270 321
#     4   9  18  33  52  81 114 138 173 229 276 319
#     4  10  19  32  56  80 102 135 178 223 267 322
#
# _framework density 19.345914
#
# number of rings (size 3 to 8) (size 9 to 14) (size 15 to 20)
#    0.000    2.500    1.250    0.750    1.750    2.500 
#    0.000    4.375    0.000    2.250    0.000    0.000 
#    0.000    0.000    0.000    0.000    0.000    0.000 
#
# Total GULP energy -793044.770274 kJ/mol
# GULP energy per Si atom -12391.324536 kJ/mol
# Density = 1.930188 g / cm^3
# Si number density = 19.345914 Si / 1000 Ang^3
#
#
#
# Elastic Constant Matrix: (Units=GPa)
#
#
# Indices 1 2 3 4 5 6 
#
# 1 154.0674 31.8140 48.7184 0.0000 0.0000 0.0000
# 2 31.8140 57.5274 14.1930 0.0000 0.0000 0.0000
# 3 48.7184 14.1930 75.9919 0.0000 0.0000 0.0000
# 4 0.0000 0.0000 0.0000 8.0199 0.0000 0.0000
# 5 0.0000 0.0000 0.0000 0.0000 2.7556 0.0000
# 6 0.0000 0.0000 0.0000 0.0000 0.0000 30.5861
#
#
#
# Elastic Compliance Matrix: (Units=1/GPa)
#
#
# Indices 1 2 3 4 5 6 
#
# 1 0.008816 -0.003649 -0.004970 0.000000 0.000000 0.000000
# 2 -0.003649 0.019733 -0.001346 0.000000 0.000000 0.000000
# 3 -0.004970 -0.001346 0.016597 0.000000 0.000000 0.000000
# 4 0.000000 0.000000 0.000000 0.124690 0.000000 0.000000
# 5 0.000000 0.000000 0.000000 0.000000 0.362902 0.000000
# 6 0.000000 0.000000 0.000000 0.000000 0.000000 0.032695
#
#
# Mechanical properties :
#
#
# Convention : Reuss Voigt Hill
#
# Bulk Modulus (GPa) = 39.65872 53.00417 46.33144
# Shear Modulus (GPa) = 8.42079 21.12974 14.77527
#
# Velocity S-wave (km/s) = 2.08859 3.30844 2.76658
# Velocity P-wave (km/s) = 5.13425 6.48475 5.84861
#
# Compressibility (1/GPa) = 0.02521514
#
# Stress axis : x y z
#
# Youngs Moduli (GPa) = 113.43180 50.67612 60.25118
#
# Poissons Ratio (x) = 0.18492 0.29947
# Poissons Ratio (y) = 0.41393 0.08110
# Poissons Ratio (z) = 0.56379 0.06822
#
# Static dielectric constant tensor:
#      x y z
#    x 3.769450 0.000000 0.000000 
#    y 0.000000 3.491670 0.000000 
#    z 0.000000 0.000000 3.566320 
# 
# 
# High freq. dielectric constant tensor:
#      x y z
#    x 1.760700 0.000000 0.000000 
#    y 0.000000 1.734650 0.000000 
#    z 0.000000 0.000000 1.720840 
# 
# From -- ./inp_files/4600.got.cif
#   From: 2010.03.12/outbox.cif.g09.slc.cpg/sg55_3_cif.got.tgz:4600.got - 2010.04.16 15:19:21.
