data_PCOD8225102
_publ_section_title
;
Structure prediction by ZEFSAII (Michael W. Deem and Ramdas Pophale) SiO2 
 PCOD8225102
Probable space group: P B A M
;
_chemical_formula_sum "Si O2"
_cell_formula_units_Z 40
_cell_length_a 9.336352
_cell_length_b 28.473507
_cell_length_c 7.922734
_cell_angle_alpha 90.000000
_cell_angle_beta 90.000000
_cell_angle_gamma 90.000000
_cell_volume 2106.169180
_symmetry_space_group_name_H-M "P B A M"
_symmetry_group_IT_number 55
_symmetry_cell_setting 'orthorhombic'
loop_
_space_group_symop_operation_xyz
x,y,z
-x,-y,z
1/2+x,1/2-y,-z
1/2-x,1/2+y,-z
-x,-y,-z
x,y,-z
1/2-x,1/2+y,z
1/2+x,1/2-y,z
loop_
_atom_site_type_symbol
_atom_site_label
_atom_site_fract_x
_atom_site_fract_y
_atom_site_fract_z
Si Si1 0.865700 0.115381 0.812814
Si Si2 0.862403 0.218369 0.189473
Si Si3 0.666151 0.400522 0.692459
Si Si4 0.161650 0.205507 0.689301
Si Si5 0.323365 0.051887 0.000000
Si Si6 0.151338 0.441179 0.000000
O O1 0.819252 0.166426 0.739249
O O2 0.727740 0.080940 0.831684
O O3 0.993161 0.092551 0.703220
O O4 0.931509 0.125146 0.000000
O O5 0.794309 0.259166 0.301873
O O6 0.033810 0.223953 0.193390
O O7 0.806237 0.225434 0.000000
O O8 0.712673 0.413527 0.500000
O O9 0.709422 0.347128 0.740060
O O10 0.744796 0.433250 0.827937
O O11 0.101567 0.203607 0.500000
O O12 0.484499 0.072355 0.000000
O O13 0.324605 0.996121 0.000000
#
# Coordination Sequence:
#
# PCOD8225102 Si02
#       6
#     8   8   8   8   4   4
#     4   8  17  37  58  79 109 147 190 230 274 329
#     4  10  19  32  54  78 106 145 189 223 265 327
#     4  10  21  37  60  87 113 149 193 235 280 332
#     4  10  21  35  51  79 115 148 183 229 274 320
#     4  11  21  39  62  83 118 147 180 239 290 349
#     4   9  21  39  60  83 112 153 182 229 302 339
#
# _framework density 18.991828000000002
#
# number of rings (size 3 to 8) (size 9 to 14) (size 15 to 20)
#    0.600    1.800    1.000    1.200    2.800    4.000 
#    0.000    5.000    0.000    0.000    0.000    0.000 
#    0.000    0.000    0.000    0.000    0.000    0.000 
#
# Total GULP energy -495718.265622 kJ/mol
# GULP energy per Si atom -12392.956641 kJ/mol
# Density = 1.894860 g / cm^3
# Si number density = 18.991828 Si / 1000 Ang^3
#
#
#
# Elastic Constant Matrix: (Units=GPa)
#
#
# Indices 1 2 3 4 5 6 
#
# 1 59.6400 18.3208 19.6474 0.0000 0.0000 0.0000
# 2 18.3208 47.1204 14.9843 0.0000 0.0000 0.0000
# 3 19.6474 14.9843 66.5113 0.0000 0.0000 0.0000
# 4 0.0000 0.0000 0.0000 18.2782 0.0000 0.0000
# 5 0.0000 0.0000 0.0000 0.0000 18.9146 0.0000
# 6 0.0000 0.0000 0.0000 0.0000 0.0000 35.9545
#
#
#
# Elastic Compliance Matrix: (Units=1/GPa)
#
#
# Indices 1 2 3 4 5 6 
#
# 1 0.020234 -0.006427 -0.004529 0.000000 0.000000 0.000000
# 2 -0.006427 0.024901 -0.003712 0.000000 0.000000 0.000000
# 3 -0.004529 -0.003712 0.017209 0.000000 0.000000 0.000000
# 4 0.000000 0.000000 0.000000 0.054710 0.000000 0.000000
# 5 0.000000 0.000000 0.000000 0.000000 0.052869 0.000000
# 6 0.000000 0.000000 0.000000 0.000000 0.000000 0.027813
#
#
# Mechanical properties :
#
#
# Convention : Reuss Voigt Hill
#
# Bulk Modulus (GPa) = 30.29461 31.01964 30.65712
# Shear Modulus (GPa) = 21.00190 22.65074 21.82632
#
# Velocity S-wave (km/s) = 3.32902 3.45723 3.39373
# Velocity P-wave (km/s) = 5.54640 5.68377 5.61550
#
# Compressibility (1/GPa) = 0.03300917
#
# Stress axis : x y z
#
# Youngs Moduli (GPa) = 49.42287 40.15861 58.10874
#
# Poissons Ratio (x) = 0.25809 0.26318
# Poissons Ratio (y) = 0.31763 0.21567
# Poissons Ratio (z) = 0.22384 0.14905
#
# Static dielectric constant tensor:
#      x y z
#    x 3.244640 0.000000 0.000000 
#    y 0.000000 3.376450 0.000000 
#    z 0.000000 0.000000 3.302880 
# 
# 
# High freq. dielectric constant tensor:
#      x y z
#    x 1.720530 0.000000 0.000000 
#    y 0.000000 1.733680 0.000000 
#    z 0.000000 0.000000 1.727850 
# 
# From -- ./inp_files/2634.got.cif
#   From: 2010.03.12/outbox.cif.g09.slc.cpg/sg55_2_cif.got.tgz:2634.got - 2010.04.16 15:19:21.
