data_PCOD8225221
_publ_section_title
;
Structure prediction by ZEFSAII (Michael W. Deem and Ramdas Pophale) SiO2 
 PCOD8225221
Probable space group: P B A M
;
_chemical_formula_sum "Si O2"
_cell_formula_units_Z 64
_cell_length_a 16.487038
_cell_length_b 21.629706
_cell_length_c 9.291622
_cell_angle_alpha 90.000000
_cell_angle_beta 90.000000
_cell_angle_gamma 90.000000
_cell_volume 3313.483321
_symmetry_space_group_name_H-M "P B A M"
_symmetry_group_IT_number 55
_symmetry_cell_setting 'orthorhombic'
loop_
_space_group_symop_operation_xyz
x,y,z
-x,-y,z
1/2+x,1/2-y,-z
1/2-x,1/2+y,-z
-x,-y,-z
x,y,-z
1/2-x,1/2+y,z
1/2+x,1/2-y,z
loop_
_atom_site_type_symbol
_atom_site_label
_atom_site_fract_x
_atom_site_fract_y
_atom_site_fract_z
Si Si1 0.221095 0.892995 0.331623
Si Si2 0.065017 0.116550 0.833401
Si Si3 0.326357 0.528375 0.669360
Si Si4 0.612364 0.156436 0.662013
Si Si5 0.166741 0.207856 0.340766
Si Si6 0.952594 0.321556 0.170283
Si Si7 0.096609 0.815654 0.832988
Si Si8 0.810557 0.375184 0.337010
O O1 0.205220 0.883274 0.500000
O O2 0.318145 0.893756 0.299964
O O3 0.176693 0.837069 0.249994
O O4 0.186711 0.958630 0.277665
O O5 0.093732 0.055737 0.747154
O O6 0.113156 0.176867 0.782059
O O7 0.970761 0.131314 0.806245
O O8 0.083795 0.105612 0.000000
O O9 0.341614 0.532356 0.500000
O O10 0.247046 0.568239 0.711875
O O11 0.578365 0.146908 0.500000
O O12 0.662287 0.219548 0.674894
O O13 0.538980 0.154639 0.772899
O O14 0.136323 0.185865 0.500000
O O15 0.260278 0.188463 0.322964
O O16 0.934905 0.251333 0.223246
O O17 0.886697 0.369581 0.231361
O O18 0.953574 0.326040 0.000000
O O19 0.118515 0.809490 0.000000
O O20 0.841737 0.385460 0.500000
#
# Coordination Sequence:
#
# PCOD8225221 Si02
#       8
#     8   8   8   8   8   8   8   8
#     4  10  22  39  59  81 106 143 187 230 273 321
#     4  10  19  33  54  80 112 148 181 216 265 322
#     4   9  20  39  58  79 109 143 187 232 270 317
#     4  10  20  35  56  81 108 140 180 226 278 326
#     4   9  17  31  53  80 108 137 175 222 272 323
#     4  11  22  36  54  82 115 145 179 220 271 330
#     4  10  22  37  53  81 118 147 176 219 273 330
#     4   9  18  34  56  80 106 139 180 228 274 317
#
# _framework density 19.315020000000001
#
# number of rings (size 3 to 8) (size 9 to 14) (size 15 to 20)
#    0.000    2.250    1.250    2.250    0.000    6.500 
#    0.000    3.125    0.000    3.750    0.000    0.000 
#    0.000    0.000    0.000    0.000    0.000    0.000 
#
# Total GULP energy -793526.351553 kJ/mol
# GULP energy per Si atom -12398.849243 kJ/mol
# Density = 1.927106 g / cm^3
# Si number density = 19.315020 Si / 1000 Ang^3
#
#
#
# Elastic Constant Matrix: (Units=GPa)
#
#
# Indices 1 2 3 4 5 6 
#
# 1 86.0823 11.0208 44.5270 0.0000 0.0000 0.0000
# 2 11.0208 37.9045 17.6336 0.0000 0.0000 0.0000
# 3 44.5270 17.6336 68.4503 0.0000 0.0000 0.0000
# 4 0.0000 0.0000 0.0000 22.0647 0.0000 0.0000
# 5 0.0000 0.0000 0.0000 0.0000 27.4204 0.0000
# 6 0.0000 0.0000 0.0000 0.0000 0.0000 21.3487
#
#
#
# Elastic Compliance Matrix: (Units=1/GPa)
#
#
# Indices 1 2 3 4 5 6 
#
# 1 0.017510 0.000236 -0.011451 0.000000 0.000000 0.000000
# 2 0.000236 0.029978 -0.007876 0.000000 0.000000 0.000000
# 3 -0.011451 -0.007876 0.024087 0.000000 0.000000 0.000000
# 4 0.000000 0.000000 0.000000 0.045321 0.000000 0.000000
# 5 0.000000 0.000000 0.000000 0.000000 0.036469 0.000000
# 6 0.000000 0.000000 0.000000 0.000000 0.000000 0.046841
#
#
# Mechanical properties :
#
#
# Convention : Reuss Voigt Hill
#
# Bulk Modulus (GPa) = 29.94703 37.64442 33.79572
# Shear Modulus (GPa) = 20.03860 22.11713 21.07787
#
# Velocity S-wave (km/s) = 3.22446 3.38757 3.30702
# Velocity P-wave (km/s) = 5.42227 5.90193 5.66718
#
# Compressibility (1/GPa) = 0.03339230
#
# Stress axis : x y z
#
# Youngs Moduli (GPa) = 57.11136 33.35831 41.51631
#
# Poissons Ratio (x) = -0.00788 0.47540
# Poissons Ratio (y) = -0.01348 0.32699
# Poissons Ratio (z) = 0.65397 0.26273
#
# Static dielectric constant tensor:
#      x y z
#    x 3.414600 0.000000 0.000000 
#    y 0.000000 3.463760 0.000000 
#    z 0.000000 0.000000 3.420060 
# 
# 
# High freq. dielectric constant tensor:
#      x y z
#    x 1.748160 0.000000 0.000000 
#    y 0.000000 1.737730 0.000000 
#    z 0.000000 0.000000 1.744490 
# 
# From -- ./inp_files/6702.got.cif
#   From: 2010.03.12/outbox.cif.g09.slc.cpg/sg55_4_cif.got.tgz:6702.got - 2010.04.16 15:19:21.
