data_PCOD8225271
_publ_section_title
;
Structure prediction by ZEFSAII (Michael W. Deem and Ramdas Pophale) SiO2 
 PCOD8225271
Probable space group: P B A M
;
_chemical_formula_sum "Si O2"
_cell_formula_units_Z 64
_cell_length_a 14.355295
_cell_length_b 25.260432
_cell_length_c 8.939740
_cell_angle_alpha 90.000000
_cell_angle_beta 90.000000
_cell_angle_gamma 90.000000
_cell_volume 3241.737040
_symmetry_space_group_name_H-M "P B A M"
_symmetry_group_IT_number 55
_symmetry_cell_setting 'orthorhombic'
loop_
_space_group_symop_operation_xyz
x,y,z
-x,-y,z
1/2+x,1/2-y,-z
1/2-x,1/2+y,-z
-x,-y,-z
x,y,-z
1/2-x,1/2+y,z
1/2+x,1/2-y,z
loop_
_atom_site_type_symbol
_atom_site_label
_atom_site_fract_x
_atom_site_fract_y
_atom_site_fract_z
Si Si1 0.750483 0.925138 0.821726
Si Si2 0.955893 0.446505 0.821838
Si Si3 0.051132 0.253650 0.327157
Si Si4 0.158407 0.769790 0.326278
Si Si5 0.603820 0.511387 0.821977
Si Si6 0.809398 0.121276 0.172079
Si Si7 0.099307 0.359121 0.828309
Si Si8 0.698316 0.308817 0.822950
O O1 0.648535 0.940163 0.759165
O O2 0.774593 0.866648 0.762445
O O3 0.826279 0.966561 0.758455
O O4 0.750042 0.926195 0.000000
O O5 0.000000 0.500000 0.755364
O O6 0.019201 0.397821 0.767212
O O7 0.955835 0.448679 0.000000
O O8 0.074166 0.245739 0.500000
O O9 0.099819 0.307231 0.272573
O O10 0.095548 0.204397 0.237836
O O11 0.941844 0.255840 0.295618
O O12 0.185270 0.768295 0.500000
O O13 0.156889 0.830088 0.271876
O O14 0.230865 0.735445 0.233960
O O15 0.500000 0.500000 0.760101
O O16 0.638588 0.568877 0.767547
O O17 0.604777 0.509330 0.000000
O O18 0.698631 0.111864 0.186927
O O19 0.836240 0.132702 0.000000
O O20 0.080356 0.342661 0.000000
O O21 0.698043 0.307216 0.000000
#
# Coordination Sequence:
#
# PCOD8225271 Si02
#       8
#     8   8   8   8   8   8   8   8
#     4   9  18  31  49  79 114 148 186 233 289 341
#     4   9  16  28  50  79 114 147 177 225 284 339
#     4  11  24  39  56  80 113 156 195 236 291 352
#     4  11  24  40  58  82 117 158 197 239 294 353
#     4   9  18  32  51  79 116 152 187 236 292 340
#     4  10  20  34  57  85 112 146 193 241 285 340
#     4  10  19  33  55  85 113 144 188 239 287 338
#     4  11  22  37  60  88 117 150 193 245 292 342
#
# _framework density 19.742501000000001
#
# number of rings (size 3 to 8) (size 9 to 14) (size 15 to 20)
#    0.000    2.000    1.250    2.625    1.750    6.000 
#    0.000    0.000    0.000    2.250    0.000    0.000 
#    0.000    0.000    0.000    0.000    0.000    0.000 
#
# Total GULP energy -793761.406681 kJ/mol
# GULP energy per Si atom -12402.521979 kJ/mol
# Density = 1.969757 g / cm^3
# Si number density = 19.742501 Si / 1000 Ang^3
#
#
#
# Elastic Constant Matrix: (Units=GPa)
#
#
# Indices 1 2 3 4 5 6 
#
# 1 107.0204 44.7148 22.7068 0.0000 0.0000 0.0000
# 2 44.7148 130.6683 22.4786 0.0000 0.0000 0.0000
# 3 22.7068 22.4786 47.4825 0.0000 0.0000 0.0000
# 4 0.0000 0.0000 0.0000 2.3988 0.0000 0.0000
# 5 0.0000 0.0000 0.0000 0.0000 20.4213 0.0000
# 6 0.0000 0.0000 0.0000 0.0000 0.0000 42.8559
#
#
#
# Elastic Compliance Matrix: (Units=1/GPa)
#
#
# Indices 1 2 3 4 5 6 
#
# 1 0.011554 -0.003270 -0.003977 0.000000 0.000000 0.000000
# 2 -0.003270 0.009257 -0.002819 0.000000 0.000000 0.000000
# 3 -0.003977 -0.002819 0.024297 0.000000 0.000000 0.000000
# 4 0.000000 0.000000 0.000000 0.416872 0.000000 0.000000
# 5 0.000000 0.000000 0.000000 0.000000 0.048969 0.000000
# 6 0.000000 0.000000 0.000000 0.000000 0.000000 0.023334
#
#
# Mechanical properties :
#
#
# Convention : Reuss Voigt Hill
#
# Bulk Modulus (GPa) = 40.03806 51.66351 45.85078
# Shear Modulus (GPa) = 8.88511 26.15326 17.51918
#
# Velocity S-wave (km/s) = 2.12374 3.64362 2.98213
# Velocity P-wave (km/s) = 5.13204 6.62773 5.92725
#
# Compressibility (1/GPa) = 0.02497624
#
# Stress axis : x y z
#
# Youngs Moduli (GPa) = 86.55023 108.02984 41.15759
#
# Poissons Ratio (x) = 0.35321 0.16370
# Poissons Ratio (y) = 0.28298 0.11601
# Poissons Ratio (z) = 0.34425 0.30450
#
# Static dielectric constant tensor:
#      x y z
#    x 3.872870 0.000000 0.000000 
#    y 0.000000 3.759030 0.000000 
#    z 0.000000 0.000000 3.158350 
# 
# 
# High freq. dielectric constant tensor:
#      x y z
#    x 1.786870 0.000000 0.000000 
#    y 0.000000 1.778950 0.000000 
#    z 0.000000 0.000000 1.722670 
# 
# From -- ./inp_files/6652.got.cif
#   From: 2010.03.12/outbox.cif.g09.slc.cpg/sg55_4_cif.got.tgz:6652.got - 2010.04.16 15:19:21.
