data_PCOD8225631
_publ_section_title
;
Structure prediction by ZEFSAII (Michael W. Deem and Ramdas Pophale) SiO2 
 PCOD8225631
Probable space group: P B A M
;
_chemical_formula_sum "Si O2"
_cell_formula_units_Z 64
_cell_length_a 30.210922
_cell_length_b 11.876107
_cell_length_c 9.445548
_cell_angle_alpha 90.000000
_cell_angle_beta 90.000000
_cell_angle_gamma 90.000000
_cell_volume 3388.950619
_symmetry_space_group_name_H-M "P B A M"
_symmetry_group_IT_number 55
_symmetry_cell_setting 'orthorhombic'
loop_
_space_group_symop_operation_xyz
x,y,z
-x,-y,z
1/2+x,1/2-y,-z
1/2-x,1/2+y,-z
-x,-y,-z
x,y,-z
1/2-x,1/2+y,z
1/2+x,1/2-y,z
loop_
_atom_site_type_symbol
_atom_site_label
_atom_site_fract_x
_atom_site_fract_y
_atom_site_fract_z
Si Si1 0.450045 0.991170 0.668319
Si Si2 0.703219 0.008640 0.337536
Si Si3 0.924537 0.752004 0.338896
Si Si4 0.624600 0.839780 0.333329
Si Si5 0.048325 0.049923 0.840692
Si Si6 0.627311 0.608375 0.165983
Si Si7 0.323519 0.740524 0.658512
Si Si8 0.711510 0.455187 0.833774
O O1 0.449348 0.993742 0.500000
O O2 0.430148 0.873346 0.723324
O O3 0.500000 0.000000 0.727654
O O4 0.418983 0.093280 0.722309
O O5 0.718904 0.996232 0.500000
O O6 0.679973 0.127646 0.311004
O O7 0.668156 0.912315 0.298573
O O8 0.744765 0.006209 0.234316
O O9 0.941445 0.755271 0.500000
O O10 0.874427 0.793136 0.325535
O O11 0.954231 0.837467 0.250764
O O12 0.621112 0.815332 0.500000
O O13 0.628764 0.723628 0.251353
O O14 0.084225 0.960746 0.782668
O O15 0.062002 0.082977 0.000000
O O16 0.000000 0.000000 0.833568
O O17 0.670858 0.536790 0.203447
O O18 0.624899 0.636466 0.000000
O O19 0.306492 0.712408 0.500000
O O20 0.295543 0.669066 0.770081
O O21 0.718395 0.441843 0.000000
#
# Coordination Sequence:
#
# PCOD8225631 Si02
#       8
#     8   8   8   8   8   8   8   8
#     4   9  18  34  57  87 119 147 179 229 287 332
#     4  10  22  40  60  85 116 149 189 234 285 340
#     4  10  19  35  61  88 113 143 188 239 281 330
#     4  10  21  38  60  85 114 151 189 228 281 342
#     4  10  22  40  59  80 114 157 192 229 283 337
#     4  10  23  41  56  79 117 153 186 233 284 332
#     4  10  20  38  62  85 113 147 188 238 286 336
#     4  11  24  40  59  84 115 150 192 236 285 338
#
# _framework density 18.884903000000001
#
# number of rings (size 3 to 8) (size 9 to 14) (size 15 to 20)
#    0.000    2.000    2.500    0.375    3.500    2.750 
#    0.000    0.625    0.000    0.750    0.000    0.000 
#    0.000    0.000    0.000    0.000    0.000    0.000 
#
# Total GULP energy -793705.602825 kJ/mol
# GULP energy per Si atom -12401.650044 kJ/mol
# Density = 1.884192 g / cm^3
# Si number density = 18.884903 Si / 1000 Ang^3
#
#
#
# Elastic Constant Matrix: (Units=GPa)
#
#
# Indices 1 2 3 4 5 6 
#
# 1 106.9649 38.4698 41.9802 0.0000 0.0000 0.0000
# 2 38.4698 120.2138 54.1766 0.0000 0.0000 0.0000
# 3 41.9802 54.1766 68.4407 0.0000 0.0000 0.0000
# 4 0.0000 0.0000 0.0000 5.5562 0.0000 0.0000
# 5 0.0000 0.0000 0.0000 0.0000 23.2413 0.0000
# 6 0.0000 0.0000 0.0000 0.0000 0.0000 25.9698
#
#
#
# Elastic Compliance Matrix: (Units=1/GPa)
#
#
# Indices 1 2 3 4 5 6 
#
# 1 0.012367 -0.000838 -0.006922 0.000000 0.000000 0.000000
# 2 -0.000838 0.012989 -0.009768 0.000000 0.000000 0.000000
# 3 -0.006922 -0.009768 0.026589 0.000000 0.000000 0.000000
# 4 0.000000 0.000000 0.000000 0.179978 0.000000 0.000000
# 5 0.000000 0.000000 0.000000 0.000000 0.043027 0.000000
# 6 0.000000 0.000000 0.000000 0.000000 0.000000 0.038506
#
#
# Mechanical properties :
#
#
# Convention : Reuss Voigt Hill
#
# Bulk Modulus (GPa) = 59.21048 62.76364 60.98706
# Shear Modulus (GPa) = 14.11863 21.68630 17.90247
#
# Velocity S-wave (km/s) = 2.73722 3.39239 3.08226
# Velocity P-wave (km/s) = 6.43516 6.97506 6.71054
#
# Compressibility (1/GPa) = 0.01688890
#
# Stress axis : x y z
#
# Youngs Moduli (GPa) = 80.86009 76.99048 37.60921
#
# Poissons Ratio (x) = 0.06451 0.26035
# Poissons Ratio (y) = 0.06775 0.36735
# Poissons Ratio (z) = 0.55975 0.75202
#
# Static dielectric constant tensor:
#      x y z
#    x 3.577130 0.000000 0.000000 
#    y 0.000000 3.439050 0.000000 
#    z 0.000000 0.000000 3.321780 
# 
# 
# High freq. dielectric constant tensor:
#      x y z
#    x 1.742640 0.000000 0.000000 
#    y 0.000000 1.742480 0.000000 
#    z 0.000000 0.000000 1.712690 
# 
# From -- ./inp_files/4621.got.cif
#   From: 2010.03.12/outbox.cif.g09.slc.cpg/sg55_3_cif.got.tgz:4621.got - 2010.04.16 15:19:21.
