data_PCOD8225070
_publ_section_title
;
Structure prediction by ZEFSAII (Michael W. Deem and Ramdas Pophale) SiO2 
 PCOD8225070
Probable space group: P B A M
;
_chemical_formula_sum "Si O2"
_cell_formula_units_Z 64
_cell_length_a 28.153982
_cell_length_b 12.849168
_cell_length_c 9.286663
_cell_angle_alpha 90.000000
_cell_angle_beta 90.000000
_cell_angle_gamma 90.000000
_cell_volume 3359.499045
_symmetry_space_group_name_H-M "P B A M"
_symmetry_group_IT_number 55
_symmetry_cell_setting 'orthorhombic'
loop_
_space_group_symop_operation_xyz
x,y,z
-x,-y,z
1/2+x,1/2-y,-z
1/2-x,1/2+y,-z
-x,-y,-z
x,y,-z
1/2-x,1/2+y,z
1/2+x,1/2-y,z
loop_
_atom_site_type_symbol
_atom_site_label
_atom_site_fract_x
_atom_site_fract_y
_atom_site_fract_z
Si Si1 0.420443 0.657631 0.658658
Si Si2 0.688538 0.659532 0.829396
Si Si3 0.159455 0.066653 0.167425
Si Si4 0.945477 0.477122 0.170957
Si Si5 0.126891 0.377891 0.661079
Si Si6 0.708004 0.216921 0.168944
Si Si7 0.506574 0.619487 0.833325
Si Si8 0.907049 0.255896 0.169223
O O1 0.431042 0.612154 0.500000
O O2 0.390084 0.573741 0.747949
O O3 0.391580 0.762328 0.646014
O O4 0.468959 0.684488 0.741011
O O5 0.685240 0.538842 0.781829
O O6 0.738208 0.705506 0.773365
O O7 0.644846 0.728315 0.764642
O O8 0.686235 0.666633 0.000000
O O9 0.193344 0.164348 0.201697
O O10 0.145828 0.062270 0.000000
O O11 0.910923 0.556394 0.250062
O O12 0.929714 0.363014 0.227611
O O13 0.000000 0.500000 0.215589
O O14 0.939283 0.490132 0.000000
O O15 0.134889 0.424653 0.500000
O O16 0.176420 0.369117 0.747916
O O17 0.703705 0.191242 0.000000
O O18 0.500000 0.500000 0.790729
O O19 0.558768 0.659342 0.791555
O O20 0.495633 0.640521 0.000000
O O21 0.902089 0.267745 0.000000
#
# Coordination Sequence:
#
# PCOD8225070 Si02
#       8
#     8   8   8   8   8   8   8   8
#     4  10  20  33  50  73 101 133 169 210 252 296
#     4   9  17  31  52  78 105 131 166 214 264 311
#     4   9  17  31  52  76 102 133 168 208 257 311
#     4  10  20  34  54  79 108 143 180 220 267 318
#     4  10  21  36  53  74 102 137 176 216 259 307
#     4   9  18  32  53  79 102 130 172 218 261 311
#     4  10  19  32  53  78 103 133 167 204 250 304
#     4   9  18  31  49  77 108 134 167 214 263 311
#
# _framework density 19.050460000000001
#
# number of rings (size 3 to 8) (size 9 to 14) (size 15 to 20)
#    0.000    2.500    0.000    2.250    0.000    6.000 
#    0.000    5.000    0.000    5.250    0.000    0.000 
#    0.000    0.000    0.000    0.000    0.000    0.000 
#
# Total GULP energy -793401.559642 kJ/mol
# GULP energy per Si atom -12396.899369 kJ/mol
# Density = 1.900710 g / cm^3
# Si number density = 19.050460 Si / 1000 Ang^3
#
#
#
# Elastic Constant Matrix: (Units=GPa)
#
#
# Indices 1 2 3 4 5 6 
#
# 1 169.0053 58.1001 47.0516 0.0000 0.0000 0.0000
# 2 58.1001 83.4937 28.6318 0.0000 0.0000 0.0000
# 3 47.0516 28.6318 55.2409 0.0000 0.0000 0.0000
# 4 0.0000 0.0000 0.0000 12.6204 0.0000 0.0000
# 5 0.0000 0.0000 0.0000 0.0000 5.8714 0.0000
# 6 0.0000 0.0000 0.0000 0.0000 0.0000 32.0870
#
#
#
# Elastic Compliance Matrix: (Units=1/GPa)
#
#
# Indices 1 2 3 4 5 6 
#
# 1 0.008899 -0.004370 -0.005315 0.000000 0.000000 0.000000
# 2 -0.004370 0.016712 -0.004940 0.000000 0.000000 0.000000
# 3 -0.005315 -0.004940 0.025190 0.000000 0.000000 0.000000
# 4 0.000000 0.000000 0.000000 0.079237 0.000000 0.000000
# 5 0.000000 0.000000 0.000000 0.000000 0.170318 0.000000
# 6 0.000000 0.000000 0.000000 0.000000 0.000000 0.031165
#
#
# Mechanical properties :
#
#
# Convention : Reuss Voigt Hill
#
# Bulk Modulus (GPa) = 46.40030 63.92299 55.16164
# Shear Modulus (GPa) = 13.58871 21.71286 17.65078
#
# Velocity S-wave (km/s) = 2.67367 3.37969 3.04719
# Velocity P-wave (km/s) = 5.82587 6.98979 6.43420
#
# Compressibility (1/GPa) = 0.02155159
#
# Stress axis : x y z
#
# Youngs Moduli (GPa) = 112.37405 59.83824 39.69879
#
# Poissons Ratio (x) = 0.26148 0.21099
# Poissons Ratio (y) = 0.49106 0.19610
# Poissons Ratio (z) = 0.59723 0.29559
#
# Static dielectric constant tensor:
#      x y z
#    x 3.735580 0.000000 0.000000 
#    y 0.000000 3.525420 0.000000 
#    z 0.000000 0.000000 3.409140 
# 
# 
# High freq. dielectric constant tensor:
#      x y z
#    x 1.749080 0.000000 0.000000 
#    y 0.000000 1.736900 0.000000 
#    z 0.000000 0.000000 1.706960 
# 
# From -- ./inp_files/4563.got.cif
#   From: 2010.03.12/outbox.cif.g09.slc.cpg/sg55_3_cif.got.tgz:4563.got - 2010.04.16 15:19:21.
