data_PCOD8225227
_publ_section_title
;
Structure prediction by ZEFSAII (Michael W. Deem and Ramdas Pophale) SiO2 
 PCOD8225227
Probable space group: P B A M
;
_chemical_formula_sum "Si O2"
_cell_formula_units_Z 64
_cell_length_a 21.532419
_cell_length_b 16.838762
_cell_length_c 8.661242
_cell_angle_alpha 90.000000
_cell_angle_beta 90.000000
_cell_angle_gamma 90.000000
_cell_volume 3140.386878
_symmetry_space_group_name_H-M "P B A M"
_symmetry_group_IT_number 55
_symmetry_cell_setting 'orthorhombic'
loop_
_space_group_symop_operation_xyz
x,y,z
-x,-y,z
1/2+x,1/2-y,-z
1/2-x,1/2+y,-z
-x,-y,-z
x,y,-z
1/2-x,1/2+y,z
1/2+x,1/2-y,z
loop_
_atom_site_type_symbol
_atom_site_label
_atom_site_fract_x
_atom_site_fract_y
_atom_site_fract_z
Si Si1 0.337429 0.612702 0.320494
Si Si2 0.634744 0.705223 0.680697
Si Si3 0.605432 0.226212 0.682916
Si Si4 0.280784 0.175550 0.172208
Si Si5 0.177607 0.947693 0.819292
Si Si6 0.027644 0.674918 0.682382
Si Si7 0.312111 0.917005 0.318757
Si Si8 0.610112 0.949921 0.827125
O O1 0.346918 0.593046 0.500000
O O2 0.382767 0.683350 0.262253
O O3 0.267692 0.642342 0.294707
O O4 0.349631 0.534059 0.221533
O O5 0.647017 0.711630 0.500000
O O6 0.694891 0.739855 0.768287
O O7 0.631969 0.613806 0.732924
O O8 0.572306 0.751496 0.728089
O O9 0.601036 0.224266 0.500000
O O10 0.540049 0.195762 0.751039
O O11 0.662633 0.169581 0.734365
O O12 0.337410 0.115919 0.169486
O O13 0.252006 0.184261 0.000000
O O14 0.249441 0.939485 0.770018
O O15 0.173113 0.933953 0.000000
O O16 0.026957 0.662687 0.500000
O O17 0.048794 0.591605 0.757155
O O18 0.297683 0.920155 0.500000
O O19 0.367589 0.977905 0.279640
O O20 0.596007 0.980854 0.000000
#
# Coordination Sequence:
#
# PCOD8225227 Si02
#       8
#     8   8   8   8   8   8   8   8
#     4  11  21  36  59  83 113 149 192 238 289 348
#     4  10  20  35  59  85 108 145 194 235 279 340
#     4   9  21  39  59  85 112 146 192 244 287 332
#     4  10  19  33  54  81 116 150 182 228 288 342
#     4  12  24  38  56  84 120 150 184 236 296 349
#     4   9  19  39  62  82 111 150 197 241 281 332
#     4  11  21  36  60  88 118 150 190 234 286 347
#     4  10  20  34  54  84 120 154 188 229 281 335
#
# _framework density 20.379653999999999
#
# number of rings (size 3 to 8) (size 9 to 14) (size 15 to 20)
#    0.000    1.750    1.250    3.750    0.000    3.000 
#    0.000    7.500    0.000    3.750    0.000    0.000 
#    0.000    0.000    0.000    0.000    0.000    0.000 
#
# Total GULP energy -793630.794718 kJ/mol
# GULP energy per Si atom -12400.481167 kJ/mol
# Density = 2.033327 g / cm^3
# Si number density = 20.379654 Si / 1000 Ang^3
#
#
#
# Elastic Constant Matrix: (Units=GPa)
#
#
# Indices 1 2 3 4 5 6 
#
# 1 37.7555 11.0632 16.0667 0.0000 0.0000 0.0000
# 2 11.0632 97.6380 12.2078 0.0000 0.0000 0.0000
# 3 16.0667 12.2078 52.8539 0.0000 0.0000 0.0000
# 4 0.0000 0.0000 0.0000 26.1194 0.0000 0.0000
# 5 0.0000 0.0000 0.0000 0.0000 13.8421 0.0000
# 6 0.0000 0.0000 0.0000 0.0000 0.0000 22.5909
#
#
#
# Elastic Compliance Matrix: (Units=1/GPa)
#
#
# Indices 1 2 3 4 5 6 
#
# 1 0.030958 -0.002401 -0.008856 0.000000 0.000000 0.000000
# 2 -0.002401 0.010733 -0.001749 0.000000 0.000000 0.000000
# 3 -0.008856 -0.001749 0.022016 0.000000 0.000000 0.000000
# 4 0.000000 0.000000 0.000000 0.038286 0.000000 0.000000
# 5 0.000000 0.000000 0.000000 0.000000 0.072243 0.000000
# 6 0.000000 0.000000 0.000000 0.000000 0.000000 0.044266
#
#
# Mechanical properties :
#
#
# Convention : Reuss Voigt Hill
#
# Bulk Modulus (GPa) = 26.52866 29.65808 28.09337
# Shear Modulus (GPa) = 19.44926 22.43779 20.94352
#
# Velocity S-wave (km/s) = 3.09260 3.32172 3.20920
# Velocity P-wave (km/s) = 5.07915 5.41259 5.24852
#
# Compressibility (1/GPa) = 0.03769508
#
# Stress axis : x y z
#
# Youngs Moduli (GPa) = 32.30141 93.17387 45.42086
#
# Poissons Ratio (x) = 0.22367 0.40226
# Poissons Ratio (y) = 0.07754 0.07945
# Poissons Ratio (z) = 0.28607 0.16298
#
# Static dielectric constant tensor:
#      x y z
#    x 3.643250 0.000000 0.000000 
#    y 0.000000 3.977960 0.000000 
#    z 0.000000 0.000000 3.689300 
# 
# 
# High freq. dielectric constant tensor:
#      x y z
#    x 1.774420 0.000000 0.000000 
#    y 0.000000 1.807620 0.000000 
#    z 0.000000 0.000000 1.789960 
# 
# From -- ./inp_files/9728.got.cif
#   From: 2010.03.12/outbox.cif.g09.slc.cpg/sg55_5_cif.got.tgz:9728.got - 2010.04.16 15:19:21.
