data_PCOD8225684
_publ_section_title
;
Structure prediction by ZEFSAII (Michael W. Deem and Ramdas Pophale) SiO2 
 PCOD8225684
Probable space group: P B A M
;
_chemical_formula_sum "Si O2"
_cell_formula_units_Z 64
_cell_length_a 24.326167
_cell_length_b 15.259593
_cell_length_c 8.892319
_cell_angle_alpha 90.000000
_cell_angle_beta 90.000000
_cell_angle_gamma 90.000000
_cell_volume 3300.894684
_symmetry_space_group_name_H-M "P B A M"
_symmetry_group_IT_number 55
_symmetry_cell_setting 'orthorhombic'
loop_
_space_group_symop_operation_xyz
x,y,z
-x,-y,z
1/2+x,1/2-y,-z
1/2-x,1/2+y,-z
-x,-y,-z
x,y,-z
1/2-x,1/2+y,z
1/2+x,1/2-y,z
loop_
_atom_site_type_symbol
_atom_site_label
_atom_site_fract_x
_atom_site_fract_y
_atom_site_fract_z
Si Si1 0.942080 0.250092 0.822335
Si Si2 0.373189 0.639729 0.333327
Si Si3 0.684910 0.738650 0.177765
Si Si4 0.518649 0.406983 0.177484
Si Si5 0.748361 0.394532 0.677140
Si Si6 0.123465 0.343550 0.333857
Si Si7 0.761602 0.596804 0.678026
Si Si8 0.508975 0.099834 0.322203
O O1 0.879023 0.233945 0.775635
O O2 0.979795 0.170574 0.757903
O O3 0.961802 0.341258 0.751252
O O4 0.948285 0.257543 0.000000
O O5 0.378152 0.596862 0.500000
O O6 0.418026 0.600836 0.222271
O O7 0.313178 0.623030 0.264631
O O8 0.383395 0.741327 0.346167
O O9 0.710115 0.828898 0.240746
O O10 0.713150 0.651603 0.244367
O O11 0.692549 0.738166 0.000000
O O12 0.500000 0.500000 0.244514
O O13 0.513992 0.406280 0.000000
O O14 0.753161 0.376140 0.500000
O O15 0.760458 0.494701 0.719189
O O16 0.125796 0.386755 0.500000
O O17 0.180463 0.369015 0.253066
O O18 0.068881 0.378298 0.250839
O O19 0.756707 0.613715 0.500000
O O20 0.507890 0.117434 0.500000
O O21 0.500000 0.000000 0.279403
#
# Coordination Sequence:
#
# PCOD8225684 Si02
#       8
#     8   8   8   8   8   8   8   8
#     4  10  23  41  56  79 118 156 191 235 285 339
#     4  10  19  36  59  85 114 142 185 243 289 331
#     4  11  24  40  58  83 120 157 192 240 290 345
#     4  10  22  39  59  82 111 154 196 231 282 342
#     4  10  22  39  62  88 116 153 194 239 291 348
#     4   9  17  34  57  82 113 141 178 239 289 327
#     4  10  21  39  62  86 115 152 192 238 290 342
#     4  10  21  36  59  88 112 145 192 236 283 341
#
# _framework density 19.388683
#
# number of rings (size 3 to 8) (size 9 to 14) (size 15 to 20)
#    0.000    2.000    2.500    0.375    3.500    2.500 
#    0.000    0.625    0.000    0.000    0.000    0.000 
#    0.000    0.000    0.000    0.000    0.000    0.000 
#
# Total GULP energy -793482.006216 kJ/mol
# GULP energy per Si atom -12398.156347 kJ/mol
# Density = 1.934455 g / cm^3
# Si number density = 19.388683 Si / 1000 Ang^3
#
#
#
# Elastic Constant Matrix: (Units=GPa)
#
#
# Indices 1 2 3 4 5 6 
#
# 1 126.6894 33.4041 31.0749 0.0000 0.0000 0.0000
# 2 33.4041 102.1581 29.5227 0.0000 0.0000 0.0000
# 3 31.0749 29.5227 34.3020 0.0000 0.0000 0.0000
# 4 0.0000 0.0000 0.0000 18.7301 0.0000 0.0000
# 5 0.0000 0.0000 0.0000 0.0000 29.6817 0.0000
# 6 0.0000 0.0000 0.0000 0.0000 0.0000 35.5487
#
#
#
# Elastic Compliance Matrix: (Units=1/GPa)
#
#
# Indices 1 2 3 4 5 6 
#
# 1 0.010208 -0.000886 -0.008486 0.000000 0.000000 0.000000
# 2 -0.000886 0.013106 -0.010478 0.000000 0.000000 0.000000
# 3 -0.008486 -0.010478 0.045858 0.000000 0.000000 0.000000
# 4 0.000000 0.000000 0.000000 0.053390 0.000000 0.000000
# 5 0.000000 0.000000 0.000000 0.000000 0.033691 0.000000
# 6 0.000000 0.000000 0.000000 0.000000 0.000000 0.028130
#
#
# Mechanical properties :
#
#
# Convention : Reuss Voigt Hill
#
# Bulk Modulus (GPa) = 33.92775 50.12810 42.02792
# Shear Modulus (GPa) = 21.37603 28.06863 24.72233
#
# Velocity S-wave (km/s) = 3.32399 3.80897 3.57471
# Velocity P-wave (km/s) = 5.68055 6.72717 6.22589
#
# Compressibility (1/GPa) = 0.02947440
#
# Stress axis : x y z
#
# Youngs Moduli (GPa) = 97.96018 76.29893 21.80641
#
# Poissons Ratio (x) = 0.06758 0.18504
# Poissons Ratio (y) = 0.08676 0.22848
# Poissons Ratio (z) = 0.83125 0.79945
#
# Static dielectric constant tensor:
#      x y z
#    x 3.697150 0.000000 0.000000 
#    y 0.000000 3.612280 0.000000 
#    z 0.000000 0.000000 3.314150 
# 
# 
# High freq. dielectric constant tensor:
#      x y z
#    x 1.772750 0.000000 0.000000 
#    y 0.000000 1.763400 0.000000 
#    z 0.000000 0.000000 1.723910 
# 
# From -- ./inp_files/9691.got.cif
#   From: 2010.03.12/outbox.cif.g09.slc.cpg/sg55_5_cif.got.tgz:9691.got - 2010.04.16 15:19:21.
