data_PCOD8225816
_publ_section_title
;
Structure prediction by ZEFSAII (Michael W. Deem and Ramdas Pophale) SiO2 
 PCOD8225816
Probable space group: P B A M
;
_chemical_formula_sum "Si O2"
_cell_formula_units_Z 64
_cell_length_a 17.516052
_cell_length_b 21.712781
_cell_length_c 9.099833
_cell_angle_alpha 90.000000
_cell_angle_beta 90.000000
_cell_angle_gamma 90.000000
_cell_volume 3460.868516
_symmetry_space_group_name_H-M "P B A M"
_symmetry_group_IT_number 55
_symmetry_cell_setting 'orthorhombic'
loop_
_space_group_symop_operation_xyz
x,y,z
-x,-y,z
1/2+x,1/2-y,-z
1/2-x,1/2+y,-z
-x,-y,-z
x,y,-z
1/2-x,1/2+y,z
1/2+x,1/2-y,z
loop_
_atom_site_type_symbol
_atom_site_label
_atom_site_fract_x
_atom_site_fract_y
_atom_site_fract_z
Si Si1 0.891328 0.876448 0.670418
Si Si2 0.749668 0.847669 0.827994
Si Si3 0.389927 0.237447 0.172501
Si Si4 0.514985 0.860144 0.335389
Si Si5 0.917758 0.008968 0.326885
Si Si6 0.159222 0.552135 0.335415
Si Si7 0.927106 0.544245 0.166060
Si Si8 0.930481 0.142057 0.328512
O O1 0.874961 0.864175 0.500000
O O2 0.834242 0.833078 0.764515
O O3 0.979091 0.861209 0.707641
O O4 0.869397 0.947981 0.713922
O O5 0.692312 0.792022 0.789028
O O6 0.722490 0.910665 0.753042
O O7 0.753728 0.858826 0.000000
O O8 0.458317 0.201096 0.251897
O O9 0.389413 0.306814 0.230545
O O10 0.405889 0.235219 0.000000
O O11 0.488037 0.842345 0.500000
O O12 0.582556 0.908788 0.343727
O O13 0.445436 0.891338 0.246972
O O14 0.929961 0.010272 0.500000
O O15 0.888282 0.077388 0.282422
O O16 0.000000 0.000000 0.251343
O O17 0.189148 0.537723 0.500000
O O18 0.142472 0.488169 0.252005
O O19 0.000000 0.500000 0.164796
O O20 0.901166 0.558705 0.000000
O O21 0.918139 0.157209 0.500000
#
# Coordination Sequence:
#
# PCOD8225816 Si02
#       8
#     8   8   8   8   8   8   8   8
#     4   9  17  31  53  78 101 126 159 201 249 300
#     4  10  20  32  46  68 100 135 168 205 251 300
#     4  10  20  32  46  68 100 136 171 206 247 294
#     4   9  16  26  41  61  85 116 157 200 238 279
#     4   7  12  26  49  76 101 121 145 185 240 295
#     4   9  16  26  41  61  85 116 157 201 240 282
#     4   9  15  23  37  58  85 115 147 189 242 291
#     4   9  17  31  53  78 101 127 161 201 245 297
#
# _framework density 18.492469
#
# number of rings (size 3 to 8) (size 9 to 14) (size 15 to 20)
#    0.000    3.000    0.000    3.375    0.000    6.500 
#    0.000    0.625    0.000    3.750    0.000    5.250 
#    0.000    0.000    0.000    0.000    0.000    0.000 
#
# Total GULP energy -793011.722795 kJ/mol
# GULP energy per Si atom -12390.808169 kJ/mol
# Density = 1.845038 g / cm^3
# Si number density = 18.492469 Si / 1000 Ang^3
#
#
#
# Elastic Constant Matrix: (Units=GPa)
#
#
# Indices 1 2 3 4 5 6 
#
# 1 47.4784 22.5387 29.4188 0.0000 0.0000 0.0000
# 2 22.5387 87.6262 38.5139 0.0000 0.0000 0.0000
# 3 29.4188 38.5139 101.5582 0.0000 0.0000 0.0000
# 4 0.0000 0.0000 0.0000 22.5416 0.0000 0.0000
# 5 0.0000 0.0000 0.0000 0.0000 19.1957 0.0000
# 6 0.0000 0.0000 0.0000 0.0000 0.0000 14.7726
#
#
#
# Elastic Compliance Matrix: (Units=1/GPa)
#
#
# Indices 1 2 3 4 5 6 
#
# 1 0.026894 -0.004192 -0.006201 0.000000 0.000000 0.000000
# 2 -0.004192 0.014348 -0.004227 0.000000 0.000000 0.000000
# 3 -0.006201 -0.004227 0.013246 0.000000 0.000000 0.000000
# 4 0.000000 0.000000 0.000000 0.044362 0.000000 0.000000
# 5 0.000000 0.000000 0.000000 0.000000 0.052095 0.000000
# 6 0.000000 0.000000 0.000000 0.000000 0.000000 0.067693
#
#
# Mechanical properties :
#
#
# Convention : Reuss Voigt Hill
#
# Bulk Modulus (GPa) = 39.60615 46.40059 43.00337
# Shear Modulus (GPa) = 19.50879 21.04808 20.27843
#
# Velocity S-wave (km/s) = 3.25154 3.37738 3.31505
# Velocity P-wave (km/s) = 5.96327 6.35256 6.16099
#
# Compressibility (1/GPa) = 0.02524860
#
# Stress axis : x y z
#
# Youngs Moduli (GPa) = 37.18233 69.69496 75.49589
#
# Poissons Ratio (x) = 0.29218 0.46814
# Poissons Ratio (y) = 0.15588 0.31911
# Poissons Ratio (z) = 0.23056 0.29459
#
# Static dielectric constant tensor:
#      x y z
#    x 3.090000 0.000000 0.000000 
#    y 0.000000 3.413950 0.000000 
#    z 0.000000 0.000000 3.365160 
# 
# 
# High freq. dielectric constant tensor:
#      x y z
#    x 1.680050 0.000000 0.000000 
#    y 0.000000 1.703740 0.000000 
#    z 0.000000 0.000000 1.712550 
# 
# From -- ./inp_files/8092.got.cif
#   From: 2010.03.12/outbox.cif.g09.slc.cpg/sg55_5_cif.got.tgz:8092.got - 2010.04.16 15:19:21.
