data_PCOD8225172
_publ_section_title
;
Structure prediction by ZEFSAII (Michael W. Deem and Ramdas Pophale) SiO2 
 PCOD8225172
Probable space group: P B A M
;
_chemical_formula_sum "Si O2"
_cell_formula_units_Z 36
_cell_length_a 28.436066
_cell_length_b 5.239867
_cell_length_c 12.456742
_cell_angle_alpha 90.000000
_cell_angle_beta 90.000000
_cell_angle_gamma 90.000000
_cell_volume 1856.069554
_symmetry_space_group_name_H-M "P B A M"
_symmetry_group_IT_number 55
_symmetry_cell_setting 'orthorhombic'
loop_
_space_group_symop_operation_xyz
x,y,z
-x,-y,z
1/2+x,1/2-y,-z
1/2-x,1/2+y,-z
-x,-y,-z
x,y,-z
1/2-x,1/2+y,z
1/2+x,1/2-y,z
loop_
_atom_site_type_symbol
_atom_site_label
_atom_site_fract_x
_atom_site_fract_y
_atom_site_fract_z
Si Si1 0.780197 0.387032 0.877614
Si Si2 0.626698 0.924224 0.743865
Si Si3 0.545238 0.833119 0.883839
Si Si4 0.500000 0.500000 0.290383
Si Si5 0.404123 0.589603 0.624152
O O1 0.744777 0.618345 0.856082
O O2 0.821856 0.408314 0.792896
O O3 0.799236 0.398709 0.000000
O O4 0.590949 0.986235 0.842940
O O5 0.614715 0.660485 0.684516
O O6 0.623875 0.160975 0.662636
O O7 0.534649 0.649571 0.786715
O O8 0.500000 0.000000 0.902722
O O9 0.556453 0.700749 0.000000
O O10 0.539041 0.356089 0.362710
O O11 0.393319 0.548222 0.500000
#
# Coordination Sequence:
#
# PCOD8225172 Si02
#       5
#     8   8   8   4   8
#     4  10  21  39  64  93 120 149 188 235 289 351
#     4  11  22  39  60  87 116 155 192 238 295 343
#     4  10  19  33  52  82 121 155 185 224 280 354
#     4  10  20  36  52  82 114 162 198 240 282 336
#     4  11  23  38  59  82 115 155 203 247 284 332
#
# _framework density 19.395826
#
# number of rings (size 3 to 8) (size 9 to 14) (size 15 to 20)
#    0.000    1.556    2.222    3.333    0.000    0.000 
#    0.000    5.556    0.000   13.333    0.000    0.000 
#    0.000    0.000    0.000    0.000    0.000    0.000 
#
# Total GULP energy -446016.240592 kJ/mol
# GULP energy per Si atom -12389.340016 kJ/mol
# Density = 1.935168 g / cm^3
# Si number density = 19.395826 Si / 1000 Ang^3
#
#
#
# Elastic Constant Matrix: (Units=GPa)
#
#
# Indices 1 2 3 4 5 6 
#
# 1 84.3734 9.9752 52.1013 0.0000 0.0000 0.0000
# 2 9.9752 77.5502 14.2888 0.0000 0.0000 0.0000
# 3 52.1013 14.2888 101.4871 0.0000 0.0000 0.0000
# 4 0.0000 0.0000 0.0000 -51.8147 0.0000 0.0000
# 5 0.0000 0.0000 0.0000 0.0000 -20.0831 0.0000
# 6 0.0000 0.0000 0.0000 0.0000 0.0000 21.6511
#
#
#
# Elastic Compliance Matrix: (Units=1/GPa)
#
#
# Indices 1 2 3 4 5 6 
#
# 1 0.017381 -0.000607 -0.008838 0.000000 0.000000 0.000000
# 2 -0.000607 0.013260 -0.001555 0.000000 0.000000 0.000000
# 3 -0.008838 -0.001555 0.014609 0.000000 0.000000 0.000000
# 4 0.000000 0.000000 0.000000 -0.019300 0.000000 0.000000
# 5 0.000000 0.000000 0.000000 0.000000 -0.049793 0.000000
# 6 0.000000 0.000000 0.000000 0.000000 0.000000 0.046187
#
#
# Mechanical properties :
#
#
# Convention : Reuss Voigt Hill
#
# Bulk Modulus (GPa) = 43.01061 46.23792 44.62426
# Shear Modulus (GPa) = 95.97917 2.42035 49.19976
#
# Velocity S-wave (km/s) = 7.04215 1.11829 5.04195
# Velocity P-wave (km/s) = 9.39925 5.05552 7.54666
#
# Compressibility (1/GPa) = 0.02325008
#
# Stress axis : x y z
#
# Youngs Moduli (GPa) = 57.53354 75.41755 68.44892
#
# Poissons Ratio (x) = 0.04581 0.60492
# Poissons Ratio (y) = 0.03494 0.10644
# Poissons Ratio (z) = 0.50846 0.11728
#
# Static dielectric constant tensor:
#      x y z
#    x 3.634510 0.000000 0.000000 
#    y 0.000000 3.351690 0.000000 
#    z 0.000000 0.000000 3.944060 
# 
# 
# High freq. dielectric constant tensor:
#      x y z
#    x 1.751040 0.000000 0.000000 
#    y 0.000000 1.747610 0.000000 
#    z 0.000000 0.000000 1.762490 
# 
# From -- ./inp_files/11238.got.cif
#   From: 2010.03.12/outbox.cif.g09.slc.cpg/sg55_6_cif.got.tgz:11238.got - 2010.04.16 15:19:21.
