data_PCOD8225541
_publ_section_title
;
Structure prediction by ZEFSAII (Michael W. Deem and Ramdas Pophale) SiO2 
 PCOD8225541
Probable space group: P B A M
;
_chemical_formula_sum "Si O2"
_cell_formula_units_Z 48
_cell_length_a 14.789557
_cell_length_b 19.609942
_cell_length_c 9.156625
_cell_angle_alpha 90.000000
_cell_angle_beta 90.000000
_cell_angle_gamma 90.000000
_cell_volume 2655.625946
_symmetry_space_group_name_H-M "P B A M"
_symmetry_group_IT_number 55
_symmetry_cell_setting 'orthorhombic'
loop_
_space_group_symop_operation_xyz
x,y,z
-x,-y,z
1/2+x,1/2-y,-z
1/2-x,1/2+y,-z
-x,-y,-z
x,y,-z
1/2-x,1/2+y,z
1/2+x,1/2-y,z
loop_
_atom_site_type_symbol
_atom_site_label
_atom_site_fract_x
_atom_site_fract_y
_atom_site_fract_z
Si Si1 0.626943 0.189248 0.169571
Si Si2 0.306527 0.329937 0.671657
Si Si3 0.011755 0.807499 0.171635
Si Si4 0.263743 0.482869 0.665844
Si Si5 0.439547 0.563497 0.667954
Si Si6 0.589150 0.035599 0.829292
O O1 0.716286 0.204756 0.264036
O O2 0.550048 0.242971 0.210168
O O3 0.587216 0.115320 0.210869
O O4 0.654196 0.192954 0.000000
O O5 0.310906 0.315620 0.500000
O O6 0.393269 0.296281 0.747581
O O7 0.308323 0.410438 0.709751
O O8 0.959612 0.873871 0.227528
O O9 0.029289 0.814484 0.000000
O O10 0.230566 0.478134 0.500000
O O11 0.335124 0.543316 0.688157
O O12 0.177171 0.500533 0.762703
O O13 0.500000 0.500000 0.717110
O O14 0.461885 0.583128 0.500000
O O15 0.500000 0.000000 0.763058
O O16 0.594126 0.022603 0.000000
#
# Coordination Sequence:
#
# PCOD8225541 Si02
#       6
#     8   8   8   8   8   8
#     4   9  20  38  55  77 109 142 178 223 270 318
#     4  10  19  35  58  79 103 141 184 220 266 322
#     4  11  22  35  54  80 112 146 180 222 273 329
#     4   9  18  33  54  78 105 137 171 220 270 310
#     4  10  19  35  55  78 111 142 175 223 272 317
#     4   9  18  35  58  79 102 137 179 220 265 320
#
# _framework density 18.074833999999999
#
# number of rings (size 3 to 8) (size 9 to 14) (size 15 to 20)
#    0.000    2.333    1.667    1.000    0.000    3.333 
#    3.000    0.000    0.000    0.000    0.000    0.000 
#    0.000    0.000    0.000    0.000    0.000    0.000 
#
# Total GULP energy -595339.953851 kJ/mol
# GULP energy per Si atom -12402.915705 kJ/mol
# Density = 1.803369 g / cm^3
# Si number density = 18.074834 Si / 1000 Ang^3
#
#
#
# Elastic Constant Matrix: (Units=GPa)
#
#
# Indices 1 2 3 4 5 6 
#
# 1 151.2979 64.8639 70.9521 0.0000 0.0000 0.0000
# 2 64.8639 71.6014 42.6534 0.0000 0.0000 0.0000
# 3 70.9521 42.6534 78.0687 0.0000 0.0000 0.0000
# 4 0.0000 0.0000 0.0000 24.2497 0.0000 0.0000
# 5 0.0000 0.0000 0.0000 0.0000 33.8879 0.0000
# 6 0.0000 0.0000 0.0000 0.0000 0.0000 30.7733
#
#
#
# Elastic Compliance Matrix: (Units=1/GPa)
#
#
# Indices 1 2 3 4 5 6 
#
# 1 0.013753 -0.007432 -0.008439 0.000000 0.000000 0.000000
# 2 -0.007432 0.024721 -0.006752 0.000000 0.000000 0.000000
# 3 -0.008439 -0.006752 0.024168 0.000000 0.000000 0.000000
# 4 0.000000 0.000000 0.000000 0.041238 0.000000 0.000000
# 5 0.000000 0.000000 0.000000 0.000000 0.029509 0.000000
# 6 0.000000 0.000000 0.000000 0.000000 0.000000 0.032496
#
#
# Mechanical properties :
#
#
# Convention : Reuss Voigt Hill
#
# Bulk Modulus (GPa) = 57.48369 73.10074 65.29222
# Shear Modulus (GPa) = 23.04899 25.94876 24.49887
#
# Velocity S-wave (km/s) = 3.57487 3.79308 3.68559
# Velocity P-wave (km/s) = 6.99369 7.72751 7.36974
#
# Compressibility (1/GPa) = 0.01739624
#
# Stress axis : x y z
#
# Youngs Moduli (GPa) = 72.71061 40.45136 41.37700
#
# Poissons Ratio (x) = 0.30063 0.34918
# Poissons Ratio (y) = 0.54037 0.27938
# Poissons Ratio (z) = 0.61360 0.27313
#
# Static dielectric constant tensor:
#      x y z
#    x 3.439170 0.000000 0.000000 
#    y 0.000000 3.225240 0.000000 
#    z 0.000000 0.000000 3.314870 
# 
# 
# High freq. dielectric constant tensor:
#      x y z
#    x 1.710420 0.000000 0.000000 
#    y 0.000000 1.680470 0.000000 
#    z 0.000000 0.000000 1.700260 
# 
# From -- ./inp_files/5643.got.cif
#   From: 2010.03.12/outbox.cif.g09.slc.cpg/sg55_3_cif.got.tgz:5643.got - 2010.04.16 15:19:21.
