data_PCOD8225686
_publ_section_title
;
Structure prediction by ZEFSAII (Michael W. Deem and Ramdas Pophale) SiO2 
 PCOD8225686
Probable space group: P B A M
;
_chemical_formula_sum "Si O2"
_cell_formula_units_Z 64
_cell_length_a 18.499193
_cell_length_b 18.905970
_cell_length_c 8.722204
_cell_angle_alpha 90.000000
_cell_angle_beta 90.000000
_cell_angle_gamma 90.000000
_cell_volume 3050.548877
_symmetry_space_group_name_H-M "P B A M"
_symmetry_group_IT_number 55
_symmetry_cell_setting 'orthorhombic'
loop_
_space_group_symop_operation_xyz
x,y,z
-x,-y,z
1/2+x,1/2-y,-z
1/2-x,1/2+y,-z
-x,-y,-z
x,y,-z
1/2-x,1/2+y,z
1/2+x,1/2-y,z
loop_
_atom_site_type_symbol
_atom_site_label
_atom_site_fract_x
_atom_site_fract_y
_atom_site_fract_z
Si Si1 0.854229 0.650483 0.181378
Si Si2 0.335246 0.607541 0.177840
Si Si3 0.583643 0.999277 0.818759
Si Si4 0.072630 0.224407 0.317968
Si Si5 0.720876 0.734592 0.679878
Si Si6 0.424642 0.339936 0.319926
Si Si7 0.694519 0.894426 0.681248
Si Si8 0.082790 0.993004 0.332369
O O1 0.871835 0.569652 0.233658
O O2 0.919497 0.696973 0.250684
O O3 0.777853 0.681758 0.240058
O O4 0.855367 0.655726 0.000000
O O5 0.356813 0.680450 0.263805
O O6 0.265633 0.567226 0.251843
O O7 0.398210 0.551532 0.206942
O O8 0.324380 0.623653 0.000000
O O9 0.500000 0.000000 0.761179
O O10 0.622410 0.929688 0.749432
O O11 0.585206 0.991942 0.000000
O O12 0.072035 0.227798 0.500000
O O13 0.998974 0.191203 0.249420
O O14 0.738397 0.731775 0.500000
O O15 0.640507 0.710630 0.720745
O O16 0.714458 0.815025 0.740402
O O17 0.437672 0.348308 0.500000
O O18 0.403002 0.416729 0.255261
O O19 0.687432 0.897689 0.500000
O O20 0.122388 0.002982 0.500000
O O21 0.000000 0.000000 0.368683
#
# Coordination Sequence:
#
# PCOD8225686 Si02
#       8
#     8   8   8   8   8   8   8   8
#     4  11  24  42  64  94 127 167 215 265 326 391
#     4  12  24  38  59  89 128 166 206 256 313 380
#     4  10  25  48  69  93 134 178 218 270 334 395
#     4  11  21  39  65  91 121 163 210 261 318 381
#     4  10  22  41  64  93 125 162 208 266 323 379
#     4   9  20  37  60  89 122 160 205 257 314 370
#     4  11  24  42  67  94 122 162 216 267 315 379
#     4  10  19  36  59  85 122 164 205 246 299 368
#
# _framework density 20.979831999999998
#
# number of rings (size 3 to 8) (size 9 to 14) (size 15 to 20)
#    0.000    1.500    2.500    2.250    3.500    2.000 
#    0.000    1.250    0.000    0.000    0.000    0.000 
#    0.000    0.000    0.000    0.000    0.000    0.000 
#
# Total GULP energy -793182.059006 kJ/mol
# GULP energy per Si atom -12393.469672 kJ/mol
# Density = 2.093208 g / cm^3
# Si number density = 20.979832 Si / 1000 Ang^3
#
#
#
# Elastic Constant Matrix: (Units=GPa)
#
#
# Indices 1 2 3 4 5 6 
#
# 1 107.6462 44.7027 31.5153 0.0000 0.0000 0.0000
# 2 44.7027 106.8145 33.2146 0.0000 0.0000 0.0000
# 3 31.5153 33.2146 64.2019 0.0000 0.0000 0.0000
# 4 0.0000 0.0000 0.0000 27.3813 0.0000 0.0000
# 5 0.0000 0.0000 0.0000 0.0000 35.4508 0.0000
# 6 0.0000 0.0000 0.0000 0.0000 0.0000 27.3074
#
#
#
# Elastic Compliance Matrix: (Units=1/GPa)
#
#
# Indices 1 2 3 4 5 6 
#
# 1 0.012022 -0.003809 -0.003931 0.000000 0.000000 0.000000
# 2 -0.003809 0.012364 -0.004527 0.000000 0.000000 0.000000
# 3 -0.003931 -0.004527 0.019847 0.000000 0.000000 0.000000
# 4 0.000000 0.000000 0.000000 0.036521 0.000000 0.000000
# 5 0.000000 0.000000 0.000000 0.000000 0.028208 0.000000
# 6 0.000000 0.000000 0.000000 0.000000 0.000000 0.036620
#
#
# Mechanical properties :
#
#
# Convention : Reuss Voigt Hill
#
# Bulk Modulus (GPa) = 50.76070 55.28087 53.02079
# Shear Modulus (GPa) = 28.29934 29.30989 28.80461
#
# Velocity S-wave (km/s) = 3.67670 3.74177 3.70938
# Velocity P-wave (km/s) = 6.50167 6.71376 6.60856
#
# Compressibility (1/GPa) = 0.01970028
#
# Stress axis : x y z
#
# Youngs Moduli (GPa) = 83.17835 80.88179 50.38488
#
# Poissons Ratio (x) = 0.30809 0.19806
# Poissons Ratio (y) = 0.31684 0.22807
# Poissons Ratio (z) = 0.32696 0.36611
#
# Static dielectric constant tensor:
#      x y z
#    x 3.973970 0.000000 0.000000 
#    y 0.000000 5.260440 0.000000 
#    z 0.000000 0.000000 3.470610 
# 
# 
# High freq. dielectric constant tensor:
#      x y z
#    x 1.830380 0.000000 0.000000 
#    y 0.000000 1.830080 0.000000 
#    z 0.000000 0.000000 1.798270 
# 
# From -- ./inp_files/8095.got.cif
#   From: 2010.03.12/outbox.cif.g09.slc.cpg/sg55_5_cif.got.tgz:8095.got - 2010.04.16 15:19:21.
