data_PCOD8225956
_publ_section_title
;
Structure prediction by ZEFSAII (Michael W. Deem and Ramdas Pophale) SiO2 
 PCOD8225956
Probable space group: P B A M
;
_chemical_formula_sum "Si O2"
_cell_formula_units_Z 48
_cell_length_a 9.365159
_cell_length_b 30.823949
_cell_length_c 9.027154
_cell_angle_alpha 90.000000
_cell_angle_beta 90.000000
_cell_angle_gamma 90.000000
_cell_volume 2605.879228
_symmetry_space_group_name_H-M "P B A M"
_symmetry_group_IT_number 55
_symmetry_cell_setting 'orthorhombic'
loop_
_space_group_symop_operation_xyz
x,y,z
-x,-y,z
1/2+x,1/2-y,-z
1/2-x,1/2+y,-z
-x,-y,-z
x,y,-z
1/2-x,1/2+y,z
1/2+x,1/2-y,z
loop_
_atom_site_type_symbol
_atom_site_label
_atom_site_fract_x
_atom_site_fract_y
_atom_site_fract_z
Si Si1 0.099604 0.118960 0.173383
Si Si2 0.394584 0.117369 0.324086
Si Si3 0.902858 0.287199 0.668475
Si Si4 0.400946 0.461068 0.827238
Si Si5 0.096754 0.460278 0.674483
Si Si6 0.573258 0.292562 0.670638
O O1 0.245741 0.103311 0.250254
O O2 0.041851 0.164225 0.237177
O O3 0.978026 0.084042 0.208381
O O4 0.129219 0.123594 0.000000
O O5 0.367136 0.118646 0.500000
O O6 0.439770 0.165279 0.264330
O O7 0.518348 0.084198 0.278800
O O8 0.955782 0.287372 0.500000
O O9 0.736233 0.278388 0.683181
O O10 0.984636 0.247072 0.745330
O O11 0.500000 0.500000 0.767245
O O12 0.250326 0.462340 0.747000
O O13 0.371497 0.467292 0.000000
O O14 0.117983 0.463078 0.500000
O O15 0.000000 0.500000 0.731681
O O16 0.529531 0.301537 0.500000
#
# Coordination Sequence:
#
# PCOD8225956 Si02
#       6
#     8   8   8   8   8   8
#     4  10  20  34  52  75 102 133 172 212 250 296
#     4   9  18  34  54  76 103 134 169 208 253 304
#     4   8  15  28  48  71  94 127 168 203 240 296
#     4  10  22  38  54  74 102 138 175 205 241 300
#     4  10  21  35  54  82 108 129 162 211 260 301
#     4   9  17  31  50  71  97 130 168 209 252 295
#
# _framework density 18.419886999999999
#
# number of rings (size 3 to 8) (size 9 to 14) (size 15 to 20)
#    0.000    2.667    0.000    2.500    0.000    4.000 
#    0.000    6.667    0.000    0.000    0.000    0.000 
#    0.000    0.000    0.000    0.000    0.000    0.000 
#
# Total GULP energy -595117.150986 kJ/mol
# GULP energy per Si atom -12398.273979 kJ/mol
# Density = 1.837796 g / cm^3
# Si number density = 18.419887 Si / 1000 Ang^3
#
#
#
# Elastic Constant Matrix: (Units=GPa)
#
#
# Indices 1 2 3 4 5 6 
#
# 1 131.5488 93.2752 46.1863 0.0000 0.0000 0.0000
# 2 93.2752 147.9058 45.5549 0.0000 0.0000 0.0000
# 3 46.1863 45.5549 45.6111 0.0000 0.0000 0.0000
# 4 0.0000 0.0000 0.0000 24.1031 0.0000 0.0000
# 5 0.0000 0.0000 0.0000 0.0000 24.2624 0.0000
# 6 0.0000 0.0000 0.0000 0.0000 0.0000 37.2137
#
#
#
# Elastic Compliance Matrix: (Units=1/GPa)
#
#
# Indices 1 2 3 4 5 6 
#
# 1 0.015854 -0.007299 -0.008764 0.000000 0.000000 0.000000
# 2 -0.007299 0.013125 -0.005718 0.000000 0.000000 0.000000
# 3 -0.008764 -0.005718 0.036510 0.000000 0.000000 0.000000
# 4 0.000000 0.000000 0.000000 0.041488 0.000000 0.000000
# 5 0.000000 0.000000 0.000000 0.000000 0.041216 0.000000
# 6 0.000000 0.000000 0.000000 0.000000 0.000000 0.026872
#
#
# Mechanical properties :
#
#
# Convention : Reuss Voigt Hill
#
# Bulk Modulus (GPa) = 45.60539 77.23318 61.41928
# Shear Modulus (GPa) = 22.13006 26.45246 24.29126
#
# Velocity S-wave (km/s) = 3.46991 3.79368 3.63540
# Velocity P-wave (km/s) = 6.39267 7.82366 7.14408
#
# Compressibility (1/GPa) = 0.02192724
#
# Stress axis : x y z
#
# Youngs Moduli (GPa) = 63.07526 76.18943 27.38963
#
# Poissons Ratio (x) = 0.55610 0.24005
# Poissons Ratio (y) = 0.46038 0.15662
# Poissons Ratio (z) = 0.55280 0.43566
#
# Static dielectric constant tensor:
#      x y z
#    x 3.297710 0.000000 0.000000 
#    y 0.000000 3.752160 0.000000 
#    z 0.000000 0.000000 3.164390 
# 
# 
# High freq. dielectric constant tensor:
#      x y z
#    x 1.711950 0.000000 0.000000 
#    y 0.000000 1.733990 0.000000 
#    z 0.000000 0.000000 1.686440 
# 
# From -- ./inp_files/2765.got.cif
#   From: 2010.03.12/outbox.cif.g09.slc.cpg/sg55_2_cif.got.tgz:2765.got - 2010.04.16 15:19:21.
