data_PCOD8225287
_publ_section_title
;
Structure prediction by ZEFSAII (Michael W. Deem and Ramdas Pophale) SiO2 
 PCOD8225287
Probable space group: P B A M
;
_chemical_formula_sum "Si O2"
_cell_formula_units_Z 48
_cell_length_a 17.765733
_cell_length_b 16.488280
_cell_length_c 9.176874
_cell_angle_alpha 90.000000
_cell_angle_beta 90.000000
_cell_angle_gamma 90.000000
_cell_volume 2688.148482
_symmetry_space_group_name_H-M "P B A M"
_symmetry_group_IT_number 55
_symmetry_cell_setting 'orthorhombic'
loop_
_space_group_symop_operation_xyz
x,y,z
-x,-y,z
1/2+x,1/2-y,-z
1/2-x,1/2+y,-z
-x,-y,-z
x,y,-z
1/2-x,1/2+y,z
1/2+x,1/2-y,z
loop_
_atom_site_type_symbol
_atom_site_label
_atom_site_fract_x
_atom_site_fract_y
_atom_site_fract_z
Si Si1 0.831590 0.148470 0.331458
Si Si2 0.558621 0.755016 0.833316
Si Si3 0.912653 0.987143 0.330405
Si Si4 0.529323 0.088338 0.170868
Si Si5 0.840822 0.673657 0.670648
Si Si6 0.901746 0.825269 0.829948
O O1 0.850054 0.158083 0.500000
O O2 0.869135 0.226682 0.256775
O O3 0.743503 0.144434 0.299317
O O4 0.867889 0.065429 0.272452
O O5 0.534724 0.846093 0.787165
O O6 0.489226 0.694659 0.802850
O O7 0.583123 0.753103 0.000000
O O8 0.896653 0.969864 0.500000
O O9 0.882202 0.912198 0.236814
O O10 0.000000 0.000000 0.299680
O O11 0.604707 0.105701 0.261388
O O12 0.500000 0.000000 0.214040
O O13 0.548990 0.095669 0.000000
O O14 0.858226 0.683127 0.500000
O O15 0.850718 0.759611 0.748719
O O16 0.881533 0.823800 0.000000
#
# Coordination Sequence:
#
# PCOD8225287 Si02
#       6
#     8   8   8   8   8   8
#     4  10  21  36  53  79 112 144 178 222 272 323
#     4   9  18  32  54  79 104 138 177 219 264 319
#     4  10  19  33  56  82 111 145 179 218 268 320
#     4   9  19  38  60  81 108 141 182 229 274 322
#     4  10  21  37  56  78 109 145 182 225 273 321
#     4  10  20  35  55  80 107 140 182 220 264 321
#
# _framework density 17.856157
#
# number of rings (size 3 to 8) (size 9 to 14) (size 15 to 20)
#    0.000    2.333    1.667    2.000    0.000    5.333 
#    3.000    0.000    0.000    0.000    0.000    0.000 
#    0.000    0.000    0.000    0.000    0.000    0.000 
#
# Total GULP energy -595323.274811 kJ/mol
# GULP energy per Si atom -12402.568225 kJ/mol
# Density = 1.781552 g / cm^3
# Si number density = 17.856157 Si / 1000 Ang^3
#
#
#
# Elastic Constant Matrix: (Units=GPa)
#
#
# Indices 1 2 3 4 5 6 
#
# 1 97.3120 69.7937 59.7543 0.0000 0.0000 0.0000
# 2 69.7937 150.1624 63.1949 0.0000 0.0000 0.0000
# 3 59.7543 63.1949 82.8172 0.0000 0.0000 0.0000
# 4 0.0000 0.0000 0.0000 31.5905 0.0000 0.0000
# 5 0.0000 0.0000 0.0000 0.0000 24.5913 0.0000
# 6 0.0000 0.0000 0.0000 0.0000 0.0000 23.4235
#
#
#
# Elastic Compliance Matrix: (Units=1/GPa)
#
#
# Indices 1 2 3 4 5 6 
#
# 1 0.020638 -0.004899 -0.011153 0.000000 0.000000 0.000000
# 2 -0.004899 0.010972 -0.004838 0.000000 0.000000 0.000000
# 3 -0.011153 -0.004838 0.023813 0.000000 0.000000 0.000000
# 4 0.000000 0.000000 0.000000 0.031655 0.000000 0.000000
# 5 0.000000 0.000000 0.000000 0.000000 0.040665 0.000000
# 6 0.000000 0.000000 0.000000 0.000000 0.000000 0.042692
#
#
# Mechanical properties :
#
#
# Convention : Reuss Voigt Hill
#
# Bulk Modulus (GPa) = 73.28801 79.53081 76.40941
# Shear Modulus (GPa) = 23.06667 25.09099 24.07883
#
# Velocity S-wave (km/s) = 3.59807 3.75263 3.67616
# Velocity P-wave (km/s) = 7.64160 7.96321 7.80406
#
# Compressibility (1/GPa) = 0.01364480
#
# Stress axis : x y z
#
# Youngs Moduli (GPa) = 48.45445 91.13746 41.99311
#
# Poissons Ratio (x) = 0.44646 0.46833
# Poissons Ratio (y) = 0.23737 0.20317
# Poissons Ratio (z) = 0.54039 0.44093
#
# Static dielectric constant tensor:
#      x y z
#    x 3.122600 0.000000 0.000000 
#    y 0.000000 3.409530 0.000000 
#    z 0.000000 0.000000 3.284860 
# 
# 
# High freq. dielectric constant tensor:
#      x y z
#    x 1.675870 0.000000 0.000000 
#    y 0.000000 1.696040 0.000000 
#    z 0.000000 0.000000 1.693250 
# 
# From -- ./inp_files/5634.got.cif
#   From: 2010.03.12/outbox.cif.g09.slc.cpg/sg55_3_cif.got.tgz:5634.got - 2010.04.16 15:19:21.
