data_PCOD8225129
_publ_section_title
;
Structure prediction by ZEFSAII (Michael W. Deem and Ramdas Pophale) SiO2 
 PCOD8225129
Probable space group: P B A M
;
_chemical_formula_sum "Si O2"
_cell_formula_units_Z 64
_cell_length_a 20.617256
_cell_length_b 18.344292
_cell_length_c 8.902160
_cell_angle_alpha 90.000000
_cell_angle_beta 90.000000
_cell_angle_gamma 90.000000
_cell_volume 3366.876714
_symmetry_space_group_name_H-M "P B A M"
_symmetry_group_IT_number 55
_symmetry_cell_setting 'orthorhombic'
loop_
_space_group_symop_operation_xyz
x,y,z
-x,-y,z
1/2+x,1/2-y,-z
1/2-x,1/2+y,-z
-x,-y,-z
x,y,-z
1/2-x,1/2+y,z
1/2+x,1/2-y,z
loop_
_atom_site_type_symbol
_atom_site_label
_atom_site_fract_x
_atom_site_fract_y
_atom_site_fract_z
Si Si1 0.883998 0.663086 0.174624
Si Si2 0.502531 0.914420 0.674163
Si Si3 0.385211 0.327251 0.676602
Si Si4 0.623248 0.332094 0.174665
Si Si5 0.004893 0.914670 0.827127
Si Si6 0.243545 0.337115 0.333397
Si Si7 0.382913 0.171675 0.177888
Si Si8 0.251782 0.164161 0.332577
O O1 0.890825 0.748135 0.215020
O O2 0.811574 0.635736 0.218452
O O3 0.934926 0.619586 0.273511
O O4 0.896179 0.647485 0.000000
O O5 0.513712 0.895513 0.500000
O O6 0.560769 0.882382 0.771406
O O7 0.500000 0.000000 0.703000
O O8 0.388075 0.310155 0.500000
O O9 0.438017 0.386145 0.722501
O O10 0.315161 0.362782 0.718885
O O11 0.398679 0.252186 0.762610
O O12 0.561754 0.378388 0.227522
O O13 0.685704 0.365363 0.258692
O O14 0.637646 0.340880 0.000000
O O15 0.019283 0.894135 0.000000
O O16 0.000000 0.000000 0.803171
O O17 0.226599 0.366663 0.500000
O O18 0.247803 0.250507 0.336021
O O19 0.314722 0.140098 0.238357
O O20 0.380226 0.174616 0.000000
O O21 0.258150 0.131700 0.500000
#
# Coordination Sequence:
#
# PCOD8225129 Si02
#       8
#     8   8   8   8   8   8   8   8
#     4  10  19  32  55  83 107 136 177 223 268 319
#     4  11  24  40  56  76 107 145 182 222 267 316
#     4  10  20  35  57  83 110 141 180 223 267 319
#     4   9  18  33  53  79 108 140 179 220 267 319
#     4  10  21  36  53  76 110 149 187 228 272 318
#     4   8  16  31  51  77 107 137 172 218 267 316
#     4  11  21  35  58  84 110 139 174 219 268 320
#     4   9  17  31  53  81 109 137 173 217 266 317
#
# _framework density 19.008714999999999
#
# number of rings (size 3 to 8) (size 9 to 14) (size 15 to 20)
#    0.000    2.250    0.000    4.125    0.000    6.750 
#    0.000    1.250    0.000    3.000    0.000    0.000 
#    0.000    0.000    0.000    0.000    0.000    0.000 
#
# Total GULP energy -793659.705043 kJ/mol
# GULP energy per Si atom -12400.932891 kJ/mol
# Density = 1.896545 g / cm^3
# Si number density = 19.008715 Si / 1000 Ang^3
#
#
#
# Elastic Constant Matrix: (Units=GPa)
#
#
# Indices 1 2 3 4 5 6 
#
# 1 167.1339 52.3168 67.6644 0.0000 0.0000 0.0000
# 2 52.3168 55.0737 39.0536 0.0000 0.0000 0.0000
# 3 67.6644 39.0536 110.3643 0.0000 0.0000 0.0000
# 4 0.0000 0.0000 0.0000 20.7779 0.0000 0.0000
# 5 0.0000 0.0000 0.0000 0.0000 39.7682 0.0000
# 6 0.0000 0.0000 0.0000 0.0000 0.0000 -3.3700
#
#
#
# Elastic Compliance Matrix: (Units=1/GPa)
#
#
# Indices 1 2 3 4 5 6 
#
# 1 0.009422 -0.006480 -0.003484 0.000000 0.000000 0.000000
# 2 -0.006480 0.028697 -0.006182 0.000000 0.000000 0.000000
# 3 -0.003484 -0.006182 0.013384 0.000000 0.000000 0.000000
# 4 0.000000 0.000000 0.000000 0.048128 0.000000 0.000000
# 5 0.000000 0.000000 0.000000 0.000000 0.025146 0.000000
# 6 0.000000 0.000000 0.000000 0.000000 0.000000 -0.296735
#
#
# Mechanical properties :
#
#
# Convention : Reuss Voigt Hill
#
# Bulk Modulus (GPa) = 52.05042 72.29350 62.17196
# Shear Modulus (GPa) = -37.51976 23.00434 -7.25771
#
# Velocity S-wave (km/s) = -4.44759 3.48257 -1.95611
# Velocity P-wave (km/s) = 1.03302 7.36786 5.26082
#
# Compressibility (1/GPa) = 0.01921214
#
# Stress axis : x y z
#
# Youngs Moduli (GPa) = 106.13488 34.84716 74.71519
#
# Poissons Ratio (x) = 0.22581 0.26028
# Poissons Ratio (y) = 0.68776 0.46187
# Poissons Ratio (z) = 0.36973 0.21542
#
# Static dielectric constant tensor:
#      x y z
#    x 3.879310 0.000000 0.000000 
#    y 0.000000 3.132330 0.000000 
#    z 0.000000 0.000000 3.566450 
# 
# 
# High freq. dielectric constant tensor:
#      x y z
#    x 1.758970 0.000000 0.000000 
#    y 0.000000 1.700190 0.000000 
#    z 0.000000 0.000000 1.745610 
# 
# From -- ./inp_files/9052.got.cif
#   From: 2010.03.12/outbox.cif.g09.slc.cpg/sg55_5_cif.got.tgz:9052.got - 2010.04.16 15:19:21.
