data_PCOD8225840
_publ_section_title
;
Structure prediction by ZEFSAII (Michael W. Deem and Ramdas Pophale) SiO2 
 PCOD8225840
Probable space group: P B A M
;
_chemical_formula_sum "Si O2"
_cell_formula_units_Z 64
_cell_length_a 23.653792
_cell_length_b 15.101578
_cell_length_c 9.332934
_cell_angle_alpha 90.000000
_cell_angle_beta 90.000000
_cell_angle_gamma 90.000000
_cell_volume 3333.813480
_symmetry_space_group_name_H-M "P B A M"
_symmetry_group_IT_number 55
_symmetry_cell_setting 'orthorhombic'
loop_
_space_group_symop_operation_xyz
x,y,z
-x,-y,z
1/2+x,1/2-y,-z
1/2-x,1/2+y,-z
-x,-y,-z
x,y,-z
1/2-x,1/2+y,z
1/2+x,1/2-y,z
loop_
_atom_site_type_symbol
_atom_site_label
_atom_site_fract_x
_atom_site_fract_y
_atom_site_fract_z
Si Si1 0.196698 0.685957 0.832925
Si Si2 0.074300 0.746136 0.830537
Si Si3 0.132636 0.342733 0.165853
Si Si4 0.666465 0.493991 0.662385
Si Si5 0.726452 0.014119 0.835609
Si Si6 0.696231 0.289729 0.660894
Si Si7 0.509754 0.097629 0.830213
Si Si8 0.442897 0.447368 0.168794
O O1 0.137764 0.726452 0.775466
O O2 0.199441 0.581386 0.801781
O O3 0.246450 0.733612 0.745999
O O4 0.205520 0.707218 0.000000
O O5 0.033130 0.670854 0.764798
O O6 0.052850 0.843940 0.785143
O O7 0.073562 0.737509 0.000000
O O8 0.177663 0.417787 0.201866
O O9 0.144448 0.257157 0.260481
O O10 0.072227 0.376516 0.215219
O O11 0.133234 0.315348 0.000000
O O12 0.660965 0.529879 0.500000
O O13 0.719078 0.540937 0.741443
O O14 0.680868 0.391537 0.663642
O O15 0.608522 0.509121 0.746232
O O16 0.745985 0.019405 0.000000
O O17 0.703284 0.254259 0.500000
O O18 0.500000 0.000000 0.764602
O O19 0.501901 0.094128 0.000000
O O20 0.500000 0.500000 0.210850
O O21 0.430804 0.456304 0.000000
#
# Coordination Sequence:
#
# PCOD8225840 Si02
#       8
#     8   8   8   8   8   8   8   8
#     4   9  17  33  56  79 108 142 180 225 274 324
#     4   9  18  32  53  82 113 144 181 226 273 325
#     4  10  20  32  55  85 112 142 180 221 270 331
#     4  10  22  39  57  77 106 147 188 229 279 330
#     4   9  18  33  54  83 112 141 177 224 276 330
#     4  10  22  37  53  77 110 144 182 227 274 328
#     4   9  17  31  54  85 116 144 177 222 273 325
#     4  10  22  37  56  81 111 146 185 233 282 329
#
# _framework density 19.197236
#
# number of rings (size 3 to 8) (size 9 to 14) (size 15 to 20)
#    0.000    2.500    0.000    1.500    3.500    5.250 
#    0.000    0.000    0.000    1.125    0.000    0.000 
#    0.000    0.000    0.000    0.000    0.000    0.000 
#
# Total GULP energy -793570.542286 kJ/mol
# GULP energy per Si atom -12399.539723 kJ/mol
# Density = 1.915354 g / cm^3
# Si number density = 19.197236 Si / 1000 Ang^3
#
#
#
# Elastic Constant Matrix: (Units=GPa)
#
#
# Indices 1 2 3 4 5 6 
#
# 1 162.9680 55.9221 57.5917 0.0000 0.0000 0.0000
# 2 55.9221 65.0453 26.3730 0.0000 0.0000 0.0000
# 3 57.5917 26.3730 64.6009 0.0000 0.0000 0.0000
# 4 0.0000 0.0000 0.0000 18.2290 0.0000 0.0000
# 5 0.0000 0.0000 0.0000 0.0000 4.5430 0.0000
# 6 0.0000 0.0000 0.0000 0.0000 0.0000 32.3276
#
#
#
# Elastic Compliance Matrix: (Units=1/GPa)
#
#
# Indices 1 2 3 4 5 6 
#
# 1 0.010838 -0.006471 -0.007020 0.000000 0.000000 0.000000
# 2 -0.006471 0.022288 -0.003330 0.000000 0.000000 0.000000
# 3 -0.007020 -0.003330 0.023097 0.000000 0.000000 0.000000
# 4 0.000000 0.000000 0.000000 0.054858 0.000000 0.000000
# 5 0.000000 0.000000 0.000000 0.000000 0.220119 0.000000
# 6 0.000000 0.000000 0.000000 0.000000 0.000000 0.030933
#
#
# Mechanical properties :
#
#
# Convention : Reuss Voigt Hill
#
# Bulk Modulus (GPa) = 44.28547 63.59866 53.94207
# Shear Modulus (GPa) = 12.39770 21.20173 16.79971
#
# Velocity S-wave (km/s) = 2.54403 3.32688 2.96144
# Velocity P-wave (km/s) = 5.63455 6.92521 6.31295
#
# Compressibility (1/GPa) = 0.02258077
#
# Stress axis : x y z
#
# Youngs Moduli (GPa) = 92.27214 44.86811 43.29542
#
# Poissons Ratio (x) = 0.29035 0.30392
# Poissons Ratio (y) = 0.59711 0.14416
# Poissons Ratio (z) = 0.64773 0.14940
#
# Static dielectric constant tensor:
#      x y z
#    x 3.646760 0.000000 0.000000 
#    y 0.000000 3.652120 0.000000 
#    z 0.000000 0.000000 3.325460 
# 
# 
# High freq. dielectric constant tensor:
#      x y z
#    x 1.756100 0.000000 0.000000 
#    y 0.000000 1.754310 0.000000 
#    z 0.000000 0.000000 1.709520 
# 
# From -- ./inp_files/6523.got.cif
#   From: 2010.03.12/outbox.cif.g09.slc.cpg/sg55_4_cif.got.tgz:6523.got - 2010.04.16 15:19:21.
