data_PCOD8225823
_publ_section_title
;
Structure prediction by ZEFSAII (Michael W. Deem and Ramdas Pophale) SiO2 
 PCOD8225823
Probable space group: P B A M
;
_chemical_formula_sum "Si O2"
_cell_formula_units_Z 64
_cell_length_a 23.090302
_cell_length_b 18.830149
_cell_length_c 8.940154
_cell_angle_alpha 90.000000
_cell_angle_beta 90.000000
_cell_angle_gamma 90.000000
_cell_volume 3887.123773
_symmetry_space_group_name_H-M "P B A M"
_symmetry_group_IT_number 55
_symmetry_cell_setting 'orthorhombic'
loop_
_space_group_symop_operation_xyz
x,y,z
-x,-y,z
1/2+x,1/2-y,-z
1/2-x,1/2+y,-z
-x,-y,-z
x,y,-z
1/2-x,1/2+y,z
1/2+x,1/2-y,z
loop_
_atom_site_type_symbol
_atom_site_label
_atom_site_fract_x
_atom_site_fract_y
_atom_site_fract_z
Si Si1 0.777658 0.651075 0.329440
Si Si2 0.884139 0.000399 0.823143
Si Si3 0.568078 0.361940 0.672522
Si Si4 0.434886 0.364833 0.671589
Si Si5 0.273491 0.141063 0.826644
Si Si6 0.740239 0.497376 0.674593
Si Si7 0.341003 0.730395 0.173167
Si Si8 0.835371 0.238257 0.328330
O O1 0.795249 0.666816 0.500000
O O2 0.778411 0.567451 0.294353
O O3 0.823915 0.690302 0.223936
O O4 0.713118 0.678954 0.296587
O O5 0.920142 0.069299 0.776767
O O6 0.819796 0.002945 0.760550
O O7 0.917871 0.932075 0.764774
O O8 0.880245 0.995477 0.000000
O O9 0.583728 0.375485 0.500000
O O10 0.501049 0.342564 0.693875
O O11 0.603898 0.295084 0.733271
O O12 0.421589 0.386995 0.500000
O O13 0.396609 0.296467 0.716215
O O14 0.211685 0.176958 0.793043
O O15 0.324948 0.192779 0.773648
O O16 0.277592 0.068498 0.734034
O O17 0.281744 0.124136 0.000000
O O18 0.726669 0.488483 0.500000
O O19 0.357367 0.731638 0.000000
O O20 0.834223 0.263089 0.500000
#
# Coordination Sequence:
#
# PCOD8225823 Si02
#       8
#     8   8   8   8   8   8   8   8
#     4   9  18  32  52  73  96 127 166 206 247 297
#     4  12  23  33  47  71 104 137 171 209 246 292
#     4  11  22  35  53  71  97 136 176 212 244 287
#     4  10  21  37  53  72  97 133 177 212 245 290
#     4  10  20  32  48  74 103 130 163 203 251 300
#     4  11  20  33  53  75 100 134 170 205 247 297
#     4  10  20  33  49  72 102 131 164 206 250 296
#     4   9  17  33  52  71  96 128 167 208 247 291
#
# _framework density 16.464615999999999
#
# number of rings (size 3 to 8) (size 9 to 14) (size 15 to 20)
#    0.000    1.750    2.500    3.000    0.000    5.000 
#    0.000    0.000    0.000    0.000    0.000    0.875 
#    0.000    7.000    0.000    0.000    0.000    0.000 
#
# Total GULP energy -793866.031712 kJ/mol
# GULP energy per Si atom -12404.156745 kJ/mol
# Density = 1.642714 g / cm^3
# Si number density = 16.464616 Si / 1000 Ang^3
#
#
#
# Elastic Constant Matrix: (Units=GPa)
#
#
# Indices 1 2 3 4 5 6 
#
# 1 83.1571 51.1683 48.8022 0.0000 0.0000 0.0000
# 2 51.1683 107.2637 59.3108 0.0000 0.0000 0.0000
# 3 48.8022 59.3108 108.3990 0.0000 0.0000 0.0000
# 4 0.0000 0.0000 0.0000 17.7919 0.0000 0.0000
# 5 0.0000 0.0000 0.0000 0.0000 14.8328 0.0000
# 6 0.0000 0.0000 0.0000 0.0000 0.0000 14.8998
#
#
#
# Elastic Compliance Matrix: (Units=1/GPa)
#
#
# Indices 1 2 3 4 5 6 
#
# 1 0.018802 -0.006149 -0.005101 0.000000 0.000000 0.000000
# 2 -0.006149 0.015378 -0.005646 0.000000 0.000000 0.000000
# 3 -0.005101 -0.005646 0.014611 0.000000 0.000000 0.000000
# 4 0.000000 0.000000 0.000000 0.056205 0.000000 0.000000
# 5 0.000000 0.000000 0.000000 0.000000 0.067418 0.000000
# 6 0.000000 0.000000 0.000000 0.000000 0.000000 0.067115
#
#
# Mechanical properties :
#
#
# Convention : Reuss Voigt Hill
#
# Bulk Modulus (GPa) = 66.66551 68.59804 67.63178
# Shear Modulus (GPa) = 17.96492 18.80745 18.38619
#
# Velocity S-wave (km/s) = 3.30680 3.38345 3.34535
# Velocity P-wave (km/s) = 7.42684 7.55103 7.48919
#
# Compressibility (1/GPa) = 0.01500026
#
# Stress axis : x y z
#
# Youngs Moduli (GPa) = 53.18466 65.02845 68.44378
#
# Poissons Ratio (x) = 0.39986 0.34910
# Poissons Ratio (y) = 0.32704 0.38641
# Poissons Ratio (z) = 0.27127 0.36713
#
# Static dielectric constant tensor:
#      x y z
#    x 2.938770 0.000000 0.000000 
#    y 0.000000 3.134340 0.000000 
#    z 0.000000 0.000000 3.217890 
# 
# 
# High freq. dielectric constant tensor:
#      x y z
#    x 1.606000 0.000000 0.000000 
#    y 0.000000 1.627760 0.000000 
#    z 0.000000 0.000000 1.645270 
# 
# From -- ./inp_files/7989.got.cif
#   From: 2010.03.12/outbox.cif.g09.slc.cpg/sg55_4_cif.got.tgz:7989.got - 2010.04.16 15:19:21.
