data_PCOD8225463
_publ_section_title
;
Structure prediction by ZEFSAII (Michael W. Deem and Ramdas Pophale) SiO2 
 PCOD8225463
Probable space group: P B A M
;
_chemical_formula_sum "Si O2"
_cell_formula_units_Z 56
_cell_length_a 23.932473
_cell_length_b 13.404978
_cell_length_c 9.078911
_cell_angle_alpha 90.000000
_cell_angle_beta 90.000000
_cell_angle_gamma 90.000000
_cell_volume 2912.644242
_symmetry_space_group_name_H-M "P B A M"
_symmetry_group_IT_number 55
_symmetry_cell_setting 'orthorhombic'
loop_
_space_group_symop_operation_xyz
x,y,z
-x,-y,z
1/2+x,1/2-y,-z
1/2-x,1/2+y,-z
-x,-y,-z
x,y,-z
1/2-x,1/2+y,z
1/2+x,1/2-y,z
loop_
_atom_site_type_symbol
_atom_site_label
_atom_site_fract_x
_atom_site_fract_y
_atom_site_fract_z
Si Si1 0.937405 0.309309 0.330410
Si Si2 0.839868 0.640548 0.829823
Si Si3 0.778194 0.223932 0.828496
Si Si4 0.872096 0.113416 0.326688
Si Si5 0.058651 0.048077 0.174149
Si Si6 0.560552 0.241402 0.672429
Si Si7 0.344372 0.084759 0.169971
O O1 0.924633 0.327180 0.500000
O O2 0.915783 0.200051 0.282890
O O3 0.903883 0.395349 0.246437
O O4 0.002929 0.316848 0.294396
O O5 0.787293 0.711489 0.794962
O O6 0.889784 0.669764 0.722166
O O7 0.823007 0.526244 0.794001
O O8 0.858510 0.651879 0.000000
O O9 0.811152 0.142527 0.732759
O O10 0.797048 0.335492 0.779846
O O11 0.790753 0.203622 0.000000
O O12 0.869419 0.094315 0.500000
O O13 0.891017 0.012904 0.246847
O O14 0.062490 0.159245 0.232773
O O15 0.066571 0.048274 0.000000
O O16 0.000000 0.000000 0.222303
O O17 0.565472 0.267602 0.500000
O O18 0.356625 0.098810 0.000000
#
# Coordination Sequence:
#
# PCOD8225463 Si02
#       7
#     8   8   8   8   8   8   8
#     4   9  19  35  55  80 111 147 185 231 283 339
#     4  10  22  39  57  83 117 150 190 242 291 337
#     4   9  19  37  59  82 112 151 196 239 283 340
#     4  10  19  34  57  84 115 151 192 237 286 339
#     4  11  22  35  56  86 118 152 189 231 285 348
#     4  11  23  38  56  81 116 153 190 236 290 344
#     4   9  19  36  59  82 107 145 188 233 283 336
#
# _framework density 19.226517000000001
#
# number of rings (size 3 to 8) (size 9 to 14) (size 15 to 20)
#    0.000    2.143    1.429    1.286    0.000    5.143 
#    0.000    5.714    0.000    0.000    0.000    0.000 
#    0.000    0.000    0.000    0.000    0.000    0.000 
#
# Total GULP energy -694548.281020 kJ/mol
# GULP energy per Si atom -12402.647875 kJ/mol
# Density = 1.918276 g / cm^3
# Si number density = 19.226517 Si / 1000 Ang^3
#
#
#
# Elastic Constant Matrix: (Units=GPa)
#
#
# Indices 1 2 3 4 5 6 
#
# 1 108.7027 39.8920 36.3061 0.0000 0.0000 0.0000
# 2 39.8920 86.4797 27.7043 0.0000 0.0000 0.0000
# 3 36.3061 27.7043 57.7706 0.0000 0.0000 0.0000
# 4 0.0000 0.0000 0.0000 29.6197 0.0000 0.0000
# 5 0.0000 0.0000 0.0000 0.0000 30.2943 0.0000
# 6 0.0000 0.0000 0.0000 0.0000 0.0000 27.7223
#
#
#
# Elastic Compliance Matrix: (Units=1/GPa)
#
#
# Indices 1 2 3 4 5 6 
#
# 1 0.012661 -0.003889 -0.006092 0.000000 0.000000 0.000000
# 2 -0.003889 0.014857 -0.004681 0.000000 0.000000 0.000000
# 3 -0.006092 -0.004681 0.023383 0.000000 0.000000 0.000000
# 4 0.000000 0.000000 0.000000 0.033761 0.000000 0.000000
# 5 0.000000 0.000000 0.000000 0.000000 0.033010 0.000000
# 6 0.000000 0.000000 0.000000 0.000000 0.000000 0.036072
#
#
# Mechanical properties :
#
#
# Convention : Reuss Voigt Hill
#
# Bulk Modulus (GPa) = 46.34383 51.19531 48.76957
# Shear Modulus (GPa) = 26.27985 27.46398 26.87192
#
# Velocity S-wave (km/s) = 3.70111 3.78357 3.74257
# Velocity P-wave (km/s) = 6.51312 6.76554 6.64053
#
# Compressibility (1/GPa) = 0.02157785
#
# Stress axis : x y z
#
# Youngs Moduli (GPa) = 78.98110 67.30935 42.76596
#
# Poissons Ratio (x) = 0.26176 0.26053
# Poissons Ratio (y) = 0.30715 0.20018
# Poissons Ratio (z) = 0.48116 0.31506
#
# Static dielectric constant tensor:
#      x y z
#    x 3.542070 0.000000 0.000000 
#    y 0.000000 3.503810 0.000000 
#    z 0.000000 0.000000 3.503090 
# 
# 
# High freq. dielectric constant tensor:
#      x y z
#    x 1.744200 0.000000 0.000000 
#    y 0.000000 1.743870 0.000000 
#    z 0.000000 0.000000 1.748190 
# 
# From -- ./inp_files/8778.got.cif
#   From: 2010.03.12/outbox.cif.g09.slc.cpg/sg55_5_cif.got.tgz:8778.got - 2010.04.16 15:19:21.
