data_PCOD8225058
_publ_section_title
;
Structure prediction by ZEFSAII (Michael W. Deem and Ramdas Pophale) SiO2 
 PCOD8225058
Probable space group: P B A M
;
_chemical_formula_sum "Si O2"
_cell_formula_units_Z 56
_cell_length_a 14.048638
_cell_length_b 23.100676
_cell_length_c 9.035394
_cell_angle_alpha 90.000000
_cell_angle_beta 90.000000
_cell_angle_gamma 90.000000
_cell_volume 2932.283834
_symmetry_space_group_name_H-M "P B A M"
_symmetry_group_IT_number 55
_symmetry_cell_setting 'orthorhombic'
loop_
_space_group_symop_operation_xyz
x,y,z
-x,-y,z
1/2+x,1/2-y,-z
1/2-x,1/2+y,-z
-x,-y,-z
x,y,-z
1/2-x,1/2+y,z
1/2+x,1/2-y,z
loop_
_atom_site_type_symbol
_atom_site_label
_atom_site_fract_x
_atom_site_fract_y
_atom_site_fract_z
Si Si1 0.706513 0.383018 0.830907
Si Si2 0.113708 0.222275 0.328368
Si Si3 0.887260 0.659145 0.824542
Si Si4 0.393708 0.280989 0.329494
Si Si5 0.388986 0.496890 0.827275
Si Si6 0.718009 0.606878 0.675680
Si Si7 0.899789 0.333390 0.168298
O O1 0.669619 0.333830 0.722844
O O2 0.662247 0.443626 0.781689
O O3 0.822086 0.384756 0.815360
O O4 0.677147 0.368707 0.000000
O O5 0.135051 0.234890 0.500000
O O6 0.146176 0.278323 0.235838
O O7 0.004081 0.208546 0.298311
O O8 0.822622 0.609460 0.749648
O O9 0.996449 0.646672 0.772811
O O10 0.874477 0.656652 0.000000
O O11 0.370447 0.272230 0.500000
O O12 0.338475 0.336572 0.267928
O O13 0.358387 0.222739 0.251097
O O14 0.500000 0.500000 0.785526
O O15 0.339483 0.448291 0.730326
O O16 0.375059 0.482894 0.000000
O O17 0.727596 0.603838 0.500000
O O18 0.913245 0.313944 0.000000
#
# Coordination Sequence:
#
# PCOD8225058 Si02
#       7
#     8   8   8   8   8   8   8
#     4  10  20  35  54  77 105 138 178 219 261 312
#     4  10  19  32  52  80 111 140 171 210 261 315
#     4  10  20  35  54  77 106 139 175 215 261 311
#     4   9  19  33  50  76 109 140 169 208 259 315
#     4  10  22  39  58  80 106 138 177 220 265 316
#     4  11  22  36  55  79 107 141 180 220 266 316
#     4   9  19  34  53  77 104 136 173 214 259 309
#
# _framework density 19.097740999999999
#
# number of rings (size 3 to 8) (size 9 to 14) (size 15 to 20)
#    0.000    2.143    0.000    3.000    0.000    6.000 
#    0.000    0.714    0.000    4.286    0.000    0.000 
#    0.000    0.000    0.000    0.000    0.000    0.000 
#
# Total GULP energy -694462.686692 kJ/mol
# GULP energy per Si atom -12401.119405 kJ/mol
# Density = 1.905427 g / cm^3
# Si number density = 19.097741 Si / 1000 Ang^3
#
#
#
# Elastic Constant Matrix: (Units=GPa)
#
#
# Indices 1 2 3 4 5 6 
#
# 1 114.7876 79.5798 46.0021 0.0000 0.0000 0.0000
# 2 79.5798 97.1433 40.8032 0.0000 0.0000 0.0000
# 3 46.0021 40.8032 67.0699 0.0000 0.0000 0.0000
# 4 0.0000 0.0000 0.0000 26.5332 0.0000 0.0000
# 5 0.0000 0.0000 0.0000 0.0000 22.8319 0.0000
# 6 0.0000 0.0000 0.0000 0.0000 0.0000 34.0689
#
#
#
# Elastic Compliance Matrix: (Units=1/GPa)
#
#
# Indices 1 2 3 4 5 6 
#
# 1 0.021539 -0.015366 -0.005425 0.000000 0.000000 0.000000
# 2 -0.015366 0.024789 -0.004542 0.000000 0.000000 0.000000
# 3 -0.005425 -0.004542 0.021394 0.000000 0.000000 0.000000
# 4 0.000000 0.000000 0.000000 0.037689 0.000000 0.000000
# 5 0.000000 0.000000 0.000000 0.000000 0.043798 0.000000
# 6 0.000000 0.000000 0.000000 0.000000 0.000000 0.029352
#
#
# Mechanical properties :
#
#
# Convention : Reuss Voigt Hill
#
# Bulk Modulus (GPa) = 58.62841 67.97454 63.30147
# Shear Modulus (GPa) = 21.28457 24.19452 22.73955
#
# Velocity S-wave (km/s) = 3.34205 3.56319 3.45439
# Velocity P-wave (km/s) = 6.75708 7.25249 7.00916
#
# Compressibility (1/GPa) = 0.01705658
#
# Stress axis : x y z
#
# Youngs Moduli (GPa) = 46.42840 40.33971 46.74240
#
# Poissons Ratio (x) = 0.61985 0.25357
# Poissons Ratio (y) = 0.71341 0.21231
# Poissons Ratio (z) = 0.25187 0.18322
#
# Static dielectric constant tensor:
#      x y z
#    x 3.834940 0.000000 0.000000 
#    y 0.000000 3.372780 0.000000 
#    z 0.000000 0.000000 3.436550 
# 
# 
# High freq. dielectric constant tensor:
#      x y z
#    x 1.761810 0.000000 0.000000 
#    y 0.000000 1.718800 0.000000 
#    z 0.000000 0.000000 1.742120 
# 
# From -- ./inp_files/6042.got.cif
#   From: 2010.03.12/outbox.cif.g09.slc.cpg/sg55_4_cif.got.tgz:6042.got - 2010.04.16 15:19:21.
