data_PCOD8225438
_publ_section_title
;
Structure prediction by ZEFSAII (Michael W. Deem and Ramdas Pophale) SiO2 
 PCOD8225438
Probable space group: P B A M
;
_chemical_formula_sum "Si O2"
_cell_formula_units_Z 52
_cell_length_a 14.678482
_cell_length_b 19.364434
_cell_length_c 9.577983
_cell_angle_alpha 90.000000
_cell_angle_beta 90.000000
_cell_angle_gamma 90.000000
_cell_volume 2722.450638
_symmetry_space_group_name_H-M "P B A M"
_symmetry_group_IT_number 55
_symmetry_cell_setting 'orthorhombic'
loop_
_space_group_symop_operation_xyz
x,y,z
-x,-y,z
1/2+x,1/2-y,-z
1/2-x,1/2+y,-z
-x,-y,-z
x,y,-z
1/2-x,1/2+y,z
1/2+x,1/2-y,z
loop_
_atom_site_type_symbol
_atom_site_label
_atom_site_fract_x
_atom_site_fract_y
_atom_site_fract_z
Si Si1 0.271644 0.571892 0.663469
Si Si2 0.920361 0.364276 0.653815
Si Si3 0.882908 0.827387 0.162102
Si Si4 0.191054 0.454610 0.157669
Si Si5 0.569968 0.738615 0.839392
Si Si6 0.232848 0.302642 0.834893
Si Si7 0.000000 0.500000 0.243713
O O1 0.293393 0.559882 0.500000
O O2 0.185367 0.621437 0.685718
O O3 0.356062 0.607925 0.741717
O O4 0.252946 0.498751 0.737062
O O5 0.931832 0.332812 0.500000
O O6 0.958252 0.309123 0.762954
O O7 0.977316 0.434899 0.659229
O O8 0.832046 0.758714 0.218834
O O9 0.991079 0.817866 0.180504
O O10 0.857634 0.842091 0.000000
O O11 0.194958 0.376393 0.216738
O O12 0.087221 0.481397 0.149794
O O13 0.230718 0.459525 0.000000
O O14 0.664148 0.708120 0.778438
O O15 0.580655 0.759633 0.000000
O O16 0.232471 0.302128 0.000000
#
# Coordination Sequence:
#
# PCOD8225438 Si02
#       7
#     8   8   8   8   8   8   4
#     4  10  21  36  53  77 109 145 182 222 272 329
#     4  10  20  34  52  76 111 148 179 218 274 336
#     4  10  19  34  57  81 105 140 183 226 275 330
#     4  10  20  35  56  80 110 146 184 231 284 336
#     4  10  20  34  56  82 108 140 183 231 279 330
#     4   9  18  34  54  81 112 138 175 231 281 327
#     4  10  20  32  52  84 114 142 188 230 280 340
#
# _framework density 19.100438
#
# number of rings (size 3 to 8) (size 9 to 14) (size 15 to 20)
#    0.000    2.154    1.538    1.846    0.000    5.538 
#    0.000    2.308    0.000    4.615    0.000    0.000 
#    0.000    0.000    0.000    0.000    0.000    0.000 
#
# Total GULP energy -644789.781179 kJ/mol
# GULP energy per Si atom -12399.803484 kJ/mol
# Density = 1.905696 g / cm^3
# Si number density = 19.100438 Si / 1000 Ang^3
#
#
#
# Elastic Constant Matrix: (Units=GPa)
#
#
# Indices 1 2 3 4 5 6 
#
# 1 77.1556 25.7033 14.3544 0.0000 0.0000 0.0000
# 2 25.7033 88.4033 25.1317 0.0000 0.0000 0.0000
# 3 14.3544 25.1317 72.0077 0.0000 0.0000 0.0000
# 4 0.0000 0.0000 0.0000 20.2158 0.0000 0.0000
# 5 0.0000 0.0000 0.0000 0.0000 17.0700 0.0000
# 6 0.0000 0.0000 0.0000 0.0000 0.0000 28.5117
#
#
#
# Elastic Compliance Matrix: (Units=1/GPa)
#
#
# Indices 1 2 3 4 5 6 
#
# 1 0.014510 -0.003771 -0.001577 0.000000 0.000000 0.000000
# 2 -0.003771 0.013538 -0.003973 0.000000 0.000000 0.000000
# 3 -0.001577 -0.003973 0.015588 0.000000 0.000000 0.000000
# 4 0.000000 0.000000 0.000000 0.049466 0.000000 0.000000
# 5 0.000000 0.000000 0.000000 0.000000 0.058582 0.000000
# 6 0.000000 0.000000 0.000000 0.000000 0.000000 0.035073
#
#
# Mechanical properties :
#
#
# Convention : Reuss Voigt Hill
#
# Bulk Modulus (GPa) = 40.00715 40.88282 40.44498
# Shear Modulus (GPa) = 23.39390 24.65129 24.02260
#
# Velocity S-wave (km/s) = 3.50349 3.59641 3.55025
# Velocity P-wave (km/s) = 6.11204 6.22062 6.16657
#
# Compressibility (1/GPa) = 0.02499553
#
# Stress axis : x y z
#
# Youngs Moduli (GPa) = 68.91668 73.86812 64.15039
#
# Poissons Ratio (x) = 0.27853 0.10113
# Poissons Ratio (y) = 0.25986 0.25488
# Poissons Ratio (z) = 0.10865 0.29349
#
# Static dielectric constant tensor:
#      x y z
#    x 3.501110 0.000000 0.000000 
#    y 0.000000 3.440500 0.000000 
#    z 0.000000 0.000000 3.240490 
# 
# 
# High freq. dielectric constant tensor:
#      x y z
#    x 1.734680 0.000000 0.000000 
#    y 0.000000 1.736450 0.000000 
#    z 0.000000 0.000000 1.723020 
# 
# From -- ./inp_files/5898.got.cif
#   From: 2010.03.12/outbox.cif.g09.slc.cpg/sg55_3_cif.got.tgz:5898.got - 2010.04.16 15:19:21.
