data_PCOD8225756
_publ_section_title
;
Structure prediction by ZEFSAII (Michael W. Deem and Ramdas Pophale) SiO2 
 PCOD8225756
Probable space group: P B A M
;
_chemical_formula_sum "Si O2"
_cell_formula_units_Z 64
_cell_length_a 19.771072
_cell_length_b 18.635720
_cell_length_c 8.853812
_cell_angle_alpha 90.000000
_cell_angle_beta 90.000000
_cell_angle_gamma 90.000000
_cell_volume 3262.170757
_symmetry_space_group_name_H-M "P B A M"
_symmetry_group_IT_number 55
_symmetry_cell_setting 'orthorhombic'
loop_
_space_group_symop_operation_xyz
x,y,z
-x,-y,z
1/2+x,1/2-y,-z
1/2-x,1/2+y,-z
-x,-y,-z
x,y,-z
1/2-x,1/2+y,z
1/2+x,1/2-y,z
loop_
_atom_site_type_symbol
_atom_site_label
_atom_site_fract_x
_atom_site_fract_y
_atom_site_fract_z
Si Si1 0.697043 0.457006 0.826048
Si Si2 0.852527 0.703287 0.822460
Si Si3 0.172316 0.459705 0.826512
Si Si4 0.262334 0.188755 0.821693
Si Si5 0.473631 0.713065 0.678875
Si Si6 0.057756 0.052893 0.678693
Si Si7 0.414354 0.198324 0.820735
Si Si8 0.061323 0.551228 0.323450
O O1 0.748305 0.523426 0.806116
O O2 0.731252 0.385104 0.757318
O O3 0.629318 0.475929 0.736997
O O4 0.677799 0.444423 0.000000
O O5 0.840934 0.621328 0.775857
O O6 0.785485 0.745916 0.772128
O O7 0.916511 0.731840 0.732115
O O8 0.866227 0.712577 0.000000
O O9 0.131090 0.513436 0.721144
O O10 0.150538 0.472892 0.000000
O O11 0.337583 0.201764 0.757383
O O12 0.268442 0.181746 0.000000
O O13 0.479425 0.715911 0.500000
O O14 0.455868 0.633455 0.737769
O O15 0.545313 0.735029 0.750166
O O16 0.058869 0.051319 0.500000
O O17 0.000000 0.000000 0.742202
O O18 0.448925 0.124466 0.768063
O O19 0.417856 0.203557 0.000000
O O20 0.061412 0.568935 0.500000
O O21 0.000000 0.500000 0.276604
#
# Coordination Sequence:
#
# PCOD8225756 Si02
#       8
#     8   8   8   8   8   8   8   8
#     4  10  19  37  62  87 116 148 194 248 295 349
#     4  10  20  37  61  86 114 153 196 240 298 358
#     4  10  21  36  57  86 116 150 193 243 296 352
#     4   9  18  35  59  85 113 146 189 242 291 346
#     4  11  23  39  58  85 121 157 198 246 292 349
#     4  10  23  42  62  86 120 161 202 244 296 354
#     4  11  22  38  61  87 117 154 194 240 294 351
#     4  11  23  37  54  80 117 156 194 238 286 343
#
# _framework density 19.618839000000001
#
# number of rings (size 3 to 8) (size 9 to 14) (size 15 to 20)
#    0.000    1.750    2.500    1.875    0.000    5.750 
#    0.000    2.500    0.000    0.000    0.000    0.000 
#    0.000    0.000    0.000    0.000    0.000    0.000 
#
# Total GULP energy -793879.687444 kJ/mol
# GULP energy per Si atom -12404.370116 kJ/mol
# Density = 1.957419 g / cm^3
# Si number density = 19.618839 Si / 1000 Ang^3
#
#
#
# Elastic Constant Matrix: (Units=GPa)
#
#
# Indices 1 2 3 4 5 6 
#
# 1 131.7932 38.5212 28.1025 0.0000 0.0000 0.0000
# 2 38.5212 97.1777 22.9395 0.0000 0.0000 0.0000
# 3 28.1025 22.9395 40.1379 0.0000 0.0000 0.0000
# 4 0.0000 0.0000 0.0000 23.5463 0.0000 0.0000
# 5 0.0000 0.0000 0.0000 0.0000 23.7520 0.0000
# 6 0.0000 0.0000 0.0000 0.0000 0.0000 39.5215
#
#
#
# Elastic Compliance Matrix: (Units=1/GPa)
#
#
# Indices 1 2 3 4 5 6 
#
# 1 0.009424 -0.002518 -0.005159 0.000000 0.000000 0.000000
# 2 -0.002518 0.012568 -0.005420 0.000000 0.000000 0.000000
# 3 -0.005159 -0.005420 0.031624 0.000000 0.000000 0.000000
# 4 0.000000 0.000000 0.000000 0.042470 0.000000 0.000000
# 5 0.000000 0.000000 0.000000 0.000000 0.042102 0.000000
# 6 0.000000 0.000000 0.000000 0.000000 0.000000 0.025303
#
#
# Mechanical properties :
#
#
# Convention : Reuss Voigt Hill
#
# Bulk Modulus (GPa) = 36.46722 49.80391 43.13557
# Shear Modulus (GPa) = 25.14794 29.33364 27.24079
#
# Velocity S-wave (km/s) = 3.58414 3.87095 3.73030
# Velocity P-wave (km/s) = 5.97966 6.73942 6.37088
#
# Compressibility (1/GPa) = 0.02742189
#
# Stress axis : x y z
#
# Youngs Moduli (GPa) = 106.11663 79.56797 31.62172
#
# Poissons Ratio (x) = 0.20033 0.16314
# Poissons Ratio (y) = 0.26717 0.17139
# Poissons Ratio (z) = 0.54746 0.43126
#
# Static dielectric constant tensor:
#      x y z
#    x 3.719440 0.000000 0.000000 
#    y 0.000000 3.699230 0.000000 
#    z 0.000000 0.000000 3.336230 
# 
# 
# High freq. dielectric constant tensor:
#      x y z
#    x 1.775500 0.000000 0.000000 
#    y 0.000000 1.767810 0.000000 
#    z 0.000000 0.000000 1.745020 
# 
# From -- ./inp_files/8025.got.cif
#   From: 2010.03.12/outbox.cif.g09.slc.cpg/sg55_5_cif.got.tgz:8025.got - 2010.04.16 15:19:21.
