data_PCOD8225824
_publ_section_title
;
Structure prediction by ZEFSAII (Michael W. Deem and Ramdas Pophale) SiO2 
 PCOD8225824
Probable space group: P B A M
;
_chemical_formula_sum "Si O2"
_cell_formula_units_Z 64
_cell_length_a 23.206200
_cell_length_b 18.768854
_cell_length_c 8.926408
_cell_angle_alpha 90.000000
_cell_angle_beta 90.000000
_cell_angle_gamma 90.000000
_cell_volume 3887.930743
_symmetry_space_group_name_H-M "P B A M"
_symmetry_group_IT_number 55
_symmetry_cell_setting 'orthorhombic'
loop_
_space_group_symop_operation_xyz
x,y,z
-x,-y,z
1/2+x,1/2-y,-z
1/2-x,1/2+y,-z
-x,-y,-z
x,y,-z
1/2-x,1/2+y,z
1/2+x,1/2-y,z
loop_
_atom_site_type_symbol
_atom_site_label
_atom_site_fract_x
_atom_site_fract_y
_atom_site_fract_z
Si Si1 0.332491 0.730158 0.826836
Si Si2 0.763176 0.658245 0.671743
Si Si3 0.616899 0.508194 0.175664
Si Si4 0.274509 0.132514 0.827713
Si Si5 0.437720 0.354086 0.323218
Si Si6 0.157282 0.769038 0.175201
Si Si7 0.761397 0.000239 0.328505
Si Si8 0.557662 0.359845 0.826103
O O1 0.320098 0.800923 0.729943
O O2 0.285846 0.669906 0.786851
O O3 0.395311 0.700422 0.788241
O O4 0.326594 0.751208 0.000000
O O5 0.751315 0.679016 0.500000
O O6 0.707715 0.679374 0.768268
O O7 0.773278 0.573976 0.690265
O O8 0.586344 0.572302 0.260114
O O9 0.682223 0.499212 0.226409
O O10 0.582039 0.437123 0.215153
O O11 0.615929 0.524156 0.000000
O O12 0.326790 0.186706 0.792761
O O13 0.281226 0.062693 0.725086
O O14 0.275163 0.108731 0.000000
O O15 0.432015 0.355529 0.500000
O O16 0.401620 0.287382 0.259889
O O17 0.503426 0.342806 0.276570
O O18 0.149490 0.783417 0.000000
O O19 0.779911 0.988365 0.500000
O O20 0.539870 0.357116 0.000000
#
# Coordination Sequence:
#
# PCOD8225824 Si02
#       8
#     8   8   8   8   8   8   8   8
#     4   9  18  34  52  72  96 129 172 211 246 296
#     4  10  20  32  48  74 104 131 163 206 254 303
#     4  11  21  35  52  69  98 140 178 211 242 288
#     4   9  18  33  52  74  97 127 170 209 248 299
#     4  12  24  35  49  74 103 133 172 213 255 301
#     4  10  20  35  53  71  95 133 173 210 249 296
#     4  11  21  31  48  76 107 136 165 203 253 304
#     4  10  21  37  53  71  97 135 179 212 246 295
#
# _framework density 16.461198
#
# number of rings (size 3 to 8) (size 9 to 14) (size 15 to 20)
#    0.000    1.750    2.500    3.750    0.000    7.000 
#    0.000    0.000    0.000    0.000    0.000    0.875 
#    0.000    7.000    0.000    0.000    0.000    0.000 
#
# Total GULP energy -793765.685517 kJ/mol
# GULP energy per Si atom -12402.588836 kJ/mol
# Density = 1.642373 g / cm^3
# Si number density = 16.461198 Si / 1000 Ang^3
#
#
#
# Elastic Constant Matrix: (Units=GPa)
#
#
# Indices 1 2 3 4 5 6 
#
# 1 77.1423 51.7241 49.1419 0.0000 0.0000 0.0000
# 2 51.7241 102.1381 59.6384 0.0000 0.0000 0.0000
# 3 49.1419 59.6384 103.8237 0.0000 0.0000 0.0000
# 4 0.0000 0.0000 0.0000 25.8035 0.0000 0.0000
# 5 0.0000 0.0000 0.0000 0.0000 21.2802 0.0000
# 6 0.0000 0.0000 0.0000 0.0000 0.0000 21.3236
#
#
#
# Elastic Compliance Matrix: (Units=1/GPa)
#
#
# Indices 1 2 3 4 5 6 
#
# 1 0.021858 -0.007566 -0.006000 0.000000 0.000000 0.000000
# 2 -0.007566 0.017351 -0.006385 0.000000 0.000000 0.000000
# 3 -0.006000 -0.006385 0.016139 0.000000 0.000000 0.000000
# 4 0.000000 0.000000 0.000000 0.038754 0.000000 0.000000
# 5 0.000000 0.000000 0.000000 0.000000 0.046992 0.000000
# 6 0.000000 0.000000 0.000000 0.000000 0.000000 0.046896
#
#
# Mechanical properties :
#
#
# Convention : Reuss Voigt Hill
#
# Bulk Modulus (GPa) = 64.74265 67.12364 65.93314
# Shear Modulus (GPa) = 21.45536 21.85478 21.65507
#
# Velocity S-wave (km/s) = 3.61417 3.64765 3.63095
# Velocity P-wave (km/s) = 7.53871 7.65545 7.59730
#
# Compressibility (1/GPa) = 0.01544577
#
# Stress axis : x y z
#
# Youngs Moduli (GPa) = 45.74954 57.63490 61.95980
#
# Poissons Ratio (x) = 0.43606 0.37175
# Poissons Ratio (y) = 0.34614 0.39564
# Poissons Ratio (z) = 0.27449 0.36802
#
# Static dielectric constant tensor:
#      x y z
#    x 2.998500 0.000000 0.000000 
#    y 0.000000 3.232570 0.000000 
#    z 0.000000 0.000000 3.188860 
# 
# 
# High freq. dielectric constant tensor:
#      x y z
#    x 1.606380 0.000000 0.000000 
#    y 0.000000 1.629020 0.000000 
#    z 0.000000 0.000000 1.645810 
# 
# From -- ./inp_files/8962.got.cif
#   From: 2010.03.12/outbox.cif.g09.slc.cpg/sg55_5_cif.got.tgz:8962.got - 2010.04.16 15:19:21.
