data_PCOD8225114
_publ_section_title
;
Structure prediction by ZEFSAII (Michael W. Deem and Ramdas Pophale) SiO2 
 PCOD8225114
Probable space group: P B A M
;
_chemical_formula_sum "Si O2"
_cell_formula_units_Z 56
_cell_length_a 25.062248
_cell_length_b 13.793945
_cell_length_c 8.878351
_cell_angle_alpha 90.000000
_cell_angle_beta 90.000000
_cell_angle_gamma 90.000000
_cell_volume 3069.310491
_symmetry_space_group_name_H-M "P B A M"
_symmetry_group_IT_number 55
_symmetry_cell_setting 'orthorhombic'
loop_
_space_group_symop_operation_xyz
x,y,z
-x,-y,z
1/2+x,1/2-y,-z
1/2-x,1/2+y,-z
-x,-y,-z
x,y,-z
1/2-x,1/2+y,z
1/2+x,1/2-y,z
loop_
_atom_site_type_symbol
_atom_site_label
_atom_site_fract_x
_atom_site_fract_y
_atom_site_fract_z
Si Si1 0.761716 0.166328 0.329353
Si Si2 0.937656 0.481164 0.665527
Si Si3 0.865501 0.150130 0.823510
Si Si4 0.928706 0.694009 0.321776
Si Si5 0.328596 0.718949 0.178063
Si Si6 0.680116 0.480064 0.329338
Si Si7 0.458467 0.205428 0.174732
O O1 0.757884 0.205976 0.500000
O O2 0.815462 0.208967 0.250297
O O3 0.709416 0.196230 0.238480
O O4 0.766778 0.048412 0.327793
O O5 0.915032 0.453482 0.500000
O O6 0.912628 0.583075 0.722262
O O7 0.927009 0.393357 0.780494
O O8 0.000000 0.500000 0.651456
O O9 0.920415 0.204409 0.788146
O O10 0.867798 0.042057 0.749823
O O11 0.855099 0.141103 0.000000
O O12 0.925203 0.709001 0.500000
O O13 0.888251 0.765631 0.238770
O O14 0.988215 0.720633 0.270078
O O15 0.306942 0.616240 0.236786
O O16 0.328751 0.719892 0.000000
O O17 0.663338 0.453968 0.500000
O O18 0.473335 0.199410 0.000000
#
# Coordination Sequence:
#
# PCOD8225114 Si02
#       7
#     8   8   8   8   8   8   8
#     4   9  20  38  60  82 107 142 184 224 268 328
#     4   8  16  31  50  73 104 144 182 221 266 313
#     4   9  18  35  56  82 112 142 181 227 274 323
#     4  10  21  36  54  78 112 150 190 229 271 329
#     4  12  23  37  60  84 113 145 179 228 282 331
#     4   9  20  38  60  81 108 143 179 225 276 326
#     4  10  19  32  54  82 114 147 182 229 278 325
#
# _framework density 18.245141
#
# number of rings (size 3 to 8) (size 9 to 14) (size 15 to 20)
#    0.857    1.571    0.000    3.857    0.000    5.429 
#    2.571    0.714    0.000    4.286    0.000    0.000 
#    0.000    0.000    0.000    0.000    0.000    0.000 
#
# Total GULP energy -694016.856785 kJ/mol
# GULP energy per Si atom -12393.158157 kJ/mol
# Density = 1.820361 g / cm^3
# Si number density = 18.245141 Si / 1000 Ang^3
#
#
#
# Elastic Constant Matrix: (Units=GPa)
#
#
# Indices 1 2 3 4 5 6 
#
# 1 70.5544 31.4526 48.1495 0.0000 0.0000 0.0000
# 2 31.4526 80.6727 46.1211 0.0000 0.0000 0.0000
# 3 48.1495 46.1211 139.1015 0.0000 0.0000 0.0000
# 4 0.0000 0.0000 0.0000 32.7043 0.0000 0.0000
# 5 0.0000 0.0000 0.0000 0.0000 27.4478 0.0000
# 6 0.0000 0.0000 0.0000 0.0000 0.0000 25.9954
#
#
#
# Elastic Compliance Matrix: (Units=1/GPa)
#
#
# Indices 1 2 3 4 5 6 
#
# 1 0.019913 -0.004717 -0.005329 0.000000 0.000000 0.000000
# 2 -0.004717 0.016413 -0.003809 0.000000 0.000000 0.000000
# 3 -0.005329 -0.003809 0.010296 0.000000 0.000000 0.000000
# 4 0.000000 0.000000 0.000000 0.030577 0.000000 0.000000
# 5 0.000000 0.000000 0.000000 0.000000 0.036433 0.000000
# 6 0.000000 0.000000 0.000000 0.000000 0.000000 0.038468
#
#
# Mechanical properties :
#
#
# Convention : Reuss Voigt Hill
#
# Bulk Modulus (GPa) = 52.87617 60.19722 56.53670
# Shear Modulus (GPa) = 26.86530 28.20321 27.53425
#
# Velocity S-wave (km/s) = 3.84143 3.93592 3.88896
# Velocity P-wave (km/s) = 6.97992 7.32943 7.15681
#
# Compressibility (1/GPa) = 0.01891211
#
# Stress axis : x y z
#
# Youngs Moduli (GPa) = 50.21868 60.92916 97.12097
#
# Poissons Ratio (x) = 0.28741 0.51753
# Poissons Ratio (y) = 0.23689 0.36993
# Poissons Ratio (z) = 0.26760 0.23208
#
# Static dielectric constant tensor:
#      x y z
#    x 3.069590 0.000000 0.000000 
#    y 0.000000 3.426650 0.000000 
#    z 0.000000 0.000000 3.458650 
# 
# 
# High freq. dielectric constant tensor:
#      x y z
#    x 1.678610 0.000000 0.000000 
#    y 0.000000 1.696780 0.000000 
#    z 0.000000 0.000000 1.722920 
# 
# From -- ./inp_files/10872.got.cif
#   From: 2010.03.12/outbox.cif.g09.slc.cpg/sg55_6_cif.got.tgz:10872.got - 2010.04.16 15:19:21.
