data_PCOD8225371
_publ_section_title
;
Structure prediction by ZEFSAII (Michael W. Deem and Ramdas Pophale) SiO2 
 PCOD8225371
Probable space group: P B A M
;
_chemical_formula_sum "Si O2"
_cell_formula_units_Z 64
_cell_length_a 20.190412
_cell_length_b 9.908418
_cell_length_c 18.153983
_cell_angle_alpha 90.000000
_cell_angle_beta 90.000000
_cell_angle_gamma 90.000000
_cell_volume 3631.795826
_symmetry_space_group_name_H-M "P B A M"
_symmetry_group_IT_number 55
_symmetry_cell_setting 'orthorhombic'
loop_
_space_group_symop_operation_xyz
x,y,z
-x,-y,z
1/2+x,1/2-y,-z
1/2-x,1/2+y,-z
-x,-y,-z
x,y,-z
1/2-x,1/2+y,z
1/2+x,1/2-y,z
loop_
_atom_site_type_symbol
_atom_site_label
_atom_site_fract_x
_atom_site_fract_y
_atom_site_fract_z
Si Si1 0.486920 0.344930 0.694718
Si Si2 0.799068 0.437937 0.586696
Si Si3 0.549438 0.882133 0.413530
Si Si4 0.737344 0.197596 0.671273
Si Si5 0.622034 0.297371 0.234109
Si Si6 0.293934 0.429711 0.081252
Si Si7 0.644474 0.604231 0.229125
Si Si8 0.676173 0.268934 0.081795
O O1 0.500000 0.500000 0.671229
O O2 0.471433 0.260106 0.621825
O O3 0.548153 0.277483 0.736849
O O4 0.426182 0.332892 0.751264
O O5 0.789910 0.423069 0.500000
O O6 0.875760 0.418911 0.609295
O O7 0.751102 0.332384 0.626091
O O8 0.772709 0.582818 0.610903
O O9 0.542427 0.860506 0.500000
O O10 0.500000 0.000000 0.386235
O O11 0.671415 0.201984 0.720746
O O12 0.798487 0.176358 0.725476
O O13 0.647314 0.447615 0.249296
O O14 0.621637 0.262335 0.146640
O O15 0.345490 0.374503 0.141645
O O16 0.282767 0.590903 0.089762
O O17 0.223817 0.358209 0.093045
O O18 0.322513 0.395262 0.000000
O O19 0.642916 0.262497 0.000000
#
# Coordination Sequence:
#
# PCOD8225371 Si02
#       8
#     8   8   8   8   8   8   8   8
#     4  10  21  37  55  78 107 143 185 224 265 324
#     4  11  24  38  56  80 110 143 177 227 278 325
#     4  10  21  39  57  78 109 142 179 224 277 331
#     4  12  20  36  57  81 107 140 180 226 272 321
#     4  10  20  34  55  81 108 140 180 221 271 316
#     4   9  17  30  50  77 108 140 175 218 268 319
#     4  10  19  34  54  79 109 140 180 225 263 316
#     4   9  17  30  49  77 109 139 174 217 267 320
#
# _framework density 17.622135
#
# number of rings (size 3 to 8) (size 9 to 14) (size 15 to 20)
#    0.000    1.875    3.750    1.125    0.000    0.250 
#    0.000    1.250    0.000    3.750    0.000    0.000 
#    0.000    6.000    0.000    0.000    0.000    0.000 
#
# Total GULP energy -793513.553325 kJ/mol
# GULP energy per Si atom -12398.649271 kJ/mol
# Density = 1.758203 g / cm^3
# Si number density = 17.622135 Si / 1000 Ang^3
#
#
#
# Elastic Constant Matrix: (Units=GPa)
#
#
# Indices 1 2 3 4 5 6 
#
# 1 88.9326 14.9162 36.0198 0.0000 0.0000 0.0000
# 2 14.9162 40.6214 20.6143 0.0000 0.0000 0.0000
# 3 36.0198 20.6143 88.1108 0.0000 0.0000 0.0000
# 4 0.0000 0.0000 0.0000 22.8933 0.0000 0.0000
# 5 0.0000 0.0000 0.0000 0.0000 21.0048 0.0000
# 6 0.0000 0.0000 0.0000 0.0000 0.0000 24.0410
#
#
#
# Elastic Compliance Matrix: (Units=1/GPa)
#
#
# Indices 1 2 3 4 5 6 
#
# 1 0.013693 -0.002482 -0.005017 0.000000 0.000000 0.000000
# 2 -0.002482 0.028384 -0.005626 0.000000 0.000000 0.000000
# 3 -0.005017 -0.005626 0.014717 0.000000 0.000000 0.000000
# 4 0.000000 0.000000 0.000000 0.043681 0.000000 0.000000
# 5 0.000000 0.000000 0.000000 0.000000 0.047608 0.000000
# 6 0.000000 0.000000 0.000000 0.000000 0.000000 0.041596
#
#
# Mechanical properties :
#
#
# Convention : Reuss Voigt Hill
#
# Bulk Modulus (GPa) = 32.74039 40.08507 36.41273
# Shear Modulus (GPa) = 22.11322 23.32878 22.72100
#
# Velocity S-wave (km/s) = 3.54624 3.64240 3.59464
# Velocity P-wave (km/s) = 5.94871 6.36285 6.15926
#
# Compressibility (1/GPa) = 0.03054331
#
# Stress axis : x y z
#
# Youngs Moduli (GPa) = 73.03138 35.23107 67.95072
#
# Poissons Ratio (x) = 0.08744 0.34090
# Poissons Ratio (y) = 0.18127 0.38229
# Poissons Ratio (z) = 0.36639 0.19821
#
# Static dielectric constant tensor:
#      x y z
#    x 3.209830 0.000000 0.000000 
#    y 0.000000 3.269920 0.000000 
#    z 0.000000 0.000000 3.414500 
# 
# 
# High freq. dielectric constant tensor:
#      x y z
#    x 1.664910 0.000000 0.000000 
#    y 0.000000 1.681720 0.000000 
#    z 0.000000 0.000000 1.692160 
# 
# From -- ./inp_files/21072.got.cif
#   From: 2010.03.12/outbox.cif.g09.slc.cpg/sg55_11_cif.got.tgz:21072.got - 2010.04.16 15:19:21.
