data_PCOD8225314
_publ_section_title
;
Structure prediction by ZEFSAII (Michael W. Deem and Ramdas Pophale) SiO2 
 PCOD8225314
Probable space group: P B A M
;
_chemical_formula_sum "Si O2"
_cell_formula_units_Z 64
_cell_length_a 14.782554
_cell_length_b 24.505781
_cell_length_c 9.118663
_cell_angle_alpha 90.000000
_cell_angle_beta 90.000000
_cell_angle_gamma 90.000000
_cell_volume 3303.308903
_symmetry_space_group_name_H-M "P B A M"
_symmetry_group_IT_number 55
_symmetry_cell_setting 'orthorhombic'
loop_
_space_group_symop_operation_xyz
x,y,z
-x,-y,z
1/2+x,1/2-y,-z
1/2-x,1/2+y,-z
-x,-y,-z
x,y,-z
1/2-x,1/2+y,z
1/2+x,1/2-y,z
loop_
_atom_site_type_symbol
_atom_site_label
_atom_site_fract_x
_atom_site_fract_y
_atom_site_fract_z
Si Si1 0.251603 0.947481 0.330979
Si Si2 0.364922 0.737169 0.174552
Si Si3 0.439947 0.948930 0.174140
Si Si4 0.102615 0.013200 0.165939
Si Si5 0.457671 0.627944 0.167091
Si Si6 0.625413 0.648597 0.668607
Si Si7 0.662007 0.758447 0.825991
Si Si8 0.501965 0.169408 0.173878
O O1 0.272021 0.960433 0.500000
O O2 0.340647 0.956918 0.237305
O O3 0.218250 0.885061 0.311073
O O4 0.173763 0.988021 0.277395
O O5 0.413054 0.682663 0.231763
O O6 0.263007 0.734806 0.237437
O O7 0.418853 0.790330 0.233903
O O8 0.361945 0.737528 0.000000
O O9 0.483142 0.892069 0.233842
O O10 0.500000 0.000000 0.227668
O O11 0.432314 0.947951 0.000000
O O12 0.114479 0.078779 0.174633
O O13 0.121414 0.992026 0.000000
O O14 0.000000 0.000000 0.211685
O O15 0.543860 0.612047 0.266944
O O16 0.490453 0.636713 0.000000
O O17 0.608025 0.662658 0.500000
O O18 0.622455 0.703153 0.762437
O O19 0.596738 0.808379 0.775992
O O20 0.661759 0.753400 0.000000
O O21 0.507286 0.168925 0.000000
#
# Coordination Sequence:
#
# PCOD8225314 Si02
#       8
#     8   8   8   8   8   8   8   8
#     4  11  24  39  58  83 116 159 198 234 287 356
#     4   9  17  30  53  85 111 140 182 226 276 337
#     4  10  22  40  63  89 115 146 195 254 296 334
#     4  10  20  34  57  88 116 146 189 239 287 337
#     4  10  19  34  56  82 113 146 184 233 287 339
#     4  11  22  35  53  81 114 149 190 232 280 337
#     4  10  19  33  57  81 109 148 188 232 282 342
#     4   9  17  32  56  86 114 144 184 231 289 341
#
# _framework density 19.374513
#
# number of rings (size 3 to 8) (size 9 to 14) (size 15 to 20)
#    0.000    2.000    2.500    1.500    0.000    4.500 
#    0.000    5.000    0.000    1.500    0.000    0.000 
#    0.000    0.000    0.000    0.000    0.000    0.000 
#
# Total GULP energy -793496.001720 kJ/mol
# GULP energy per Si atom -12398.375027 kJ/mol
# Density = 1.933042 g / cm^3
# Si number density = 19.374513 Si / 1000 Ang^3
#
#
#
# Elastic Constant Matrix: (Units=GPa)
#
#
# Indices 1 2 3 4 5 6 
#
# 1 126.7229 55.6834 26.5301 0.0000 0.0000 0.0000
# 2 55.6834 133.1202 22.0032 0.0000 0.0000 0.0000
# 3 26.5301 22.0032 29.2570 0.0000 0.0000 0.0000
# 4 0.0000 0.0000 0.0000 14.4115 0.0000 0.0000
# 5 0.0000 0.0000 0.0000 0.0000 15.0997 0.0000
# 6 0.0000 0.0000 0.0000 0.0000 0.0000 29.3845
#
#
#
# Elastic Compliance Matrix: (Units=1/GPa)
#
#
# Indices 1 2 3 4 5 6 
#
# 1 0.010904 -0.003342 -0.007374 0.000000 0.000000 0.000000
# 2 -0.003342 0.009603 -0.004191 0.000000 0.000000 0.000000
# 3 -0.007374 -0.004191 0.044019 0.000000 0.000000 0.000000
# 4 0.000000 0.000000 0.000000 0.069389 0.000000 0.000000
# 5 0.000000 0.000000 0.000000 0.000000 0.066227 0.000000
# 6 0.000000 0.000000 0.000000 0.000000 0.000000 0.034032
#
#
# Mechanical properties :
#
#
# Convention : Reuss Voigt Hill
#
# Bulk Modulus (GPa) = 28.80980 55.28150 42.04565
# Shear Modulus (GPa) = 18.14511 24.10470 21.12490
#
# Velocity S-wave (km/s) = 3.06362 3.53107 3.30562
# Velocity P-wave (km/s) = 5.23609 6.72456 6.02645
#
# Compressibility (1/GPa) = 0.03471041
#
# Stress axis : x y z
#
# Youngs Moduli (GPa) = 91.71350 104.13681 22.71772
#
# Poissons Ratio (x) = 0.34803 0.16752
# Poissons Ratio (y) = 0.30651 0.09522
# Poissons Ratio (z) = 0.67628 0.43647
#
# Static dielectric constant tensor:
#      x y z
#    x 3.667610 0.000000 0.000000 
#    y 0.000000 3.773430 0.000000 
#    z 0.000000 0.000000 3.145400 
# 
# 
# High freq. dielectric constant tensor:
#      x y z
#    x 1.754680 0.000000 0.000000 
#    y 0.000000 1.763690 0.000000 
#    z 0.000000 0.000000 1.714750 
# 
# From -- ./inp_files/6623.got.cif
#   From: 2010.03.12/outbox.cif.g09.slc.cpg/sg55_4_cif.got.tgz:6623.got - 2010.04.16 15:19:21.
