data_PCOD8225126
_publ_section_title
;
Structure prediction by ZEFSAII (Michael W. Deem and Ramdas Pophale) SiO2 
 PCOD8225126
Probable space group: P B A M
;
_chemical_formula_sum "Si O2"
_cell_formula_units_Z 56
_cell_length_a 19.318301
_cell_length_b 19.019697
_cell_length_c 8.767781
_cell_angle_alpha 90.000000
_cell_angle_beta 90.000000
_cell_angle_gamma 90.000000
_cell_volume 3221.530268
_symmetry_space_group_name_H-M "P B A M"
_symmetry_group_IT_number 55
_symmetry_cell_setting 'orthorhombic'
loop_
_space_group_symop_operation_xyz
x,y,z
-x,-y,z
1/2+x,1/2-y,-z
1/2-x,1/2+y,-z
-x,-y,-z
x,y,-z
1/2-x,1/2+y,z
1/2+x,1/2-y,z
loop_
_atom_site_type_symbol
_atom_site_label
_atom_site_fract_x
_atom_site_fract_y
_atom_site_fract_z
Si Si1 0.878591 0.257794 0.179140
Si Si2 0.944032 0.941554 0.678069
Si Si3 0.779562 0.136152 0.822211
Si Si4 0.673548 0.248029 0.175923
Si Si5 0.725766 0.856449 0.678862
Si Si6 0.975054 0.796893 0.176691
Si Si7 0.200571 0.018829 0.180828
O O1 0.838897 0.188337 0.241096
O O2 0.847216 0.326249 0.260872
O O3 0.959182 0.250782 0.220952
O O4 0.865817 0.266674 0.000000
O O5 0.926123 0.944075 0.500000
O O6 0.975535 0.866222 0.720785
O O7 0.874662 0.953713 0.772646
O O8 0.000000 0.000000 0.723797
O O9 0.704310 0.170664 0.786703
O O10 0.786633 0.059071 0.748192
O O11 0.791544 0.126105 0.000000
O O12 0.710354 0.306044 0.279089
O O13 0.591961 0.248743 0.209956
O O14 0.689467 0.267534 0.000000
O O15 0.721709 0.865222 0.500000
O O16 0.739037 0.932427 0.752174
O O17 0.978832 0.820067 0.000000
O O18 0.206131 0.020234 0.000000
#
# Coordination Sequence:
#
# PCOD8225126 Si02
#       7
#     8   8   8   8   8   8   8
#     4   9  18  34  53  76 102 131 171 215 254 307
#     4  11  23  34  46  72 112 145 169 206 255 314
#     4   8  16  30  50  73 100 129 167 215 257 298
#     4   9  17  33  54  77 101 130 170 216 259 309
#     4  11  21  33  50  74 102 136 173 213 259 311
#     4  10  19  32  55  79 101 134 173 213 259 310
#     4  11  20  33  53  74  99 137 177 216 257 306
#
# _framework density 17.383044999999999
#
# number of rings (size 3 to 8) (size 9 to 14) (size 15 to 20)
#    0.000    2.143    1.429    3.857    0.000    2.857 
#    0.000    7.143    0.000    0.857    0.000    6.000 
#    0.000    0.000    0.000    0.000    0.000    0.000 
#
# Total GULP energy -694386.659932 kJ/mol
# GULP energy per Si atom -12399.761785 kJ/mol
# Density = 1.734348 g / cm^3
# Si number density = 17.383045 Si / 1000 Ang^3
#
#
#
# Elastic Constant Matrix: (Units=GPa)
#
#
# Indices 1 2 3 4 5 6 
#
# 1 113.0302 28.5348 21.3563 0.0000 0.0000 0.0000
# 2 28.5348 53.2300 16.5712 0.0000 0.0000 0.0000
# 3 21.3563 16.5712 58.3508 0.0000 0.0000 0.0000
# 4 0.0000 0.0000 0.0000 14.4256 0.0000 0.0000
# 5 0.0000 0.0000 0.0000 0.0000 14.6234 0.0000
# 6 0.0000 0.0000 0.0000 0.0000 0.0000 26.9451
#
#
#
# Elastic Compliance Matrix: (Units=1/GPa)
#
#
# Indices 1 2 3 4 5 6 
#
# 1 0.010548 -0.004884 -0.002473 0.000000 0.000000 0.000000
# 2 -0.004884 0.022870 -0.004707 0.000000 0.000000 0.000000
# 3 -0.002473 -0.004707 0.019380 0.000000 0.000000 0.000000
# 4 0.000000 0.000000 0.000000 0.069321 0.000000 0.000000
# 5 0.000000 0.000000 0.000000 0.000000 0.068383 0.000000
# 6 0.000000 0.000000 0.000000 0.000000 0.000000 0.037113
#
#
# Mechanical properties :
#
#
# Convention : Reuss Voigt Hill
#
# Bulk Modulus (GPa) = 34.88240 39.72620 37.30430
# Shear Modulus (GPa) = 19.13508 21.74207 20.43857
#
# Velocity S-wave (km/s) = 3.32141 3.54045 3.43268
# Velocity P-wave (km/s) = 5.90081 6.29413 6.10064
#
# Compressibility (1/GPa) = 0.02866775
#
# Stress axis : x y z
#
# Youngs Moduli (GPa) = 94.80883 43.72516 51.60007
#
# Poissons Ratio (x) = 0.21356 0.12762
# Poissons Ratio (y) = 0.46307 0.24290
# Poissons Ratio (z) = 0.23449 0.20583
#
# Static dielectric constant tensor:
#      x y z
#    x 3.294280 0.000000 0.000000 
#    y 0.000000 3.386970 0.000000 
#    z 0.000000 0.000000 3.066820 
# 
# 
# High freq. dielectric constant tensor:
#      x y z
#    x 1.666820 0.000000 0.000000 
#    y 0.000000 1.661290 0.000000 
#    z 0.000000 0.000000 1.658740 
# 
# From -- ./inp_files/7832.got.cif
#   From: 2010.03.12/outbox.cif.g09.slc.cpg/sg55_4_cif.got.tgz:7832.got - 2010.04.16 15:19:21.
