data_PCOD8225015
_publ_section_title
;
Structure prediction by ZEFSAII (Michael W. Deem and Ramdas Pophale) SiO2 
 PCOD8225015
Probable space group: P B A M
;
_chemical_formula_sum "Si O2"
_cell_formula_units_Z 56
_cell_length_a 19.130199
_cell_length_b 19.178354
_cell_length_c 8.743221
_cell_angle_alpha 90.000000
_cell_angle_beta 90.000000
_cell_angle_gamma 90.000000
_cell_volume 3207.763006
_symmetry_space_group_name_H-M "P B A M"
_symmetry_group_IT_number 55
_symmetry_cell_setting 'orthorhombic'
loop_
_space_group_symop_operation_xyz
x,y,z
-x,-y,z
1/2+x,1/2-y,-z
1/2-x,1/2+y,-z
-x,-y,-z
x,y,-z
1/2-x,1/2+y,z
1/2+x,1/2-y,z
loop_
_atom_site_type_symbol
_atom_site_label
_atom_site_fract_x
_atom_site_fract_y
_atom_site_fract_z
Si Si1 0.375880 0.736442 0.820594
Si Si2 0.708652 0.520018 0.679000
Si Si3 0.056408 0.945432 0.682153
Si Si4 0.157752 0.741641 0.178176
Si Si5 0.729797 0.163371 0.679105
Si Si6 0.976962 0.210057 0.319708
Si Si7 0.762589 0.876637 0.175614
O O1 0.334371 0.806620 0.776787
O O2 0.446177 0.734748 0.724250
O O3 0.328775 0.670079 0.773385
O O4 0.392187 0.737286 0.000000
O O5 0.697821 0.517730 0.500000
O O6 0.631947 0.533769 0.751557
O O7 0.761977 0.581982 0.722576
O O8 0.741301 0.447389 0.730402
O O9 0.056906 0.947199 0.500000
O O10 0.035102 0.868647 0.738958
O O11 0.000000 0.000000 0.747992
O O12 0.197590 0.799415 0.278002
O O13 0.077802 0.739579 0.233595
O O14 0.191464 0.665814 0.207541
O O15 0.164295 0.761388 0.000000
O O16 0.715323 0.174455 0.500000
O O17 0.966402 0.217213 0.500000
O O18 0.770012 0.897020 0.000000
#
# Coordination Sequence:
#
# PCOD8225015 Si02
#       7
#     8   8   8   8   8   8   8
#     4  10  21  36  52  76 108 140 177 219 265 316
#     4  10  19  32  51  77 106 137 174 218 261 308
#     4   9  17  29  46  73 109 140 167 204 255 311
#     4  10  20  35  53  75 106 141 177 220 264 312
#     4  10  19  34  54  77 103 136 181 222 261 313
#     4  11  20  33  54  78 105 140 179 218 263 314
#     4   9  20  35  51  74 105 140 177 213 258 316
#
# _framework density 17.457647999999999
#
# number of rings (size 3 to 8) (size 9 to 14) (size 15 to 20)
#    0.000    2.143    1.429    3.429    0.000    5.714 
#    0.000    0.000    0.000    3.857    0.000    6.000 
#    0.000    0.000    0.000    0.000    0.000    0.000 
#
# Total GULP energy -694491.872123 kJ/mol
# GULP energy per Si atom -12401.640574 kJ/mol
# Density = 1.741791 g / cm^3
# Si number density = 17.457648 Si / 1000 Ang^3
#
#
#
# Elastic Constant Matrix: (Units=GPa)
#
#
# Indices 1 2 3 4 5 6 
#
# 1 97.5503 57.6333 13.8334 0.0000 0.0000 0.0000
# 2 57.6333 109.4449 27.1462 0.0000 0.0000 0.0000
# 3 13.8334 27.1462 25.8062 0.0000 0.0000 0.0000
# 4 0.0000 0.0000 0.0000 23.3693 0.0000 0.0000
# 5 0.0000 0.0000 0.0000 0.0000 28.6047 0.0000
# 6 0.0000 0.0000 0.0000 0.0000 0.0000 20.9345
#
#
#
# Elastic Compliance Matrix: (Units=1/GPa)
#
#
# Indices 1 2 3 4 5 6 
#
# 1 0.014883 -0.007927 0.000360 0.000000 0.000000 0.000000
# 2 -0.007927 0.016584 -0.013196 0.000000 0.000000 0.000000
# 3 0.000360 -0.013196 0.052439 0.000000 0.000000 0.000000
# 4 0.000000 0.000000 0.000000 0.042791 0.000000 0.000000
# 5 0.000000 0.000000 0.000000 0.000000 0.034959 0.000000
# 6 0.000000 0.000000 0.000000 0.000000 0.000000 0.047768
#
#
# Mechanical properties :
#
#
# Convention : Reuss Voigt Hill
#
# Bulk Modulus (GPa) = 23.59571 47.78080 35.68826
# Shear Modulus (GPa) = 18.86239 23.52760 21.19500
#
# Velocity S-wave (km/s) = 3.29061 3.67508 3.48815
# Velocity P-wave (km/s) = 5.28988 6.74072 6.05888
#
# Compressibility (1/GPa) = 0.04238059
#
# Stress axis : x y z
#
# Youngs Moduli (GPa) = 67.18960 60.29755 19.06987
#
# Poissons Ratio (x) = 0.47797 -0.00687
# Poissons Ratio (y) = 0.53260 0.25165
# Poissons Ratio (z) = -0.02421 0.79571
#
# Static dielectric constant tensor:
#      x y z
#    x 3.236760 0.000000 0.000000 
#    y 0.000000 3.255680 0.000000 
#    z 0.000000 0.000000 3.101630 
# 
# 
# High freq. dielectric constant tensor:
#      x y z
#    x 1.668650 0.000000 0.000000 
#    y 0.000000 1.664930 0.000000 
#    z 0.000000 0.000000 1.669520 
# 
# From -- ./inp_files/7827.got.cif
#   From: 2010.03.12/outbox.cif.g09.slc.cpg/sg55_4_cif.got.tgz:7827.got - 2010.04.16 15:19:21.
