data_PCOD8225546
_publ_section_title
;
Structure prediction by ZEFSAII (Michael W. Deem and Ramdas Pophale) SiO2 
 PCOD8225546
Probable space group: P B A M
;
_chemical_formula_sum "Si O2"
_cell_formula_units_Z 64
_cell_length_a 29.072605
_cell_length_b 12.777589
_cell_length_c 9.155563
_cell_angle_alpha 90.000000
_cell_angle_beta 90.000000
_cell_angle_gamma 90.000000
_cell_volume 3401.088381
_symmetry_space_group_name_H-M "P B A M"
_symmetry_group_IT_number 55
_symmetry_cell_setting 'orthorhombic'
loop_
_space_group_symop_operation_xyz
x,y,z
-x,-y,z
1/2+x,1/2-y,-z
1/2-x,1/2+y,-z
-x,-y,-z
x,y,-z
1/2-x,1/2+y,z
1/2+x,1/2-y,z
loop_
_atom_site_type_symbol
_atom_site_label
_atom_site_fract_x
_atom_site_fract_y
_atom_site_fract_z
Si Si1 0.396313 0.967587 0.173322
Si Si2 0.589225 0.385934 0.331670
Si Si3 0.211035 0.964662 0.328147
Si Si4 0.677649 0.347132 0.837768
Si Si5 0.703313 0.113442 0.838135
Si Si6 0.388033 0.388243 0.671341
Si Si7 0.929410 0.326862 0.326838
Si Si8 0.535193 0.187554 0.331980
O O1 0.345022 0.932839 0.217480
O O2 0.432594 0.883413 0.232362
O O3 0.403678 0.080291 0.244808
O O4 0.402469 0.973962 0.000000
O O5 0.605530 0.386795 0.500000
O O6 0.628518 0.331544 0.237229
O O7 0.582704 0.507506 0.281578
O O8 0.544514 0.312622 0.310208
O O9 0.212341 0.977879 0.500000
O O10 0.257062 0.909337 0.276924
O O11 0.165093 0.901621 0.278743
O O12 0.210355 0.078569 0.256295
O O13 0.702292 0.237236 0.846916
O O14 0.670590 0.393911 0.000000
O O15 0.714779 0.068321 0.000000
O O16 0.391290 0.374419 0.500000
O O17 0.409509 0.282522 0.738480
O O18 0.921487 0.337535 0.500000
O O19 0.983002 0.333162 0.286947
O O20 0.544121 0.155879 0.500000
#
# Coordination Sequence:
#
# PCOD8225546 Si02
#       8
#     8   8   8   8   8   8   8   8
#     4  11  23  39  56  78 111 148 191 236 281 336
#     4   9  17  32  56  83 109 141 186 233 276 327
#     4  10  21  36  57  85 112 142 183 230 283 339
#     4  10  19  35  56  78 109 146 182 226 279 332
#     4  10  22  38  56  80 107 143 188 232 281 335
#     4   8  17  35  55  79 113 146 179 224 278 335
#     4  10  21  37  56  81 116 153 186 227 284 341
#     4  10  20  34  57  86 112 144 189 236 282 335
#
# _framework density 18.817506000000002
#
# number of rings (size 3 to 8) (size 9 to 14) (size 15 to 20)
#    0.000    2.250    1.250    2.250    0.000    5.500 
#    0.000    8.125    0.000    0.000    0.000    5.250 
#    0.000    0.000    0.000    0.000    0.000    0.000 
#
# Total GULP energy -793397.196749 kJ/mol
# GULP energy per Si atom -12396.831199 kJ/mol
# Density = 1.877468 g / cm^3
# Si number density = 18.817506 Si / 1000 Ang^3
#
#
#
# Elastic Constant Matrix: (Units=GPa)
#
#
# Indices 1 2 3 4 5 6 
#
# 1 64.8433 41.9355 31.7567 0.0000 0.0000 0.0000
# 2 41.9355 122.9635 35.4027 0.0000 0.0000 0.0000
# 3 31.7567 35.4027 71.8209 0.0000 0.0000 0.0000
# 4 0.0000 0.0000 0.0000 24.0196 0.0000 0.0000
# 5 0.0000 0.0000 0.0000 0.0000 15.9552 0.0000
# 6 0.0000 0.0000 0.0000 0.0000 0.0000 25.1148
#
#
#
# Elastic Compliance Matrix: (Units=1/GPa)
#
#
# Indices 1 2 3 4 5 6 
#
# 1 0.022596 -0.005628 -0.007217 0.000000 0.000000 0.000000
# 2 -0.005628 0.010880 -0.002874 0.000000 0.000000 0.000000
# 3 -0.007217 -0.002874 0.018531 0.000000 0.000000 0.000000
# 4 0.000000 0.000000 0.000000 0.041633 0.000000 0.000000
# 5 0.000000 0.000000 0.000000 0.000000 0.062676 0.000000
# 6 0.000000 0.000000 0.000000 0.000000 0.000000 0.039817
#
#
# Mechanical properties :
#
#
# Convention : Reuss Voigt Hill
#
# Bulk Modulus (GPa) = 48.61866 53.09082 50.85474
# Shear Modulus (GPa) = 21.32857 23.05343 22.19100
#
# Velocity S-wave (km/s) = 3.37032 3.50395 3.43778
# Velocity P-wave (km/s) = 6.40612 6.68169 6.54536
#
# Compressibility (1/GPa) = 0.02056823
#
# Stress axis : x y z
#
# Youngs Moduli (GPa) = 44.25524 91.91590 53.96265
#
# Poissons Ratio (x) = 0.51734 0.38944
# Poissons Ratio (y) = 0.24909 0.15510
# Poissons Ratio (z) = 0.31938 0.26418
#
# Static dielectric constant tensor:
#      x y z
#    x 3.415580 0.000000 0.000000 
#    y 0.000000 3.658140 0.000000 
#    z 0.000000 0.000000 3.421930 
# 
# 
# High freq. dielectric constant tensor:
#      x y z
#    x 1.723180 0.000000 0.000000 
#    y 0.000000 1.740900 0.000000 
#    z 0.000000 0.000000 1.720530 
# 
# From -- ./inp_files/10791.got.cif
#   From: 2010.03.12/outbox.cif.g09.slc.cpg/sg55_6_cif.got.tgz:10791.got - 2010.04.16 15:19:21.
