data_PCOD8225924
_publ_section_title
;
Structure prediction by ZEFSAII (Michael W. Deem and Ramdas Pophale) SiO2 
 PCOD8225924
Probable space group: P B A M
;
_chemical_formula_sum "Si O2"
_cell_formula_units_Z 40
_cell_length_a 17.416189
_cell_length_b 15.776507
_cell_length_c 7.241305
_cell_angle_alpha 90.000000
_cell_angle_beta 90.000000
_cell_angle_gamma 90.000000
_cell_volume 1989.668955
_symmetry_space_group_name_H-M "P B A M"
_symmetry_group_IT_number 55
_symmetry_cell_setting 'orthorhombic'
loop_
_space_group_symop_operation_xyz
x,y,z
-x,-y,z
1/2+x,1/2-y,-z
1/2-x,1/2+y,-z
-x,-y,-z
x,y,-z
1/2-x,1/2+y,z
1/2+x,1/2-y,z
loop_
_atom_site_type_symbol
_atom_site_label
_atom_site_fract_x
_atom_site_fract_y
_atom_site_fract_z
Si Si1 0.331462 0.334873 0.711578
Si Si2 0.579860 0.199962 0.000000
Si Si3 0.910015 0.995257 0.288690
Si Si4 0.842329 0.874860 0.000000
Si Si5 0.902819 0.285169 0.000000
Si Si6 0.334923 0.903554 0.714530
Si Si7 0.320837 0.049404 0.000000
O O1 0.354852 0.320892 0.500000
O O2 0.372108 0.419265 0.791131
O O3 0.240316 0.345026 0.735580
O O4 0.362588 0.253976 0.819944
O O5 0.640099 0.276133 0.000000
O O6 0.493403 0.234340 0.000000
O O7 0.595017 0.144054 0.183944
O O8 0.885842 0.982950 0.500000
O O9 0.878828 0.914451 0.182833
O O10 0.000000 0.000000 0.259925
O O11 0.751738 0.888491 0.000000
O O12 0.893427 0.387074 0.000000
O O13 0.355297 0.919561 0.500000
O O14 0.320788 0.993297 0.814390
#
# Coordination Sequence:
#
# PCOD8225924 Si02
#       7
#     8   4   8   4   4   8   4
#     4  10  20  38  62  86 121 162 193 243 309 361
#     4  11  26  40  60  92 123 166 199 246 308 355
#     4  10  20  33  55  89 124 159 194 234 297 369
#     4  12  20  35  60  89 119 151 202 246 300 356
#     4  12  24  40  59  91 131 155 203 253 298 362
#     4  10  22  44  65  85 118 160 207 252 303 358
#     4  11  23  38  64  90 112 154 209 257 298 358
#
# _framework density 20.103846000000001
#
# number of rings (size 3 to 8) (size 9 to 14) (size 15 to 20)
#    0.000    1.400    2.000    4.500    0.000    4.000 
#    0.000    1.000    0.000    0.000    0.000    0.000 
#    0.000    0.000    0.000    0.000    0.000    0.000 
#
# Total GULP energy -496180.716440 kJ/mol
# GULP energy per Si atom -12404.517911 kJ/mol
# Density = 2.005809 g / cm^3
# Si number density = 20.103846 Si / 1000 Ang^3
#
#
#
# Elastic Constant Matrix: (Units=GPa)
#
#
# Indices 1 2 3 4 5 6 
#
# 1 55.6792 21.0613 28.8427 0.0000 0.0000 0.0000
# 2 21.0613 97.0353 46.6089 0.0000 0.0000 0.0000
# 3 28.8427 46.6089 132.1929 0.0000 0.0000 0.0000
# 4 0.0000 0.0000 0.0000 15.8671 0.0000 0.0000
# 5 0.0000 0.0000 0.0000 0.0000 19.5491 0.0000
# 6 0.0000 0.0000 0.0000 0.0000 0.0000 34.4329
#
#
#
# Elastic Compliance Matrix: (Units=1/GPa)
#
#
# Indices 1 2 3 4 5 6 
#
# 1 0.020871 -0.002820 -0.003559 0.000000 0.000000 0.000000
# 2 -0.002820 0.012788 -0.003893 0.000000 0.000000 0.000000
# 3 -0.003559 -0.003893 0.009714 0.000000 0.000000 0.000000
# 4 0.000000 0.000000 0.000000 0.063023 0.000000 0.000000
# 5 0.000000 0.000000 0.000000 0.000000 0.051153 0.000000
# 6 0.000000 0.000000 0.000000 0.000000 0.000000 0.029042
#
#
# Mechanical properties :
#
#
# Convention : Reuss Voigt Hill
#
# Bulk Modulus (GPa) = 43.80879 53.10369 48.45624
# Shear Modulus (GPa) = 23.28333 26.52946 24.90640
#
# Velocity S-wave (km/s) = 3.40686 3.63660 3.52360
# Velocity P-wave (km/s) = 6.10853 6.64117 6.38041
#
# Compressibility (1/GPa) = 0.02282647
#
# Stress axis : x y z
#
# Youngs Moduli (GPa) = 47.91422 78.19964 102.94373
#
# Poissons Ratio (x) = 0.22054 0.36641
# Poissons Ratio (y) = 0.13513 0.40080
# Poissons Ratio (z) = 0.17054 0.30446
#
# Static dielectric constant tensor:
#      x y z
#    x 3.616310 0.000000 0.000000 
#    y 0.000000 3.523050 0.000000 
#    z 0.000000 0.000000 3.742470 
# 
# 
# High freq. dielectric constant tensor:
#      x y z
#    x 1.782560 0.000000 0.000000 
#    y 0.000000 1.779530 0.000000 
#    z 0.000000 0.000000 1.794110 
# 
# From -- ./inp_files/7215.got.cif
#   From: 2010.03.12/outbox.cif.g09.slc.cpg/sg55_4_cif.got.tgz:7215.got - 2010.04.16 15:19:21.
