data_PCOD8225508
_publ_section_title
;
Structure prediction by ZEFSAII (Michael W. Deem and Ramdas Pophale) SiO2 
 PCOD8225508
Probable space group: P B A M
;
_chemical_formula_sum "Si O2"
_cell_formula_units_Z 48
_cell_length_a 20.061736
_cell_length_b 14.218174
_cell_length_c 9.165209
_cell_angle_alpha 90.000000
_cell_angle_beta 90.000000
_cell_angle_gamma 90.000000
_cell_volume 2614.295701
_symmetry_space_group_name_H-M "P B A M"
_symmetry_group_IT_number 55
_symmetry_cell_setting 'orthorhombic'
loop_
_space_group_symop_operation_xyz
x,y,z
-x,-y,z
1/2+x,1/2-y,-z
1/2-x,1/2+y,-z
-x,-y,-z
x,y,-z
1/2-x,1/2+y,z
1/2+x,1/2-y,z
loop_
_atom_site_type_symbol
_atom_site_label
_atom_site_fract_x
_atom_site_fract_y
_atom_site_fract_z
Si Si1 0.818208 0.180215 0.832196
Si Si2 0.946403 0.292597 0.832181
Si Si3 0.704044 0.290090 0.327815
Si Si4 0.881618 0.491021 0.829962
Si Si5 0.229118 0.023992 0.169343
Si Si6 0.924626 0.671880 0.671954
O O1 0.894195 0.209193 0.800514
O O2 0.770022 0.241044 0.731961
O O3 0.812278 0.070122 0.797387
O O4 0.798934 0.202067 0.000000
O O5 0.911805 0.390561 0.790380
O O6 0.010507 0.274302 0.732081
O O7 0.969135 0.292757 0.000000
O O8 0.710188 0.298320 0.500000
O O9 0.695486 0.393794 0.262133
O O10 0.640113 0.230079 0.279742
O O11 0.804927 0.492344 0.780135
O O12 0.922343 0.568451 0.741003
O O13 0.888645 0.515005 0.000000
O O14 0.226926 0.052426 0.000000
O O15 0.930042 0.662177 0.500000
#
# Coordination Sequence:
#
# PCOD8225508 Si02
#       6
#     8   8   8   8   8   8
#     4  10  20  38  62  86 111 144 191 238 283 334
#     4  10  21  37  57  84 114 146 187 233 284 339
#     4  11  23  37  56  83 117 152 189 230 277 338
#     4  10  19  34  59  87 114 145 182 234 289 334
#     4  10  20  36  61  88 113 144 187 239 286 331
#     4  11  24  38  53  81 118 156 191 225 276 340
#
# _framework density 18.360586000000001
#
# number of rings (size 3 to 8) (size 9 to 14) (size 15 to 20)
#    0.000    1.667    3.333    1.500    0.000    6.667 
#    0.000    0.833    0.000    5.000    0.000    0.000 
#    0.000    0.000    0.000    0.000    0.000    0.000 
#
# Total GULP energy -595479.834286 kJ/mol
# GULP energy per Si atom -12405.829881 kJ/mol
# Density = 1.831880 g / cm^3
# Si number density = 18.360586 Si / 1000 Ang^3
#
#
#
# Elastic Constant Matrix: (Units=GPa)
#
#
# Indices 1 2 3 4 5 6 
#
# 1 59.8150 14.2183 26.7373 0.0000 0.0000 0.0000
# 2 14.2183 80.5361 33.0415 0.0000 0.0000 0.0000
# 3 26.7373 33.0415 54.5348 0.0000 0.0000 0.0000
# 4 0.0000 0.0000 0.0000 22.9236 0.0000 0.0000
# 5 0.0000 0.0000 0.0000 0.0000 29.5174 0.0000
# 6 0.0000 0.0000 0.0000 0.0000 0.0000 27.0448
#
#
#
# Elastic Compliance Matrix: (Units=1/GPa)
#
#
# Indices 1 2 3 4 5 6 
#
# 1 0.021440 0.000702 -0.010937 0.000000 0.000000 0.000000
# 2 0.000702 0.016547 -0.010370 0.000000 0.000000 0.000000
# 3 -0.010937 -0.010370 0.029982 0.000000 0.000000 0.000000
# 4 0.000000 0.000000 0.000000 0.043623 0.000000 0.000000
# 5 0.000000 0.000000 0.000000 0.000000 0.033878 0.000000
# 6 0.000000 0.000000 0.000000 0.000000 0.000000 0.036976
#
#
# Mechanical properties :
#
#
# Convention : Reuss Voigt Hill
#
# Bulk Modulus (GPa) = 37.36957 38.09778 37.73367
# Shear Modulus (GPa) = 21.49834 23.95641 22.72737
#
# Velocity S-wave (km/s) = 3.42555 3.61608 3.52210
# Velocity P-wave (km/s) = 6.00360 6.18301 6.09396
#
# Compressibility (1/GPa) = 0.02675974
#
# Stress axis : x y z
#
# Youngs Moduli (GPa) = 46.64140 60.43293 33.35343
#
# Poissons Ratio (x) = -0.04242 0.36479
# Poissons Ratio (y) = -0.03274 0.34587
# Poissons Ratio (z) = 0.51012 0.62668
#
# Static dielectric constant tensor:
#      x y z
#    x 3.429960 0.000000 0.000000 
#    y 0.000000 3.421270 0.000000 
#    z 0.000000 0.000000 3.295100 
# 
# 
# High freq. dielectric constant tensor:
#      x y z
#    x 1.711810 0.000000 0.000000 
#    y 0.000000 1.712090 0.000000 
#    z 0.000000 0.000000 1.706920 
# 
# From -- ./inp_files/5577.got.cif
#   From: 2010.03.12/outbox.cif.g09.slc.cpg/sg55_3_cif.got.tgz:5577.got - 2010.04.16 15:19:21.
