data_PCOD8225586
_publ_section_title
;
Structure prediction by ZEFSAII (Michael W. Deem and Ramdas Pophale) SiO2 
 PCOD8225586
Probable space group: P B A M
;
_chemical_formula_sum "Si O2"
_cell_formula_units_Z 48
_cell_length_a 9.512931
_cell_length_b 29.034024
_cell_length_c 8.404250
_cell_angle_alpha 90.000000
_cell_angle_beta 90.000000
_cell_angle_gamma 90.000000
_cell_volume 2321.242647
_symmetry_space_group_name_H-M "P B A M"
_symmetry_group_IT_number 55
_symmetry_cell_setting 'orthorhombic'
loop_
_space_group_symop_operation_xyz
x,y,z
-x,-y,z
1/2+x,1/2-y,-z
1/2-x,1/2+y,-z
-x,-y,-z
x,y,-z
1/2-x,1/2+y,z
1/2+x,1/2-y,z
loop_
_atom_site_type_symbol
_atom_site_label
_atom_site_fract_x
_atom_site_fract_y
_atom_site_fract_z
Si Si1 0.194536 0.218793 0.687568
Si Si2 0.187237 0.377023 0.311095
Si Si3 0.391162 0.539858 0.684946
Si Si4 0.498378 0.635365 0.310807
Si Si5 0.995307 0.701777 0.814819
Si Si6 0.645133 0.019070 0.310091
O O1 0.178472 0.224546 0.500000
O O2 0.358935 0.213082 0.726198
O O3 0.102476 0.175847 0.751713
O O4 0.129895 0.263704 0.768655
O O5 0.168405 0.374184 0.500000
O O6 0.339674 0.357089 0.257361
O O7 0.176232 0.429479 0.248387
O O8 0.060474 0.348739 0.231626
O O9 0.500000 0.500000 0.715530
O O10 0.369886 0.550135 0.500000
O O11 0.439910 0.587707 0.765144
O O12 0.249923 0.519360 0.760903
O O13 0.495349 0.632599 0.500000
O O14 0.027085 0.704430 0.000000
O O15 0.655724 0.020156 0.500000
O O16 0.500000 0.000000 0.245599
#
# Coordination Sequence:
#
# PCOD8225586 Si02
#       6
#     8   8   8   8   8   8
#     4  11  23  41  65  91 116 151 200 253 299 356
#     4  10  19  35  58  88 121 157 201 249 298 356
#     4   9  14  25  44  75 119 154 183 231 296 351
#     4   9  18  31  54  87 119 150 189 243 301 351
#     4  12  26  43  62  87 121 158 195 243 307 371
#     4   9  17  26  45  81 122 156 192 244 302 353
#
# _framework density 20.678578999999999
#
# number of rings (size 3 to 8) (size 9 to 14) (size 15 to 20)
#    0.000    2.000    1.667    3.000    2.333    1.333 
#    0.000    0.833    0.000    0.500    0.000    1.167 
#    0.000    0.000    0.000    0.000    0.000    0.000 
#
# Total GULP energy -594984.694340 kJ/mol
# GULP energy per Si atom -12395.514465 kJ/mol
# Density = 2.063151 g / cm^3
# Si number density = 20.678579 Si / 1000 Ang^3
#
#
#
# Elastic Constant Matrix: (Units=GPa)
#
#
# Indices 1 2 3 4 5 6 
#
# 1 137.9838 31.7866 2.4152 0.0000 0.0000 0.0000
# 2 31.7866 95.8059 11.5202 0.0000 0.0000 0.0000
# 3 2.4152 11.5202 34.6252 0.0000 0.0000 0.0000
# 4 0.0000 0.0000 0.0000 3.5903 0.0000 0.0000
# 5 0.0000 0.0000 0.0000 0.0000 13.8443 0.0000
# 6 0.0000 0.0000 0.0000 0.0000 0.0000 51.5296
#
#
#
# Elastic Compliance Matrix: (Units=1/GPa)
#
#
# Indices 1 2 3 4 5 6 
#
# 1 0.007851 -0.002645 0.000332 0.000000 0.000000 0.000000
# 2 -0.002645 0.011764 -0.003729 0.000000 0.000000 0.000000
# 3 0.000332 -0.003729 0.030098 0.000000 0.000000 0.000000
# 4 0.000000 0.000000 0.000000 0.278526 0.000000 0.000000
# 5 0.000000 0.000000 0.000000 0.000000 0.072232 0.000000
# 6 0.000000 0.000000 0.000000 0.000000 0.000000 0.019406
#
#
# Mechanical properties :
#
#
# Convention : Reuss Voigt Hill
#
# Bulk Modulus (GPa) = 26.57516 39.98431 33.27973
# Shear Modulus (GPa) = 11.24850 28.63905 19.94377
#
# Velocity S-wave (km/s) = 2.33484 3.72555 3.10895
# Velocity P-wave (km/s) = 4.48866 6.15502 5.38667
#
# Compressibility (1/GPa) = 0.03762913
#
# Stress axis : x y z
#
# Youngs Moduli (GPa) = 127.37809 85.00760 33.22439
#
# Poissons Ratio (x) = 0.22482 -0.01104
# Poissons Ratio (y) = 0.33687 0.12391
# Poissons Ratio (z) = -0.04233 0.31703
#
# Static dielectric constant tensor:
#      x y z
#    x 3.859490 0.000000 0.000000 
#    y 0.000000 4.016430 0.000000 
#    z 0.000000 0.000000 3.141080 
# 
# 
# High freq. dielectric constant tensor:
#      x y z
#    x 1.826190 0.000000 0.000000 
#    y 0.000000 1.825530 0.000000 
#    z 0.000000 0.000000 1.746850 
# 
# From -- ./inp_files/2878.got.cif
#   From: 2010.03.12/outbox.cif.g09.slc.cpg/sg55_2_cif.got.tgz:2878.got - 2010.04.16 15:19:21.
