data_PCOD8225827
_publ_section_title
;
Structure prediction by ZEFSAII (Michael W. Deem and Ramdas Pophale) SiO2 
 PCOD8225827
Probable space group: P B A M
;
_chemical_formula_sum "Si O2"
_cell_formula_units_Z 64
_cell_length_a 23.135298
_cell_length_b 18.771052
_cell_length_c 8.942648
_cell_angle_alpha 90.000000
_cell_angle_beta 90.000000
_cell_angle_gamma 90.000000
_cell_volume 3883.558460
_symmetry_space_group_name_H-M "P B A M"
_symmetry_group_IT_number 55
_symmetry_cell_setting 'orthorhombic'
loop_
_space_group_symop_operation_xyz
x,y,z
-x,-y,z
1/2+x,1/2-y,-z
1/2-x,1/2+y,-z
-x,-y,-z
x,y,-z
1/2-x,1/2+y,z
1/2+x,1/2-y,z
loop_
_atom_site_type_symbol
_atom_site_label
_atom_site_fract_x
_atom_site_fract_y
_atom_site_fract_z
Si Si1 0.262198 0.998821 0.328421
Si Si2 0.268451 0.342179 0.671780
Si Si3 0.935210 0.360201 0.323808
Si Si4 0.446218 0.854552 0.171609
Si Si5 0.226779 0.131688 0.169935
Si Si6 0.838550 0.273048 0.172524
Si Si7 0.884488 0.498067 0.824942
Si Si8 0.165262 0.270777 0.827926
O O1 0.281181 0.008291 0.500000
O O2 0.225497 0.926897 0.305856
O O3 0.318720 0.998798 0.226670
O O4 0.221197 0.064124 0.278808
O O5 0.275805 0.319816 0.500000
O O6 0.318126 0.303632 0.767094
O O7 0.204541 0.320212 0.724205
O O8 0.928932 0.364028 0.500000
O O9 0.894376 0.297972 0.262653
O O10 0.919692 0.436464 0.256183
O O11 0.000399 0.340534 0.279860
O O12 0.415243 0.928131 0.214330
O O13 0.401477 0.789863 0.198575
O O14 0.467379 0.856542 0.000000
O O15 0.288223 0.169489 0.197019
O O16 0.175740 0.187511 0.209558
O O17 0.221348 0.105114 0.000000
O O18 0.855198 0.264982 0.000000
O O19 0.884963 0.481388 0.000000
O O20 0.183753 0.285696 0.000000
#
# Coordination Sequence:
#
# PCOD8225827 Si02
#       8
#     8   8   8   8   8   8   8   8
#     4  11  21  31  48  75 106 137 166 203 253 303
#     4  10  20  32  49  74 103 131 163 207 256 301
#     4  12  24  35  50  72 102 135 170 213 256 298
#     4  10  21  36  53  71  97 135 178 213 247 295
#     4   9  18  31  51  73  97 128 166 207 248 298
#     4  10  20  35  53  72  96 131 172 210 248 297
#     4  11  21  34  51  70  98 139 179 211 242 290
#     4   9  18  34  52  72  96 130 170 210 250 295
#
# _framework density 16.479731000000001
#
# number of rings (size 3 to 8) (size 9 to 14) (size 15 to 20)
#    0.000    1.750    2.500    3.750    0.000    6.500 
#    0.000    0.000    0.000    0.000    0.000    0.875 
#    0.000    7.000    0.000    0.000    0.000    0.000 
#
# Total GULP energy -793807.004173 kJ/mol
# GULP energy per Si atom -12403.234440 kJ/mol
# Density = 1.644222 g / cm^3
# Si number density = 16.479731 Si / 1000 Ang^3
#
#
#
# Elastic Constant Matrix: (Units=GPa)
#
#
# Indices 1 2 3 4 5 6 
#
# 1 77.2778 49.0777 42.5575 0.0000 0.0000 0.0000
# 2 49.0777 101.3458 55.7469 0.0000 0.0000 0.0000
# 3 42.5575 55.7469 100.0322 0.0000 0.0000 0.0000
# 4 0.0000 0.0000 0.0000 27.4953 0.0000 0.0000
# 5 0.0000 0.0000 0.0000 0.0000 23.1748 0.0000
# 6 0.0000 0.0000 0.0000 0.0000 0.0000 22.0213
#
#
#
# Elastic Compliance Matrix: (Units=1/GPa)
#
#
# Indices 1 2 3 4 5 6 
#
# 1 0.019992 -0.007214 -0.004485 0.000000 0.000000 0.000000
# 2 -0.007214 0.016832 -0.006311 0.000000 0.000000 0.000000
# 3 -0.004485 -0.006311 0.015422 0.000000 0.000000 0.000000
# 4 0.000000 0.000000 0.000000 0.036370 0.000000 0.000000
# 5 0.000000 0.000000 0.000000 0.000000 0.043150 0.000000
# 6 0.000000 0.000000 0.000000 0.000000 0.000000 0.045411
#
#
# Mechanical properties :
#
#
# Convention : Reuss Voigt Hill
#
# Bulk Modulus (GPa) = 61.63165 63.71332 62.67248
# Shear Modulus (GPa) = 22.87216 23.28986 23.08101
#
# Velocity S-wave (km/s) = 3.72949 3.76339 3.74648
# Velocity P-wave (km/s) = 7.48499 7.59142 7.53840
#
# Compressibility (1/GPa) = 0.01622543
#
# Stress axis : x y z
#
# Youngs Moduli (GPa) = 50.02045 59.40917 64.84227
#
# Poissons Ratio (x) = 0.42859 0.29081
# Poissons Ratio (y) = 0.36086 0.40924
# Poissons Ratio (z) = 0.22433 0.37495
#
# Static dielectric constant tensor:
#      x y z
#    x 2.943600 0.000000 0.000000 
#    y 0.000000 3.205070 0.000000 
#    z 0.000000 0.000000 3.197690 
# 
# 
# High freq. dielectric constant tensor:
#      x y z
#    x 1.606610 0.000000 0.000000 
#    y 0.000000 1.629720 0.000000 
#    z 0.000000 0.000000 1.646250 
# 
# From -- ./inp_files/8963.got.cif
#   From: 2010.03.12/outbox.cif.g09.slc.cpg/sg55_5_cif.got.tgz:8963.got - 2010.04.16 15:19:21.
