data_PCOD8225902
_publ_section_title
;
Structure prediction by ZEFSAII (Michael W. Deem and Ramdas Pophale) SiO2 
 PCOD8225902
Probable space group: P B A M
;
_chemical_formula_sum "Si O2"
_cell_formula_units_Z 56
_cell_length_a 21.334740
_cell_length_b 14.918968
_cell_length_c 8.925185
_cell_angle_alpha 90.000000
_cell_angle_beta 90.000000
_cell_angle_gamma 90.000000
_cell_volume 2840.817691
_symmetry_space_group_name_H-M "P B A M"
_symmetry_group_IT_number 55
_symmetry_cell_setting 'orthorhombic'
loop_
_space_group_symop_operation_xyz
x,y,z
-x,-y,z
1/2+x,1/2-y,-z
1/2-x,1/2+y,-z
-x,-y,-z
x,y,-z
1/2-x,1/2+y,z
1/2+x,1/2-y,z
loop_
_atom_site_type_symbol
_atom_site_label
_atom_site_fract_x
_atom_site_fract_y
_atom_site_fract_z
Si Si1 0.390808 0.283333 0.672693
Si Si2 0.586234 0.039048 0.824111
Si Si3 0.692388 0.432732 0.674239
Si Si4 0.733788 0.773371 0.827571
Si Si5 0.727137 0.075052 0.828544
Si Si6 0.931857 0.024888 0.676453
Si Si7 0.478944 0.124659 0.327033
O O1 0.371107 0.292131 0.500000
O O2 0.334460 0.231955 0.754181
O O3 0.406216 0.380775 0.743925
O O4 0.453665 0.224956 0.692927
O O5 0.658512 0.043931 0.782186
O O6 0.549580 0.118668 0.737121
O O7 0.563130 0.942825 0.769304
O O8 0.574448 0.050411 0.000000
O O9 0.703103 0.415700 0.500000
O O10 0.721948 0.350012 0.761265
O O11 0.724753 0.525919 0.719611
O O12 0.618209 0.445681 0.711125
O O13 0.769716 0.680789 0.802548
O O14 0.723175 0.796888 0.000000
O O15 0.742960 0.049867 0.000000
O O16 0.939667 0.039591 0.500000
O O17 0.000000 0.000000 0.746199
O O18 0.477381 0.095053 0.500000
#
# Coordination Sequence:
#
# PCOD8225902 Si02
#       7
#     8   8   8   8   8   8   8
#     4  10  20  37  59  85 114 150 199 244 290 355
#     4  10  20  35  54  77 110 149 189 232 284 345
#     4  11  22  37  62  90 118 154 197 248 296 352
#     4  11  23  38  59  85 118 156 194 242 297 352
#     4  10  22  39  58  82 115 154 191 237 291 344
#     4   9  19  37  60  86 118 153 191 242 301 352
#     4  10  20  33  53  81 112 145 185 236 288 339
#
# _framework density 19.712634000000001
#
# number of rings (size 3 to 8) (size 9 to 14) (size 15 to 20)
#    0.000    1.857    1.429    3.429    0.000    6.286 
#    0.000    1.429    0.000    3.857    0.000    0.000 
#    0.000    0.000    0.000    0.000    0.000    0.000 
#
# Total GULP energy -694404.345143 kJ/mol
# GULP energy per Si atom -12400.077592 kJ/mol
# Density = 1.966777 g / cm^3
# Si number density = 19.712634 Si / 1000 Ang^3
#
#
#
# Elastic Constant Matrix: (Units=GPa)
#
#
# Indices 1 2 3 4 5 6 
#
# 1 120.6850 41.3556 44.2726 0.0000 0.0000 0.0000
# 2 41.3556 96.3408 31.7305 0.0000 0.0000 0.0000
# 3 44.2726 31.7305 67.9186 0.0000 0.0000 0.0000
# 4 0.0000 0.0000 0.0000 23.6688 0.0000 0.0000
# 5 0.0000 0.0000 0.0000 0.0000 21.5819 0.0000
# 6 0.0000 0.0000 0.0000 0.0000 0.0000 31.0541
#
#
#
# Elastic Compliance Matrix: (Units=1/GPa)
#
#
# Indices 1 2 3 4 5 6 
#
# 1 0.011550 -0.002929 -0.006160 0.000000 0.000000 0.000000
# 2 -0.002929 0.013010 -0.004169 0.000000 0.000000 0.000000
# 3 -0.006160 -0.004169 0.020687 0.000000 0.000000 0.000000
# 4 0.000000 0.000000 0.000000 0.042250 0.000000 0.000000
# 5 0.000000 0.000000 0.000000 0.000000 0.046335 0.000000
# 6 0.000000 0.000000 0.000000 0.000000 0.000000 0.032202
#
#
# Mechanical properties :
#
#
# Convention : Reuss Voigt Hill
#
# Bulk Modulus (GPa) = 53.38947 57.74021 55.56484
# Shear Modulus (GPa) = 25.15185 26.43335 25.79260
#
# Velocity S-wave (km/s) = 3.57588 3.66585 3.62115
# Velocity P-wave (km/s) = 6.64770 6.87550 6.76256
#
# Compressibility (1/GPa) = 0.01873028
#
# Stress axis : x y z
#
# Youngs Moduli (GPa) = 86.58360 76.86305 48.34025
#
# Poissons Ratio (x) = 0.22512 0.29779
# Poissons Ratio (y) = 0.25359 0.20153
# Poissons Ratio (z) = 0.53337 0.32044
#
# Static dielectric constant tensor:
#      x y z
#    x 3.790360 0.000000 0.000000 
#    y 0.000000 3.607600 0.000000 
#    z 0.000000 0.000000 3.561780 
# 
# 
# High freq. dielectric constant tensor:
#      x y z
#    x 1.776420 0.000000 0.000000 
#    y 0.000000 1.768770 0.000000 
#    z 0.000000 0.000000 1.758440 
# 
# From -- ./inp_files/8750.got.cif
#   From: 2010.03.12/outbox.cif.g09.slc.cpg/sg55_5_cif.got.tgz:8750.got - 2010.04.16 15:19:21.
