data_PCOD8225414
_publ_section_title
;
Structure prediction by ZEFSAII (Michael W. Deem and Ramdas Pophale) SiO2 
 PCOD8225414
Probable space group: P B A M
;
_chemical_formula_sum "Si O2"
_cell_formula_units_Z 64
_cell_length_a 21.574786
_cell_length_b 10.047911
_cell_length_c 15.228660
_cell_angle_alpha 90.000000
_cell_angle_beta 90.000000
_cell_angle_gamma 90.000000
_cell_volume 3301.292208
_symmetry_space_group_name_H-M "P B A M"
_symmetry_group_IT_number 55
_symmetry_cell_setting 'orthorhombic'
loop_
_space_group_symop_operation_xyz
x,y,z
-x,-y,z
1/2+x,1/2-y,-z
1/2-x,1/2+y,-z
-x,-y,-z
x,y,-z
1/2-x,1/2+y,z
1/2+x,1/2-y,z
loop_
_atom_site_type_symbol
_atom_site_label
_atom_site_fract_x
_atom_site_fract_y
_atom_site_fract_z
Si Si1 0.755581 0.984866 0.712334
Si Si2 0.559422 0.731066 0.806498
Si Si3 0.396293 0.857665 0.404812
Si Si4 0.066113 0.278019 0.899873
Si Si5 0.381113 0.542566 0.806872
Si Si6 0.620961 0.004874 0.770078
Si Si7 0.243021 0.270626 0.399295
Si Si8 0.475396 0.634336 0.658888
O O1 0.809351 0.948370 0.780173
O O2 0.695070 0.020548 0.769354
O O3 0.737288 0.865934 0.646728
O O4 0.776840 0.109047 0.651937
O O5 0.505940 0.754068 0.877994
O O6 0.600799 0.605797 0.837202
O O7 0.603644 0.857663 0.799647
O O8 0.531503 0.703023 0.710750
O O9 0.399230 0.930491 0.500000
O O10 0.330501 0.786871 0.392029
O O11 0.447802 0.741248 0.408038
O O12 0.407716 0.962358 0.326536
O O13 0.105969 0.143191 0.887061
O O14 0.092786 0.393108 0.838827
O O15 0.071835 0.324362 0.000000
O O16 0.422288 0.592812 0.726594
O O17 0.266022 0.268379 0.500000
O O18 0.500000 0.500000 0.610337
#
# Coordination Sequence:
#
# PCOD8225414 Si02
#       8
#     8   8   8   8   8   8   8   8
#     4  11  20  36  60  83 118 160 191 237 302 341
#     4  10  21  35  61  85 118 146 193 246 286 335
#     4  10  19  34  56  81 117 164 202 237 289 342
#     4  11  23  41  66  88 113 150 191 240 298 356
#     4  10  19  38  60  89 110 149 194 241 293 346
#     4  11  22  38  56  90 123 156 193 236 288 356
#     4  10  20  33  53  83 116 154 208 249 276 332
#     4   9  17  33  55  79 111 150 197 245 285 329
#
# _framework density 19.386348000000002
#
# number of rings (size 3 to 8) (size 9 to 14) (size 15 to 20)
#    0.000    1.750    3.750    3.375    0.000    2.750 
#    0.000    1.875    0.000    2.250    0.000    0.000 
#    0.000    0.000    0.000    0.000    0.000    0.000 
#
# Total GULP energy -793599.816452 kJ/mol
# GULP energy per Si atom -12399.997132 kJ/mol
# Density = 1.934222 g / cm^3
# Si number density = 19.386348 Si / 1000 Ang^3
#
#
#
# Elastic Constant Matrix: (Units=GPa)
#
#
# Indices 1 2 3 4 5 6 
#
# 1 68.8385 19.2880 24.2923 0.0000 0.0000 0.0000
# 2 19.2880 113.6725 33.6308 0.0000 0.0000 0.0000
# 3 24.2923 33.6308 102.1075 0.0000 0.0000 0.0000
# 4 0.0000 0.0000 0.0000 8.1320 0.0000 0.0000
# 5 0.0000 0.0000 0.0000 0.0000 15.3658 0.0000
# 6 0.0000 0.0000 0.0000 0.0000 0.0000 28.5360
#
#
#
# Elastic Compliance Matrix: (Units=1/GPa)
#
#
# Indices 1 2 3 4 5 6 
#
# 1 0.016177 -0.001780 -0.003262 0.000000 0.000000 0.000000
# 2 -0.001780 0.009943 -0.002851 0.000000 0.000000 0.000000
# 3 -0.003262 -0.002851 0.011509 0.000000 0.000000 0.000000
# 4 0.000000 0.000000 0.000000 0.122970 0.000000 0.000000
# 5 0.000000 0.000000 0.000000 0.000000 0.065080 0.000000
# 6 0.000000 0.000000 0.000000 0.000000 0.000000 0.035043
#
#
# Mechanical properties :
#
#
# Convention : Reuss Voigt Hill
#
# Bulk Modulus (GPa) = 45.78464 48.78229 47.28347
# Shear Modulus (GPa) = 17.61871 24.23394 20.92632
#
# Velocity S-wave (km/s) = 3.01794 3.53944 3.28904
# Velocity P-wave (km/s) = 5.98432 6.47467 6.23432
#
# Compressibility (1/GPa) = 0.02184139
#
# Stress axis : x y z
#
# Youngs Moduli (GPa) = 61.81748 100.57541 86.88919
#
# Poissons Ratio (x) = 0.17899 0.28347
# Poissons Ratio (y) = 0.11001 0.24776
# Poissons Ratio (z) = 0.20167 0.28678
#
# Static dielectric constant tensor:
#      x y z
#    x 3.473440 0.000000 0.000000 
#    y 0.000000 3.734180 0.000000 
#    z 0.000000 0.000000 3.297250 
# 
# 
# High freq. dielectric constant tensor:
#      x y z
#    x 1.746480 0.000000 0.000000 
#    y 0.000000 1.766960 0.000000 
#    z 0.000000 0.000000 1.724690 
# 
# From -- ./inp_files/19973.got.cif
#   From: 2010.03.12/outbox.cif.g09.slc.cpg/sg55_10_cif.got.tgz:19973.got - 2010.04.16 15:19:21.
