data_PCOD8225854
_publ_section_title
;
Structure prediction by ZEFSAII (Michael W. Deem and Ramdas Pophale) SiO2 
 PCOD8225854
Probable space group: P B A M
;
_chemical_formula_sum "Si O2"
_cell_formula_units_Z 48
_cell_length_a 23.574925
_cell_length_b 13.454173
_cell_length_c 8.982131
_cell_angle_alpha 90.000000
_cell_angle_beta 90.000000
_cell_angle_gamma 90.000000
_cell_volume 2848.962365
_symmetry_space_group_name_H-M "P B A M"
_symmetry_group_IT_number 55
_symmetry_cell_setting 'orthorhombic'
loop_
_space_group_symop_operation_xyz
x,y,z
-x,-y,z
1/2+x,1/2-y,-z
1/2-x,1/2+y,-z
-x,-y,-z
x,y,-z
1/2-x,1/2+y,z
1/2+x,1/2-y,z
loop_
_atom_site_type_symbol
_atom_site_label
_atom_site_fract_x
_atom_site_fract_y
_atom_site_fract_z
Si Si1 0.227714 0.106006 0.675614
Si Si2 0.832324 0.297136 0.172453
Si Si3 0.435293 0.884944 0.328146
Si Si4 0.934873 0.386420 0.671725
Si Si5 0.836256 0.722240 0.826400
Si Si6 0.772273 0.096029 0.829710
O O1 0.228532 0.116271 0.500000
O O2 0.289580 0.132523 0.738015
O O3 0.179225 0.177193 0.740478
O O4 0.212688 0.993716 0.720662
O O5 0.896030 0.316684 0.226513
O O6 0.818486 0.181752 0.199824
O O7 0.825671 0.324788 0.000000
O O8 0.419016 0.868467 0.500000
O O9 0.500343 0.855249 0.299212
O O10 0.397452 0.814787 0.225421
O O11 0.425296 0.999165 0.283293
O O12 0.918861 0.370216 0.500000
O O13 0.790015 0.637720 0.790771
O O14 0.837288 0.747655 0.000000
O O15 0.774587 0.059181 0.000000
#
# Coordination Sequence:
#
# PCOD8225854 Si02
#       6
#     8   8   8   8   8   8
#     4  11  21  32  50  73  97 127 161 198 240 286
#     4  10  20  33  50  72  99 129 160 197 240 286
#     4   9  18  32  49  72 101 131 162 196 237 283
#     4   9  18  32  50  72 100 131 161 197 238 282
#     4  10  20  33  50  72  99 130 161 197 240 285
#     4   9  19  34  49  69  98 128 158 195 239 286
#
# _framework density 16.848240000000001
#
# number of rings (size 3 to 8) (size 9 to 14) (size 15 to 20)
#    0.000    2.333    0.000    5.500    0.000    8.000 
#    0.000    1.667    0.000    1.000    0.000    7.000 
#    0.000    0.000    0.000    0.000    0.000    0.000 
#
# Total GULP energy -595360.058297 kJ/mol
# GULP energy per Si atom -12403.334548 kJ/mol
# Density = 1.680989 g / cm^3
# Si number density = 16.848240 Si / 1000 Ang^3
#
#
#
# Elastic Constant Matrix: (Units=GPa)
#
#
# Indices 1 2 3 4 5 6 
#
# 1 98.5074 51.2455 52.8459 0.0000 0.0000 0.0000
# 2 51.2455 95.4884 62.6073 0.0000 0.0000 0.0000
# 3 52.8459 62.6073 114.1090 0.0000 0.0000 0.0000
# 4 0.0000 0.0000 0.0000 29.9280 0.0000 0.0000
# 5 0.0000 0.0000 0.0000 0.0000 31.3753 0.0000
# 6 0.0000 0.0000 0.0000 0.0000 0.0000 25.6387
#
#
#
# Elastic Compliance Matrix: (Units=1/GPa)
#
#
# Indices 1 2 3 4 5 6 
#
# 1 0.015166 -0.005520 -0.003995 0.000000 0.000000 0.000000
# 2 -0.005520 0.018365 -0.007520 0.000000 0.000000 0.000000
# 3 -0.003995 -0.007520 0.014740 0.000000 0.000000 0.000000
# 4 0.000000 0.000000 0.000000 0.033414 0.000000 0.000000
# 5 0.000000 0.000000 0.000000 0.000000 0.031872 0.000000
# 6 0.000000 0.000000 0.000000 0.000000 0.000000 0.039004
#
#
# Mechanical properties :
#
#
# Convention : Reuss Voigt Hill
#
# Bulk Modulus (GPa) = 70.41644 71.27800 70.84722
# Shear Modulus (GPa) = 26.12812 26.81548 26.47180
#
# Velocity S-wave (km/s) = 3.94228 3.99380 3.96813
# Velocity P-wave (km/s) = 7.91248 7.97904 7.94583
#
# Compressibility (1/GPa) = 0.01420123
#
# Stress axis : x y z
#
# Youngs Moduli (GPa) = 65.93543 54.45056 67.84336
#
# Poissons Ratio (x) = 0.30055 0.27106
# Poissons Ratio (y) = 0.36395 0.51019
# Poissons Ratio (z) = 0.26343 0.40947
#
# Static dielectric constant tensor:
#      x y z
#    x 3.068990 0.000000 0.000000 
#    y 0.000000 3.022220 0.000000 
#    z 0.000000 0.000000 3.138030 
# 
# 
# High freq. dielectric constant tensor:
#      x y z
#    x 1.639500 0.000000 0.000000 
#    y 0.000000 1.638010 0.000000 
#    z 0.000000 0.000000 1.657070 
# 
# From -- ./inp_files/4059.got.cif
#   From: 2010.03.12/outbox.cif.g09.slc.cpg/sg55_3_cif.got.tgz:4059.got - 2010.04.16 15:19:21.
