data_PCOD8225790
_publ_section_title
;
Structure prediction by ZEFSAII (Michael W. Deem and Ramdas Pophale) SiO2 
 PCOD8225790
Probable space group: P B A M
;
_chemical_formula_sum "Si O2"
_cell_formula_units_Z 64
_cell_length_a 30.359114
_cell_length_b 11.766286
_cell_length_c 9.019722
_cell_angle_alpha 90.000000
_cell_angle_beta 90.000000
_cell_angle_gamma 90.000000
_cell_volume 3221.971137
_symmetry_space_group_name_H-M "P B A M"
_symmetry_group_IT_number 55
_symmetry_cell_setting 'orthorhombic'
loop_
_space_group_symop_operation_xyz
x,y,z
-x,-y,z
1/2+x,1/2-y,-z
1/2-x,1/2+y,-z
-x,-y,-z
x,y,-z
1/2-x,1/2+y,z
1/2+x,1/2-y,z
loop_
_atom_site_type_symbol
_atom_site_label
_atom_site_fract_x
_atom_site_fract_y
_atom_site_fract_z
Si Si1 0.170289 0.482215 0.332658
Si Si2 0.953329 0.746047 0.674123
Si Si3 0.070282 0.509024 0.330714
Si Si4 0.122550 0.845736 0.672651
Si Si5 0.041518 0.726259 0.175195
Si Si6 0.300378 0.762261 0.174266
Si Si7 0.130352 0.110241 0.327570
Si Si8 0.710652 0.781658 0.329038
O O1 0.174641 0.433446 0.500000
O O2 0.121884 0.534353 0.310293
O O3 0.178108 0.381964 0.217748
O O4 0.204640 0.583545 0.305309
O O5 0.962103 0.758796 0.500000
O O6 0.939896 0.618664 0.718925
O O7 0.914123 0.828326 0.726793
O O8 0.997082 0.783067 0.761395
O O9 0.055542 0.529872 0.500000
O O10 0.043198 0.595656 0.229251
O O11 0.113033 0.821356 0.500000
O O12 0.082711 0.797043 0.767116
O O13 0.167498 0.785849 0.723602
O O14 0.126524 0.978169 0.707527
O O15 0.040679 0.729962 0.000000
O O16 0.327530 0.658121 0.241980
O O17 0.250520 0.760690 0.229799
O O18 0.300988 0.749732 0.000000
O O19 0.138259 0.134810 0.500000
O O20 0.720963 0.753550 0.500000
#
# Coordination Sequence:
#
# PCOD8225790 Si02
#       8
#     8   8   8   8   8   8   8   8
#     4  10  20  40  68  92 118 157 209 256 296 349
#     4  10  21  39  64  90 119 157 205 258 302 351
#     4  10  19  38  65  91 120 156 206 259 300 347
#     4  10  22  43  68  90 115 155 211 261 300 348
#     4  12  25  38  58  90 129 163 196 244 309 380
#     4  12  26  40  60  93 134 165 193 244 310 376
#     4  10  22  43  68  91 116 157 214 261 296 350
#     4  10  22  41  66  92 119 159 210 257 296 350
#
# _framework density 19.863616
#
# number of rings (size 3 to 8) (size 9 to 14) (size 15 to 20)
#    0.000    1.500    2.500    2.625    1.750    5.000 
#    0.000    2.500    0.000    0.000    0.000    0.000 
#    0.000    0.000    0.000    0.000    0.000    0.000 
#
# Total GULP energy -793986.165174 kJ/mol
# GULP energy per Si atom -12406.033831 kJ/mol
# Density = 1.981841 g / cm^3
# Si number density = 19.863616 Si / 1000 Ang^3
#
#
#
# Elastic Constant Matrix: (Units=GPa)
#
#
# Indices 1 2 3 4 5 6 
#
# 1 121.1728 41.3649 58.3585 0.0000 0.0000 0.0000
# 2 41.3649 94.9489 43.4546 0.0000 0.0000 0.0000
# 3 58.3585 43.4546 92.9769 0.0000 0.0000 0.0000
# 4 0.0000 0.0000 0.0000 15.7782 0.0000 0.0000
# 5 0.0000 0.0000 0.0000 0.0000 7.6412 0.0000
# 6 0.0000 0.0000 0.0000 0.0000 0.0000 22.0968
#
#
#
# Elastic Compliance Matrix: (Units=1/GPa)
#
#
# Indices 1 2 3 4 5 6 
#
# 1 0.012212 -0.002305 -0.006588 0.000000 0.000000 0.000000
# 2 -0.002305 0.013833 -0.005018 0.000000 0.000000 0.000000
# 3 -0.006588 -0.005018 0.017236 0.000000 0.000000 0.000000
# 4 0.000000 0.000000 0.000000 0.063378 0.000000 0.000000
# 5 0.000000 0.000000 0.000000 0.000000 0.130869 0.000000
# 6 0.000000 0.000000 0.000000 0.000000 0.000000 0.045255
#
#
# Mechanical properties :
#
#
# Convention : Reuss Voigt Hill
#
# Bulk Modulus (GPa) = 64.69000 66.16164 65.42582
# Shear Modulus (GPa) = 15.83485 20.16463 17.99974
#
# Velocity S-wave (km/s) = 2.82650 3.18960 3.01353
# Velocity P-wave (km/s) = 6.57951 6.85164 6.71695
#
# Compressibility (1/GPa) = 0.01545834
#
# Stress axis : x y z
#
# Youngs Moduli (GPa) = 81.88337 72.29129 58.01919
#
# Poissons Ratio (x) = 0.16666 0.38222
# Poissons Ratio (y) = 0.18877 0.29115
# Poissons Ratio (z) = 0.53944 0.36276
#
# Static dielectric constant tensor:
#      x y z
#    x 3.740800 0.000000 0.000000 
#    y 0.000000 3.622100 0.000000 
#    z 0.000000 0.000000 3.405970 
# 
# 
# High freq. dielectric constant tensor:
#      x y z
#    x 1.789360 0.000000 0.000000 
#    y 0.000000 1.779280 0.000000 
#    z 0.000000 0.000000 1.752890 
# 
# From -- ./inp_files/4508.got.cif
#   From: 2010.03.12/outbox.cif.g09.slc.cpg/sg55_3_cif.got.tgz:4508.got - 2010.04.16 15:19:21.
