data_PCOD8225418
_publ_section_title
;
Structure prediction by ZEFSAII (Michael W. Deem and Ramdas Pophale) SiO2 
 PCOD8225418
Probable space group: P B A M
;
_chemical_formula_sum "Si O2"
_cell_formula_units_Z 64
_cell_length_a 14.940747
_cell_length_b 24.443497
_cell_length_c 8.758428
_cell_angle_alpha 90.000000
_cell_angle_beta 90.000000
_cell_angle_gamma 90.000000
_cell_volume 3198.613854
_symmetry_space_group_name_H-M "P B A M"
_symmetry_group_IT_number 55
_symmetry_cell_setting 'orthorhombic'
loop_
_space_group_symop_operation_xyz
x,y,z
-x,-y,z
1/2+x,1/2-y,-z
1/2-x,1/2+y,-z
-x,-y,-z
x,y,-z
1/2-x,1/2+y,z
1/2+x,1/2-y,z
loop_
_atom_site_type_symbol
_atom_site_label
_atom_site_fract_x
_atom_site_fract_y
_atom_site_fract_z
Si Si1 0.249638 0.060334 0.180782
Si Si2 0.366984 0.261546 0.679876
Si Si3 0.001373 0.329930 0.318157
Si Si4 0.169516 0.266284 0.675393
Si Si5 0.869720 0.858031 0.675366
Si Si6 0.438822 0.051323 0.679325
Si Si7 0.450452 0.364731 0.825054
Si Si8 0.405491 0.482820 0.176922
O O1 0.223513 0.118057 0.259311
O O2 0.346979 0.042024 0.232988
O O3 0.179045 0.015377 0.245427
O O4 0.248339 0.066391 0.000000
O O5 0.357879 0.253578 0.500000
O O6 0.421621 0.209237 0.745747
O O7 0.267661 0.266761 0.755188
O O8 0.419370 0.316963 0.713999
O O9 0.003910 0.324819 0.500000
O O10 0.985305 0.392199 0.264907
O O11 0.097770 0.309056 0.252138
O O12 0.183680 0.282094 0.500000
O O13 0.127373 0.206780 0.693509
O O14 0.881277 0.875415 0.500000
O O15 0.949258 0.882639 0.778340
O O16 0.419633 0.053956 0.500000
O O17 0.500000 0.000000 0.723395
O O18 0.388296 0.417982 0.800814
O O19 0.448429 0.344830 0.000000
O O20 0.500000 0.500000 0.255322
O O21 0.411681 0.498392 0.000000
#
# Coordination Sequence:
#
# PCOD8225418 Si02
#       8
#     8   8   8   8   8   8   8   8
#     4  11  22  38  61  85 113 154 197 238 287 350
#     4  10  19  34  56  82 111 147 189 229 276 338
#     4   9  17  34  57  82 115 152 187 231 292 347
#     4   9  18  32  56  82 108 150 192 224 274 346
#     4  11  20  35  59  86 113 147 194 238 280 336
#     4  10  22  40  62  87 115 150 196 251 295 336
#     4  11  21  35  55  80 114 150 183 229 284 339
#     4   9  18  35  55  76 110 155 187 214 279 358
#
# _framework density 20.008666000000002
#
# number of rings (size 3 to 8) (size 9 to 14) (size 15 to 20)
#    0.000    2.000    2.500    1.875    0.000    3.250 
#    0.000    7.500    0.000    0.000    0.000    0.000 
#    0.000    0.000    0.000    0.000    0.000    0.000 
#
# Total GULP energy -793448.751091 kJ/mol
# GULP energy per Si atom -12397.636736 kJ/mol
# Density = 1.996313 g / cm^3
# Si number density = 20.008666 Si / 1000 Ang^3
#
#
#
# Elastic Constant Matrix: (Units=GPa)
#
#
# Indices 1 2 3 4 5 6 
#
# 1 147.7310 69.5624 21.6084 0.0000 0.0000 0.0000
# 2 69.5624 125.5017 22.6411 0.0000 0.0000 0.0000
# 3 21.6084 22.6411 29.8117 0.0000 0.0000 0.0000
# 4 0.0000 0.0000 0.0000 18.4047 0.0000 0.0000
# 5 0.0000 0.0000 0.0000 0.0000 23.2122 0.0000
# 6 0.0000 0.0000 0.0000 0.0000 0.0000 32.6185
#
#
#
# Elastic Compliance Matrix: (Units=1/GPa)
#
#
# Indices 1 2 3 4 5 6 
#
# 1 0.009435 -0.004630 -0.003322 0.000000 0.000000 0.000000
# 2 -0.004630 0.011505 -0.005382 0.000000 0.000000 0.000000
# 3 -0.003322 -0.005382 0.040039 0.000000 0.000000 0.000000
# 4 0.000000 0.000000 0.000000 0.054334 0.000000 0.000000
# 5 0.000000 0.000000 0.000000 0.000000 0.043081 0.000000
# 6 0.000000 0.000000 0.000000 0.000000 0.000000 0.030657
#
#
# Mechanical properties :
#
#
# Convention : Reuss Voigt Hill
#
# Bulk Modulus (GPa) = 29.14512 58.96313 44.05412
# Shear Modulus (GPa) = 22.01107 27.46259 24.73683
#
# Velocity S-wave (km/s) = 3.32034 3.70879 3.51993
# Velocity P-wave (km/s) = 5.41271 6.91903 6.21170
#
# Compressibility (1/GPa) = 0.03431106
#
# Stress axis : x y z
#
# Youngs Moduli (GPa) = 105.98444 86.91545 24.97541
#
# Poissons Ratio (x) = 0.40245 0.08298
# Poissons Ratio (y) = 0.49075 0.13441
# Poissons Ratio (z) = 0.35212 0.46776
#
# Static dielectric constant tensor:
#      x y z
#    x 3.885880 0.000000 0.000000 
#    y 0.000000 3.642310 0.000000 
#    z 0.000000 0.000000 3.164700 
# 
# 
# High freq. dielectric constant tensor:
#      x y z
#    x 1.788720 0.000000 0.000000 
#    y 0.000000 1.786050 0.000000 
#    z 0.000000 0.000000 1.735960 
# 
# From -- ./inp_files/6581.got.cif
#   From: 2010.03.12/outbox.cif.g09.slc.cpg/sg55_4_cif.got.tgz:6581.got - 2010.04.16 15:19:21.
