data_PCOD8225405
_publ_section_title
;
Structure prediction by ZEFSAII (Michael W. Deem and Ramdas Pophale) SiO2 
 PCOD8225405
Probable space group: P B A M
;
_chemical_formula_sum "Si O2"
_cell_formula_units_Z 48
_cell_length_a 17.033955
_cell_length_b 5.070157
_cell_length_c 28.836523
_cell_angle_alpha 90.000000
_cell_angle_beta 90.000000
_cell_angle_gamma 90.000000
_cell_volume 2490.461297
_symmetry_space_group_name_H-M "P B A M"
_symmetry_group_IT_number 55
_symmetry_cell_setting 'orthorhombic'
loop_
_space_group_symop_operation_xyz
x,y,z
-x,-y,z
1/2+x,1/2-y,-z
1/2-x,1/2+y,-z
-x,-y,-z
x,y,-z
1/2-x,1/2+y,z
1/2+x,1/2-y,z
loop_
_atom_site_type_symbol
_atom_site_label
_atom_site_fract_x
_atom_site_fract_y
_atom_site_fract_z
Si Si1 0.907757 0.504431 0.589399
Si Si2 0.803212 0.488346 0.500000
Si Si3 0.201697 0.159640 0.272923
Si Si4 0.553859 0.249241 0.000000
Si Si5 0.699955 0.346716 0.834182
Si Si6 0.908837 0.002834 0.352587
Si Si7 0.555550 0.250597 0.100335
O O1 0.858041 0.443676 0.544122
O O2 0.884387 0.288580 0.628182
O O3 0.000000 0.500000 0.576907
O O4 0.884051 0.789749 0.608772
O O5 0.767316 0.779857 0.500000
O O6 0.227279 0.457964 0.284106
O O7 0.175709 0.149800 0.219578
O O8 0.129183 0.069243 0.303773
O O9 0.500000 0.500000 0.000000
O O10 0.599845 0.242797 0.950610
O O11 0.500000 0.000000 0.000000
O O12 0.732575 0.635090 0.846822
O O13 0.622346 0.270311 0.861590
O O14 0.000000 0.000000 0.342200
O O15 0.500000 0.500000 0.104189
O O16 0.500000 0.000000 0.109212
#
# Coordination Sequence:
#
# PCOD8225405 Si02
#       7
#     8   4   8   4   8   8   8
#     4  10  22  40  58  78 110 144 170 209 268 315
#     4  12  25  38  57  86 110 136 178 220 251 302
#     4  10  21  36  55  77 107 144 175 212 269 319
#     4   8  16  30  50  76 106 136 176 228 278 322
#     4  10  21  37  53  77 113 147 179 223 278 332
#     4  10  21  37  58  82 105 136 179 220 257 309
#     4  10  19  34  56  80 105 142 187 229 272 325
#
# _framework density 19.273539
#
# number of rings (size 3 to 8) (size 9 to 14) (size 15 to 20)
#    0.000    2.000    0.000    3.250    0.000    4.667 
#    0.000    6.667    0.000    0.000    0.000    0.000 
#    0.000    0.000    0.000    0.000    0.000    0.000 
#
# Total GULP energy -595026.538239 kJ/mol
# GULP energy per Si atom -12396.386213 kJ/mol
# Density = 1.922967 g / cm^3
# Si number density = 19.273539 Si / 1000 Ang^3
#
#
#
# Elastic Constant Matrix: (Units=GPa)
#
#
# Indices 1 2 3 4 5 6 
#
# 1 72.3905 28.1190 72.3633 0.0000 0.0000 0.0000
# 2 28.1190 108.5414 32.4924 0.0000 0.0000 0.0000
# 3 72.3633 32.4924 123.6627 0.0000 0.0000 0.0000
# 4 0.0000 0.0000 0.0000 23.9161 0.0000 0.0000
# 5 0.0000 0.0000 0.0000 0.0000 -43.0037 0.0000
# 6 0.0000 0.0000 0.0000 0.0000 0.0000 27.7980
#
#
#
# Elastic Compliance Matrix: (Units=1/GPa)
#
#
# Indices 1 2 3 4 5 6 
#
# 1 0.034227 -0.003116 -0.019210 0.000000 0.000000 0.000000
# 2 -0.003116 0.010283 -0.000878 0.000000 0.000000 0.000000
# 3 -0.019210 -0.000878 0.019558 0.000000 0.000000 0.000000
# 4 0.000000 0.000000 0.000000 0.041813 0.000000 0.000000
# 5 0.000000 0.000000 0.000000 0.000000 -0.023254 0.000000
# 6 0.000000 0.000000 0.000000 0.000000 0.000000 0.035974
#
#
# Mechanical properties :
#
#
# Convention : Reuss Voigt Hill
#
# Bulk Modulus (GPa) = 56.62618 63.39376 60.00997
# Shear Modulus (GPa) = 29.25748 13.18340 21.22044
#
# Velocity S-wave (km/s) = 3.90040 2.61821 3.32175
# Velocity P-wave (km/s) = 7.05182 6.48868 6.77610
#
# Compressibility (1/GPa) = 0.01765968
#
# Stress axis : x y z
#
# Youngs Moduli (GPa) = 29.21679 97.24454 51.12964
#
# Poissons Ratio (x) = 0.30305 0.98218
# Poissons Ratio (y) = 0.09105 0.04491
# Poissons Ratio (z) = 0.56124 0.08541
#
# Static dielectric constant tensor:
#      x y z
#    x 3.216280 0.000000 0.000000 
#    y 0.000000 3.867080 0.000000 
#    z 0.000000 0.000000 4.170060 
# 
# 
# High freq. dielectric constant tensor:
#      x y z
#    x 1.724060 0.000000 0.000000 
#    y 0.000000 1.776740 0.000000 
#    z 0.000000 0.000000 1.759640 
# 
# From -- ./inp_files/23988.got.cif
#   From: 2010.03.12/outbox.cif.g09.slc.cpg/sg55_12_cif.got.tgz:23988.got - 2010.04.16 15:19:21.
