data_PCOD8225795
_publ_section_title
;
Structure prediction by ZEFSAII (Michael W. Deem and Ramdas Pophale) SiO2 
 PCOD8225795
Probable space group: P B A M
;
_chemical_formula_sum "Si O2"
_cell_formula_units_Z 56
_cell_length_a 12.225809
_cell_length_b 15.309755
_cell_length_c 13.768510
_cell_angle_alpha 90.000000
_cell_angle_beta 90.000000
_cell_angle_gamma 90.000000
_cell_volume 2577.109025
_symmetry_space_group_name_H-M "P B A M"
_symmetry_group_IT_number 55
_symmetry_cell_setting 'orthorhombic'
loop_
_space_group_symop_operation_xyz
x,y,z
-x,-y,z
1/2+x,1/2-y,-z
1/2-x,1/2+y,-z
-x,-y,-z
x,y,-z
1/2-x,1/2+y,z
1/2+x,1/2-y,z
loop_
_atom_site_type_symbol
_atom_site_label
_atom_site_fract_x
_atom_site_fract_y
_atom_site_fract_z
Si Si1 0.417563 0.756633 0.390105
Si Si2 0.227282 0.553080 0.230684
Si Si3 0.572875 0.919506 0.607368
Si Si4 0.033276 0.093855 0.264061
Si Si5 0.677173 0.140194 0.223207
Si Si6 0.457854 0.130593 0.891784
Si Si7 0.121021 0.825255 0.891579
O O1 0.371180 0.741803 0.500000
O O2 0.512041 0.828056 0.393907
O O3 0.468045 0.666554 0.348774
O O4 0.326012 0.795865 0.317047
O O5 0.179613 0.596416 0.328229
O O6 0.347397 0.591701 0.213613
O O7 0.235738 0.449966 0.250597
O O8 0.148139 0.575233 0.140442
O O9 0.611446 0.946821 0.500000
O O10 0.500000 0.000000 0.650155
O O11 0.947216 0.112766 0.179072
O O12 0.000000 0.000000 0.310055
O O13 0.557005 0.116971 0.182706
O O14 0.753233 0.186166 0.142719
O O15 0.433943 0.231969 0.891622
O O16 0.489573 0.098809 0.000000
O O17 0.120660 0.865701 0.000000
#
# Coordination Sequence:
#
# PCOD8225795 Si02
#       7
#     8   8   8   8   8   8   8
#     4  11  24  44  74 103 137 182 231 287 356 418
#     4  12  23  40  68  99 137 180 224 294 346 409
#     4  10  19  38  68 102 132 169 222 283 352 419
#     4  12  26  48  67  95 144 191 240 286 341 416
#     4  12  22  43  71 100 142 175 229 288 350 410
#     4  11  24  41  68 103 135 174 225 288 352 413
#     4  11  25  46  70  99 137 190 238 283 346 420
#
# _framework density 21.729775
#
# number of rings (size 3 to 8) (size 9 to 14) (size 15 to 20)
#    0.000    0.714    5.714    1.714    0.000    3.429 
#    0.000    2.143    0.000    0.000    0.000    0.000 
#    0.000    0.000    0.000    0.000    0.000    0.000 
#
# Total GULP energy -694424.918290 kJ/mol
# GULP energy per Si atom -12400.444969 kJ/mol
# Density = 2.168032 g / cm^3
# Si number density = 21.729775 Si / 1000 Ang^3
#
#
#
# Elastic Constant Matrix: (Units=GPa)
#
#
# Indices 1 2 3 4 5 6 
#
# 1 104.4992 18.8787 38.9576 0.0000 0.0000 0.0000
# 2 18.8787 121.5315 44.3972 0.0000 0.0000 0.0000
# 3 38.9576 44.3972 153.6361 0.0000 0.0000 0.0000
# 4 0.0000 0.0000 0.0000 24.3259 0.0000 0.0000
# 5 0.0000 0.0000 0.0000 0.0000 28.2759 0.0000
# 6 0.0000 0.0000 0.0000 0.0000 0.0000 24.9308
#
#
#
# Elastic Compliance Matrix: (Units=1/GPa)
#
#
# Indices 1 2 3 4 5 6 
#
# 1 0.010629 -0.000745 -0.002480 0.000000 0.000000 0.000000
# 2 -0.000745 0.009252 -0.002485 0.000000 0.000000 0.000000
# 3 -0.002480 -0.002485 0.007856 0.000000 0.000000 0.000000
# 4 0.000000 0.000000 0.000000 0.041108 0.000000 0.000000
# 5 0.000000 0.000000 0.000000 0.000000 0.035366 0.000000
# 6 0.000000 0.000000 0.000000 0.000000 0.000000 0.040111
#
#
# Mechanical properties :
#
#
# Convention : Reuss Voigt Hill
#
# Bulk Modulus (GPa) = 61.28594 64.90376 63.09485
# Shear Modulus (GPa) = 31.02137 34.00207 32.51172
#
# Velocity S-wave (km/s) = 3.78245 3.96001 3.87225
# Velocity P-wave (km/s) = 6.88047 7.13038 7.00654
#
# Compressibility (1/GPa) = 0.01631696
#
# Stress axis : x y z
#
# Youngs Moduli (GPa) = 94.08646 108.08797 127.29669
#
# Poissons Ratio (x) = 0.08054 0.31566
# Poissons Ratio (y) = 0.07011 0.31628
# Poissons Ratio (z) = 0.23331 0.26855
#
# Static dielectric constant tensor:
#      x y z
#    x 3.890090 0.000000 0.000000 
#    y 0.000000 4.033680 0.000000 
#    z 0.000000 0.000000 4.337190 
# 
# 
# High freq. dielectric constant tensor:
#      x y z
#    x 1.844140 0.000000 0.000000 
#    y 0.000000 1.867220 0.000000 
#    z 0.000000 0.000000 1.851850 
# 
# From -- ./inp_files/18400.got.cif
#   From: 2010.03.12/outbox.cif.g09.slc.cpg/sg55_10_cif.got.tgz:18400.got - 2010.04.16 15:19:21.
