data_PCOD8225191
_publ_section_title
;
Structure prediction by ZEFSAII (Michael W. Deem and Ramdas Pophale) SiO2 
 PCOD8225191
Probable space group: P B A M
;
_chemical_formula_sum "Si O2"
_cell_formula_units_Z 48
_cell_length_a 30.987822
_cell_length_b 9.063385
_cell_length_c 8.347884
_cell_angle_alpha 90.000000
_cell_angle_beta 90.000000
_cell_angle_gamma 90.000000
_cell_volume 2344.541297
_symmetry_space_group_name_H-M "P B A M"
_symmetry_group_IT_number 55
_symmetry_cell_setting 'orthorhombic'
loop_
_space_group_symop_operation_xyz
x,y,z
-x,-y,z
1/2+x,1/2-y,-z
1/2-x,1/2+y,-z
-x,-y,-z
x,y,-z
1/2-x,1/2+y,z
1/2+x,1/2-y,z
loop_
_atom_site_type_symbol
_atom_site_label
_atom_site_fract_x
_atom_site_fract_y
_atom_site_fract_z
Si Si1 0.367369 0.830165 0.309504
Si Si2 0.949056 0.843123 0.309194
Si Si3 0.627504 0.836816 0.690223
Si Si4 0.206040 0.842454 0.183971
Si Si5 0.217102 0.160494 0.313941
Si Si6 0.956129 0.172795 0.689613
O O1 0.369513 0.826953 0.500000
O O2 0.410661 0.756415 0.236536
O O3 0.326017 0.739544 0.248094
O O4 0.363907 0.997785 0.248083
O O5 0.946441 0.838963 0.500000
O O6 0.995831 0.781844 0.250251
O O7 0.943355 0.010426 0.245862
O O8 0.633506 0.823636 0.500000
O O9 0.659986 0.726036 0.774903
O O10 0.579185 0.791895 0.745389
O O11 0.242360 0.720755 0.216601
O O12 0.213968 0.985648 0.291903
O O13 0.207032 0.890510 0.000000
O O14 0.224300 0.195628 0.500000
O O15 0.957283 0.163857 0.500000
#
# Coordination Sequence:
#
# PCOD8225191 Si02
#       6
#     8   8   8   8   8   8
#     4   9  18  30  50  79 110 140 178 225 275 327
#     4   8  13  24  41  71 110 143 175 222 278 327
#     4  10  19  33  53  80 110 146 187 226 270 329
#     4  12  25  40  58  83 112 144 181 229 281 331
#     4  11  22  39  61  83 108 144 185 228 275 333
#     4   8  14  24  44  72 107 145 181 222 273 327
#
# _framework density 20.473087
#
# number of rings (size 3 to 8) (size 9 to 14) (size 15 to 20)
#    0.000    2.333    0.000    5.000    0.000    4.667 
#    0.000    4.167    0.000    0.000    0.000   12.833 
#    0.000    0.000    0.000    0.000    0.000    0.000 
#
# Total GULP energy -595155.373514 kJ/mol
# GULP energy per Si atom -12399.070282 kJ/mol
# Density = 2.042649 g / cm^3
# Si number density = 20.473087 Si / 1000 Ang^3
#
#
#
# Elastic Constant Matrix: (Units=GPa)
#
#
# Indices 1 2 3 4 5 6 
#
# 1 117.3230 31.5545 15.4164 0.0000 0.0000 0.0000
# 2 31.5545 94.8356 4.9088 0.0000 0.0000 0.0000
# 3 15.4164 4.9088 33.3494 0.0000 0.0000 0.0000
# 4 0.0000 0.0000 0.0000 11.5255 0.0000 0.0000
# 5 0.0000 0.0000 0.0000 0.0000 4.1860 0.0000
# 6 0.0000 0.0000 0.0000 0.0000 0.0000 44.7098
#
#
#
# Elastic Compliance Matrix: (Units=1/GPa)
#
#
# Indices 1 2 3 4 5 6 
#
# 1 0.009893 -0.003078 -0.004120 0.000000 0.000000 0.000000
# 2 -0.003078 0.011583 -0.000282 0.000000 0.000000 0.000000
# 3 -0.004120 -0.000282 0.031932 0.000000 0.000000 0.000000
# 4 0.000000 0.000000 0.000000 0.086764 0.000000 0.000000
# 5 0.000000 0.000000 0.000000 0.000000 0.238894 0.000000
# 6 0.000000 0.000000 0.000000 0.000000 0.000000 0.022366
#
#
# Mechanical properties :
#
#
# Convention : Reuss Voigt Hill
#
# Bulk Modulus (GPa) = 26.00974 38.80749 32.40862
# Shear Modulus (GPa) = 11.64934 24.99281 18.32107
#
# Velocity S-wave (km/s) = 2.38798 3.49773 2.99471
# Velocity P-wave (km/s) = 4.50945 5.94211 5.27465
#
# Compressibility (1/GPa) = 0.03844713
#
# Stress axis : x y z
#
# Youngs Moduli (GPa) = 101.08372 86.33037 31.31691
#
# Poissons Ratio (x) = 0.26576 0.12903
# Poissons Ratio (y) = 0.31117 0.00883
# Poissons Ratio (z) = 0.41647 0.02434
#
# Static dielectric constant tensor:
#      x y z
#    x 4.119340 0.000000 0.000000 
#    y 0.000000 3.767050 0.000000 
#    z 0.000000 0.000000 3.115660 
# 
# 
# High freq. dielectric constant tensor:
#      x y z
#    x 1.820210 0.000000 0.000000 
#    y 0.000000 1.802340 0.000000 
#    z 0.000000 0.000000 1.742440 
# 
# From -- ./inp_files/2904.got.cif
#   From: 2010.03.12/outbox.cif.g09.slc.cpg/sg55_2_cif.got.tgz:2904.got - 2010.04.16 15:19:21.
