data_PCOD8225292
_publ_section_title
;
Structure prediction by ZEFSAII (Michael W. Deem and Ramdas Pophale) SiO2 
 PCOD8225292
Probable space group: P B A M
;
_chemical_formula_sum "Si O2"
_cell_formula_units_Z 64
_cell_length_a 16.021115
_cell_length_b 22.661090
_cell_length_c 9.271233
_cell_angle_alpha 90.000000
_cell_angle_beta 90.000000
_cell_angle_gamma 90.000000
_cell_volume 3365.976109
_symmetry_space_group_name_H-M "P B A M"
_symmetry_group_IT_number 55
_symmetry_cell_setting 'orthorhombic'
loop_
_space_group_symop_operation_xyz
x,y,z
-x,-y,z
1/2+x,1/2-y,-z
1/2-x,1/2+y,-z
-x,-y,-z
x,y,-z
1/2-x,1/2+y,z
1/2+x,1/2-y,z
loop_
_atom_site_type_symbol
_atom_site_label
_atom_site_fract_x
_atom_site_fract_y
_atom_site_fract_z
Si Si1 0.457337 0.722330 0.154434
Si Si2 0.318645 0.251242 0.336450
Si Si3 0.878702 0.149241 0.159624
Si Si4 0.087262 0.967437 0.669766
Si Si5 0.555183 0.830154 0.170849
Si Si6 0.243491 0.045829 0.329645
Si Si7 0.174660 0.166425 0.340050
Si Si8 0.068493 0.549527 0.330515
O O1 0.549066 0.696453 0.139392
O O2 0.471199 0.790898 0.198937
O O3 0.411555 0.680326 0.264593
O O4 0.410491 0.719510 0.000000
O O5 0.353575 0.258705 0.500000
O O6 0.312283 0.315077 0.258119
O O7 0.368948 0.201026 0.252562
O O8 0.225058 0.227152 0.339813
O O9 0.912709 0.092294 0.240608
O O10 0.842735 0.133037 0.000000
O O11 0.092952 0.953977 0.500000
O O12 0.169427 0.002934 0.725111
O O13 0.000000 0.000000 0.705941
O O14 0.540241 0.894015 0.239233
O O15 0.574261 0.835173 0.000000
O O16 0.242065 0.045937 0.500000
O O17 0.223727 0.111459 0.267914
O O18 0.337951 0.028287 0.280558
O O19 0.150047 0.146181 0.500000
O O20 0.069109 0.565714 0.500000
O O21 0.000000 0.500000 0.295828
#
# Coordination Sequence:
#
# PCOD8225292 Si02
#       8
#     8   8   8   8   8   8   8   8
#     4   9  20  35  52  78 111 145 178 221 276 337
#     4  10  19  34  58  82 107 140 183 230 278 335
#     4  10  21  37  54  77 113 150 183 224 279 337
#     4  10  20  35  58  83 113 154 192 234 287 336
#     4  10  20  36  56  80 112 146 180 227 286 342
#     4   9  18  35  56  83 114 141 189 245 279 330
#     4  10  19  33  56  83 108 137 180 234 283 329
#     4  10  20  37  60  81 107 149 195 244 293 331
#
# _framework density 19.0138
#
# number of rings (size 3 to 8) (size 9 to 14) (size 15 to 20)
#    0.000    2.250    1.250    2.625    0.000    5.500 
#    2.250    1.250    0.000    0.000    0.000    0.000 
#    0.000    0.000    0.000    0.000    0.000    0.000 
#
# Total GULP energy -793015.926278 kJ/mol
# GULP energy per Si atom -12390.873848 kJ/mol
# Density = 1.897052 g / cm^3
# Si number density = 19.013800 Si / 1000 Ang^3
#
#
#
# Elastic Constant Matrix: (Units=GPa)
#
#
# Indices 1 2 3 4 5 6 
#
# 1 87.8130 35.1306 21.5713 0.0000 0.0000 0.0000
# 2 35.1306 112.0618 46.0494 0.0000 0.0000 0.0000
# 3 21.5713 46.0494 81.2317 0.0000 0.0000 0.0000
# 4 0.0000 0.0000 0.0000 26.2871 0.0000 0.0000
# 5 0.0000 0.0000 0.0000 0.0000 6.0148 0.0000
# 6 0.0000 0.0000 0.0000 0.0000 0.0000 26.2139
#
#
#
# Elastic Compliance Matrix: (Units=1/GPa)
#
#
# Indices 1 2 3 4 5 6 
#
# 1 0.013161 -0.003507 -0.001507 0.000000 0.000000 0.000000
# 2 -0.003507 0.012568 -0.006193 0.000000 0.000000 0.000000
# 3 -0.001507 -0.006193 0.016222 0.000000 0.000000 0.000000
# 4 0.000000 0.000000 0.000000 0.038041 0.000000 0.000000
# 5 0.000000 0.000000 0.000000 0.000000 0.166257 0.000000
# 6 0.000000 0.000000 0.000000 0.000000 0.000000 0.038148
#
#
# Mechanical properties :
#
#
# Convention : Reuss Voigt Hill
#
# Bulk Modulus (GPa) = 51.18666 54.06768 52.62717
# Shear Modulus (GPa) = 15.95795 23.59351 19.77573
#
# Velocity S-wave (km/s) = 2.90018 3.52641 3.22851
# Velocity P-wave (km/s) = 6.18013 6.71405 6.45261
#
# Compressibility (1/GPa) = 0.01953634
#
# Stress axis : x y z
#
# Youngs Moduli (GPa) = 75.98271 79.56712 61.64586
#
# Poissons Ratio (x) = 0.27901 0.09291
# Poissons Ratio (y) = 0.26644 0.38180
# Poissons Ratio (z) = 0.11451 0.49280
#
# Static dielectric constant tensor:
#      x y z
#    x 3.419750 0.000000 0.000000 
#    y 0.000000 3.528910 0.000000 
#    z 0.000000 0.000000 3.576640 
# 
# 
# High freq. dielectric constant tensor:
#      x y z
#    x 1.723310 0.000000 0.000000 
#    y 0.000000 1.740930 0.000000 
#    z 0.000000 0.000000 1.730910 
# 
# From -- ./inp_files/6602.got.cif
#   From: 2010.03.12/outbox.cif.g09.slc.cpg/sg55_4_cif.got.tgz:6602.got - 2010.04.16 15:19:21.
