data_PCOD8225469
_publ_section_title
;
Structure prediction by ZEFSAII (Michael W. Deem and Ramdas Pophale) SiO2 
 PCOD8225469
Probable space group: P B A M
;
_chemical_formula_sum "Si O2"
_cell_formula_units_Z 40
_cell_length_a 13.102380
_cell_length_b 15.624737
_cell_length_c 9.509312
_cell_angle_alpha 90.000000
_cell_angle_beta 90.000000
_cell_angle_gamma 90.000000
_cell_volume 1946.758159
_symmetry_space_group_name_H-M "P B A M"
_symmetry_group_IT_number 55
_symmetry_cell_setting 'orthorhombic'
loop_
_space_group_symop_operation_xyz
x,y,z
-x,-y,z
1/2+x,1/2-y,-z
1/2-x,1/2+y,-z
-x,-y,-z
x,y,-z
1/2-x,1/2+y,z
1/2+x,1/2-y,z
loop_
_atom_site_type_symbol
_atom_site_label
_atom_site_fract_x
_atom_site_fract_y
_atom_site_fract_z
Si Si1 0.605330 0.863849 0.000000
Si Si2 0.895069 0.754260 0.763326
Si Si3 0.132484 0.370495 0.000000
Si Si4 0.740796 0.409010 0.765924
Si Si5 0.533908 0.146914 0.500000
Si Si6 0.341989 0.026179 0.500000
Si Si7 0.676404 0.518643 0.000000
Si Si8 0.960776 0.183392 0.000000
O O1 0.487605 0.895226 0.000000
O O2 0.657671 0.895427 0.857796
O O3 0.618580 0.761355 0.000000
O O4 0.808417 0.820234 0.710843
O O5 0.951816 0.707642 0.634926
O O6 0.841086 0.683059 0.860228
O O7 0.973525 0.808310 0.858051
O O8 0.204150 0.452943 0.000000
O O9 0.770156 0.467256 0.634906
O O10 0.658886 0.460554 0.861823
O O11 0.421963 0.104895 0.500000
O O12 0.612483 0.068595 0.500000
O O13 0.596274 0.594096 0.000000
#
# Coordination Sequence:
#
# PCOD8225469 Si02
#       8
#     4   8   4   8   4   4   4   4
#     4   9  19  35  57  85 114 151 193 236 288 345
#     4  10  21  38  59  82 115 157 193 232 282 344
#     4  10  19  34  57  85 114 148 194 241 287 334
#     4  11  22  36  57  85 118 153 189 233 286 344
#     4  11  23  40  60  83 115 153 191 239 292 337
#     4  11  23  38  58  87 117 147 191 241 290 338
#     4  11  22  36  60  89 116 150 190 242 291 336
#     4  10  20  38  62  85 112 150 197 239 282 338
#
# _framework density 20.546979
#
# number of rings (size 3 to 8) (size 9 to 14) (size 15 to 20)
#    0.000    1.800    0.000    7.800    0.000    4.800 
#    0.000    3.000    0.000    3.600    0.000    0.000 
#    0.000    0.000    0.000    0.000    0.000    0.000 
#
# Total GULP energy -495910.526845 kJ/mol
# GULP energy per Si atom -12397.763171 kJ/mol
# Density = 2.050021 g / cm^3
# Si number density = 20.546979 Si / 1000 Ang^3
#
#
#
# Elastic Constant Matrix: (Units=GPa)
#
#
# Indices 1 2 3 4 5 6 
#
# 1 56.8259 37.6001 29.1563 0.0000 0.0000 0.0000
# 2 37.6001 102.2722 42.9108 0.0000 0.0000 0.0000
# 3 29.1563 42.9108 137.6490 0.0000 0.0000 0.0000
# 4 0.0000 0.0000 0.0000 20.6884 0.0000 0.0000
# 5 0.0000 0.0000 0.0000 0.0000 -0.7904 0.0000
# 6 0.0000 0.0000 0.0000 0.0000 0.0000 36.3291
#
#
#
# Elastic Compliance Matrix: (Units=1/GPa)
#
#
# Indices 1 2 3 4 5 6 
#
# 1 0.024093 -0.007727 -0.002694 0.000000 0.000000 0.000000
# 2 -0.007727 0.013728 -0.002643 0.000000 0.000000 0.000000
# 3 -0.002694 -0.002643 0.008659 0.000000 0.000000 0.000000
# 4 0.000000 0.000000 0.000000 0.048336 0.000000 0.000000
# 5 0.000000 0.000000 0.000000 0.000000 -1.265206 0.000000
# 6 0.000000 0.000000 0.000000 0.000000 0.000000 0.027526
#
#
# Mechanical properties :
#
#
# Convention : Reuss Voigt Hill
#
# Bulk Modulus (GPa) = 49.13690 57.34239 53.23965
# Shear Modulus (GPa) = -4.50470 23.71741 9.60636
#
# Velocity S-wave (km/s) = -1.48228 3.40119 2.16459
# Velocity P-wave (km/s) = 4.58659 6.58731 5.67580
#
# Compressibility (1/GPa) = 0.02035130
#
# Stress axis : x y z
#
# Youngs Moduli (GPa) = 41.50590 72.84630 115.48138
#
# Poissons Ratio (x) = 0.56290 0.31115
# Poissons Ratio (y) = 0.32073 0.30518
# Poissons Ratio (z) = 0.11183 0.19251
#
# Static dielectric constant tensor:
#      x y z
#    x 3.512940 0.000000 0.000000 
#    y 0.000000 3.813900 0.000000 
#    z 0.000000 0.000000 3.759520 
# 
# 
# High freq. dielectric constant tensor:
#      x y z
#    x 1.788310 0.000000 0.000000 
#    y 0.000000 1.816900 0.000000 
#    z 0.000000 0.000000 1.801250 
# 
# From -- ./inp_files/5261.got.cif
#   From: 2010.03.12/outbox.cif.g09.slc.cpg/sg55_3_cif.got.tgz:5261.got - 2010.04.16 15:19:21.
