data_PCOD8225489
_publ_section_title
;
Structure prediction by ZEFSAII (Michael W. Deem and Ramdas Pophale) SiO2 
 PCOD8225489
Probable space group: P B A M
;
_chemical_formula_sum "Si O2"
_cell_formula_units_Z 64
_cell_length_a 18.367564
_cell_length_b 19.720885
_cell_length_c 8.992501
_cell_angle_alpha 90.000000
_cell_angle_beta 90.000000
_cell_angle_gamma 90.000000
_cell_volume 3257.305234
_symmetry_space_group_name_H-M "P B A M"
_symmetry_group_IT_number 55
_symmetry_cell_setting 'orthorhombic'
loop_
_space_group_symop_operation_xyz
x,y,z
-x,-y,z
1/2+x,1/2-y,-z
1/2-x,1/2+y,-z
-x,-y,-z
x,y,-z
1/2-x,1/2+y,z
1/2+x,1/2-y,z
loop_
_atom_site_type_symbol
_atom_site_label
_atom_site_fract_x
_atom_site_fract_y
_atom_site_fract_z
Si Si1 0.261017 0.626548 0.175668
Si Si2 0.395959 0.182121 0.175547
Si Si3 0.946997 0.061482 0.825336
Si Si4 0.832346 0.630854 0.823170
Si Si5 0.013496 0.425271 0.823261
Si Si6 0.476875 0.298868 0.326608
Si Si7 0.358870 0.732427 0.326452
Si Si8 0.286502 0.475042 0.823750
O O1 0.184918 0.660521 0.221273
O O2 0.326573 0.664144 0.257354
O O3 0.261641 0.549003 0.232410
O O4 0.274403 0.630576 0.000000
O O5 0.450730 0.124538 0.235864
O O6 0.414322 0.253454 0.251751
O O7 0.403864 0.191530 0.000000
O O8 0.976285 0.126665 0.741054
O O9 0.866897 0.042511 0.765651
O O10 0.946438 0.077106 0.000000
O O11 0.000000 0.000000 0.785795
O O12 0.908737 0.600736 0.766977
O O13 0.819868 0.704025 0.751172
O O14 0.769424 0.581204 0.763078
O O15 0.830058 0.638973 0.000000
O O16 0.000000 0.500000 0.756540
O O17 0.011472 0.428365 0.000000
O O18 0.460661 0.303839 0.500000
O O19 0.555138 0.265482 0.293494
O O20 0.341793 0.734079 0.500000
O O21 0.284758 0.474644 0.000000
#
# Coordination Sequence:
#
# PCOD8225489 Si02
#       8
#     8   8   8   8   8   8   8   8
#     4  10  21  38  62  88 116 149 189 240 296 350
#     4  10  20  35  58  89 118 149 191 237 285 347
#     4  10  21  38  62  88 117 152 195 251 303 348
#     4  10  19  34  58  85 115 151 189 237 290 340
#     4   9  16  29  54  86 115 143 180 229 283 335
#     4  11  24  40  58  82 118 159 198 243 288 343
#     4  11  24  40  57  81 117 158 200 240 284 345
#     4   9  19  36  59  90 118 144 190 245 296 350
#
# _framework density 19.648143000000001
#
# number of rings (size 3 to 8) (size 9 to 14) (size 15 to 20)
#    0.000    2.000    1.250    2.250    1.750    6.250 
#    0.000    1.250    0.000    3.000    0.000    0.000 
#    0.000    0.000    0.000    0.000    0.000    0.000 
#
# Total GULP energy -793860.245538 kJ/mol
# GULP energy per Si atom -12404.066337 kJ/mol
# Density = 1.960342 g / cm^3
# Si number density = 19.648143 Si / 1000 Ang^3
#
#
#
# Elastic Constant Matrix: (Units=GPa)
#
#
# Indices 1 2 3 4 5 6 
#
# 1 90.6679 36.7327 32.4758 0.0000 0.0000 0.0000
# 2 36.7327 140.5292 41.0460 0.0000 0.0000 0.0000
# 3 32.4758 41.0460 44.8961 0.0000 0.0000 0.0000
# 4 0.0000 0.0000 0.0000 0.1620 0.0000 0.0000
# 5 0.0000 0.0000 0.0000 0.0000 18.2940 0.0000
# 6 0.0000 0.0000 0.0000 0.0000 0.0000 41.6490
#
#
#
# Elastic Compliance Matrix: (Units=1/GPa)
#
#
# Indices 1 2 3 4 5 6 
#
# 1 0.014994 -0.001025 -0.009909 0.000000 0.000000 0.000000
# 2 -0.001025 0.009779 -0.008199 0.000000 0.000000 0.000000
# 3 -0.009909 -0.008199 0.036937 0.000000 0.000000 0.000000
# 4 0.000000 0.000000 0.000000 6.174578 0.000000 0.000000
# 5 0.000000 0.000000 0.000000 0.000000 0.054663 0.000000
# 6 0.000000 0.000000 0.000000 0.000000 0.000000 0.024010
#
#
# Mechanical properties :
#
#
# Convention : Reuss Voigt Hill
#
# Bulk Modulus (GPa) = 42.65405 55.17802 48.91603
# Shear Modulus (GPa) = 0.78604 23.07690 11.93147
#
# Velocity S-wave (km/s) = 0.63319 3.43083 2.46693
# Velocity P-wave (km/s) = 4.72130 6.62104 5.75016
#
# Compressibility (1/GPa) = 0.02344443
#
# Stress axis : x y z
#
# Youngs Moduli (GPa) = 66.69497 102.26484 27.07347
#
# Poissons Ratio (x) = 0.10483 0.26826
# Poissons Ratio (y) = 0.06837 0.22196
# Poissons Ratio (z) = 0.66085 0.83842
#
# Static dielectric constant tensor:
#      x y z
#    x 3.726200 0.000000 0.000000 
#    y 0.000000 3.699160 0.000000 
#    z 0.000000 0.000000 3.167420 
# 
# 
# High freq. dielectric constant tensor:
#      x y z
#    x 1.776880 0.000000 0.000000 
#    y 0.000000 1.782580 0.000000 
#    z 0.000000 0.000000 1.725740 
# 
# From -- ./inp_files/8041.got.cif
#   From: 2010.03.12/outbox.cif.g09.slc.cpg/sg55_5_cif.got.tgz:8041.got - 2010.04.16 15:19:21.
