data_PCOD8225009
_publ_section_title
;
Structure prediction by ZEFSAII (Michael W. Deem and Ramdas Pophale) SiO2 
 PCOD8225009
Probable space group: P B A M
;
_chemical_formula_sum "Si O2"
_cell_formula_units_Z 64
_cell_length_a 18.848140
_cell_length_b 19.891232
_cell_length_c 9.075866
_cell_angle_alpha 90.000000
_cell_angle_beta 90.000000
_cell_angle_gamma 90.000000
_cell_volume 3402.657658
_symmetry_space_group_name_H-M "P B A M"
_symmetry_group_IT_number 55
_symmetry_cell_setting 'orthorhombic'
loop_
_space_group_symop_operation_xyz
x,y,z
-x,-y,z
1/2+x,1/2-y,-z
1/2-x,1/2+y,-z
-x,-y,-z
x,y,-z
1/2-x,1/2+y,z
1/2+x,1/2-y,z
loop_
_atom_site_type_symbol
_atom_site_label
_atom_site_fract_x
_atom_site_fract_y
_atom_site_fract_z
Si Si1 0.241219 0.627549 0.175654
Si Si2 0.413671 0.168789 0.173675
Si Si3 0.942529 0.053488 0.824102
Si Si4 0.835500 0.615615 0.826035
Si Si5 0.025603 0.424536 0.667430
Si Si6 0.489312 0.302477 0.173832
Si Si7 0.355558 0.733146 0.175086
Si Si8 0.287726 0.482446 0.825441
O O1 0.164414 0.651085 0.233713
O O2 0.299963 0.679012 0.238435
O O3 0.258591 0.553257 0.237426
O O4 0.241821 0.628469 0.000000
O O5 0.470338 0.121983 0.250074
O O6 0.431249 0.246016 0.213997
O O7 0.419741 0.156390 0.000000
O O8 0.865752 0.032418 0.760892
O O9 0.963197 0.126636 0.760046
O O10 0.940724 0.055104 0.000000
O O11 0.000000 0.000000 0.766788
O O12 0.899073 0.578005 0.746337
O O13 0.831055 0.692883 0.774001
O O14 0.763372 0.578454 0.777856
O O15 0.848496 0.610140 0.000000
O O16 0.032952 0.399649 0.500000
O O17 0.000000 0.500000 0.676399
O O18 0.566320 0.282758 0.239859
O O19 0.497432 0.309469 0.000000
O O20 0.357086 0.729441 0.000000
O O21 0.291985 0.487895 0.000000
#
# Coordination Sequence:
#
# PCOD8225009 Si02
#       8
#     8   8   8   8   8   8   8   8
#     4   9  17  27  43  68 100 132 164 204 251 297
#     4  10  19  32  51  77 103 133 170 209 250 302
#     4   9  16  25  40  65 105 143 167 203 256 308
#     4  10  19  32  51  76 103 134 169 209 252 301
#     4  11  23  37  53  73 100 134 169 208 257 310
#     4   9  16  26  42  67  97 132 171 203 244 300
#     4   9  16  27  44  68  99 132 164 204 251 294
#     4   9  17  27  41  67 101 136 170 204 249 301
#
# _framework density 18.808827999999998
#
# number of rings (size 3 to 8) (size 9 to 14) (size 15 to 20)
#    0.000    2.500    1.250    1.875    1.750    5.000 
#    0.000    0.000    0.000    0.750    0.000    0.000 
#    0.000    1.000    0.000    0.000    0.000    0.000 
#
# Total GULP energy -793542.741777 kJ/mol
# GULP energy per Si atom -12399.105340 kJ/mol
# Density = 1.876602 g / cm^3
# Si number density = 18.808828 Si / 1000 Ang^3
#
#
#
# Elastic Constant Matrix: (Units=GPa)
#
#
# Indices 1 2 3 4 5 6 
#
# 1 186.2542 96.8626 19.8363 0.0000 0.0000 0.0000
# 2 96.8626 168.0955 18.8504 0.0000 0.0000 0.0000
# 3 19.8363 18.8504 18.1268 0.0000 0.0000 0.0000
# 4 0.0000 0.0000 0.0000 4.5148 0.0000 0.0000
# 5 0.0000 0.0000 0.0000 0.0000 -3.0211 0.0000
# 6 0.0000 0.0000 0.0000 0.0000 0.0000 38.8025
#
#
#
# Elastic Compliance Matrix: (Units=1/GPa)
#
#
# Indices 1 2 3 4 5 6 
#
# 1 0.007974 -0.004094 -0.004469 0.000000 0.000000 0.000000
# 2 -0.004094 0.008836 -0.004709 0.000000 0.000000 0.000000
# 3 -0.004469 -0.004709 0.064954 0.000000 0.000000 0.000000
# 4 0.000000 0.000000 0.000000 0.221492 0.000000 0.000000
# 5 0.000000 0.000000 0.000000 0.000000 -0.331001 0.000000
# 6 0.000000 0.000000 0.000000 0.000000 0.000000 0.025772
#
#
# Mechanical properties :
#
#
# Convention : Reuss Voigt Hill
#
# Bulk Modulus (GPa) = 18.10898 71.50833 44.80866
# Shear Modulus (GPa) = 116.34282 23.85438 70.09860
#
# Velocity S-wave (km/s) = 7.87335 3.56512 6.11146
# Velocity P-wave (km/s) = 9.60738 7.41942 8.58340
#
# Compressibility (1/GPa) = 0.05522123
#
# Stress axis : x y z
#
# Youngs Moduli (GPa) = 125.40926 113.17332 15.39546
#
# Poissons Ratio (x) = 0.46330 0.06880
# Poissons Ratio (y) = 0.51339 0.07250
# Poissons Ratio (z) = 0.56043 0.53293
#
# Static dielectric constant tensor:
#      x y z
#    x 4.035650 0.000000 0.000000 
#    y 0.000000 3.638740 0.000000 
#    z 0.000000 0.000000 2.771780 
# 
# 
# High freq. dielectric constant tensor:
#      x y z
#    x 1.746710 0.000000 0.000000 
#    y 0.000000 1.749970 0.000000 
#    z 0.000000 0.000000 1.648140 
# 
# From -- ./inp_files/8044.got.cif
#   From: 2010.03.12/outbox.cif.g09.slc.cpg/sg55_5_cif.got.tgz:8044.got - 2010.04.16 15:19:21.
