data_PCOD8225632
_publ_section_title
;
Structure prediction by ZEFSAII (Michael W. Deem and Ramdas Pophale) SiO2 
 PCOD8225632
Probable space group: P B A M
;
_chemical_formula_sum "Si O2"
_cell_formula_units_Z 64
_cell_length_a 28.577313
_cell_length_b 12.777041
_cell_length_c 8.574308
_cell_angle_alpha 90.000000
_cell_angle_beta 90.000000
_cell_angle_gamma 90.000000
_cell_volume 3130.767089
_symmetry_space_group_name_H-M "P B A M"
_symmetry_group_IT_number 55
_symmetry_cell_setting 'orthorhombic'
loop_
_space_group_symop_operation_xyz
x,y,z
-x,-y,z
1/2+x,1/2-y,-z
1/2-x,1/2+y,-z
-x,-y,-z
x,y,-z
1/2-x,1/2+y,z
1/2+x,1/2-y,z
loop_
_atom_site_type_symbol
_atom_site_label
_atom_site_fract_x
_atom_site_fract_y
_atom_site_fract_z
Si Si1 0.169214 0.653666 0.177297
Si Si2 0.201317 0.456879 0.681020
Si Si3 0.965970 0.195506 0.315795
Si Si4 0.206401 0.881653 0.178733
Si Si5 0.385885 0.464533 0.682498
Si Si6 0.075878 0.590286 0.679398
Si Si7 0.935733 0.837875 0.817645
Si Si8 0.105658 0.384199 0.817650
O O1 0.206162 0.562937 0.218098
O O2 0.193426 0.762422 0.205717
O O3 0.126813 0.640231 0.297201
O O4 0.151060 0.641216 0.000000
O O5 0.197695 0.483545 0.500000
O O6 0.248202 0.393429 0.714540
O O7 0.155054 0.392441 0.729444
O O8 0.973972 0.182601 0.500000
O O9 0.920993 0.127780 0.262222
O O10 0.960129 0.318229 0.269219
O O11 0.009885 0.149510 0.223809
O O12 0.163451 0.954642 0.229992
O O13 0.218580 0.906539 0.000000
O O14 0.376527 0.456327 0.500000
O O15 0.406602 0.577493 0.722074
O O16 0.068391 0.561241 0.500000
O O17 0.071292 0.482229 0.776139
O O18 0.918897 0.722849 0.765120
O O19 0.928222 0.857283 0.000000
O O20 0.115869 0.385371 0.000000
#
# Coordination Sequence:
#
# PCOD8225632 Si02
#       8
#     8   8   8   8   8   8   8   8
#     4  10  20  36  59  85 116 153 191 241 298 352
#     4  11  23  38  61  89 118 155 198 245 299 359
#     4  10  22  39  61  90 122 158 199 251 307 359
#     4  11  23  39  62  90 119 155 198 244 297 358
#     4  11  23  41  63  88 122 158 200 252 303 359
#     4  10  19  35  61  89 118 152 197 247 295 355
#     4  11  25  41  60  87 123 165 206 251 302 362
#     4  10  22  41  60  84 121 160 200 250 305 358
#
# _framework density 20.442274999999999
#
# number of rings (size 3 to 8) (size 9 to 14) (size 15 to 20)
#    0.000    1.500    1.250    5.250    0.000    8.500 
#    0.000    3.750    0.000    0.000    0.000    0.000 
#    0.000    0.000    0.000    0.000    0.000    0.000 
#
# Total GULP energy -793736.035638 kJ/mol
# GULP energy per Si atom -12402.125557 kJ/mol
# Density = 2.039575 g / cm^3
# Si number density = 20.442275 Si / 1000 Ang^3
#
#
#
# Elastic Constant Matrix: (Units=GPa)
#
#
# Indices 1 2 3 4 5 6 
#
# 1 43.5308 13.7553 6.6460 0.0000 0.0000 0.0000
# 2 13.7553 96.3729 22.8730 0.0000 0.0000 0.0000
# 3 6.6460 22.8730 41.6052 0.0000 0.0000 0.0000
# 4 0.0000 0.0000 0.0000 31.2497 0.0000 0.0000
# 5 0.0000 0.0000 0.0000 0.0000 33.0980 0.0000
# 6 0.0000 0.0000 0.0000 0.0000 0.0000 23.9385
#
#
#
# Elastic Compliance Matrix: (Units=1/GPa)
#
#
# Indices 1 2 3 4 5 6 
#
# 1 0.024242 -0.002922 -0.002266 0.000000 0.000000 0.000000
# 2 -0.002922 0.012286 -0.006287 0.000000 0.000000 0.000000
# 3 -0.002266 -0.006287 0.027854 0.000000 0.000000 0.000000
# 4 0.000000 0.000000 0.000000 0.032000 0.000000 0.000000
# 5 0.000000 0.000000 0.000000 0.000000 0.030213 0.000000
# 6 0.000000 0.000000 0.000000 0.000000 0.000000 0.041774
#
#
# Mechanical properties :
#
#
# Convention : Reuss Voigt Hill
#
# Bulk Modulus (GPa) = 24.13691 29.78417 26.96054
# Shear Modulus (GPa) = 24.37481 26.87286 25.62383
#
# Velocity S-wave (km/s) = 3.45682 3.62964 3.54428
# Velocity P-wave (km/s) = 5.26933 5.67161 5.47417
#
# Compressibility (1/GPa) = 0.04143032
#
# Stress axis : x y z
#
# Youngs Moduli (GPa) = 41.25149 81.39544 35.90146
#
# Poissons Ratio (x) = 0.23786 0.08135
# Poissons Ratio (y) = 0.12055 0.22573
# Poissons Ratio (z) = 0.09347 0.51177
#
# Static dielectric constant tensor:
#      x y z
#    x 3.594370 0.000000 0.000000 
#    y 0.000000 3.915240 0.000000 
#    z 0.000000 0.000000 3.720810 
# 
# 
# High freq. dielectric constant tensor:
#      x y z
#    x 1.790960 0.000000 0.000000 
#    y 0.000000 1.809340 0.000000 
#    z 0.000000 0.000000 1.805010 
# 
# From -- ./inp_files/10861.got.cif
#   From: 2010.03.12/outbox.cif.g09.slc.cpg/sg55_6_cif.got.tgz:10861.got - 2010.04.16 15:19:21.
