data_PCOD8225037
_publ_section_title
;
Structure prediction by ZEFSAII (Michael W. Deem and Ramdas Pophale) SiO2 
 PCOD8225037
Probable space group: P B A M
;
_chemical_formula_sum "Si O2"
_cell_formula_units_Z 48
_cell_length_a 16.626986
_cell_length_b 12.475825
_cell_length_c 12.528076
_cell_angle_alpha 90.000000
_cell_angle_beta 90.000000
_cell_angle_gamma 90.000000
_cell_volume 2598.766051
_symmetry_space_group_name_H-M "P B A M"
_symmetry_group_IT_number 55
_symmetry_cell_setting 'orthorhombic'
loop_
_space_group_symop_operation_xyz
x,y,z
-x,-y,z
1/2+x,1/2-y,-z
1/2-x,1/2+y,-z
-x,-y,-z
x,y,-z
1/2-x,1/2+y,z
1/2+x,1/2-y,z
loop_
_atom_site_type_symbol
_atom_site_label
_atom_site_fract_x
_atom_site_fract_y
_atom_site_fract_z
Si Si1 0.538302 0.390449 0.243459
Si Si2 0.589210 0.020150 0.625727
Si Si3 0.703676 0.863821 0.260932
Si Si4 0.178167 0.016798 0.881526
Si Si5 0.895661 0.209564 0.121337
Si Si6 0.153748 0.251071 0.373474
O O1 0.500000 0.500000 0.290533
O O2 0.596482 0.419915 0.145426
O O3 0.472441 0.310373 0.195908
O O4 0.585382 0.333728 0.339728
O O5 0.582801 0.027505 0.500000
O O6 0.645740 0.920425 0.654374
O O7 0.500000 0.000000 0.674381
O O8 0.626863 0.131739 0.668324
O O9 0.754252 0.956715 0.204302
O O10 0.652019 0.809021 0.168861
O O11 0.760587 0.778480 0.321011
O O12 0.164177 0.890613 0.876777
O O13 0.204853 0.052380 0.000000
O O14 0.922561 0.235379 0.000000
O O15 0.163567 0.246686 0.500000
#
# Coordination Sequence:
#
# PCOD8225037 Si02
#       6
#     8   8   8   8   8   8
#     4   9  18  33  54  78 103 133 168 211 258 303
#     4  10  21  37  55  74 102 141 176 210 263 325
#     4  11  20  33  53  76 103 134 173 218 256 299
#     4   9  18  32  50  74 104 135 166 204 255 310
#     4  10  19  32  52  76 101 132 171 211 254 307
#     4  10  21  36  54  78 106 136 174 217 261 312
#
# _framework density 18.470303999999999
#
# number of rings (size 3 to 8) (size 9 to 14) (size 15 to 20)
#    0.000    2.167    0.000    3.500    0.000    2.333 
#    0.000    0.833    0.000   13.000    0.000    0.000 
#    0.000    0.000    0.000    0.000    0.000    0.000 
#
# Total GULP energy -595243.520795 kJ/mol
# GULP energy per Si atom -12400.906683 kJ/mol
# Density = 1.842826 g / cm^3
# Si number density = 18.470304 Si / 1000 Ang^3
#
#
#
# Elastic Constant Matrix: (Units=GPa)
#
#
# Indices 1 2 3 4 5 6 
#
# 1 98.6691 37.8349 12.6778 0.0000 0.0000 0.0000
# 2 37.8349 82.3237 16.9761 0.0000 0.0000 0.0000
# 3 12.6778 16.9761 44.7413 0.0000 0.0000 0.0000
# 4 0.0000 0.0000 0.0000 21.0177 0.0000 0.0000
# 5 0.0000 0.0000 0.0000 0.0000 22.3427 0.0000
# 6 0.0000 0.0000 0.0000 0.0000 0.0000 33.1668
#
#
#
# Elastic Compliance Matrix: (Units=1/GPa)
#
#
# Indices 1 2 3 4 5 6 
#
# 1 0.012391 -0.005393 -0.001465 0.000000 0.000000 0.000000
# 2 -0.005393 0.015525 -0.004363 0.000000 0.000000 0.000000
# 3 -0.001465 -0.004363 0.024421 0.000000 0.000000 0.000000
# 4 0.000000 0.000000 0.000000 0.047579 0.000000 0.000000
# 5 0.000000 0.000000 0.000000 0.000000 0.044757 0.000000
# 6 0.000000 0.000000 0.000000 0.000000 0.000000 0.030151
#
#
# Mechanical properties :
#
#
# Convention : Reuss Voigt Hill
#
# Bulk Modulus (GPa) = 33.44840 40.07907 36.76373
# Shear Modulus (GPa) = 24.12776 25.85513 24.99144
#
# Velocity S-wave (km/s) = 3.61820 3.74548 3.68239
# Velocity P-wave (km/s) = 5.96689 6.36012 6.16664
#
# Compressibility (1/GPa) = 0.02989680
#
# Stress axis : x y z
#
# Youngs Moduli (GPa) = 80.70421 64.41150 40.94818
#
# Poissons Ratio (x) = 0.34735 0.05999
# Poissons Ratio (y) = 0.43521 0.17864
# Poissons Ratio (z) = 0.11823 0.28100
#
# Static dielectric constant tensor:
#      x y z
#    x 3.496750 0.000000 0.000000 
#    y 0.000000 3.441250 0.000000 
#    z 0.000000 0.000000 3.223490 
# 
# 
# High freq. dielectric constant tensor:
#      x y z
#    x 1.722820 0.000000 0.000000 
#    y 0.000000 1.716260 0.000000 
#    z 0.000000 0.000000 1.708640 
# 
# From -- ./inp_files/13184.got.cif
#   From: 2010.03.12/outbox.cif.g09.slc.cpg/sg55_7_cif.got.tgz:13184.got - 2010.04.16 15:19:21.
