data_PCOD8225232
_publ_section_title
;
Structure prediction by ZEFSAII (Michael W. Deem and Ramdas Pophale) SiO2 
 PCOD8225232
Probable space group: P B A M
;
_chemical_formula_sum "Si O2"
_cell_formula_units_Z 48
_cell_length_a 21.646335
_cell_length_b 9.077311
_cell_length_c 12.645861
_cell_angle_alpha 90.000000
_cell_angle_beta 90.000000
_cell_angle_gamma 90.000000
_cell_volume 2484.791738
_symmetry_space_group_name_H-M "P B A M"
_symmetry_group_IT_number 55
_symmetry_cell_setting 'orthorhombic'
loop_
_space_group_symop_operation_xyz
x,y,z
-x,-y,z
1/2+x,1/2-y,-z
1/2-x,1/2+y,-z
-x,-y,-z
x,y,-z
1/2-x,1/2+y,z
1/2+x,1/2-y,z
loop_
_atom_site_type_symbol
_atom_site_label
_atom_site_fract_x
_atom_site_fract_y
_atom_site_fract_z
Si Si1 0.862421 0.632546 0.879195
Si Si2 0.962249 0.138916 0.119964
Si Si3 0.442197 0.086377 0.742390
Si Si4 0.346593 0.546830 0.116570
Si Si5 0.250776 0.421430 0.264254
Si Si6 0.322204 0.159459 0.622536
O O1 0.908763 0.520781 0.824628
O O2 0.886391 0.801686 0.869667
O O3 0.795320 0.635980 0.825268
O O4 0.855482 0.581129 0.000000
O O5 0.972274 0.278647 0.194091
O O6 0.890303 0.095212 0.122750
O O7 0.983598 0.176397 0.000000
O O8 0.000000 0.000000 0.165312
O O9 0.394157 0.142857 0.654579
O O10 0.500000 0.000000 0.688668
O O11 0.296181 0.537287 0.208319
O O12 0.314906 0.551128 0.000000
O O13 0.213531 0.506624 0.356005
O O14 0.290056 0.289318 0.312866
O O15 0.319282 0.198430 0.500000
#
# Coordination Sequence:
#
# PCOD8225232 Si02
#       6
#     8   8   8   8   8   8
#     4  10  21  35  57  88 124 158 192 231 283 357
#     4  10  20  34  56  85 119 158 195 231 282 353
#     4  11  23  39  60  86 119 162 200 247 295 354
#     4  10  19  33  54  84 119 153 188 231 284 352
#     4  11  20  39  59  86 116 151 192 241 303 358
#     4  11  24  41  64  86 111 152 203 260 307 348
#
# _framework density 19.317515
#
# number of rings (size 3 to 8) (size 9 to 14) (size 15 to 20)
#    0.000    1.500    3.333    2.500    0.000    3.000 
#    0.000    0.000    0.000    0.500    0.000    0.000 
#    0.000    0.000    0.000    0.000    0.000    0.000 
#
# Total GULP energy -595189.374047 kJ/mol
# GULP energy per Si atom -12399.778626 kJ/mol
# Density = 1.927355 g / cm^3
# Si number density = 19.317515 Si / 1000 Ang^3
#
#
#
# Elastic Constant Matrix: (Units=GPa)
#
#
# Indices 1 2 3 4 5 6 
#
# 1 85.6576 28.5373 28.7690 0.0000 0.0000 0.0000
# 2 28.5373 84.1596 17.8763 0.0000 0.0000 0.0000
# 3 28.7690 17.8763 78.5192 0.0000 0.0000 0.0000
# 4 0.0000 0.0000 0.0000 19.6644 0.0000 0.0000
# 5 0.0000 0.0000 0.0000 0.0000 17.4000 0.0000
# 6 0.0000 0.0000 0.0000 0.0000 0.0000 39.3041
#
#
#
# Elastic Compliance Matrix: (Units=1/GPa)
#
#
# Indices 1 2 3 4 5 6 
#
# 1 0.014476 -0.003974 -0.004399 0.000000 0.000000 0.000000
# 2 -0.003974 0.013577 -0.001635 0.000000 0.000000 0.000000
# 3 -0.004399 -0.001635 0.014720 0.000000 0.000000 0.000000
# 4 0.000000 0.000000 0.000000 0.050853 0.000000 0.000000
# 5 0.000000 0.000000 0.000000 0.000000 0.057471 0.000000
# 6 0.000000 0.000000 0.000000 0.000000 0.000000 0.025443
#
#
# Mechanical properties :
#
#
# Convention : Reuss Voigt Hill
#
# Bulk Modulus (GPa) = 43.94390 44.30019 44.12204
# Shear Modulus (GPa) = 24.49281 26.81730 25.65506
#
# Velocity S-wave (km/s) = 3.56463 3.72995 3.64823
# Velocity P-wave (km/s) = 6.30395 6.44457 6.37464
#
# Compressibility (1/GPa) = 0.02275629
#
# Stress axis : x y z
#
# Youngs Moduli (GPa) = 69.08046 73.65376 67.93588
#
# Poissons Ratio (x) = 0.29271 0.29886
# Poissons Ratio (y) = 0.27454 0.11107
# Poissons Ratio (z) = 0.30389 0.12042
#
# Static dielectric constant tensor:
#      x y z
#    x 3.578740 0.000000 0.000000 
#    y 0.000000 3.580480 0.000000 
#    z 0.000000 0.000000 3.230520 
# 
# 
# High freq. dielectric constant tensor:
#      x y z
#    x 1.756790 0.000000 0.000000 
#    y 0.000000 1.765560 0.000000 
#    z 0.000000 0.000000 1.722230 
# 
# From -- ./inp_files/12220.got.cif
#   From: 2010.03.12/outbox.cif.g09.slc.cpg/sg55_7_cif.got.tgz:12220.got - 2010.04.16 15:19:21.
