data_PCOD8225957
_publ_section_title
;
Structure prediction by ZEFSAII (Michael W. Deem and Ramdas Pophale) SiO2 
 PCOD8225957
Probable space group: P B A M
;
_chemical_formula_sum "Si O2"
_cell_formula_units_Z 64
_cell_length_a 33.669297
_cell_length_b 10.414307
_cell_length_c 9.016033
_cell_angle_alpha 90.000000
_cell_angle_beta 90.000000
_cell_angle_gamma 90.000000
_cell_volume 3161.403408
_symmetry_space_group_name_H-M "P B A M"
_symmetry_group_IT_number 55
_symmetry_cell_setting 'orthorhombic'
loop_
_space_group_symop_operation_xyz
x,y,z
-x,-y,z
1/2+x,1/2-y,-z
1/2-x,1/2+y,-z
-x,-y,-z
x,y,-z
1/2-x,1/2+y,z
1/2+x,1/2-y,z
loop_
_atom_site_type_symbol
_atom_site_label
_atom_site_fract_x
_atom_site_fract_y
_atom_site_fract_z
Si Si1 0.028879 0.701188 0.170787
Si Si2 0.725163 0.531700 0.324074
Si Si3 0.935269 0.020110 0.171287
Si Si4 0.896605 0.386908 0.671350
Si Si5 0.714425 0.245118 0.677383
Si Si6 0.361105 0.383575 0.673394
Si Si7 0.953261 0.771732 0.323760
Si Si8 0.870386 0.661735 0.673889
O O1 0.062802 0.608570 0.235287
O O2 0.987677 0.679905 0.258190
O O3 0.042785 0.846427 0.195580
O O4 0.022140 0.666870 0.000000
O O5 0.727371 0.534609 0.500000
O O6 0.758388 0.628880 0.259149
O O7 0.730885 0.384289 0.268434
O O8 0.682745 0.584055 0.270296
O O9 0.960164 0.914532 0.261240
O O10 0.890873 0.025971 0.236401
O O11 0.933668 0.980421 0.000000
O O12 0.909428 0.387182 0.500000
O O13 0.869312 0.265163 0.709543
O O14 0.870274 0.510489 0.711652
O O15 0.714208 0.240522 0.500000
O O16 0.669668 0.224971 0.740351
O O17 0.366655 0.414804 0.500000
O O18 0.956093 0.769028 0.500000
O O19 0.910523 0.724729 0.262011
O O20 0.870310 0.685541 0.500000
#
# Coordination Sequence:
#
# PCOD8225957 Si02
#       8
#     8   8   8   8   8   8   8   8
#     4  10  21  36  52  75 105 134 173 222 270 318
#     4   9  17  27  45  75 108 140 173 216 266 318
#     4  10  20  34  52  75 103 136 172 216 269 322
#     4   9  18  33  53  74 100 138 179 217 261 316
#     4   9  17  28  44  71 109 142 170 211 269 321
#     4   9  17  30  51  77 104 133 174 219 261 314
#     4  11  21  33  52  75 104 140 177 219 267 318
#     4   9  19  33  49  71 105 141 172 214 267 320
#
# _framework density 20.244174999999998
#
# number of rings (size 3 to 8) (size 9 to 14) (size 15 to 20)
#    0.000    2.500    0.000    2.250    1.750    5.500 
#    0.000    3.750    0.000    0.000    0.000    5.250 
#    0.000    0.000    0.000    0.000    0.000    0.000 
#
# Total GULP energy -793508.262395 kJ/mol
# GULP energy per Si atom -12398.566600 kJ/mol
# Density = 2.019810 g / cm^3
# Si number density = 20.244175 Si / 1000 Ang^3
#
#
#
# Elastic Constant Matrix: (Units=GPa)
#
#
# Indices 1 2 3 4 5 6 
#
# 1 142.8779 46.1675 27.7516 0.0000 0.0000 0.0000
# 2 46.1675 93.9993 13.9525 0.0000 0.0000 0.0000
# 3 27.7516 13.9525 47.4803 0.0000 0.0000 0.0000
# 4 0.0000 0.0000 0.0000 10.8132 0.0000 0.0000
# 5 0.0000 0.0000 0.0000 0.0000 6.9001 0.0000
# 6 0.0000 0.0000 0.0000 0.0000 0.0000 29.4274
#
#
#
# Elastic Compliance Matrix: (Units=1/GPa)
#
#
# Indices 1 2 3 4 5 6 
#
# 1 0.009043 -0.003824 -0.004162 0.000000 0.000000 0.000000
# 2 -0.003824 0.012740 -0.001509 0.000000 0.000000 0.000000
# 3 -0.004162 -0.001509 0.023937 0.000000 0.000000 0.000000
# 4 0.000000 0.000000 0.000000 0.092479 0.000000 0.000000
# 5 0.000000 0.000000 0.000000 0.000000 0.144926 0.000000
# 6 0.000000 0.000000 0.000000 0.000000 0.000000 0.033982
#
#
# Mechanical properties :
#
#
# Convention : Reuss Voigt Hill
#
# Bulk Modulus (GPa) = 37.40889 51.12230 44.26559
# Shear Modulus (GPa) = 14.49246 22.52721 18.50984
#
# Velocity S-wave (km/s) = 2.67850 3.33945 3.02707
# Velocity P-wave (km/s) = 5.29951 6.33852 5.84216
#
# Compressibility (1/GPa) = 0.02673162
#
# Stress axis : x y z
#
# Youngs Moduli (GPa) = 110.58453 78.49089 41.77581
#
# Poissons Ratio (x) = 0.30012 0.17386
# Poissons Ratio (y) = 0.42283 0.06304
# Poissons Ratio (z) = 0.46023 0.11844
#
# Static dielectric constant tensor:
#      x y z
#    x 3.915760 0.000000 0.000000 
#    y 0.000000 3.799530 0.000000 
#    z 0.000000 0.000000 3.211590 
# 
# 
# High freq. dielectric constant tensor:
#      x y z
#    x 1.798010 0.000000 0.000000 
#    y 0.000000 1.798250 0.000000 
#    z 0.000000 0.000000 1.736960 
# 
# From -- ./inp_files/10841.got.cif
#   From: 2010.03.12/outbox.cif.g09.slc.cpg/sg55_6_cif.got.tgz:10841.got - 2010.04.16 15:19:21.
