data_PCOD8225455
_publ_section_title
;
Structure prediction by ZEFSAII (Michael W. Deem and Ramdas Pophale) SiO2 
 PCOD8225455
Probable space group: P B A M
;
_chemical_formula_sum "Si O2"
_cell_formula_units_Z 64
_cell_length_a 31.936450
_cell_length_b 10.595088
_cell_length_c 9.488505
_cell_angle_alpha 90.000000
_cell_angle_beta 90.000000
_cell_angle_gamma 90.000000
_cell_volume 3210.620675
_symmetry_space_group_name_H-M "P B A M"
_symmetry_group_IT_number 55
_symmetry_cell_setting 'orthorhombic'
loop_
_space_group_symop_operation_xyz
x,y,z
-x,-y,z
1/2+x,1/2-y,-z
1/2-x,1/2+y,-z
-x,-y,-z
x,y,-z
1/2-x,1/2+y,z
1/2+x,1/2-y,z
loop_
_atom_site_type_symbol
_atom_site_label
_atom_site_fract_x
_atom_site_fract_y
_atom_site_fract_z
Si Si1 0.426502 0.934755 0.156609
Si Si2 0.487408 0.800032 0.664193
Si Si3 0.578166 0.410719 0.659742
Si Si4 0.133130 0.659794 0.839639
Si Si5 0.574941 0.697107 0.660750
Si Si6 0.211069 0.581204 0.661518
Si Si7 0.220937 0.294174 0.661716
Si Si8 0.140461 0.225856 0.165453
O O1 0.466706 0.920308 0.257886
O O2 0.388481 0.844584 0.201652
O O3 0.408111 0.073756 0.165142
O O4 0.441915 0.900849 0.000000
O O5 0.485436 0.828659 0.500000
O O6 0.460339 0.677215 0.706148
O O7 0.534980 0.777978 0.713658
O O8 0.592267 0.379798 0.500000
O O9 0.561647 0.552264 0.673212
O O10 0.618383 0.394056 0.761235
O O11 0.116842 0.781489 0.753912
O O12 0.171798 0.591856 0.765033
O O13 0.145784 0.693785 0.000000
O O14 0.586037 0.732918 0.500000
O O15 0.195668 0.589189 0.500000
O O16 0.232617 0.442916 0.687715
O O17 0.240787 0.700070 0.695636
O O18 0.206446 0.275501 0.500000
O O19 0.185182 0.251396 0.767377
O O20 0.146215 0.201150 0.000000
#
# Coordination Sequence:
#
# PCOD8225455 Si02
#       8
#     8   8   8   8   8   8   8   8
#     4   9  19  35  54  77 109 147 186 230 277 330
#     4   9  18  33  56  83 108 143 192 241 285 333
#     4   9  18  34  56  81 112 150 190 235 286 339
#     4  11  23  39  57  79 112 152 191 231 282 341
#     4  10  21  36  54  80 114 149 189 239 289 337
#     4  10  22  40  62  87 116 150 191 237 289 346
#     4  10  21  38  61  88 116 149 189 236 288 345
#     4  10  19  34  57  84 112 145 188 229 273 333
#
# _framework density 19.933841999999999
#
# number of rings (size 3 to 8) (size 9 to 14) (size 15 to 20)
#    0.000    2.250    1.250    1.125    0.000    6.000 
#    0.000    5.000    0.000    3.750    0.000    0.000 
#    0.000    0.000    0.000    0.000    0.000    0.000 
#
# Total GULP energy -793418.832736 kJ/mol
# GULP energy per Si atom -12397.169261 kJ/mol
# Density = 1.988847 g / cm^3
# Si number density = 19.933842 Si / 1000 Ang^3
#
#
#
# Elastic Constant Matrix: (Units=GPa)
#
#
# Indices 1 2 3 4 5 6 
#
# 1 79.9781 32.5646 55.6999 0.0000 0.0000 0.0000
# 2 32.5646 56.7346 24.8273 0.0000 0.0000 0.0000
# 3 55.6999 24.8273 96.9846 0.0000 0.0000 0.0000
# 4 0.0000 0.0000 0.0000 21.2588 0.0000 0.0000
# 5 0.0000 0.0000 0.0000 0.0000 16.5179 0.0000
# 6 0.0000 0.0000 0.0000 0.0000 0.0000 29.2316
#
#
#
# Elastic Compliance Matrix: (Units=1/GPa)
#
#
# Indices 1 2 3 4 5 6 
#
# 1 0.024191 -0.008790 -0.011643 0.000000 0.000000 0.000000
# 2 -0.008790 0.023044 -0.000851 0.000000 0.000000 0.000000
# 3 -0.011643 -0.000851 0.017216 0.000000 0.000000 0.000000
# 4 0.000000 0.000000 0.000000 0.047039 0.000000 0.000000
# 5 0.000000 0.000000 0.000000 0.000000 0.060540 0.000000
# 6 0.000000 0.000000 0.000000 0.000000 0.000000 0.034210
#
#
# Mechanical properties :
#
#
# Convention : Reuss Voigt Hill
#
# Bulk Modulus (GPa) = 45.69900 51.09789 48.39844
# Shear Modulus (GPa) = 19.52346 21.44203 20.48274
#
# Velocity S-wave (km/s) = 3.13295 3.28328 3.20900
# Velocity P-wave (km/s) = 6.00519 6.32951 6.16948
#
# Compressibility (1/GPa) = 0.02188232
#
# Stress axis : x y z
#
# Youngs Moduli (GPa) = 41.33704 43.39599 58.08684
#
# Poissons Ratio (x) = 0.38146 0.67632
# Poissons Ratio (y) = 0.36336 0.04941
# Poissons Ratio (z) = 0.48130 0.03691
#
# Static dielectric constant tensor:
#      x y z
#    x 3.448710 0.000000 0.000000 
#    y 0.000000 3.688870 0.000000 
#    z 0.000000 0.000000 3.650350 
# 
# 
# High freq. dielectric constant tensor:
#      x y z
#    x 1.766340 0.000000 0.000000 
#    y 0.000000 1.778060 0.000000 
#    z 0.000000 0.000000 1.775040 
# 
# From -- ./inp_files/10784.got.cif
#   From: 2010.03.12/outbox.cif.g09.slc.cpg/sg55_6_cif.got.tgz:10784.got - 2010.04.16 15:19:21.
