data_PCOD8225553
_publ_section_title
;
Structure prediction by ZEFSAII (Michael W. Deem and Ramdas Pophale) SiO2 
 PCOD8225553
Probable space group: P B A M
;
_chemical_formula_sum "Si O2"
_cell_formula_units_Z 64
_cell_length_a 12.859317
_cell_length_b 27.874971
_cell_length_c 8.809949
_cell_angle_alpha 90.000000
_cell_angle_beta 90.000000
_cell_angle_gamma 90.000000
_cell_volume 3157.953428
_symmetry_space_group_name_H-M "P B A M"
_symmetry_group_IT_number 55
_symmetry_cell_setting 'orthorhombic'
loop_
_space_group_symop_operation_xyz
x,y,z
-x,-y,z
1/2+x,1/2-y,-z
1/2-x,1/2+y,-z
-x,-y,-z
x,y,-z
1/2-x,1/2+y,z
1/2+x,1/2-y,z
loop_
_atom_site_type_symbol
_atom_site_label
_atom_site_fract_x
_atom_site_fract_y
_atom_site_fract_z
Si Si1 0.360687 0.137086 0.176762
Si Si2 0.304301 0.702534 0.677205
Si Si3 0.228456 0.552611 0.327827
Si Si4 0.770737 0.199979 0.819885
Si Si5 0.523675 0.655865 0.320256
Si Si6 0.592312 0.033191 0.670949
Si Si7 0.038070 0.051323 0.319815
Si Si8 0.091752 0.367294 0.177633
O O1 0.279052 0.161631 0.288067
O O2 0.349638 0.080727 0.215443
O O3 0.477738 0.152815 0.222139
O O4 0.337696 0.147445 0.000000
O O5 0.303133 0.715311 0.500000
O O6 0.265575 0.747367 0.773997
O O7 0.417693 0.683352 0.728188
O O8 0.218523 0.572434 0.500000
O O9 0.199379 0.496541 0.324538
O O10 0.344375 0.558614 0.265246
O O11 0.881718 0.184831 0.753169
O O12 0.682028 0.165267 0.750472
O O13 0.779865 0.197635 0.000000
O O14 0.535919 0.657394 0.500000
O O15 0.523233 0.599628 0.265196
O O16 0.564459 0.049898 0.500000
O O17 0.609585 0.078689 0.773787
O O18 0.500000 0.000000 0.734742
O O19 0.032135 0.048040 0.500000
O O20 0.000000 0.000000 0.250387
O O21 0.103597 0.365594 0.000000
#
# Coordination Sequence:
#
# PCOD8225553 Si02
#       8
#     8   8   8   8   8   8   8   8
#     4  11  22  38  62  91 121 161 207 252 309 371
#     4  11  24  44  68  94 121 155 205 262 314 369
#     4  10  19  35  56  86 122 160 205 253 303 357
#     4  11  26  45  64  90 126 165 205 255 314 375
#     4  10  22  42  67  96 127 161 207 258 310 371
#     4  10  20  33  56  88 120 158 206 255 300 350
#     4   9  18  34  59  88 121 161 202 249 305 365
#     4  10  24  42  59  85 125 168 207 250 306 370
#
# _framework density 20.266290000000001
#
# number of rings (size 3 to 8) (size 9 to 14) (size 15 to 20)
#    0.000    1.750    2.500    1.125    3.500    3.250 
#    0.000    0.000    0.000    0.750    0.000    0.000 
#    0.000    0.000    0.000    0.000    0.000    0.000 
#
# Total GULP energy -793394.751929 kJ/mol
# GULP energy per Si atom -12396.792999 kJ/mol
# Density = 2.022016 g / cm^3
# Si number density = 20.266290 Si / 1000 Ang^3
#
#
#
# Elastic Constant Matrix: (Units=GPa)
#
#
# Indices 1 2 3 4 5 6 
#
# 1 141.2506 64.3017 43.8770 0.0000 0.0000 0.0000
# 2 64.3017 108.3335 17.1828 0.0000 0.0000 0.0000
# 3 43.8770 17.1828 19.2409 0.0000 0.0000 0.0000
# 4 0.0000 0.0000 0.0000 29.3425 0.0000 0.0000
# 5 0.0000 0.0000 0.0000 0.0000 24.6899 0.0000
# 6 0.0000 0.0000 0.0000 0.0000 0.0000 34.9989
#
#
#
# Elastic Compliance Matrix: (Units=1/GPa)
#
#
# Indices 1 2 3 4 5 6 
#
# 1 0.029063 -0.007850 -0.059264 0.000000 0.000000 0.000000
# 2 -0.007850 0.012875 0.006405 0.000000 0.000000 0.000000
# 3 -0.059264 0.006405 0.181399 0.000000 0.000000 0.000000
# 4 0.000000 0.000000 0.000000 0.034080 0.000000 0.000000
# 5 0.000000 0.000000 0.000000 0.000000 0.040502 0.000000
# 6 0.000000 0.000000 0.000000 0.000000 0.000000 0.028572
#
#
# Mechanical properties :
#
#
# Convention : Reuss Voigt Hill
#
# Bulk Modulus (GPa) = 9.81192 57.72755 33.76974
# Shear Modulus (GPa) = 10.37596 27.37049 18.87322
#
# Velocity S-wave (km/s) = 2.26515 3.67896 3.05497
# Velocity P-wave (km/s) = 3.41954 6.82588 5.39842
#
# Compressibility (1/GPa) = 0.10191681
#
# Stress axis : x y z
#
# Youngs Moduli (GPa) = 34.40842 77.67283 5.51270
#
# Poissons Ratio (x) = 0.60976 0.32670
# Poissons Ratio (y) = 0.27012 -0.03531
# Poissons Ratio (z) = 2.03918 -0.49746
#
# Static dielectric constant tensor:
#      x y z
#    x 3.922650 0.000000 0.000000 
#    y 0.000000 3.892520 0.000000 
#    z 0.000000 0.000000 3.389830 
# 
# 
# High freq. dielectric constant tensor:
#      x y z
#    x 1.803140 0.000000 0.000000 
#    y 0.000000 1.799030 0.000000 
#    z 0.000000 0.000000 1.766140 
# 
# From -- ./inp_files/4489.got.cif
#   From: 2010.03.12/outbox.cif.g09.slc.cpg/sg55_3_cif.got.tgz:4489.got - 2010.04.16 15:19:21.
