data_PCOD8225817
_publ_section_title
;
Structure prediction by ZEFSAII (Michael W. Deem and Ramdas Pophale) SiO2 
 PCOD8225817
Probable space group: P B A M
;
_chemical_formula_sum "Si O2"
_cell_formula_units_Z 56
_cell_length_a 18.577231
_cell_length_b 18.873561
_cell_length_c 9.158612
_cell_angle_alpha 90.000000
_cell_angle_beta 90.000000
_cell_angle_gamma 90.000000
_cell_volume 3211.178824
_symmetry_space_group_name_H-M "P B A M"
_symmetry_group_IT_number 55
_symmetry_cell_setting 'orthorhombic'
loop_
_space_group_symop_operation_xyz
x,y,z
-x,-y,z
1/2+x,1/2-y,-z
1/2-x,1/2+y,-z
-x,-y,-z
x,y,-z
1/2-x,1/2+y,z
1/2+x,1/2-y,z
loop_
_atom_site_type_symbol
_atom_site_label
_atom_site_fract_x
_atom_site_fract_y
_atom_site_fract_z
Si Si1 0.037201 0.931655 0.168312
Si Si2 0.466661 0.867863 0.832398
Si Si3 0.834057 0.537348 0.827775
Si Si4 0.113464 0.598877 0.329309
Si Si5 0.988291 0.219595 0.834786
Si Si6 0.192412 0.881849 0.827915
Si Si7 0.652214 0.748117 0.332109
O O1 0.985277 0.861928 0.188438
O O2 0.117142 0.915278 0.231440
O O3 0.048053 0.950989 0.000000
O O4 0.000000 0.000000 0.246254
O O5 0.395408 0.907301 0.777753
O O6 0.534566 0.894190 0.740491
O O7 0.452850 0.782320 0.815782
O O8 0.483022 0.887427 0.000000
O O9 0.843268 0.464458 0.743584
O O10 0.757403 0.568228 0.778210
O O11 0.836977 0.523356 0.000000
O O12 0.102125 0.584715 0.500000
O O13 0.163707 0.668142 0.302590
O O14 0.929301 0.233255 0.713132
O O15 0.955298 0.224304 0.000000
O O16 0.204546 0.803228 0.760099
O O17 0.191474 0.871727 0.000000
O O18 0.663103 0.728969 0.500000
#
# Coordination Sequence:
#
# PCOD8225817 Si02
#       7
#     8   8   8   8   8   8   8
#     4   8  13  24  45  69  89 112 148 193 234 272
#     4   9  17  30  47  67  93 125 159 194 233 278
#     4  10  20  32  46  68  98 127 156 194 240 287
#     4  10  20  32  48  71  95 122 160 198 233 279
#     4   8  14  26  45  66  87 113 146 186 230 274
#     4   9  18  32  48  68  94 124 158 194 236 285
#     4   9  17  30  48  67  87 115 152 190 227 274
#
# _framework density 17.439079
#
# number of rings (size 3 to 8) (size 9 to 14) (size 15 to 20)
#    0.000    3.000    0.000    2.143    0.000    4.571 
#    0.000    1.429    0.000   12.000    0.000    4.000 
#    0.000    0.000    0.000    0.000    0.000    0.000 
#
# Total GULP energy -693742.858289 kJ/mol
# GULP energy per Si atom -12388.265327 kJ/mol
# Density = 1.739939 g / cm^3
# Si number density = 17.439079 Si / 1000 Ang^3
#
#
#
# Elastic Constant Matrix: (Units=GPa)
#
#
# Indices 1 2 3 4 5 6 
#
# 1 74.8221 66.9231 30.7703 0.0000 0.0000 0.0000
# 2 66.9231 169.5268 50.0301 0.0000 0.0000 0.0000
# 3 30.7703 50.0301 45.9225 0.0000 0.0000 0.0000
# 4 0.0000 0.0000 0.0000 22.1595 0.0000 0.0000
# 5 0.0000 0.0000 0.0000 0.0000 7.9474 0.0000
# 6 0.0000 0.0000 0.0000 0.0000 0.0000 24.4169
#
#
#
# Elastic Compliance Matrix: (Units=1/GPa)
#
#
# Indices 1 2 3 4 5 6 
#
# 1 0.022469 -0.006525 -0.007947 0.000000 0.000000 0.000000
# 2 -0.006525 0.010589 -0.007164 0.000000 0.000000 0.000000
# 3 -0.007947 -0.007164 0.034905 0.000000 0.000000 0.000000
# 4 0.000000 0.000000 0.000000 0.045127 0.000000 0.000000
# 5 0.000000 0.000000 0.000000 0.000000 0.125828 0.000000
# 6 0.000000 0.000000 0.000000 0.000000 0.000000 0.040955
#
#
# Mechanical properties :
#
#
# Convention : Reuss Voigt Hill
#
# Bulk Modulus (GPa) = 40.49924 65.07981 52.78952
# Shear Modulus (GPa) = 15.08863 20.40797 17.74830
#
# Velocity S-wave (km/s) = 2.94465 3.42459 3.19365
# Velocity P-wave (km/s) = 5.90212 7.28262 6.62840
#
# Compressibility (1/GPa) = 0.02469182
#
# Stress axis : x y z
#
# Youngs Moduli (GPa) = 44.50560 94.44050 28.64883
#
# Poissons Ratio (x) = 0.61619 0.22767
# Poissons Ratio (y) = 0.29038 0.20524
# Poissons Ratio (z) = 0.35369 0.67657
#
# Static dielectric constant tensor:
#      x y z
#    x 3.024730 0.000000 0.000000 
#    y 0.000000 3.758420 0.000000 
#    z 0.000000 0.000000 3.078850 
# 
# 
# High freq. dielectric constant tensor:
#      x y z
#    x 1.629830 0.000000 0.000000 
#    y 0.000000 1.694620 0.000000 
#    z 0.000000 0.000000 1.656770 
# 
# From -- ./inp_files/7886.got.cif
#   From: 2010.03.12/outbox.cif.g09.slc.cpg/sg55_4_cif.got.tgz:7886.got - 2010.04.16 15:19:21.
