data_PCOD8225381
_publ_section_title
;
Structure prediction by ZEFSAII (Michael W. Deem and Ramdas Pophale) SiO2 
 PCOD8225381
Probable space group: P B A M
;
_chemical_formula_sum "Si O2"
_cell_formula_units_Z 56
_cell_length_a 16.813637
_cell_length_b 19.966667
_cell_length_c 8.760928
_cell_angle_alpha 90.000000
_cell_angle_beta 90.000000
_cell_angle_gamma 90.000000
_cell_volume 2941.151210
_symmetry_space_group_name_H-M "P B A M"
_symmetry_group_IT_number 55
_symmetry_cell_setting 'orthorhombic'
loop_
_space_group_symop_operation_xyz
x,y,z
-x,-y,z
1/2+x,1/2-y,-z
1/2-x,1/2+y,-z
-x,-y,-z
x,y,-z
1/2-x,1/2+y,z
1/2+x,1/2-y,z
loop_
_atom_site_type_symbol
_atom_site_label
_atom_site_fract_x
_atom_site_fract_y
_atom_site_fract_z
Si Si1 0.433408 0.550647 0.182456
Si Si2 0.348906 0.132806 0.181000
Si Si3 0.258789 0.749696 0.172702
Si Si4 0.524087 0.161391 0.182091
Si Si5 0.068742 0.196555 0.828733
Si Si6 0.242107 0.011494 0.818396
Si Si7 0.683738 0.118791 0.679209
O O1 0.500000 0.500000 0.246063
O O2 0.452437 0.625226 0.249840
O O3 0.346965 0.527034 0.238354
O O4 0.434176 0.553503 0.000000
O O5 0.311800 0.203117 0.239024
O O6 0.440810 0.128708 0.232964
O O7 0.301440 0.068962 0.245614
O O8 0.341407 0.132900 0.000000
O O9 0.336331 0.703101 0.173126
O O10 0.268871 0.813694 0.279945
O O11 0.241187 0.774637 0.000000
O O12 0.529134 0.237729 0.248907
O O13 0.595223 0.117447 0.250194
O O14 0.535231 0.162639 0.000000
O O15 0.035628 0.193763 0.000000
O O16 0.266504 0.941925 0.745515
O O17 0.247144 0.005999 0.000000
O O18 0.676063 0.112031 0.500000
#
# Coordination Sequence:
#
# PCOD8225381 Si02
#       7
#     8   8   8   8   8   8   8
#     4   9  16  26  47  80 111 136 166 212 268 323
#     4   9  17  31  57  87 107 133 179 231 280 329
#     4   9  16  32  57  79 101 134 177 227 279 323
#     4   9  18  33  55  80 105 136 179 229 278 322
#     4   8  13  25  45  70 101 129 159 207 261 313
#     4  10  19  34  55  79 109 142 178 223 276 328
#     4  11  23  37  51  74 111 150 188 223 265 319
#
# _framework density 19.040164000000001
#
# number of rings (size 3 to 8) (size 9 to 14) (size 15 to 20)
#    0.000    2.714    1.429    2.143    0.000    1.714 
#    0.000    9.286    0.000    0.429    0.000    0.000 
#    0.000    0.000    0.000    0.000    0.000    0.000 
#
# Total GULP energy -694113.823184 kJ/mol
# GULP energy per Si atom -12394.889700 kJ/mol
# Density = 1.899683 g / cm^3
# Si number density = 19.040164 Si / 1000 Ang^3
#
#
#
# Elastic Constant Matrix: (Units=GPa)
#
#
# Indices 1 2 3 4 5 6 
#
# 1 95.0128 56.6766 19.8348 0.0000 0.0000 0.0000
# 2 56.6766 114.5345 16.6977 0.0000 0.0000 0.0000
# 3 19.8348 16.6977 31.2794 0.0000 0.0000 0.0000
# 4 0.0000 0.0000 0.0000 1.9929 0.0000 0.0000
# 5 0.0000 0.0000 0.0000 0.0000 4.9262 0.0000
# 6 0.0000 0.0000 0.0000 0.0000 0.0000 31.8733
#
#
#
# Elastic Compliance Matrix: (Units=1/GPa)
#
#
# Indices 1 2 3 4 5 6 
#
# 1 0.016045 -0.007001 -0.006437 0.000000 0.000000 0.000000
# 2 -0.007001 0.012523 -0.002245 0.000000 0.000000 0.000000
# 3 -0.006437 -0.002245 0.037250 0.000000 0.000000 0.000000
# 4 0.000000 0.000000 0.000000 0.501773 0.000000 0.000000
# 5 0.000000 0.000000 0.000000 0.000000 0.202995 0.000000
# 6 0.000000 0.000000 0.000000 0.000000 0.000000 0.031374
#
#
# Mechanical properties :
#
#
# Convention : Reuss Voigt Hill
#
# Bulk Modulus (GPa) = 29.02677 47.47169 38.24923
# Shear Modulus (GPa) = 5.91847 17.59966 11.75907
#
# Velocity S-wave (km/s) = 1.76498 3.04360 2.48784
# Velocity P-wave (km/s) = 4.40814 6.11047 5.32774
#
# Compressibility (1/GPa) = 0.03445096
#
# Stress axis : x y z
#
# Youngs Moduli (GPa) = 62.32428 79.85357 26.84538
#
# Poissons Ratio (x) = 0.55909 0.17280
# Poissons Ratio (y) = 0.43636 0.06028
# Poissons Ratio (z) = 0.40118 0.17930
#
# Static dielectric constant tensor:
#      x y z
#    x 3.552190 0.000000 0.000000 
#    y 0.000000 3.668110 0.000000 
#    z 0.000000 0.000000 2.883390 
# 
# 
# High freq. dielectric constant tensor:
#      x y z
#    x 1.739670 0.000000 0.000000 
#    y 0.000000 1.752470 0.000000 
#    z 0.000000 0.000000 1.675420 
# 
# From -- ./inp_files/7882.got.cif
#   From: 2010.03.12/outbox.cif.g09.slc.cpg/sg55_4_cif.got.tgz:7882.got - 2010.04.16 15:19:21.
