data_PCOD8225501
_publ_section_title
;
Structure prediction by ZEFSAII (Michael W. Deem and Ramdas Pophale) SiO2 
 PCOD8225501
Probable space group: P B A M
;
_chemical_formula_sum "Si O2"
_cell_formula_units_Z 40
_cell_length_a 12.522118
_cell_length_b 18.797496
_cell_length_c 8.771328
_cell_angle_alpha 90.000000
_cell_angle_beta 90.000000
_cell_angle_gamma 90.000000
_cell_volume 2064.634331
_symmetry_space_group_name_H-M "P B A M"
_symmetry_group_IT_number 55
_symmetry_cell_setting 'orthorhombic'
loop_
_space_group_symop_operation_xyz
x,y,z
-x,-y,z
1/2+x,1/2-y,-z
1/2-x,1/2+y,-z
-x,-y,-z
x,y,-z
1/2-x,1/2+y,z
1/2+x,1/2-y,z
loop_
_atom_site_type_symbol
_atom_site_label
_atom_site_fract_x
_atom_site_fract_y
_atom_site_fract_z
Si Si1 0.222489 0.048349 0.181277
Si Si2 0.553869 0.927264 0.680239
Si Si3 0.601683 0.185879 0.180621
Si Si4 0.684070 0.610591 0.180747
Si Si5 0.955672 0.842872 0.819012
O O1 0.329511 0.080971 0.249520
O O2 0.124640 0.096525 0.239959
O O3 0.204218 0.968712 0.244218
O O4 0.231668 0.049607 0.000000
O O5 0.562164 0.926672 0.500000
O O6 0.485785 0.861081 0.736235
O O7 0.500000 0.000000 0.740029
O O8 0.719637 0.161629 0.232778
O O9 0.585506 0.266383 0.237202
O O10 0.586730 0.177515 0.000000
O O11 0.573505 0.641353 0.248491
O O12 0.676393 0.607183 0.000000
O O13 0.960065 0.844109 0.000000
#
# Coordination Sequence:
#
# PCOD8225501 Si02
#       5
#     8   8   8   8   8
#     4  10  19  34  59  84 108 143 185 225 270 324
#     4  11  23  38  55  77 109 146 184 228 273 318
#     4  10  20  34  56  84 111 142 182 225 273 326
#     4   9  17  31  52  83 115 141 176 223 273 324
#     4   9  19  32  54  86 116 141 175 228 279 322
#
# _framework density 19.373892000000001
#
# number of rings (size 3 to 8) (size 9 to 14) (size 15 to 20)
#    0.000    2.200    2.000    1.200    2.800    3.200 
#    0.000    1.000    0.000    4.800    0.000    0.000 
#    0.000    0.000    0.000    0.000    0.000    0.000 
#
# Total GULP energy -496074.604673 kJ/mol
# GULP energy per Si atom -12401.865117 kJ/mol
# Density = 1.932980 g / cm^3
# Si number density = 19.373892 Si / 1000 Ang^3
#
#
#
# Elastic Constant Matrix: (Units=GPa)
#
#
# Indices 1 2 3 4 5 6 
#
# 1 192.8227 79.6309 18.5775 0.0000 0.0000 0.0000
# 2 79.6309 135.7364 13.5473 0.0000 0.0000 0.0000
# 3 18.5775 13.5473 18.1929 0.0000 0.0000 0.0000
# 4 0.0000 0.0000 0.0000 9.1209 0.0000 0.0000
# 5 0.0000 0.0000 0.0000 0.0000 1.4225 0.0000
# 6 0.0000 0.0000 0.0000 0.0000 0.0000 37.6901
#
#
#
# Elastic Compliance Matrix: (Units=1/GPa)
#
#
# Indices 1 2 3 4 5 6 
#
# 1 0.007174 -0.003757 -0.004528 0.000000 0.000000 0.000000
# 2 -0.003757 0.009926 -0.003555 0.000000 0.000000 0.000000
# 3 -0.004528 -0.003555 0.062238 0.000000 0.000000 0.000000
# 4 0.000000 0.000000 0.000000 0.109638 0.000000 0.000000
# 5 0.000000 0.000000 0.000000 0.000000 0.702988 0.000000
# 6 0.000000 0.000000 0.000000 0.000000 0.000000 0.026532
#
#
# Mechanical properties :
#
#
# Convention : Reuss Voigt Hill
#
# Bulk Modulus (GPa) = 17.96706 63.36260 40.66483
# Shear Modulus (GPa) = 5.20439 25.31312 15.25875
#
# Velocity S-wave (km/s) = 1.64077 3.61856 2.80945
# Velocity P-wave (km/s) = 3.58936 7.08765 5.61775
#
# Compressibility (1/GPa) = 0.05565741
#
# Stress axis : x y z
#
# Youngs Moduli (GPa) = 139.39713 100.74645 16.06745
#
# Poissons Ratio (x) = 0.37847 0.07275
# Poissons Ratio (y) = 0.52366 0.05712
# Poissons Ratio (z) = 0.63120 0.35818
#
# Static dielectric constant tensor:
#      x y z
#    x 3.875920 0.000000 0.000000 
#    y 0.000000 3.751080 0.000000 
#    z 0.000000 0.000000 2.982710 
# 
# 
# High freq. dielectric constant tensor:
#      x y z
#    x 1.773040 0.000000 0.000000 
#    y 0.000000 1.765710 0.000000 
#    z 0.000000 0.000000 1.699790 
# 
# From -- ./inp_files/3591.got.cif
#   From: 2010.03.12/outbox.cif.g09.slc.cpg/sg55_2_cif.got.tgz:3591.got - 2010.04.16 15:19:21.
