data_PCOD8225619
_publ_section_title
;
Structure prediction by ZEFSAII (Michael W. Deem and Ramdas Pophale) SiO2 
 PCOD8225619
Probable space group: P B A M
;
_chemical_formula_sum "Si O2"
_cell_formula_units_Z 64
_cell_length_a 28.992949
_cell_length_b 12.591685
_cell_length_c 8.894826
_cell_angle_alpha 90.000000
_cell_angle_beta 90.000000
_cell_angle_gamma 90.000000
_cell_volume 3247.234849
_symmetry_space_group_name_H-M "P B A M"
_symmetry_group_IT_number 55
_symmetry_cell_setting 'orthorhombic'
loop_
_space_group_symop_operation_xyz
x,y,z
-x,-y,z
1/2+x,1/2-y,-z
1/2-x,1/2+y,-z
-x,-y,-z
x,y,-z
1/2-x,1/2+y,z
1/2+x,1/2-y,z
loop_
_atom_site_type_symbol
_atom_site_label
_atom_site_fract_x
_atom_site_fract_y
_atom_site_fract_z
Si Si1 0.169620 0.671102 0.168166
Si Si2 0.207402 0.440439 0.830881
Si Si3 0.965788 0.212046 0.823126
Si Si4 0.203748 0.867060 0.326157
Si Si5 0.396497 0.446640 0.673156
Si Si6 0.080519 0.605103 0.675069
Si Si7 0.939519 0.830203 0.675849
Si Si8 0.115389 0.378311 0.322722
O O1 0.198320 0.564520 0.166338
O O2 0.203645 0.761382 0.226395
O O3 0.127627 0.665552 0.284821
O O4 0.150929 0.696511 0.000000
O O5 0.251823 0.431310 0.726180
O O6 0.164077 0.377363 0.762012
O O7 0.216154 0.397798 0.000000
O O8 0.923263 0.138466 0.773717
O O9 0.960340 0.333088 0.761406
O O10 0.012513 0.161011 0.762074
O O11 0.968118 0.216757 0.000000
O O12 0.208696 0.836652 0.500000
O O13 0.157989 0.936619 0.296739
O O14 0.409033 0.423219 0.500000
O O15 0.409987 0.566272 0.718084
O O16 0.070322 0.615892 0.500000
O O17 0.084695 0.481531 0.723674
O O18 0.950246 0.823903 0.500000
O O19 0.911804 0.726121 0.728916
O O20 0.125369 0.380279 0.500000
#
# Coordination Sequence:
#
# PCOD8225619 Si02
#       8
#     8   8   8   8   8   8   8   8
#     4  10  20  36  57  83 115 152 190 239 298 347
#     4  10  22  38  58  86 121 156 192 239 299 358
#     4  12  24  37  58  88 119 155 198 246 298 356
#     4  11  22  36  59  88 116 153 200 244 291 351
#     4  10  22  40  61  85 115 153 198 249 297 347
#     4  10  19  35  60  86 114 150 196 244 291 346
#     4  10  22  41  62  85 119 158 196 243 298 356
#     4   9  20  39  62  87 116 155 199 245 296 354
#
# _framework density 19.709076
#
# number of rings (size 3 to 8) (size 9 to 14) (size 15 to 20)
#    0.000    1.750    1.250    3.000    0.000    6.500 
#    0.000    3.750    0.000    0.000    0.000    0.000 
#    0.000    0.000    0.000    0.000    0.000    0.000 
#
# Total GULP energy -793796.378049 kJ/mol
# GULP energy per Si atom -12403.068407 kJ/mol
# Density = 1.966422 g / cm^3
# Si number density = 19.709076 Si / 1000 Ang^3
#
#
#
# Elastic Constant Matrix: (Units=GPa)
#
#
# Indices 1 2 3 4 5 6 
#
# 1 81.0209 35.4993 29.2083 0.0000 0.0000 0.0000
# 2 35.4993 97.7806 37.6205 0.0000 0.0000 0.0000
# 3 29.2083 37.6205 72.4130 0.0000 0.0000 0.0000
# 4 0.0000 0.0000 0.0000 23.7422 0.0000 0.0000
# 5 0.0000 0.0000 0.0000 0.0000 11.0817 0.0000
# 6 0.0000 0.0000 0.0000 0.0000 0.0000 20.7970
#
#
#
# Elastic Compliance Matrix: (Units=1/GPa)
#
#
# Indices 1 2 3 4 5 6 
#
# 1 0.015635 -0.004062 -0.004196 0.000000 0.000000 0.000000
# 2 -0.004062 0.013837 -0.005550 0.000000 0.000000 0.000000
# 3 -0.004196 -0.005550 0.018386 0.000000 0.000000 0.000000
# 4 0.000000 0.000000 0.000000 0.042119 0.000000 0.000000
# 5 0.000000 0.000000 0.000000 0.000000 0.090239 0.000000
# 6 0.000000 0.000000 0.000000 0.000000 0.000000 0.048084
#
#
# Mechanical properties :
#
#
# Convention : Reuss Voigt Hill
#
# Bulk Modulus (GPa) = 49.40467 50.65230 50.02849
# Shear Modulus (GPa) = 19.03575 21.04995 20.04285
#
# Velocity S-wave (km/s) = 3.11116 3.27162 3.19240
# Velocity P-wave (km/s) = 6.16662 6.32670 6.24717
#
# Compressibility (1/GPa) = 0.02024100
#
# Stress axis : x y z
#
# Youngs Moduli (GPa) = 63.95944 72.26952 54.38970
#
# Poissons Ratio (x) = 0.29354 0.22823
# Poissons Ratio (y) = 0.25979 0.30188
# Poissons Ratio (z) = 0.26839 0.40112
#
# Static dielectric constant tensor:
#      x y z
#    x 3.493030 0.000000 0.000000 
#    y 0.000000 3.719040 0.000000 
#    z 0.000000 0.000000 3.635730 
# 
# 
# High freq. dielectric constant tensor:
#      x y z
#    x 1.762850 0.000000 0.000000 
#    y 0.000000 1.773340 0.000000 
#    z 0.000000 0.000000 1.770700 
# 
# From -- ./inp_files/4654.got.cif
#   From: 2010.03.12/outbox.cif.g09.slc.cpg/sg55_3_cif.got.tgz:4654.got - 2010.04.16 15:19:21.
