data_PCOD8225302
_publ_section_title
;
Structure prediction by ZEFSAII (Michael W. Deem and Ramdas Pophale) SiO2 
 PCOD8225302
Probable space group: P B A M
;
_chemical_formula_sum "Si O2"
_cell_formula_units_Z 64
_cell_length_a 14.987080
_cell_length_b 24.938161
_cell_length_c 8.966312
_cell_angle_alpha 90.000000
_cell_angle_beta 90.000000
_cell_angle_gamma 90.000000
_cell_volume 3351.161028
_symmetry_space_group_name_H-M "P B A M"
_symmetry_group_IT_number 55
_symmetry_cell_setting 'orthorhombic'
loop_
_space_group_symop_operation_xyz
x,y,z
-x,-y,z
1/2+x,1/2-y,-z
1/2-x,1/2+y,-z
-x,-y,-z
x,y,-z
1/2-x,1/2+y,z
1/2+x,1/2-y,z
loop_
_atom_site_type_symbol
_atom_site_label
_atom_site_fract_x
_atom_site_fract_y
_atom_site_fract_z
Si Si1 0.023570 0.721446 0.330703
Si Si2 0.498483 0.897762 0.675564
Si Si3 0.807081 0.553982 0.675795
Si Si4 0.195142 0.151162 0.828695
Si Si5 0.772989 0.250647 0.670794
Si Si6 0.190268 0.856670 0.176943
Si Si7 0.002838 0.173752 0.830199
Si Si8 0.172769 0.557528 0.823018
O O1 0.992468 0.726795 0.500000
O O2 0.993511 0.663648 0.267977
O O3 0.129000 0.725435 0.311585
O O4 0.975413 0.769188 0.244539
O O5 0.520793 0.900587 0.500000
O O6 0.405587 0.925377 0.715555
O O7 0.574730 0.929065 0.763820
O O8 0.792858 0.550058 0.500000
O O9 0.732916 0.592544 0.743912
O O10 0.792094 0.496591 0.749494
O O11 0.207625 0.203869 0.730061
O O12 0.256630 0.102790 0.771822
O O13 0.089909 0.135792 0.811465
O O14 0.218441 0.164713 0.000000
O O15 0.749760 0.236678 0.500000
O O16 0.760112 0.197051 0.767854
O O17 0.086514 0.854738 0.232336
O O18 0.200280 0.862340 0.000000
O O19 0.982787 0.187693 0.000000
O O20 0.169861 0.551126 0.000000
#
# Coordination Sequence:
#
# PCOD8225302 Si02
#       8
#     8   8   8   8   8   8   8   8
#     4   9  18  33  53  81 115 148 184 224 276 340
#     4  10  21  38  57  82 116 153 189 232 285 341
#     4  11  24  40  60  83 113 153 196 240 289 343
#     4  10  21  37  57  85 116 150 192 236 285 340
#     4  10  19  33  56  83 114 150 185 228 281 337
#     4  10  21  39  60  83 114 149 190 238 287 337
#     4   9  20  37  57  82 115 151 187 233 287 337
#     4  11  23  39  60  85 116 151 194 241 287 341
#
# _framework density 19.097857999999999
#
# number of rings (size 3 to 8) (size 9 to 14) (size 15 to 20)
#    0.000    2.000    1.250    1.875    1.750    5.000 
#    0.000    0.625    0.000    3.750    0.000    0.000 
#    0.000    0.000    0.000    0.000    0.000    0.000 
#
# Total GULP energy -793678.177367 kJ/mol
# GULP energy per Si atom -12401.221521 kJ/mol
# Density = 1.905439 g / cm^3
# Si number density = 19.097858 Si / 1000 Ang^3
#
#
#
# Elastic Constant Matrix: (Units=GPa)
#
#
# Indices 1 2 3 4 5 6 
#
# 1 89.8483 48.0115 31.5102 0.0000 0.0000 0.0000
# 2 48.0115 84.5362 22.1716 0.0000 0.0000 0.0000
# 3 31.5102 22.1716 56.1581 0.0000 0.0000 0.0000
# 4 0.0000 0.0000 0.0000 36.2487 0.0000 0.0000
# 5 0.0000 0.0000 0.0000 0.0000 22.8043 0.0000
# 6 0.0000 0.0000 0.0000 0.0000 0.0000 23.6241
#
#
#
# Elastic Compliance Matrix: (Units=1/GPa)
#
#
# Indices 1 2 3 4 5 6 
#
# 1 0.018027 -0.008462 -0.006774 0.000000 0.000000 0.000000
# 2 -0.008462 0.017167 -0.002030 0.000000 0.000000 0.000000
# 3 -0.006774 -0.002030 0.022409 0.000000 0.000000 0.000000
# 4 0.000000 0.000000 0.000000 0.027587 0.000000 0.000000
# 5 0.000000 0.000000 0.000000 0.000000 0.043851 0.000000
# 6 0.000000 0.000000 0.000000 0.000000 0.000000 0.042330
#
#
# Mechanical properties :
#
#
# Convention : Reuss Voigt Hill
#
# Bulk Modulus (GPa) = 43.34246 48.21437 45.77842
# Shear Modulus (GPa) = 23.40879 25.12536 24.26708
#
# Velocity S-wave (km/s) = 3.50484 3.63107 3.56851
# Velocity P-wave (km/s) = 6.25482 6.54831 6.40324
#
# Compressibility (1/GPa) = 0.02307206
#
# Stress axis : x y z
#
# Youngs Moduli (GPa) = 55.47161 58.25004 44.62411
#
# Poissons Ratio (x) = 0.49289 0.30230
# Poissons Ratio (y) = 0.46938 0.09059
# Poissons Ratio (z) = 0.37578 0.11825
#
# Static dielectric constant tensor:
#      x y z
#    x 3.545730 0.000000 0.000000 
#    y 0.000000 3.501330 0.000000 
#    z 0.000000 0.000000 3.517790 
# 
# 
# High freq. dielectric constant tensor:
#      x y z
#    x 1.746820 0.000000 0.000000 
#    y 0.000000 1.735350 0.000000 
#    z 0.000000 0.000000 1.744040 
# 
# From -- ./inp_files/6538.got.cif
#   From: 2010.03.12/outbox.cif.g09.slc.cpg/sg55_4_cif.got.tgz:6538.got - 2010.04.16 15:19:21.
