data_PCOD8225230
_publ_section_title
;
Structure prediction by ZEFSAII (Michael W. Deem and Ramdas Pophale) SiO2 
 PCOD8225230
Probable space group: P B A M
;
_chemical_formula_sum "Si O2"
_cell_formula_units_Z 64
_cell_length_a 21.124124
_cell_length_b 16.516167
_cell_length_c 9.583047
_cell_angle_alpha 90.000000
_cell_angle_beta 90.000000
_cell_angle_gamma 90.000000
_cell_volume 3343.425049
_symmetry_space_group_name_H-M "P B A M"
_symmetry_group_IT_number 55
_symmetry_cell_setting 'orthorhombic'
loop_
_space_group_symop_operation_xyz
x,y,z
-x,-y,z
1/2+x,1/2-y,-z
1/2-x,1/2+y,-z
-x,-y,-z
x,y,-z
1/2-x,1/2+y,z
1/2+x,1/2-y,z
loop_
_atom_site_type_symbol
_atom_site_label
_atom_site_fract_x
_atom_site_fract_y
_atom_site_fract_z
Si Si1 0.508039 0.407924 0.162446
Si Si2 0.572902 0.998136 0.665367
Si Si3 0.650172 0.840877 0.659484
Si Si4 0.676573 0.124446 0.342176
Si Si5 0.761753 0.764504 0.157039
Si Si6 0.094100 0.827963 0.344978
Si Si7 0.195738 0.955761 0.653835
Si Si8 0.145655 0.091909 0.847620
O O1 0.500000 0.500000 0.209316
O O2 0.459901 0.350098 0.238660
O O3 0.577722 0.383303 0.213873
O O4 0.496104 0.394907 0.000000
O O5 0.569741 0.991607 0.500000
O O6 0.611119 0.080660 0.708270
O O7 0.500000 0.000000 0.724569
O O8 0.612747 0.919629 0.719362
O O9 0.675017 0.855328 0.500000
O O10 0.707287 0.811566 0.758149
O O11 0.600193 0.768148 0.660017
O O12 0.668482 0.160166 0.500000
O O13 0.703949 0.191406 0.237902
O O14 0.729061 0.054243 0.345123
O O15 0.817161 0.826803 0.136442
O O16 0.738438 0.737736 0.000000
O O17 0.074476 0.855893 0.500000
O O18 0.160168 0.872301 0.301346
O O19 0.172771 0.981179 0.500000
O O20 0.181728 0.028032 0.755540
O O21 0.135133 0.051084 0.000000
#
# Coordination Sequence:
#
# PCOD8225230 Si02
#       8
#     8   8   8   8   8   8   8   8
#     4  10  20  35  53  73 105 150 188 216 265 328
#     4   9  19  36  62  92 118 152 198 245 293 354
#     4  10  20  39  62  84 116 149 187 241 294 343
#     4  10  20  37  60  86 115 146 188 236 290 348
#     4  11  23  37  56  84 116 147 189 238 286 340
#     4  10  20  33  54  83 112 142 183 233 279 330
#     4  10  19  33  54  82 110 142 184 229 279 334
#     4  10  22  37  52  77 112 148 186 226 269 329
#
# _framework density 19.142047000000002
#
# number of rings (size 3 to 8) (size 9 to 14) (size 15 to 20)
#    0.000    2.000    2.500    1.125    0.000    4.750 
#    0.000    1.875    0.000    1.500    0.000    0.000 
#    0.000    0.000    0.000    0.000    0.000    0.000 
#
# Total GULP energy -793090.012041 kJ/mol
# GULP energy per Si atom -12392.031438 kJ/mol
# Density = 1.909848 g / cm^3
# Si number density = 19.142047 Si / 1000 Ang^3
#
#
#
# Elastic Constant Matrix: (Units=GPa)
#
#
# Indices 1 2 3 4 5 6 
#
# 1 117.8026 43.8904 44.9603 0.0000 0.0000 0.0000
# 2 43.8904 83.3235 39.4968 0.0000 0.0000 0.0000
# 3 44.9603 39.4968 79.4949 0.0000 0.0000 0.0000
# 4 0.0000 0.0000 0.0000 25.9650 0.0000 0.0000
# 5 0.0000 0.0000 0.0000 0.0000 443.8628 0.0000
# 6 0.0000 0.0000 0.0000 0.0000 0.0000 31.1566
#
#
#
# Elastic Compliance Matrix: (Units=1/GPa)
#
#
# Indices 1 2 3 4 5 6 
#
# 1 0.011753 -0.003977 -0.004672 0.000000 0.000000 0.000000
# 2 -0.003977 0.017044 -0.006219 0.000000 0.000000 0.000000
# 3 -0.004672 -0.006219 0.018312 0.000000 0.000000 0.000000
# 4 0.000000 0.000000 0.000000 0.038513 0.000000 0.000000
# 5 0.000000 0.000000 0.000000 0.000000 0.002253 0.000000
# 6 0.000000 0.000000 0.000000 0.000000 0.000000 0.032096
#
#
# Mechanical properties :
#
#
# Convention : Reuss Voigt Hill
#
# Bulk Modulus (GPa) = 57.55700 59.70178 58.62939
# Shear Modulus (GPa) = 32.15484 110.34845 71.25165
#
# Velocity S-wave (km/s) = 4.10298 7.60081 6.10765
# Velocity P-wave (km/s) = 7.25118 10.40607 8.96844
#
# Compressibility (1/GPa) = 0.01737408
#
# Stress axis : x y z
#
# Youngs Moduli (GPa) = 85.08236 58.67132 54.61023
#
# Poissons Ratio (x) = 0.23331 0.25512
# Poissons Ratio (y) = 0.33834 0.33963
# Poissons Ratio (z) = 0.39747 0.36489
#
# Static dielectric constant tensor:
#      x y z
#    x 3.662740 0.000000 0.000000 
#    y 0.000000 3.384670 0.000000 
#    z 0.000000 0.000000 3.515310 
# 
# 
# High freq. dielectric constant tensor:
#      x y z
#    x 1.750240 0.000000 0.000000 
#    y 0.000000 1.739900 0.000000 
#    z 0.000000 0.000000 1.727910 
# 
# From -- ./inp_files/8983.got.cif
#   From: 2010.03.12/outbox.cif.g09.slc.cpg/sg55_5_cif.got.tgz:8983.got - 2010.04.16 15:19:21.
