data_PCOD8225457
_publ_section_title
;
Structure prediction by ZEFSAII (Michael W. Deem and Ramdas Pophale) SiO2 
 PCOD8225457
Probable space group: P B A M
;
_chemical_formula_sum "Si O2"
_cell_formula_units_Z 56
_cell_length_a 14.134879
_cell_length_b 21.409683
_cell_length_c 9.168232
_cell_angle_alpha 90.000000
_cell_angle_beta 90.000000
_cell_angle_gamma 90.000000
_cell_volume 2774.520427
_symmetry_space_group_name_H-M "P B A M"
_symmetry_group_IT_number 55
_symmetry_cell_setting 'orthorhombic'
loop_
_space_group_symop_operation_xyz
x,y,z
-x,-y,z
1/2+x,1/2-y,-z
1/2-x,1/2+y,-z
-x,-y,-z
x,y,-z
1/2-x,1/2+y,z
1/2+x,1/2-y,z
loop_
_atom_site_type_symbol
_atom_site_label
_atom_site_fract_x
_atom_site_fract_y
_atom_site_fract_z
Si Si1 0.892744 0.483745 0.328832
Si Si2 0.421381 0.380777 0.671374
Si Si3 0.274681 0.454480 0.171684
Si Si4 0.192406 0.198919 0.833880
Si Si5 0.590971 0.431452 0.834486
Si Si6 0.867771 0.341865 0.331770
Si Si7 0.476250 0.745649 0.333384
O O1 0.872525 0.491454 0.500000
O O2 0.827594 0.531971 0.240508
O O3 0.872196 0.413007 0.276236
O O4 0.000000 0.500000 0.290275
O O5 0.407768 0.390615 0.500000
O O6 0.321633 0.393622 0.752834
O O7 0.499832 0.429659 0.730386
O O8 0.453813 0.310832 0.712089
O O9 0.342555 0.511969 0.211447
O O10 0.263284 0.443419 0.000000
O O11 0.152914 0.129830 0.814849
O O12 0.293639 0.200148 0.756541
O O13 0.119016 0.247353 0.761836
O O14 0.206311 0.219066 0.000000
O O15 0.553809 0.438348 0.000000
O O16 0.837528 0.339279 0.500000
O O17 0.970699 0.311066 0.308923
O O18 0.444978 0.736219 0.500000
#
# Coordination Sequence:
#
# PCOD8225457 Si02
#       7
#     8   8   8   8   8   8   8
#     4  10  22  40  61  85 111 144 192 244 286 333
#     4  10  20  33  52  81 114 145 183 230 276 331
#     4  11  21  35  55  80 113 152 184 224 284 342
#     4  10  19  34  57  84 113 146 186 233 284 340
#     4   9  18  32  51  78 111 145 179 219 276 339
#     4  10  20  38  63  84 109 149 192 235 284 338
#     4   9  20  38  57  82 114 151 193 236 284 338
#
# _framework density 20.183668999999998
#
# number of rings (size 3 to 8) (size 9 to 14) (size 15 to 20)
#    0.000    2.143    1.429    1.714    0.000    4.857 
#    2.571    0.000    0.000    0.000    0.000    0.000 
#    0.000    0.000    0.000    0.000    0.000    0.000 
#
# Total GULP energy -694549.677184 kJ/mol
# GULP energy per Si atom -12402.672807 kJ/mol
# Density = 2.013773 g / cm^3
# Si number density = 20.183669 Si / 1000 Ang^3
#
#
#
# Elastic Constant Matrix: (Units=GPa)
#
#
# Indices 1 2 3 4 5 6 
#
# 1 100.8421 18.4248 55.9719 0.0000 0.0000 0.0000
# 2 18.4248 24.2475 16.9827 0.0000 0.0000 0.0000
# 3 55.9719 16.9827 92.1658 0.0000 0.0000 0.0000
# 4 0.0000 0.0000 0.0000 18.7666 0.0000 0.0000
# 5 0.0000 0.0000 0.0000 0.0000 24.4962 0.0000
# 6 0.0000 0.0000 0.0000 0.0000 0.0000 24.5138
#
#
#
# Elastic Compliance Matrix: (Units=1/GPa)
#
#
# Indices 1 2 3 4 5 6 
#
# 1 0.015690 -0.006026 -0.008418 0.000000 0.000000 0.000000
# 2 -0.006026 0.049667 -0.005492 0.000000 0.000000 0.000000
# 3 -0.008418 -0.005492 0.016974 0.000000 0.000000 0.000000
# 4 0.000000 0.000000 0.000000 0.053286 0.000000 0.000000
# 5 0.000000 0.000000 0.000000 0.000000 0.040823 0.000000
# 6 0.000000 0.000000 0.000000 0.000000 0.000000 0.040793
#
#
# Mechanical properties :
#
#
# Convention : Reuss Voigt Hill
#
# Bulk Modulus (GPa) = 23.55240 44.44602 33.99921
# Shear Modulus (GPa) = 18.43256 21.94704 20.18980
#
# Velocity S-wave (km/s) = 3.02527 3.30110 3.16619
# Velocity P-wave (km/s) = 4.88849 6.04965 5.49980
#
# Compressibility (1/GPa) = 0.04245852
#
# Stress axis : x y z
#
# Youngs Moduli (GPa) = 63.73509 20.13406 58.91287
#
# Poissons Ratio (x) = 0.12133 0.49593
# Poissons Ratio (y) = 0.38409 0.32355
# Poissons Ratio (z) = 0.53652 0.11058
#
# Static dielectric constant tensor:
#      x y z
#    x 3.581600 0.000000 0.000000 
#    y 0.000000 3.553100 0.000000 
#    z 0.000000 0.000000 3.609510 
# 
# 
# High freq. dielectric constant tensor:
#      x y z
#    x 1.787530 0.000000 0.000000 
#    y 0.000000 1.774370 0.000000 
#    z 0.000000 0.000000 1.784470 
# 
# From -- ./inp_files/6051.got.cif
#   From: 2010.03.12/outbox.cif.g09.slc.cpg/sg55_4_cif.got.tgz:6051.got - 2010.04.16 15:19:21.
