data_PCOD8225104
_publ_section_title
;
Structure prediction by ZEFSAII (Michael W. Deem and Ramdas Pophale) SiO2 
 PCOD8225104
Probable space group: P B A M
;
_chemical_formula_sum "Si O2"
_cell_formula_units_Z 48
_cell_length_a 13.475415
_cell_length_b 17.421768
_cell_length_c 11.698658
_cell_angle_alpha 90.000000
_cell_angle_beta 90.000000
_cell_angle_gamma 90.000000
_cell_volume 2746.441924
_symmetry_space_group_name_H-M "P B A M"
_symmetry_group_IT_number 55
_symmetry_cell_setting 'orthorhombic'
loop_
_space_group_symop_operation_xyz
x,y,z
-x,-y,z
1/2+x,1/2-y,-z
1/2-x,1/2+y,-z
-x,-y,-z
x,y,-z
1/2-x,1/2+y,z
1/2+x,1/2-y,z
loop_
_atom_site_type_symbol
_atom_site_label
_atom_site_fract_x
_atom_site_fract_y
_atom_site_fract_z
Si Si1 0.016767 0.371650 0.000000
Si Si2 0.893837 0.973552 0.631977
Si Si3 0.797055 0.516223 0.757137
Si Si4 0.080193 0.329976 0.241773
Si Si5 0.845929 0.480884 0.000000
Si Si6 0.887390 0.377112 0.632532
Si Si7 0.820713 0.805230 0.630028
O O1 0.041929 0.321108 0.111584
O O2 0.076267 0.450331 0.000000
O O3 0.901426 0.398068 0.000000
O O4 0.882448 0.996372 0.500000
O O5 0.809508 0.020388 0.698062
O O6 0.882398 0.882928 0.649630
O O7 0.000000 0.000000 0.680347
O O8 0.846627 0.598658 0.746634
O O9 0.872405 0.456843 0.698335
O O10 0.778597 0.489009 0.887448
O O11 0.141285 0.255280 0.277736
O O12 0.986693 0.336517 0.325376
O O13 0.896465 0.397677 0.500000
O O14 0.795218 0.320203 0.654140
O O15 0.836000 0.775459 0.500000
#
# Coordination Sequence:
#
# PCOD8225104 Si02
#       7
#     4   8   8   8   4   8   8
#     4   9  18  32  51  77 106 139 176 207 264 323
#     4   9  19  37  57  76 105 145 184 219 263 324
#     4  10  19  32  54  80 103 135 180 220 265 320
#     4  11  20  33  54  78 106 138 176 219 265 318
#     4   9  16  32  52  75 107 139 168 215 268 313
#     4  10  20  33  50  76 107 133 168 219 266 319
#     4   9  20  35  49  74 108 137 171 217 270 318
#
# _framework density 17.477157999999999
#
# number of rings (size 3 to 8) (size 9 to 14) (size 15 to 20)
#    0.000    2.333    1.667    2.500    0.000    4.667 
#    0.000    7.917    0.000    2.000    0.000    0.000 
#    0.000    0.000    0.000    0.000    0.000    0.000 
#
# Total GULP energy -595243.572404 kJ/mol
# GULP energy per Si atom -12400.907758 kJ/mol
# Density = 1.743738 g / cm^3
# Si number density = 17.477158 Si / 1000 Ang^3
#
#
#
# Elastic Constant Matrix: (Units=GPa)
#
#
# Indices 1 2 3 4 5 6 
#
# 1 106.2628 45.7259 49.5992 0.0000 0.0000 0.0000
# 2 45.7259 72.1744 45.4563 0.0000 0.0000 0.0000
# 3 49.5992 45.4563 109.2900 0.0000 0.0000 0.0000
# 4 0.0000 0.0000 0.0000 21.9265 0.0000 0.0000
# 5 0.0000 0.0000 0.0000 0.0000 22.2897 0.0000
# 6 0.0000 0.0000 0.0000 0.0000 0.0000 18.3352
#
#
#
# Elastic Compliance Matrix: (Units=1/GPa)
#
#
# Indices 1 2 3 4 5 6 
#
# 1 0.013903 -0.006550 -0.003585 0.000000 0.000000 0.000000
# 2 -0.006550 0.021859 -0.006119 0.000000 0.000000 0.000000
# 3 -0.003585 -0.006119 0.013322 0.000000 0.000000 0.000000
# 4 0.000000 0.000000 0.000000 0.045607 0.000000 0.000000
# 5 0.000000 0.000000 0.000000 0.000000 0.044864 0.000000
# 6 0.000000 0.000000 0.000000 0.000000 0.000000 0.054540
#
#
# Mechanical properties :
#
#
# Convention : Reuss Voigt Hill
#
# Bulk Modulus (GPa) = 60.33102 63.25445 61.79274
# Shear Modulus (GPa) = 21.53988 22.30665 21.92327
#
# Velocity S-wave (km/s) = 3.51445 3.57645 3.54559
# Velocity P-wave (km/s) = 7.14586 7.30246 7.22458
#
# Compressibility (1/GPa) = 0.01657522
#
# Stress axis : x y z
#
# Youngs Moduli (GPa) = 71.92932 45.74804 75.06346
#
# Poissons Ratio (x) = 0.29965 0.26911
# Poissons Ratio (y) = 0.47113 0.45932
# Poissons Ratio (z) = 0.25788 0.27993
#
# Static dielectric constant tensor:
#      x y z
#    x 3.239350 0.000000 0.000000 
#    y 0.000000 2.992560 0.000000 
#    z 0.000000 0.000000 3.446100 
# 
# 
# High freq. dielectric constant tensor:
#      x y z
#    x 1.672110 0.000000 0.000000 
#    y 0.000000 1.655530 0.000000 
#    z 0.000000 0.000000 1.682150 
# 
# From -- ./inp_files/13222.got.cif
#   From: 2010.03.12/outbox.cif.g09.slc.cpg/sg55_7_cif.got.tgz:13222.got - 2010.04.16 15:19:21.
