data_PCOD8225986
_publ_section_title
;
Structure prediction by ZEFSAII (Michael W. Deem and Ramdas Pophale) SiO2 
 PCOD8225986
Probable space group: P B A M
;
_chemical_formula_sum "Si O2"
_cell_formula_units_Z 40
_cell_length_a 9.432221
_cell_length_b 25.808886
_cell_length_c 9.082526
_cell_angle_alpha 90.000000
_cell_angle_beta 90.000000
_cell_angle_gamma 90.000000
_cell_volume 2211.005775
_symmetry_space_group_name_H-M "P B A M"
_symmetry_group_IT_number 55
_symmetry_cell_setting 'orthorhombic'
loop_
_space_group_symop_operation_xyz
x,y,z
-x,-y,z
1/2+x,1/2-y,-z
1/2-x,1/2+y,-z
-x,-y,-z
x,y,-z
1/2-x,1/2+y,z
1/2+x,1/2-y,z
loop_
_atom_site_type_symbol
_atom_site_label
_atom_site_fract_x
_atom_site_fract_y
_atom_site_fract_z
Si Si1 0.492872 0.327053 0.668632
Si Si2 0.008762 0.719136 0.170398
Si Si3 0.012683 0.559051 0.827583
Si Si4 0.770616 0.637373 0.167822
Si Si5 0.696921 0.861645 0.330903
O O1 0.465810 0.311171 0.500000
O O2 0.506934 0.275793 0.764657
O O3 0.364033 0.362353 0.725598
O O4 0.633919 0.361143 0.685141
O O5 0.133903 0.688584 0.250983
O O6 0.859738 0.689916 0.191221
O O7 0.051313 0.723034 0.000000
O O8 0.866342 0.588069 0.789068
O O9 0.000000 0.500000 0.775753
O O10 0.142316 0.585288 0.741606
O O11 0.046417 0.563938 0.000000
O O12 0.718129 0.633002 0.000000
O O13 0.648637 0.859929 0.500000
#
# Coordination Sequence:
#
# PCOD8225986 Si02
#       5
#     8   8   8   8   8
#     4  11  22  33  48  75 110 142 171 207 251 301
#     4  10  20  34  53  76 103 139 179 213 249 298
#     4   9  19  38  61  80  98 126 169 217 261 307
#     4   9  19  34  53  77 102 132 171 211 254 303
#     4  10  21  35  52  77 106 137 173 209 251 303
#
# _framework density 18.091313
#
# number of rings (size 3 to 8) (size 9 to 14) (size 15 to 20)
#    0.000    2.200    0.000    4.200    0.000   10.800 
#    0.000    1.000    0.000    6.000    0.000    0.000 
#    0.000    0.000    0.000    0.000    0.000    0.000 
#
# Total GULP energy -496163.491606 kJ/mol
# GULP energy per Si atom -12404.087290 kJ/mol
# Density = 1.805014 g / cm^3
# Si number density = 18.091313 Si / 1000 Ang^3
#
#
#
# Elastic Constant Matrix: (Units=GPa)
#
#
# Indices 1 2 3 4 5 6 
#
# 1 108.5192 50.8664 64.7134 0.0000 0.0000 0.0000
# 2 50.8664 130.9076 54.9569 0.0000 0.0000 0.0000
# 3 64.7134 54.9569 110.9239 0.0000 0.0000 0.0000
# 4 0.0000 0.0000 0.0000 16.8125 0.0000 0.0000
# 5 0.0000 0.0000 0.0000 0.0000 34.2922 0.0000
# 6 0.0000 0.0000 0.0000 0.0000 0.0000 10.1549
#
#
#
# Elastic Compliance Matrix: (Units=1/GPa)
#
#
# Indices 1 2 3 4 5 6 
#
# 1 0.014847 -0.002693 -0.007328 0.000000 0.000000 0.000000
# 2 -0.002693 0.010134 -0.003450 0.000000 0.000000 0.000000
# 3 -0.007328 -0.003450 0.014999 0.000000 0.000000 0.000000
# 4 0.000000 0.000000 0.000000 0.059480 0.000000 0.000000
# 5 0.000000 0.000000 0.000000 0.000000 0.029161 0.000000
# 6 0.000000 0.000000 0.000000 0.000000 0.000000 0.098475
#
#
# Mechanical properties :
#
#
# Convention : Reuss Voigt Hill
#
# Bulk Modulus (GPa) = 76.68946 76.82491 76.75719
# Shear Modulus (GPa) = 19.35123 24.23952 21.79537
#
# Velocity S-wave (km/s) = 3.27409 3.66436 3.47471
# Velocity P-wave (km/s) = 7.53492 7.77564 7.65623
#
# Compressibility (1/GPa) = 0.01303960
#
# Stress axis : x y z
#
# Youngs Moduli (GPa) = 67.35459 98.68256 66.67009
#
# Poissons Ratio (x) = 0.26573 0.48853
# Poissons Ratio (y) = 0.18137 0.22999
# Poissons Ratio (z) = 0.49354 0.34042
#
# Static dielectric constant tensor:
#      x y z
#    x 3.319630 0.000000 0.000000 
#    y 0.000000 3.215980 0.000000 
#    z 0.000000 0.000000 3.455220 
# 
# 
# High freq. dielectric constant tensor:
#      x y z
#    x 1.700370 0.000000 0.000000 
#    y 0.000000 1.684780 0.000000 
#    z 0.000000 0.000000 1.711280 
# 
# From -- ./inp_files/2309.got.cif
#   From: 2010.03.12/outbox.cif.g09.slc.cpg/sg55_2_cif.got.tgz:2309.got - 2010.04.16 15:19:21.
