data_PCOD8225648
_publ_section_title
;
Structure prediction by ZEFSAII (Michael W. Deem and Ramdas Pophale) SiO2 
 PCOD8225648
Probable space group: P B A M
;
_chemical_formula_sum "Si O2"
_cell_formula_units_Z 64
_cell_length_a 25.955472
_cell_length_b 12.823914
_cell_length_c 9.493327
_cell_angle_alpha 90.000000
_cell_angle_beta 90.000000
_cell_angle_gamma 90.000000
_cell_volume 3159.860924
_symmetry_space_group_name_H-M "P B A M"
_symmetry_group_IT_number 55
_symmetry_cell_setting 'orthorhombic'
loop_
_space_group_symop_operation_xyz
x,y,z
-x,-y,z
1/2+x,1/2-y,-z
1/2-x,1/2+y,-z
-x,-y,-z
x,y,-z
1/2-x,1/2+y,z
1/2+x,1/2-y,z
loop_
_atom_site_type_symbol
_atom_site_label
_atom_site_fract_x
_atom_site_fract_y
_atom_site_fract_z
Si Si1 0.849883 0.614954 0.666015
Si Si2 0.793900 0.823863 0.662445
Si Si3 0.619628 0.718957 0.834029
Si Si4 0.343986 0.499709 0.841065
Si Si5 0.519556 0.706237 0.344247
Si Si6 0.321199 0.116138 0.661999
Si Si7 0.455439 0.582608 0.848575
Si Si8 0.035861 0.415940 0.656713
O O1 0.851422 0.631256 0.500000
O O2 0.819171 0.717029 0.727188
O O3 0.820044 0.507041 0.704560
O O4 0.908593 0.610132 0.728971
O O5 0.809207 0.834876 0.500000
O O6 0.811492 0.929433 0.737418
O O7 0.732667 0.824555 0.682691
O O8 0.660742 0.624630 0.809663
O O9 0.566105 0.686784 0.762186
O O10 0.638826 0.825409 0.762894
O O11 0.610260 0.737039 0.000000
O O12 0.403290 0.523827 0.816442
O O13 0.325790 0.523983 0.000000
O O14 0.532353 0.660237 0.500000
O O15 0.467163 0.657363 0.281671
O O16 0.504757 0.824740 0.357164
O O17 0.339745 0.126495 0.500000
O O18 0.500000 0.500000 0.858069
O O19 0.451835 0.642385 0.000000
O O20 0.049918 0.458411 0.500000
O O21 0.000000 0.500000 0.739721
#
# Coordination Sequence:
#
# PCOD8225648 Si02
#       8
#     8   8   8   8   8   8   8   8
#     4   9  18  36  57  84 122 152 186 242 303 357
#     4  10  22  38  62  90 117 151 192 249 309 355
#     4  11  23  40  59  84 121 163 199 242 297 353
#     4  10  22  39  59  83 117 161 201 238 291 355
#     4  11  21  33  56  89 117 150 198 247 290 347
#     4  10  22  39  63  89 114 150 196 246 301 354
#     4  10  19  36  55  76 115 160 190 224 285 349
#     4   9  17  30  52  79 112 153 189 226 284 346
#
# _framework density 20.254057
#
# number of rings (size 3 to 8) (size 9 to 14) (size 15 to 20)
#    0.000    2.000    1.250    2.250    1.750    5.250 
#    0.000    0.625    0.000    8.250    0.000    0.000 
#    0.000    0.000    0.000    0.000    0.000    0.000 
#
# Total GULP energy -792965.765950 kJ/mol
# GULP energy per Si atom -12390.090093 kJ/mol
# Density = 2.020796 g / cm^3
# Si number density = 20.254057 Si / 1000 Ang^3
#
#
#
# Elastic Constant Matrix: (Units=GPa)
#
#
# Indices 1 2 3 4 5 6 
#
# 1 60.1667 18.6199 24.9455 0.0000 0.0000 0.0000
# 2 18.6199 95.9949 35.9503 0.0000 0.0000 0.0000
# 3 24.9455 35.9503 83.1974 0.0000 0.0000 0.0000
# 4 0.0000 0.0000 0.0000 25.9227 0.0000 0.0000
# 5 0.0000 0.0000 0.0000 0.0000 13.7715 0.0000
# 6 0.0000 0.0000 0.0000 0.0000 0.0000 37.5584
#
#
#
# Elastic Compliance Matrix: (Units=1/GPa)
#
#
# Indices 1 2 3 4 5 6 
#
# 1 0.019259 -0.001877 -0.004964 0.000000 0.000000 0.000000
# 2 -0.001877 0.012611 -0.004887 0.000000 0.000000 0.000000
# 3 -0.004964 -0.004887 0.015619 0.000000 0.000000 0.000000
# 4 0.000000 0.000000 0.000000 0.038576 0.000000 0.000000
# 5 0.000000 0.000000 0.000000 0.000000 0.072614 0.000000
# 6 0.000000 0.000000 0.000000 0.000000 0.000000 0.026625
#
#
# Mechanical properties :
#
#
# Convention : Reuss Voigt Hill
#
# Bulk Modulus (GPa) = 41.60465 44.26560 42.93512
# Shear Modulus (GPa) = 23.06578 26.10676 24.58627
#
# Velocity S-wave (km/s) = 3.37831 3.59411 3.48788
# Velocity P-wave (km/s) = 5.98358 6.25509 6.12084
#
# Compressibility (1/GPa) = 0.02403577
#
# Stress axis : x y z
#
# Youngs Moduli (GPa) = 51.92316 79.29365 64.02265
#
# Poissons Ratio (x) = 0.14882 0.31778
# Poissons Ratio (y) = 0.09745 0.31286
# Poissons Ratio (z) = 0.25773 0.38749
#
# Static dielectric constant tensor:
#      x y z
#    x 9.498020 0.000000 0.000000 
#    y 0.000000 3.801030 0.000000 
#    z 0.000000 0.000000 3.849110 
# 
# 
# High freq. dielectric constant tensor:
#      x y z
#    x 1.790110 0.000000 0.000000 
#    y 0.000000 1.798000 0.000000 
#    z 0.000000 0.000000 1.759750 
# 
# From -- ./inp_files/10722.got.cif
#   From: 2010.03.12/outbox.cif.g09.slc.cpg/sg55_6_cif.got.tgz:10722.got - 2010.04.16 15:19:21.
