data_PCOD8225566
_publ_section_title
;
Structure prediction by ZEFSAII (Michael W. Deem and Ramdas Pophale) SiO2 
 PCOD8225566
Probable space group: P B A M
;
_chemical_formula_sum "Si O2"
_cell_formula_units_Z 48
_cell_length_a 31.129079
_cell_length_b 8.913507
_cell_length_c 8.853559
_cell_angle_alpha 90.000000
_cell_angle_beta 90.000000
_cell_angle_gamma 90.000000
_cell_volume 2456.590496
_symmetry_space_group_name_H-M "P B A M"
_symmetry_group_IT_number 55
_symmetry_cell_setting 'orthorhombic'
loop_
_space_group_symop_operation_xyz
x,y,z
-x,-y,z
1/2+x,1/2-y,-z
1/2-x,1/2+y,-z
-x,-y,-z
x,y,-z
1/2-x,1/2+y,z
1/2+x,1/2-y,z
loop_
_atom_site_type_symbol
_atom_site_label
_atom_site_fract_x
_atom_site_fract_y
_atom_site_fract_z
Si Si1 0.959723 0.402553 0.825858
Si Si2 0.792678 0.410555 0.179138
Si Si3 0.293051 0.428193 0.179863
Si Si4 0.125983 0.087861 0.678390
Si Si5 0.375096 0.905775 0.824595
Si Si6 0.541833 0.583509 0.678626
O O1 0.916830 0.495158 0.797749
O O2 0.957617 0.254434 0.727776
O O3 0.000000 0.500000 0.770029
O O4 0.965099 0.356797 0.000000
O O5 0.750390 0.494159 0.240194
O O6 0.794234 0.241424 0.243180
O O7 0.834369 0.500252 0.234990
O O8 0.791824 0.404047 0.000000
O O9 0.332667 0.520302 0.242432
O O10 0.295060 0.431284 0.000000
O O11 0.131050 0.073449 0.500000
O O12 0.120574 0.259846 0.723100
O O13 0.084367 0.999117 0.739361
O O14 0.369653 0.860595 0.000000
O O15 0.500000 0.500000 0.746595
O O16 0.540586 0.576397 0.500000
#
# Coordination Sequence:
#
# PCOD8225566 Si02
#       6
#     8   8   8   8   8   8
#     4  10  21  36  57  87 115 138 174 226 277 320
#     4   9  18  33  57  84 106 138 184 223 260 321
#     4  10  19  35  58  81 107 140 179 223 270 319
#     4  11  23  37  54  80 110 141 182 226 268 316
#     4  10  20  36  57  81 110 144 181 220 268 325
#     4  10  22  39  57  78 108 148 188 220 259 321
#
# _framework density 19.539276000000001
#
# number of rings (size 3 to 8) (size 9 to 14) (size 15 to 20)
#    0.000    2.000    0.000    3.500    0.000    6.667 
#    0.000    4.167    0.000    0.000    0.000    0.000 
#    0.000    0.000    0.000    0.000    0.000    0.000 
#
# Total GULP energy -595386.574624 kJ/mol
# GULP energy per Si atom -12403.886971 kJ/mol
# Density = 1.949480 g / cm^3
# Si number density = 19.539276 Si / 1000 Ang^3
#
#
#
# Elastic Constant Matrix: (Units=GPa)
#
#
# Indices 1 2 3 4 5 6 
#
# 1 165.4160 49.2898 19.2647 0.0000 0.0000 0.0000
# 2 49.2898 111.0944 7.2704 0.0000 0.0000 0.0000
# 3 19.2647 7.2704 11.6546 0.0000 0.0000 0.0000
# 4 0.0000 0.0000 0.0000 27.6951 0.0000 0.0000
# 5 0.0000 0.0000 0.0000 0.0000 -5.6357 0.0000
# 6 0.0000 0.0000 0.0000 0.0000 0.0000 36.8208
#
#
#
# Elastic Compliance Matrix: (Units=1/GPa)
#
#
# Indices 1 2 3 4 5 6 
#
# 1 0.008296 -0.002902 -0.011903 0.000000 0.000000 0.000000
# 2 -0.002902 0.010399 -0.001691 0.000000 0.000000 0.000000
# 3 -0.011903 -0.001691 0.106533 0.000000 0.000000 0.000000
# 4 0.000000 0.000000 0.000000 0.036107 0.000000 0.000000
# 5 0.000000 0.000000 0.000000 0.000000 -0.177439 0.000000
# 6 0.000000 0.000000 0.000000 0.000000 0.000000 0.027159
#
#
# Mechanical properties :
#
#
# Convention : Reuss Voigt Hill
#
# Bulk Modulus (GPa) = 10.84161 48.86832 29.85496
# Shear Modulus (GPa) = 66.85083 25.93205 46.39144
#
# Velocity S-wave (km/s) = 5.85558 3.64699 4.87793
# Velocity P-wave (km/s) = 7.16085 6.54207 6.85844
#
# Compressibility (1/GPa) = 0.09223724
#
# Stress axis : x y z
#
# Youngs Moduli (GPa) = 120.53524 96.15851 9.38674
#
# Poissons Ratio (x) = 0.27904 0.11173
# Poissons Ratio (y) = 0.34978 0.01587
# Poissons Ratio (z) = 1.43476 0.16258
#
# Static dielectric constant tensor:
#      x y z
#    x 4.008340 0.000000 0.000000 
#    y 0.000000 3.666420 0.000000 
#    z 0.000000 0.000000 3.240090 
# 
# 
# High freq. dielectric constant tensor:
#      x y z
#    x 1.784990 0.000000 0.000000 
#    y 0.000000 1.777680 0.000000 
#    z 0.000000 0.000000 1.728780 
# 
# From -- ./inp_files/2792.got.cif
#   From: 2010.03.12/outbox.cif.g09.slc.cpg/sg55_2_cif.got.tgz:2792.got - 2010.04.16 15:19:21.
