data_PCOD8225013
_publ_section_title
;
Structure prediction by ZEFSAII (Michael W. Deem and Ramdas Pophale) SiO2 
 PCOD8225013
Probable space group: P B A M
;
_chemical_formula_sum "Si O2"
_cell_formula_units_Z 64
_cell_length_a 13.954486
_cell_length_b 28.033307
_cell_length_c 8.925271
_cell_angle_alpha 90.000000
_cell_angle_beta 90.000000
_cell_angle_gamma 90.000000
_cell_volume 3491.480244
_symmetry_space_group_name_H-M "P B A M"
_symmetry_group_IT_number 55
_symmetry_cell_setting 'orthorhombic'
loop_
_space_group_symop_operation_xyz
x,y,z
-x,-y,z
1/2+x,1/2-y,-z
1/2-x,1/2+y,-z
-x,-y,-z
x,y,-z
1/2-x,1/2+y,z
1/2+x,1/2-y,z
loop_
_atom_site_type_symbol
_atom_site_label
_atom_site_fract_x
_atom_site_fract_y
_atom_site_fract_z
Si Si1 0.681837 0.113150 0.829537
Si Si2 0.746362 0.014285 0.829108
Si Si3 0.332114 0.178554 0.324573
Si Si4 0.033727 0.309857 0.823918
Si Si5 0.261203 0.580075 0.676472
Si Si6 0.346980 0.718386 0.172961
Si Si7 0.443657 0.618843 0.174478
Si Si8 0.138168 0.910902 0.677114
O O1 0.663455 0.055548 0.822194
O O2 0.589088 0.141936 0.773118
O O3 0.775175 0.124862 0.727145
O O4 0.705929 0.128861 0.000000
O O5 0.842200 0.037131 0.753002
O O6 0.711384 0.968246 0.736276
O O7 0.768800 0.999733 0.000000
O O8 0.337668 0.184917 0.500000
O O9 0.433091 0.192832 0.257095
O O10 0.306716 0.124209 0.279136
O O11 0.251349 0.214377 0.264353
O O12 0.097213 0.265101 0.771895
O O13 0.014212 0.308848 0.000000
O O14 0.278540 0.577642 0.500000
O O15 0.362749 0.584068 0.759813
O O16 0.414893 0.673388 0.203251
O O17 0.318394 0.722219 0.000000
O O18 0.540074 0.610591 0.264662
O O19 0.458593 0.607540 0.000000
O O20 0.135196 0.916540 0.500000
#
# Coordination Sequence:
#
# PCOD8225013 Si02
#       8
#     8   8   8   8   8   8   8   8
#     4   8  18  35  53  76 106 137 177 225 266 311
#     4   9  18  34  54  78 107 142 182 226 272 317
#     4  10  22  38  56  83 115 144 176 219 273 326
#     4  10  20  38  62  83 107 143 185 226 267 319
#     4  10  20  35  54  77 109 145 181 224 272 325
#     4   9  20  37  58  81 106 141 184 225 267 315
#     4  10  19  33  52  77 108 143 183 228 271 320
#     4  10  19  32  51  76 108 143 178 218 268 325
#
# _framework density 18.330334000000001
#
# number of rings (size 3 to 8) (size 9 to 14) (size 15 to 20)
#    0.750    1.750    0.000    2.250    0.000    4.500 
#    0.000    8.125    0.000    3.750    0.000    0.000 
#    0.000    0.000    0.000    0.000    0.000    0.000 
#
# Total GULP energy -793334.258802 kJ/mol
# GULP energy per Si atom -12395.847794 kJ/mol
# Density = 1.828861 g / cm^3
# Si number density = 18.330334 Si / 1000 Ang^3
#
#
#
# Elastic Constant Matrix: (Units=GPa)
#
#
# Indices 1 2 3 4 5 6 
#
# 1 112.7735 66.5188 49.1748 0.0000 0.0000 0.0000
# 2 66.5188 100.0393 46.0312 0.0000 0.0000 0.0000
# 3 49.1748 46.0312 92.0530 0.0000 0.0000 0.0000
# 4 0.0000 0.0000 0.0000 24.8518 0.0000 0.0000
# 5 0.0000 0.0000 0.0000 0.0000 22.6610 0.0000
# 6 0.0000 0.0000 0.0000 0.0000 0.0000 17.3130
#
#
#
# Elastic Compliance Matrix: (Units=1/GPa)
#
#
# Indices 1 2 3 4 5 6 
#
# 1 0.015704 -0.008549 -0.004114 0.000000 0.000000 0.000000
# 2 -0.008549 0.017637 -0.004253 0.000000 0.000000 0.000000
# 3 -0.004114 -0.004253 0.015188 0.000000 0.000000 0.000000
# 4 0.000000 0.000000 0.000000 0.040238 0.000000 0.000000
# 5 0.000000 0.000000 0.000000 0.000000 0.044129 0.000000
# 6 0.000000 0.000000 0.000000 0.000000 0.000000 0.057760
#
#
# Mechanical properties :
#
#
# Convention : Reuss Voigt Hill
#
# Bulk Modulus (GPa) = 68.03963 69.81281 68.92622
# Shear Modulus (GPa) = 21.79728 22.50789 22.15258
#
# Velocity S-wave (km/s) = 3.45213 3.50795 3.48015
# Velocity P-wave (km/s) = 7.28620 7.38757 7.33706
#
# Compressibility (1/GPa) = 0.01469732
#
# Stress axis : x y z
#
# Youngs Moduli (GPa) = 63.67895 56.69829 65.84294
#
# Poissons Ratio (x) = 0.48470 0.27089
# Poissons Ratio (y) = 0.54438 0.28001
# Poissons Ratio (z) = 0.26198 0.24112
#
# Static dielectric constant tensor:
#      x y z
#    x 3.165690 0.000000 0.000000 
#    y 0.000000 3.433560 0.000000 
#    z 0.000000 0.000000 3.386590 
# 
# 
# High freq. dielectric constant tensor:
#      x y z
#    x 1.691370 0.000000 0.000000 
#    y 0.000000 1.708080 0.000000 
#    z 0.000000 0.000000 1.716780 
# 
# From -- ./inp_files/6632.got.cif
#   From: 2010.03.12/outbox.cif.g09.slc.cpg/sg55_4_cif.got.tgz:6632.got - 2010.04.16 15:19:21.
