data_PCOD8225502
_publ_section_title
;
Structure prediction by ZEFSAII (Michael W. Deem and Ramdas Pophale) SiO2 
 PCOD8225502
Probable space group: P B A M
;
_chemical_formula_sum "Si O2"
_cell_formula_units_Z 48
_cell_length_a 14.046350
_cell_length_b 20.431768
_cell_length_c 8.667163
_cell_angle_alpha 90.000000
_cell_angle_beta 90.000000
_cell_angle_gamma 90.000000
_cell_volume 2487.404402
_symmetry_space_group_name_H-M "P B A M"
_symmetry_group_IT_number 55
_symmetry_cell_setting 'orthorhombic'
loop_
_space_group_symop_operation_xyz
x,y,z
-x,-y,z
1/2+x,1/2-y,-z
1/2-x,1/2+y,-z
-x,-y,-z
x,y,-z
1/2-x,1/2+y,z
1/2+x,1/2-y,z
loop_
_atom_site_type_symbol
_atom_site_label
_atom_site_fract_x
_atom_site_fract_y
_atom_site_fract_z
Si Si1 0.947927 0.303237 0.676345
Si Si2 0.249178 0.888154 0.316404
Si Si3 0.262001 0.739059 0.323381
Si Si4 0.548486 0.064997 0.682841
Si Si5 0.444815 0.686226 0.177935
Si Si6 0.952596 0.065478 0.317785
O O1 0.980382 0.289415 0.500000
O O2 0.834889 0.301377 0.690703
O O3 0.983859 0.373790 0.732541
O O4 0.992984 0.249768 0.787039
O O5 0.246369 0.888558 0.500000
O O6 0.249866 0.812881 0.259760
O O7 0.343559 0.925291 0.254189
O O8 0.154348 0.923595 0.250267
O O9 0.298204 0.741048 0.500000
O O10 0.335778 0.700105 0.218737
O O11 0.552406 0.058586 0.500000
O O12 0.500000 0.000000 0.754869
O O13 0.480646 0.626110 0.279036
O O14 0.454388 0.667646 0.000000
O O15 0.945554 0.058999 0.500000
O O16 0.000000 0.000000 0.246518
#
# Coordination Sequence:
#
# PCOD8225502 Si02
#       6
#     8   8   8   8   8   8
#     4  10  19  35  59  83 107 144 193 244 288 332
#     4   9  16  30  55  84 112 144 183 235 287 338
#     4  10  19  34  59  84 110 145 195 244 284 335
#     4   9  17  29  51  84 115 138 174 230 291 342
#     4  12  24  36  55  84 119 152 190 235 290 358
#     4  10  21  38  61  87 116 151 197 247 294 347
#
# _framework density 19.297222999999999
#
# number of rings (size 3 to 8) (size 9 to 14) (size 15 to 20)
#    0.000    2.000    3.333    1.500    0.000    2.333 
#    0.000    5.000    0.000    0.500    0.000    0.000 
#    0.000    0.000    0.000    0.000    0.000    0.000 
#
# Total GULP energy -595206.291776 kJ/mol
# GULP energy per Si atom -12400.131079 kJ/mol
# Density = 1.925330 g / cm^3
# Si number density = 19.297223 Si / 1000 Ang^3
#
#
#
# Elastic Constant Matrix: (Units=GPa)
#
#
# Indices 1 2 3 4 5 6 
#
# 1 150.7038 78.1016 8.9674 0.0000 0.0000 0.0000
# 2 78.1016 147.5770 -0.0894 0.0000 0.0000 0.0000
# 3 8.9674 -0.0894 12.2758 0.0000 0.0000 0.0000
# 4 0.0000 0.0000 0.0000 2.3270 0.0000 0.0000
# 5 0.0000 0.0000 0.0000 0.0000 10.7848 0.0000
# 6 0.0000 0.0000 0.0000 0.0000 0.0000 36.8145
#
#
#
# Elastic Compliance Matrix: (Units=1/GPa)
#
#
# Indices 1 2 3 4 5 6 
#
# 1 0.009732 -0.005155 -0.007147 0.000000 0.000000 0.000000
# 2 -0.005155 0.009507 0.003835 0.000000 0.000000 0.000000
# 3 -0.007147 0.003835 0.086710 0.000000 0.000000 0.000000
# 4 0.000000 0.000000 0.000000 0.429739 0.000000 0.000000
# 5 0.000000 0.000000 0.000000 0.000000 0.092723 0.000000
# 6 0.000000 0.000000 0.000000 0.000000 0.000000 0.027163
#
#
# Mechanical properties :
#
#
# Convention : Reuss Voigt Hill
#
# Bulk Modulus (GPa) = 11.23412 53.83510 32.53461
# Shear Modulus (GPa) = 7.12069 24.89038 16.00553
#
# Velocity S-wave (km/s) = 1.92302 3.59533 2.88309
# Velocity P-wave (km/s) = 3.28100 6.72262 5.28955
#
# Compressibility (1/GPa) = 0.08901457
#
# Stress axis : x y z
#
# Youngs Moduli (GPa) = 102.75032 105.19033 11.53274
#
# Poissons Ratio (x) = 0.54225 0.08242
# Poissons Ratio (y) = 0.52967 -0.04423
# Poissons Ratio (z) = 0.73435 -0.40340
#
# Static dielectric constant tensor:
#      x y z
#    x 3.844380 0.000000 0.000000 
#    y 0.000000 3.698260 0.000000 
#    z 0.000000 0.000000 2.995460 
# 
# 
# High freq. dielectric constant tensor:
#      x y z
#    x 1.769650 0.000000 0.000000 
#    y 0.000000 1.750010 0.000000 
#    z 0.000000 0.000000 1.696710 
# 
# From -- ./inp_files/5552.got.cif
#   From: 2010.03.12/outbox.cif.g09.slc.cpg/sg55_3_cif.got.tgz:5552.got - 2010.04.16 15:19:21.
