data_PCOD8225226
_publ_section_title
;
Structure prediction by ZEFSAII (Michael W. Deem and Ramdas Pophale) SiO2 
 PCOD8225226
Probable space group: P B A M
;
_chemical_formula_sum "Si O2"
_cell_formula_units_Z 56
_cell_length_a 23.177233
_cell_length_b 14.008299
_cell_length_c 9.071575
_cell_angle_alpha 90.000000
_cell_angle_beta 90.000000
_cell_angle_gamma 90.000000
_cell_volume 2945.301002
_symmetry_space_group_name_H-M "P B A M"
_symmetry_group_IT_number 55
_symmetry_cell_setting 'orthorhombic'
loop_
_space_group_symop_operation_xyz
x,y,z
-x,-y,z
1/2+x,1/2-y,-z
1/2-x,1/2+y,-z
-x,-y,-z
x,y,-z
1/2-x,1/2+y,z
1/2+x,1/2-y,z
loop_
_atom_site_type_symbol
_atom_site_label
_atom_site_fract_x
_atom_site_fract_y
_atom_site_fract_z
Si Si1 0.005277 0.610463 0.327481
Si Si2 0.890786 0.724734 0.673351
Si Si3 0.660314 0.392138 0.825311
Si Si4 0.886642 0.298341 0.170427
Si Si5 0.333774 0.393687 0.832011
Si Si6 0.278752 0.110896 0.671399
Si Si7 0.719963 0.111074 0.669134
O O1 0.019805 0.618831 0.500000
O O2 0.055035 0.660970 0.236149
O O3 0.000000 0.500000 0.281117
O O4 0.946914 0.664471 0.284357
O O5 0.888563 0.744344 0.500000
O O6 0.890488 0.825954 0.758890
O O7 0.836020 0.664760 0.731126
O O8 0.646684 0.501440 0.775945
O O9 0.720602 0.357517 0.754487
O O10 0.662879 0.380258 0.000000
O O11 0.885629 0.182509 0.187024
O O12 0.832733 0.336741 0.259769
O O13 0.881612 0.328636 0.000000
O O14 0.277728 0.353632 0.748441
O O15 0.314247 0.403536 0.000000
O O16 0.272316 0.137813 0.500000
O O17 0.290524 0.999922 0.695265
O O18 0.728836 0.136527 0.500000
#
# Coordination Sequence:
#
# PCOD8225226 Si02
#       7
#     8   8   8   8   8   8   8
#     4  10  22  41  61  80 106 140 177 218 265 318
#     4  10  20  35  55  79 106 138 178 220 264 316
#     4  10  20  35  54  78 109 143 178 218 266 316
#     4  11  22  36  55  80 108 140 181 224 267 315
#     4   9  20  36  52  75 109 143 174 214 263 315
#     4  10  19  33  54  81 112 144 177 216 267 321
#     4   9  18  32  53  80 108 139 174 214 262 317
#
# _framework density 19.013337
#
# number of rings (size 3 to 8) (size 9 to 14) (size 15 to 20)
#    0.000    2.143    0.000    3.000    0.000    8.286 
#    0.000    2.143    0.000    4.286    0.000    0.000 
#    0.000    0.000    0.000    0.000    0.000    0.000 
#
# Total GULP energy -694436.802546 kJ/mol
# GULP energy per Si atom -12400.657188 kJ/mol
# Density = 1.897006 g / cm^3
# Si number density = 19.013337 Si / 1000 Ang^3
#
#
#
# Elastic Constant Matrix: (Units=GPa)
#
#
# Indices 1 2 3 4 5 6 
#
# 1 91.4820 79.1302 44.1422 0.0000 0.0000 0.0000
# 2 79.1302 107.9498 49.1762 0.0000 0.0000 0.0000
# 3 44.1422 49.1762 70.4895 0.0000 0.0000 0.0000
# 4 0.0000 0.0000 0.0000 29.1779 0.0000 0.0000
# 5 0.0000 0.0000 0.0000 0.0000 23.5647 0.0000
# 6 0.0000 0.0000 0.0000 0.0000 0.0000 32.9590
#
#
#
# Elastic Compliance Matrix: (Units=1/GPa)
#
#
# Indices 1 2 3 4 5 6 
#
# 1 0.031138 -0.020437 -0.005242 0.000000 0.000000 0.000000
# 2 -0.020437 0.026993 -0.006033 0.000000 0.000000 0.000000
# 3 -0.005242 -0.006033 0.021678 0.000000 0.000000 0.000000
# 4 0.000000 0.000000 0.000000 0.034273 0.000000 0.000000
# 5 0.000000 0.000000 0.000000 0.000000 0.042436 0.000000
# 6 0.000000 0.000000 0.000000 0.000000 0.000000 0.030341
#
#
# Mechanical properties :
#
#
# Convention : Reuss Voigt Hill
#
# Bulk Modulus (GPa) = 61.03114 68.31318 64.67216
# Shear Modulus (GPa) = 19.55075 23.63849 21.59462
#
# Velocity S-wave (km/s) = 3.21014 3.52981 3.37376
# Velocity P-wave (km/s) = 6.77560 7.25395 7.01885
#
# Compressibility (1/GPa) = 0.01638508
#
# Stress axis : x y z
#
# Youngs Moduli (GPa) = 32.11480 37.04650 46.13014
#
# Poissons Ratio (x) = 0.75714 0.24180
# Poissons Ratio (y) = 0.65634 0.27830
# Poissons Ratio (z) = 0.16833 0.22350
#
# Static dielectric constant tensor:
#      x y z
#    x 3.475560 0.000000 0.000000 
#    y 0.000000 3.807020 0.000000 
#    z 0.000000 0.000000 3.467330 
# 
# 
# High freq. dielectric constant tensor:
#      x y z
#    x 1.718690 0.000000 0.000000 
#    y 0.000000 1.758110 0.000000 
#    z 0.000000 0.000000 1.738940 
# 
# From -- ./inp_files/6168.got.cif
#   From: 2010.03.12/outbox.cif.g09.slc.cpg/sg55_4_cif.got.tgz:6168.got - 2010.04.16 15:19:21.
