data_PCOD8225155
_publ_section_title
;
Structure prediction by ZEFSAII (Michael W. Deem and Ramdas Pophale) SiO2 
 PCOD8225155
Probable space group: P B A M
;
_chemical_formula_sum "Si O2"
_cell_formula_units_Z 64
_cell_length_a 29.872799
_cell_length_b 14.442344
_cell_length_c 8.734130
_cell_angle_alpha 90.000000
_cell_angle_beta 90.000000
_cell_angle_gamma 90.000000
_cell_volume 3768.193999
_symmetry_space_group_name_H-M "P B A M"
_symmetry_group_IT_number 55
_symmetry_cell_setting 'orthorhombic'
loop_
_space_group_symop_operation_xyz
x,y,z
-x,-y,z
1/2+x,1/2-y,-z
1/2-x,1/2+y,-z
-x,-y,-z
x,y,-z
1/2-x,1/2+y,z
1/2+x,1/2-y,z
loop_
_atom_site_type_symbol
_atom_site_label
_atom_site_fract_x
_atom_site_fract_y
_atom_site_fract_z
Si Si1 0.287882 0.782308 0.181883
Si Si2 0.453357 0.605008 0.818133
Si Si3 0.632575 0.329247 0.678878
Si Si4 0.794375 0.327493 0.676026
Si Si5 0.825464 0.998067 0.171021
Si Si6 0.139355 0.828663 0.325828
Si Si7 0.954112 0.094829 0.321233
Si Si8 0.778009 0.509828 0.172121
O O1 0.334783 0.744787 0.244169
O O2 0.246156 0.721586 0.236149
O O3 0.283640 0.887726 0.243201
O O4 0.288031 0.778888 0.000000
O O5 0.416460 0.677354 0.755979
O O6 0.441561 0.502157 0.758565
O O7 0.501429 0.637573 0.754099
O O8 0.454450 0.605075 0.000000
O O9 0.628785 0.309184 0.500000
O O10 0.650869 0.432558 0.706317
O O11 0.780221 0.328960 0.500000
O O12 0.841159 0.273603 0.703573
O O13 0.804097 0.432128 0.731204
O O14 0.773210 0.978788 0.175161
O O15 0.834276 0.104074 0.212288
O O16 0.844067 0.977169 0.000000
O O17 0.148948 0.860102 0.500000
O O18 0.086154 0.832456 0.293003
O O19 0.962462 0.076169 0.500000
O O20 0.796981 0.509132 0.000000
#
# Coordination Sequence:
#
# PCOD8225155 Si02
#       8
#     8   8   8   8   8   8   8   8
#     4  11  22  37  53  73 101 136 177 217 257 303
#     4  11  21  33  50  75 104 135 173 213 256 311
#     4  12  23  35  51  75 103 138 175 213 260 311
#     4  11  22  34  52  77 104 137 175 214 255 304
#     4  11  20  31  50  74 103 139 176 214 254 299
#     4  10  21  34  50  75 106 140 177 212 254 304
#     4  10  19  33  51  73 105 140 172 212 258 305
#     4  10  22  37  52  72 103 140 176 218 260 299
#
# _framework density 16.984264
#
# number of rings (size 3 to 8) (size 9 to 14) (size 15 to 20)
#    0.000    1.250    3.750    4.500    0.000    2.500 
#    0.000    0.000    0.000    0.000    0.000    0.875 
#    0.000    7.000    0.000    0.000    0.000    0.000 
#
# Total GULP energy -793659.473534 kJ/mol
# GULP energy per Si atom -12400.929274 kJ/mol
# Density = 1.694561 g / cm^3
# Si number density = 16.984264 Si / 1000 Ang^3
#
#
#
# Elastic Constant Matrix: (Units=GPa)
#
#
# Indices 1 2 3 4 5 6 
#
# 1 103.9098 40.2081 40.3944 0.0000 0.0000 0.0000
# 2 40.2081 90.8985 35.3575 0.0000 0.0000 0.0000
# 3 40.3944 35.3575 99.5066 0.0000 0.0000 0.0000
# 4 0.0000 0.0000 0.0000 24.3347 0.0000 0.0000
# 5 0.0000 0.0000 0.0000 0.0000 20.1332 0.0000
# 6 0.0000 0.0000 0.0000 0.0000 0.0000 26.8771
#
#
#
# Elastic Compliance Matrix: (Units=1/GPa)
#
#
# Indices 1 2 3 4 5 6 
#
# 1 0.012662 -0.004179 -0.003655 0.000000 0.000000 0.000000
# 2 -0.004179 0.014145 -0.003330 0.000000 0.000000 0.000000
# 3 -0.003655 -0.003330 0.012716 0.000000 0.000000 0.000000
# 4 0.000000 0.000000 0.000000 0.041094 0.000000 0.000000
# 5 0.000000 0.000000 0.000000 0.000000 0.049669 0.000000
# 6 0.000000 0.000000 0.000000 0.000000 0.000000 0.037206
#
#
# Mechanical properties :
#
#
# Convention : Reuss Voigt Hill
#
# Bulk Modulus (GPa) = 58.15417 58.47056 58.31237
# Shear Modulus (GPa) = 25.56869 26.15933 25.86401
#
# Velocity S-wave (km/s) = 3.88420 3.92881 3.90657
# Velocity P-wave (km/s) = 7.37770 7.42171 7.39974
#
# Compressibility (1/GPa) = 0.01719567
#
# Stress axis : x y z
#
# Youngs Moduli (GPa) = 78.97832 70.69638 78.63828
#
# Poissons Ratio (x) = 0.29544 0.28743
# Poissons Ratio (y) = 0.33005 0.26184
# Poissons Ratio (z) = 0.28867 0.23539
#
# Static dielectric constant tensor:
#      x y z
#    x 3.286880 0.000000 0.000000 
#    y 0.000000 3.081660 0.000000 
#    z 0.000000 0.000000 3.301600 
# 
# 
# High freq. dielectric constant tensor:
#      x y z
#    x 1.649030 0.000000 0.000000 
#    y 0.000000 1.624540 0.000000 
#    z 0.000000 0.000000 1.670640 
# 
# From -- ./inp_files/6949.got.cif
#   From: 2010.03.12/outbox.cif.g09.slc.cpg/sg55_4_cif.got.tgz:6949.got - 2010.04.16 15:19:21.
