data_PCOD8225941
_publ_section_title
;
Structure prediction by ZEFSAII (Michael W. Deem and Ramdas Pophale) SiO2 
 PCOD8225941
Probable space group: P B A M
;
_chemical_formula_sum "Si O2"
_cell_formula_units_Z 48
_cell_length_a 14.704113
_cell_length_b 20.021056
_cell_length_c 9.242367
_cell_angle_alpha 90.000000
_cell_angle_beta 90.000000
_cell_angle_gamma 90.000000
_cell_volume 2720.877703
_symmetry_space_group_name_H-M "P B A M"
_symmetry_group_IT_number 55
_symmetry_cell_setting 'orthorhombic'
loop_
_space_group_symop_operation_xyz
x,y,z
-x,-y,z
1/2+x,1/2-y,-z
1/2-x,1/2+y,-z
-x,-y,-z
x,y,-z
1/2-x,1/2+y,z
1/2+x,1/2-y,z
loop_
_atom_site_type_symbol
_atom_site_label
_atom_site_fract_x
_atom_site_fract_y
_atom_site_fract_z
Si Si1 0.110995 0.807287 0.168987
Si Si2 0.219394 0.484162 0.830394
Si Si3 0.918154 0.043502 0.171872
Si Si4 0.429455 0.055736 0.669445
Si Si5 0.493002 0.801098 0.329118
Si Si6 0.818065 0.666954 0.832718
O O1 0.074283 0.879558 0.220241
O O2 0.218875 0.802186 0.198758
O O3 0.059804 0.753868 0.265557
O O4 0.090422 0.795045 0.000000
O O5 0.323344 0.488384 0.775603
O O6 0.165687 0.542319 0.748561
O O7 0.180282 0.411181 0.791214
O O8 0.212271 0.497509 0.000000
O O9 0.920205 0.041520 0.000000
O O10 0.000000 0.000000 0.239676
O O11 0.412197 0.050438 0.500000
O O12 0.466052 0.127617 0.715678
O O13 0.500000 0.000000 0.723359
O O14 0.485893 0.792132 0.500000
O O15 0.392030 0.793989 0.263094
O O16 0.843602 0.676544 0.000000
#
# Coordination Sequence:
#
# PCOD8225941 Si02
#       6
#     8   8   8   8   8   8
#     4   9  19  36  56  78 105 137 175 218 262 312
#     4   9  17  30  53  81 102 129 172 217 256 304
#     4   8  15  32  57  81 105 132 167 212 262 312
#     4  10  20  34  50  73 106 142 174 208 260 312
#     4  11  22  35  53  76 106 143 178 216 262 316
#     4   9  18  34  55  76 100 135 177 218 261 309
#
# _framework density 17.641366999999999
#
# number of rings (size 3 to 8) (size 9 to 14) (size 15 to 20)
#    0.000    2.667    1.667    2.500    0.000    2.333 
#    3.000    2.500    0.000    1.000    0.000    0.000 
#    0.000    0.000    0.000    0.000    0.000    0.000 
#
# Total GULP energy -595165.822200 kJ/mol
# GULP energy per Si atom -12399.287962 kJ/mol
# Density = 1.760121 g / cm^3
# Si number density = 17.641367 Si / 1000 Ang^3
#
#
#
# Elastic Constant Matrix: (Units=GPa)
#
#
# Indices 1 2 3 4 5 6 
#
# 1 137.0841 75.5970 55.3382 0.0000 0.0000 0.0000
# 2 75.5970 101.0578 42.0452 0.0000 0.0000 0.0000
# 3 55.3382 42.0452 51.1067 0.0000 0.0000 0.0000
# 4 0.0000 0.0000 0.0000 26.4334 0.0000 0.0000
# 5 0.0000 0.0000 0.0000 0.0000 9.1420 0.0000
# 6 0.0000 0.0000 0.0000 0.0000 0.0000 32.9803
#
#
#
# Elastic Compliance Matrix: (Units=1/GPa)
#
#
# Indices 1 2 3 4 5 6 
#
# 1 0.015733 -0.007118 -0.011180 0.000000 0.000000 0.000000
# 2 -0.007118 0.018265 -0.007319 0.000000 0.000000 0.000000
# 3 -0.011180 -0.007319 0.037694 0.000000 0.000000 0.000000
# 4 0.000000 0.000000 0.000000 0.037831 0.000000 0.000000
# 5 0.000000 0.000000 0.000000 0.000000 0.109385 0.000000
# 6 0.000000 0.000000 0.000000 0.000000 0.000000 0.030321
#
#
# Mechanical properties :
#
#
# Convention : Reuss Voigt Hill
#
# Bulk Modulus (GPa) = 48.88075 70.57883 59.72979
# Shear Modulus (GPa) = 16.27162 21.46236 18.86699
#
# Velocity S-wave (km/s) = 3.04033 3.49175 3.27383
# Velocity P-wave (km/s) = 6.33190 7.50672 6.94420
#
# Compressibility (1/GPa) = 0.02045795
#
# Stress axis : x y z
#
# Youngs Moduli (GPa) = 63.55990 54.74909 26.52921
#
# Poissons Ratio (x) = 0.38970 0.29660
# Poissons Ratio (y) = 0.45241 0.19418
# Poissons Ratio (z) = 0.71060 0.40073
#
# Static dielectric constant tensor:
#      x y z
#    x 3.452950 0.000000 0.000000 
#    y 0.000000 3.222800 0.000000 
#    z 0.000000 0.000000 2.997160 
# 
# 
# High freq. dielectric constant tensor:
#      x y z
#    x 1.691360 0.000000 0.000000 
#    y 0.000000 1.670270 0.000000 
#    z 0.000000 0.000000 1.661310 
# 
# From -- ./inp_files/5677.got.cif
#   From: 2010.03.12/outbox.cif.g09.slc.cpg/sg55_3_cif.got.tgz:5677.got - 2010.04.16 15:19:21.
