data_PCOD8225724
_publ_section_title
;
Structure prediction by ZEFSAII (Michael W. Deem and Ramdas Pophale) SiO2 
 PCOD8225724
Probable space group: P B A M
;
_chemical_formula_sum "Si O2"
_cell_formula_units_Z 64
_cell_length_a 30.448916
_cell_length_b 11.727213
_cell_length_c 9.254588
_cell_angle_alpha 90.000000
_cell_angle_beta 90.000000
_cell_angle_gamma 90.000000
_cell_volume 3304.636830
_symmetry_space_group_name_H-M "P B A M"
_symmetry_group_IT_number 55
_symmetry_cell_setting 'orthorhombic'
loop_
_space_group_symop_operation_xyz
x,y,z
-x,-y,z
1/2+x,1/2-y,-z
1/2-x,1/2+y,-z
-x,-y,-z
x,y,-z
1/2-x,1/2+y,z
1/2+x,1/2-y,z
loop_
_atom_site_type_symbol
_atom_site_label
_atom_site_fract_x
_atom_site_fract_y
_atom_site_fract_z
Si Si1 0.623879 0.130765 0.671425
Si Si2 0.295812 0.276335 0.831906
Si Si3 0.829970 0.014471 0.337341
Si Si4 0.548122 0.732030 0.830011
Si Si5 0.430744 0.491507 0.662354
Si Si6 0.628025 0.894816 0.167179
Si Si7 0.707448 0.273835 0.331284
Si Si8 0.537338 0.260496 0.668092
O O1 0.623894 0.121911 0.500000
O O2 0.666040 0.201395 0.725448
O O3 0.580090 0.194333 0.726296
O O4 0.625542 0.005548 0.735858
O O5 0.321493 0.386463 0.775968
O O6 0.325490 0.165671 0.802055
O O7 0.249821 0.267151 0.753010
O O8 0.287037 0.293540 0.000000
O O9 0.819764 0.057712 0.500000
O O10 0.879991 0.973272 0.325576
O O11 0.799731 0.906853 0.298630
O O12 0.556877 0.604603 0.775891
O O13 0.589072 0.810354 0.785897
O O14 0.504686 0.784461 0.756279
O O15 0.541011 0.728038 0.000000
O O16 0.441316 0.447273 0.500000
O O17 0.458539 0.604382 0.696452
O O18 0.623493 0.928882 0.000000
O O19 0.715006 0.251949 0.500000
O O20 0.530172 0.234359 0.500000
#
# Coordination Sequence:
#
# PCOD8225724 Si02
#       8
#     8   8   8   8   8   8   8   8
#     4  10  22  41  64  87 115 151 196 246 294 346
#     4  11  24  41  60  87 123 160 197 241 290 348
#     4  10  20  38  65  91 118 153 194 242 295 348
#     4  11  23  39  58  85 120 158 196 238 286 345
#     4  10  19  36  62  89 119 152 188 237 295 347
#     4  10  24  43  58  80 120 160 196 239 289 344
#     4  10  22  41  63  91 120 151 195 247 296 348
#     4  10  21  39  61  89 119 149 190 243 296 348
#
# _framework density 19.366727999999998
#
# number of rings (size 3 to 8) (size 9 to 14) (size 15 to 20)
#    0.000    1.750    2.500    1.125    1.750    6.000 
#    0.000    2.500    0.000    0.000    0.000    0.000 
#    0.000    0.000    0.000    0.000    0.000    0.000 
#
# Total GULP energy -793876.673896 kJ/mol
# GULP energy per Si atom -12404.323030 kJ/mol
# Density = 1.932265 g / cm^3
# Si number density = 19.366728 Si / 1000 Ang^3
#
#
#
# Elastic Constant Matrix: (Units=GPa)
#
#
# Indices 1 2 3 4 5 6 
#
# 1 109.2884 22.1086 37.5331 0.0000 0.0000 0.0000
# 2 22.1086 72.4394 33.1939 0.0000 0.0000 0.0000
# 3 37.5331 33.1939 55.8511 0.0000 0.0000 0.0000
# 4 0.0000 0.0000 0.0000 7.0342 0.0000 0.0000
# 5 0.0000 0.0000 0.0000 0.0000 29.5190 0.0000
# 6 0.0000 0.0000 0.0000 0.0000 0.0000 26.6663
#
#
#
# Elastic Compliance Matrix: (Units=1/GPa)
#
#
# Indices 1 2 3 4 5 6 
#
# 1 0.011896 0.000045 -0.008021 0.000000 0.000000 0.000000
# 2 0.000045 0.018971 -0.011305 0.000000 0.000000 0.000000
# 3 -0.008021 -0.011305 0.030014 0.000000 0.000000 0.000000
# 4 0.000000 0.000000 0.000000 0.142163 0.000000 0.000000
# 5 0.000000 0.000000 0.000000 0.000000 0.033876 0.000000
# 6 0.000000 0.000000 0.000000 0.000000 0.000000 0.037500
#
#
# Mechanical properties :
#
#
# Convention : Reuss Voigt Hill
#
# Bulk Modulus (GPa) = 44.80611 47.02781 45.91696
# Shear Modulus (GPa) = 15.60438 22.29346 18.94892
#
# Velocity S-wave (km/s) = 2.84162 3.39650 3.13137
# Velocity P-wave (km/s) = 5.82686 6.30215 6.06916
#
# Compressibility (1/GPa) = 0.02231838
#
# Stress axis : x y z
#
# Youngs Moduli (GPa) = 84.06470 52.71086 33.31792
#
# Poissons Ratio (x) = -0.00236 0.26723
# Poissons Ratio (y) = -0.00376 0.37667
# Poissons Ratio (z) = 0.67426 0.59591
#
# Static dielectric constant tensor:
#      x y z
#    x 3.764090 0.000000 0.000000 
#    y 0.000000 3.410160 0.000000 
#    z 0.000000 0.000000 3.421780 
# 
# 
# High freq. dielectric constant tensor:
#      x y z
#    x 1.772430 0.000000 0.000000 
#    y 0.000000 1.751650 0.000000 
#    z 0.000000 0.000000 1.745180 
# 
# From -- ./inp_files/4665.got.cif
#   From: 2010.03.12/outbox.cif.g09.slc.cpg/sg55_3_cif.got.tgz:4665.got - 2010.04.16 15:19:21.
