data_PCOD8225297
_publ_section_title
;
Structure prediction by ZEFSAII (Michael W. Deem and Ramdas Pophale) SiO2 
 PCOD8225297
Probable space group: P B A M
;
_chemical_formula_sum "Si O2"
_cell_formula_units_Z 64
_cell_length_a 19.290629
_cell_length_b 17.369663
_cell_length_c 9.815770
_cell_angle_alpha 90.000000
_cell_angle_beta 90.000000
_cell_angle_gamma 90.000000
_cell_volume 3288.986984
_symmetry_space_group_name_H-M "P B A M"
_symmetry_group_IT_number 55
_symmetry_cell_setting 'orthorhombic'
loop_
_space_group_symop_operation_xyz
x,y,z
-x,-y,z
1/2+x,1/2-y,-z
1/2-x,1/2+y,-z
-x,-y,-z
x,y,-z
1/2-x,1/2+y,z
1/2+x,1/2-y,z
loop_
_atom_site_type_symbol
_atom_site_label
_atom_site_fract_x
_atom_site_fract_y
_atom_site_fract_z
Si Si1 0.182760 0.509707 0.847271
Si Si2 0.264372 0.764328 0.658888
Si Si3 0.423672 0.511302 0.341778
Si Si4 0.492976 0.229254 0.841271
Si Si5 0.840454 0.316818 0.847254
Si Si6 0.592206 0.314609 0.342938
Si Si7 0.043840 0.431539 0.842053
Si Si8 0.713304 0.566298 0.660520
O O1 0.145725 0.592272 0.831334
O O2 0.125081 0.444916 0.820173
O O3 0.243146 0.498908 0.738168
O O4 0.213341 0.500695 0.000000
O O5 0.249713 0.752503 0.500000
O O6 0.217143 0.705517 0.739894
O O7 0.343387 0.741277 0.694411
O O8 0.242953 0.850449 0.704308
O O9 0.500000 0.500000 0.271330
O O10 0.434792 0.497731 0.500000
O O11 0.391248 0.595783 0.313515
O O12 0.366951 0.447305 0.293284
O O13 0.410715 0.229711 0.818292
O O14 0.526515 0.296438 0.751977
O O15 0.524243 0.150435 0.778755
O O16 0.512005 0.241137 0.000000
O O17 0.814038 0.298158 0.000000
O O18 0.570758 0.302855 0.500000
O O19 0.000000 0.500000 0.770855
O O20 0.022235 0.428328 0.000000
O O21 0.722444 0.552411 0.500000
#
# Coordination Sequence:
#
# PCOD8225297 Si02
#       8
#     8   8   8   8   8   8   8   8
#     4  10  19  33  56  83 110 145 184 222 269 329
#     4  10  22  38  57  83 112 144 184 234 289 340
#     4   9  19  36  58  79 102 144 194 228 263 330
#     4  10  20  34  55  83 112 145 184 226 274 330
#     4  10  21  35  54  82 113 144 183 228 273 333
#     4  10  21  37  57  81 111 143 185 235 281 332
#     4   9  15  29  52  76 107 146 184 215 254 322
#     4  10  21  37  58  82 110 142 184 234 282 334
#
# _framework density 19.458879
#
# number of rings (size 3 to 8) (size 9 to 14) (size 15 to 20)
#    0.000    2.250    1.250    1.500    1.750    3.000 
#    0.000    0.625    0.000    1.500    0.000    0.000 
#    0.000    0.000    0.000    0.000    0.000    0.000 
#
# Total GULP energy -793395.824603 kJ/mol
# GULP energy per Si atom -12396.809759 kJ/mol
# Density = 1.941459 g / cm^3
# Si number density = 19.458879 Si / 1000 Ang^3
#
#
#
# Elastic Constant Matrix: (Units=GPa)
#
#
# Indices 1 2 3 4 5 6 
#
# 1 95.2963 31.0914 33.2293 0.0000 0.0000 0.0000
# 2 31.0914 55.2601 18.1987 0.0000 0.0000 0.0000
# 3 33.2293 18.1987 45.1510 0.0000 0.0000 0.0000
# 4 0.0000 0.0000 0.0000 23.6178 0.0000 0.0000
# 5 0.0000 0.0000 0.0000 0.0000 28.5669 0.0000
# 6 0.0000 0.0000 0.0000 0.0000 0.0000 37.6737
#
#
#
# Elastic Compliance Matrix: (Units=1/GPa)
#
#
# Indices 1 2 3 4 5 6 
#
# 1 0.015551 -0.005743 -0.009130 0.000000 0.000000 0.000000
# 2 -0.005743 0.022987 -0.005039 0.000000 0.000000 0.000000
# 3 -0.009130 -0.005039 0.030898 0.000000 0.000000 0.000000
# 4 0.000000 0.000000 0.000000 0.042341 0.000000 0.000000
# 5 0.000000 0.000000 0.000000 0.000000 0.035006 0.000000
# 6 0.000000 0.000000 0.000000 0.000000 0.000000 0.026544
#
#
# Mechanical properties :
#
#
# Convention : Reuss Voigt Hill
#
# Bulk Modulus (GPa) = 33.76925 40.08290 36.92607
# Shear Modulus (GPa) = 22.41953 25.51754 23.96853
#
# Velocity S-wave (km/s) = 3.39801 3.62519 3.51344
# Velocity P-wave (km/s) = 5.72601 6.17788 5.95623
#
# Compressibility (1/GPa) = 0.02961274
#
# Stress axis : x y z
#
# Youngs Moduli (GPa) = 64.30531 43.50351 32.36432
#
# Poissons Ratio (x) = 0.24983 0.29549
# Poissons Ratio (y) = 0.36928 0.16307
# Poissons Ratio (z) = 0.58711 0.21920
#
# Static dielectric constant tensor:
#      x y z
#    x 3.573600 0.000000 0.000000 
#    y 0.000000 3.562020 0.000000 
#    z 0.000000 0.000000 3.213220 
# 
# 
# High freq. dielectric constant tensor:
#      x y z
#    x 1.762500 0.000000 0.000000 
#    y 0.000000 1.760090 0.000000 
#    z 0.000000 0.000000 1.723870 
# 
# From -- ./inp_files/8986.got.cif
#   From: 2010.03.12/outbox.cif.g09.slc.cpg/sg55_5_cif.got.tgz:8986.got - 2010.04.16 15:19:21.
