data_PCOD8225988
_publ_section_title
;
Structure prediction by ZEFSAII (Michael W. Deem and Ramdas Pophale) SiO2 
 PCOD8225988
Probable space group: P B A M
;
_chemical_formula_sum "Si O2"
_cell_formula_units_Z 48
_cell_length_a 16.269602
_cell_length_b 18.180838
_cell_length_c 8.912298
_cell_angle_alpha 90.000000
_cell_angle_beta 90.000000
_cell_angle_gamma 90.000000
_cell_volume 2636.213172
_symmetry_space_group_name_H-M "P B A M"
_symmetry_group_IT_number 55
_symmetry_cell_setting 'orthorhombic'
loop_
_space_group_symop_operation_xyz
x,y,z
-x,-y,z
1/2+x,1/2-y,-z
1/2-x,1/2+y,-z
-x,-y,-z
x,y,-z
1/2-x,1/2+y,z
1/2+x,1/2-y,z
loop_
_atom_site_type_symbol
_atom_site_label
_atom_site_fract_x
_atom_site_fract_y
_atom_site_fract_z
Si Si1 0.004565 0.829483 0.823677
Si Si2 0.667788 0.080372 0.324775
Si Si3 0.506015 0.172468 0.324682
Si Si4 0.916485 0.954919 0.331305
Si Si5 0.417744 0.046797 0.168685
Si Si6 0.167424 0.917182 0.823830
O O1 0.093681 0.862149 0.781895
O O2 0.998942 0.747794 0.763673
O O3 0.932024 0.876777 0.747716
O O4 0.989624 0.830987 0.000000
O O5 0.679127 0.067308 0.500000
O O6 0.594465 0.136861 0.291201
O O7 0.750567 0.114408 0.254226
O O8 0.652275 0.001144 0.248770
O O9 0.491971 0.185903 0.500000
O O10 0.433131 0.120589 0.263713
O O11 0.884112 0.941553 0.500000
O O12 0.849391 0.000904 0.238723
O O13 0.000000 0.000000 0.332174
O O14 0.500000 0.000000 0.165014
O O15 0.389621 0.067256 0.000000
O O16 0.181168 0.922460 0.000000
#
# Coordination Sequence:
#
# PCOD8225988 Si02
#       6
#     8   8   8   8   8   8
#     4  10  20  34  53  77 105 137 174 214 258 310
#     4  10  20  34  53  77 104 134 170 214 260 306
#     4  10  20  34  53  77 105 137 174 214 258 310
#     4   9  17  31  52  75  99 130 168 207 249 301
#     4   9  17  31  52  75  99 130 168 207 249 301
#     4  10  20  34  53  77 104 134 170 214 260 306
#
# _framework density 18.207934999999999
#
# number of rings (size 3 to 8) (size 9 to 14) (size 15 to 20)
#    0.000    2.333    0.000    3.000    0.000    8.000 
#    0.000    1.667    0.000    4.000    0.000    0.000 
#    0.000    0.000    0.000    0.000    0.000    0.000 
#
# Total GULP energy -595271.906664 kJ/mol
# GULP energy per Si atom -12401.498056 kJ/mol
# Density = 1.816649 g / cm^3
# Si number density = 18.207935 Si / 1000 Ang^3
#
#
#
# Elastic Constant Matrix: (Units=GPa)
#
#
# Indices 1 2 3 4 5 6 
#
# 1 69.0641 22.3548 37.7913 0.0000 0.0000 0.0000
# 2 22.3548 80.7624 16.4945 0.0000 0.0000 0.0000
# 3 37.7913 16.4945 81.9705 0.0000 0.0000 0.0000
# 4 0.0000 0.0000 0.0000 36.7151 0.0000 0.0000
# 5 0.0000 0.0000 0.0000 0.0000 31.5985 0.0000
# 6 0.0000 0.0000 0.0000 0.0000 0.0000 15.8796
#
#
#
# Elastic Compliance Matrix: (Units=1/GPa)
#
#
# Indices 1 2 3 4 5 6 
#
# 1 0.020479 -0.003900 -0.008656 0.000000 0.000000 0.000000
# 2 -0.003900 0.013656 -0.000950 0.000000 0.000000 0.000000
# 3 -0.008656 -0.000950 0.016382 0.000000 0.000000 0.000000
# 4 0.000000 0.000000 0.000000 0.027237 0.000000 0.000000
# 5 0.000000 0.000000 0.000000 0.000000 0.031647 0.000000
# 6 0.000000 0.000000 0.000000 0.000000 0.000000 0.062974
#
#
# Mechanical properties :
#
#
# Convention : Reuss Voigt Hill
#
# Bulk Modulus (GPa) = 42.54845 42.78648 42.66747
# Shear Modulus (GPa) = 24.12888 27.18241 25.65564
#
# Velocity S-wave (km/s) = 3.64426 3.86798 3.75779
# Velocity P-wave (km/s) = 6.41298 6.59532 6.50479
#
# Compressibility (1/GPa) = 0.02350262
#
# Stress axis : x y z
#
# Youngs Moduli (GPa) = 48.83154 73.23017 61.04433
#
# Poissons Ratio (x) = 0.28563 0.52843
# Poissons Ratio (y) = 0.19047 0.05797
# Poissons Ratio (z) = 0.42271 0.06954
#
# Static dielectric constant tensor:
#      x y z
#    x 3.287740 0.000000 0.000000 
#    y 0.000000 3.273770 0.000000 
#    z 0.000000 0.000000 3.567070 
# 
# 
# High freq. dielectric constant tensor:
#      x y z
#    x 1.686430 0.000000 0.000000 
#    y 0.000000 1.693160 0.000000 
#    z 0.000000 0.000000 1.726550 
# 
# From -- ./inp_files/7547.got.cif
#   From: 2010.03.12/outbox.cif.g09.slc.cpg/sg55_4_cif.got.tgz:7547.got - 2010.04.16 15:19:21.
