data_PCOD8225978
_publ_section_title
;
Structure prediction by ZEFSAII (Michael W. Deem and Ramdas Pophale) SiO2 
 PCOD8225978
Probable space group: P B A M
;
_chemical_formula_sum "Si O2"
_cell_formula_units_Z 56
_cell_length_a 21.827384
_cell_length_b 14.695814
_cell_length_c 9.014826
_cell_angle_alpha 90.000000
_cell_angle_beta 90.000000
_cell_angle_gamma 90.000000
_cell_volume 2891.696332
_symmetry_space_group_name_H-M "P B A M"
_symmetry_group_IT_number 55
_symmetry_cell_setting 'orthorhombic'
loop_
_space_group_symop_operation_xyz
x,y,z
-x,-y,z
1/2+x,1/2-y,-z
1/2-x,1/2+y,-z
-x,-y,-z
x,y,-z
1/2-x,1/2+y,z
1/2+x,1/2-y,z
loop_
_atom_site_type_symbol
_atom_site_label
_atom_site_fract_x
_atom_site_fract_y
_atom_site_fract_z
Si Si1 0.591935 0.346413 0.826004
Si Si2 0.529585 0.639079 0.667882
Si Si3 0.360769 0.829351 0.323833
Si Si4 0.777867 0.173489 0.676835
Si Si5 0.117135 0.699904 0.675560
Si Si6 0.569309 0.990566 0.323549
Si Si7 0.357925 0.491144 0.331725
O O1 0.524896 0.381761 0.781081
O O2 0.599987 0.249287 0.749817
O O3 0.642542 0.418168 0.767790
O O4 0.598519 0.336539 0.000000
O O5 0.503945 0.649608 0.500000
O O6 0.562837 0.731578 0.719368
O O7 0.575608 0.554862 0.674206
O O8 0.363822 0.819367 0.500000
O O9 0.291228 0.821168 0.264369
O O10 0.389762 0.924596 0.271258
O O11 0.780847 0.172323 0.500000
O O12 0.817996 0.259570 0.736402
O O13 0.807477 0.078684 0.732843
O O14 0.122010 0.693505 0.500000
O O15 0.101392 0.600633 0.742322
O O16 0.567031 0.984549 0.500000
O O17 0.500000 0.000000 0.261568
O O18 0.341736 0.519652 0.500000
#
# Coordination Sequence:
#
# PCOD8225978 Si02
#       7
#     8   8   8   8   8   8   8
#     4  12  24  34  47  72 106 142 176 209 249 297
#     4   9  17  32  55  79 103 131 162 203 258 314
#     4  10  20  34  53  75 100 133 173 216 259 303
#     4   8  16  31  52  79 103 125 161 209 260 312
#     4   8  14  27  50  79 105 124 153 207 266 313
#     4   9  16  26  45  74 101 126 161 205 253 301
#     4   9  18  34  56  80 104 130 164 209 261 314
#
# _framework density 19.365796
#
# number of rings (size 3 to 8) (size 9 to 14) (size 15 to 20)
#    0.000    2.714    0.000    4.286    0.000    5.714 
#    0.000    5.000    0.000    4.714    0.000    0.000 
#    0.000    0.000    0.000    0.000    0.000    0.000 
#
# Total GULP energy -694249.084324 kJ/mol
# GULP energy per Si atom -12397.305077 kJ/mol
# Density = 1.932172 g / cm^3
# Si number density = 19.365796 Si / 1000 Ang^3
#
#
#
# Elastic Constant Matrix: (Units=GPa)
#
#
# Indices 1 2 3 4 5 6 
#
# 1 97.0862 31.8060 17.3807 0.0000 0.0000 0.0000
# 2 31.8060 127.5306 25.2115 0.0000 0.0000 0.0000
# 3 17.3807 25.2115 35.9301 0.0000 0.0000 0.0000
# 4 0.0000 0.0000 0.0000 4.2821 0.0000 0.0000
# 5 0.0000 0.0000 0.0000 0.0000 1.8893 0.0000
# 6 0.0000 0.0000 0.0000 0.0000 0.0000 21.9777
#
#
#
# Elastic Compliance Matrix: (Units=1/GPa)
#
#
# Indices 1 2 3 4 5 6 
#
# 1 0.011740 -0.002096 -0.004208 0.000000 0.000000 0.000000
# 2 -0.002096 0.009478 -0.005637 0.000000 0.000000 0.000000
# 3 -0.004208 -0.005637 0.033823 0.000000 0.000000 0.000000
# 4 0.000000 0.000000 0.000000 0.233530 0.000000 0.000000
# 5 0.000000 0.000000 0.000000 0.000000 0.529299 0.000000
# 6 0.000000 0.000000 0.000000 0.000000 0.000000 0.045501
#
#
# Mechanical properties :
#
#
# Convention : Reuss Voigt Hill
#
# Bulk Modulus (GPa) = 32.09367 45.48259 38.78813
# Shear Modulus (GPa) = 5.57016 18.03974 11.80495
#
# Velocity S-wave (km/s) = 1.69780 3.05540 2.47164
# Velocity P-wave (km/s) = 4.52236 5.99869 5.31206
#
# Compressibility (1/GPa) = 0.03115879
#
# Stress axis : x y z
#
# Youngs Moduli (GPa) = 85.17740 105.50348 29.56582
#
# Poissons Ratio (x) = 0.22114 0.12442
# Poissons Ratio (y) = 0.17854 0.16666
# Poissons Ratio (z) = 0.35846 0.59471
#
# Static dielectric constant tensor:
#      x y z
#    x 3.670050 0.000000 0.000000 
#    y 0.000000 3.821460 0.000000 
#    z 0.000000 0.000000 2.902510 
# 
# 
# High freq. dielectric constant tensor:
#      x y z
#    x 1.754000 0.000000 0.000000 
#    y 0.000000 1.768390 0.000000 
#    z 0.000000 0.000000 1.682760 
# 
# From -- ./inp_files/8787.got.cif
#   From: 2010.03.12/outbox.cif.g09.slc.cpg/sg55_5_cif.got.tgz:8787.got - 2010.04.16 15:19:21.
