data_PCOD8225301
_publ_section_title
;
Structure prediction by ZEFSAII (Michael W. Deem and Ramdas Pophale) SiO2 
 PCOD8225301
Probable space group: P B A M
;
_chemical_formula_sum "Si O2"
_cell_formula_units_Z 64
_cell_length_a 28.358549
_cell_length_b 12.625883
_cell_length_c 9.229096
_cell_angle_alpha 90.000000
_cell_angle_beta 90.000000
_cell_angle_gamma 90.000000
_cell_volume 3304.493713
_symmetry_space_group_name_H-M "P B A M"
_symmetry_group_IT_number 55
_symmetry_cell_setting 'orthorhombic'
loop_
_space_group_symop_operation_xyz
x,y,z
-x,-y,z
1/2+x,1/2-y,-z
1/2-x,1/2+y,-z
-x,-y,-z
x,y,-z
1/2-x,1/2+y,z
1/2+x,1/2-y,z
loop_
_atom_site_type_symbol
_atom_site_label
_atom_site_fract_x
_atom_site_fract_y
_atom_site_fract_z
Si Si1 0.437831 0.263807 0.165654
Si Si2 0.165755 0.719946 0.833945
Si Si3 0.700655 0.557890 0.168979
Si Si4 0.880617 0.653335 0.327853
Si Si5 0.192773 0.494176 0.830298
Si Si6 0.050737 0.971022 0.332681
Si Si7 0.978420 0.613554 0.170192
Si Si8 0.138844 0.108780 0.333142
O O1 0.389925 0.196644 0.185256
O O2 0.428922 0.369340 0.254379
O O3 0.482459 0.198081 0.221981
O O4 0.445459 0.296045 0.000000
O O5 0.182137 0.831089 0.760680
O O6 0.192455 0.616208 0.773422
O O7 0.180176 0.733437 0.000000
O O8 0.756198 0.554416 0.197855
O O9 0.676477 0.456994 0.242144
O O10 0.688262 0.549678 0.000000
O O11 0.884284 0.640320 0.500000
O O12 0.844733 0.569273 0.263178
O O13 0.931932 0.634531 0.261535
O O14 0.861057 0.769090 0.284782
O O15 0.178551 0.489084 0.000000
O O16 0.045420 0.941832 0.500000
O O17 0.085864 0.067944 0.305368
O O18 0.000000 0.000000 0.265615
O O19 0.000000 0.500000 0.207142
O O20 0.966917 0.623373 0.000000
O O21 0.153046 0.095817 0.500000
#
# Coordination Sequence:
#
# PCOD8225301 Si02
#       8
#     8   8   8   8   8   8   8   8
#     4  10  19  33  56  83 113 147 187 240 291 341
#     4   9  18  36  58  87 121 147 186 244 298 350
#     4  10  21  37  63  91 114 150 197 247 301 358
#     4  11  24  41  60  87 123 162 203 247 293 350
#     4  10  22  39  63  89 118 154 195 248 304 358
#     4  10  20  35  54  77 109 150 190 230 287 347
#     4  10  21  38  61  87 118 160 202 243 299 355
#     4  10  22  39  57  81 119 160 195 242 298 351
#
# _framework density 19.367566
#
# number of rings (size 3 to 8) (size 9 to 14) (size 15 to 20)
#    0.000    2.000    1.250    1.875    1.750    5.500 
#    0.000    2.500    0.000    0.000    0.000    0.000 
#    0.000    0.000    0.000    0.000    0.000    0.000 
#
# Total GULP energy -793629.528760 kJ/mol
# GULP energy per Si atom -12400.461387 kJ/mol
# Density = 1.932348 g / cm^3
# Si number density = 19.367566 Si / 1000 Ang^3
#
#
#
# Elastic Constant Matrix: (Units=GPa)
#
#
# Indices 1 2 3 4 5 6 
#
# 1 109.8224 57.8660 42.3911 0.0000 0.0000 0.0000
# 2 57.8660 144.2018 45.9875 0.0000 0.0000 0.0000
# 3 42.3911 45.9875 53.1156 0.0000 0.0000 0.0000
# 4 0.0000 0.0000 0.0000 43.2238 0.0000 0.0000
# 5 0.0000 0.0000 0.0000 0.0000 -163.5667 0.0000
# 6 0.0000 0.0000 0.0000 0.0000 0.0000 35.4190
#
#
#
# Elastic Compliance Matrix: (Units=1/GPa)
#
#
# Indices 1 2 3 4 5 6 
#
# 1 0.013947 -0.002828 -0.008683 0.000000 0.000000 0.000000
# 2 -0.002828 0.010153 -0.006534 0.000000 0.000000 0.000000
# 3 -0.008683 -0.006534 0.031414 0.000000 0.000000 0.000000
# 4 0.000000 0.000000 0.000000 0.023135 0.000000 0.000000
# 5 0.000000 0.000000 0.000000 0.000000 -0.006114 0.000000
# 6 0.000000 0.000000 0.000000 0.000000 0.000000 0.028233
#
#
# Mechanical properties :
#
#
# Convention : Reuss Voigt Hill
#
# Bulk Modulus (GPa) = 51.47988 66.62543 59.05266
# Shear Modulus (GPa) = 34.88389 -6.25842 14.31274
#
# Velocity S-wave (km/s) = 4.24860 -1.79956 2.72141
# Velocity P-wave (km/s) = 7.12079 5.49157 6.35858
#
# Compressibility (1/GPa) = 0.01942506
#
# Stress axis : x y z
#
# Youngs Moduli (GPa) = 71.69957 98.49151 31.83339
#
# Poissons Ratio (x) = 0.27851 0.27640
# Poissons Ratio (y) = 0.20275 0.20799
# Poissons Ratio (z) = 0.62255 0.64353
#
# Static dielectric constant tensor:
#      x y z
#    x 3.581410 0.000000 0.000000 
#    y 0.000000 3.739960 0.000000 
#    z 0.000000 0.000000 3.329720 
# 
# 
# High freq. dielectric constant tensor:
#      x y z
#    x 1.764510 0.000000 0.000000 
#    y 0.000000 1.766790 0.000000 
#    z 0.000000 0.000000 1.729140 
# 
# From -- ./inp_files/4676.got.cif
#   From: 2010.03.12/outbox.cif.g09.slc.cpg/sg55_3_cif.got.tgz:4676.got - 2010.04.16 15:19:21.
