data_PCOD8225645
_publ_section_title
;
Structure prediction by ZEFSAII (Michael W. Deem and Ramdas Pophale) SiO2 
 PCOD8225645
Probable space group: P B A M
;
_chemical_formula_sum "Si O2"
_cell_formula_units_Z 56
_cell_length_a 14.453307
_cell_length_b 12.322262
_cell_length_c 14.322534
_cell_angle_alpha 90.000000
_cell_angle_beta 90.000000
_cell_angle_gamma 90.000000
_cell_volume 2550.806577
_symmetry_space_group_name_H-M "P B A M"
_symmetry_group_IT_number 55
_symmetry_cell_setting 'orthorhombic'
loop_
_space_group_symop_operation_xyz
x,y,z
-x,-y,z
1/2+x,1/2-y,-z
1/2-x,1/2+y,-z
-x,-y,-z
x,y,-z
1/2-x,1/2+y,z
1/2+x,1/2-y,z
loop_
_atom_site_type_symbol
_atom_site_label
_atom_site_fract_x
_atom_site_fract_y
_atom_site_fract_z
Si Si1 0.347809 0.720605 0.109075
Si Si2 0.184435 0.098652 0.602059
Si Si3 0.515074 0.122734 0.204850
Si Si4 0.659685 0.717848 0.197483
Si Si5 0.550267 0.200391 0.398123
Si Si6 0.395667 0.508379 0.777777
Si Si7 0.660828 0.747791 0.400125
O O1 0.406990 0.824569 0.139740
O O2 0.240691 0.738018 0.132984
O O3 0.383686 0.612802 0.158461
O O4 0.359091 0.703461 0.000000
O O5 0.157929 0.050054 0.500000
O O6 0.123786 0.205847 0.623412
O O7 0.165964 0.012478 0.683417
O O8 0.292762 0.131917 0.603382
O O9 0.421507 0.192966 0.196142
O O10 0.552910 0.116701 0.311780
O O11 0.500000 0.000000 0.169759
O O12 0.628212 0.599093 0.161337
O O13 0.693601 0.691997 0.304021
O O14 0.571578 0.145799 0.500000
O O15 0.449047 0.251835 0.401109
O O16 0.500000 0.500000 0.742229
O O17 0.694242 0.693460 0.500000
#
# Coordination Sequence:
#
# PCOD8225645 Si02
#       7
#     8   8   8   8   8   8   8
#     4  12  28  49  70  99 132 171 231 287 347 406
#     4  10  19  35  63  98 140 180 219 268 327 396
#     4  11  24  45  70  98 137 177 219 278 337 397
#     4  11  24  43  70 100 135 178 224 272 338 407
#     4   9  17  33  60  95 133 175 222 261 317 399
#     4  12  23  45  72 100 139 175 221 282 344 400
#     4   9  17  33  58  90 134 174 214 261 315 393
#
# _framework density 21.953841000000001
#
# number of rings (size 3 to 8) (size 9 to 14) (size 15 to 20)
#    0.000    1.429    4.286    0.857    2.000    2.857 
#    0.000    0.000    0.000    5.143    0.000    0.000 
#    0.000    0.000    0.000    0.000    0.000    0.000 
#
# Total GULP energy -693875.038531 kJ/mol
# GULP energy per Si atom -12390.625688 kJ/mol
# Density = 2.190387 g / cm^3
# Si number density = 21.953841 Si / 1000 Ang^3
#
#
#
# Elastic Constant Matrix: (Units=GPa)
#
#
# Indices 1 2 3 4 5 6 
#
# 1 78.0130 22.2774 10.9871 0.0000 0.0000 0.0000
# 2 22.2774 116.7902 18.2815 0.0000 0.0000 0.0000
# 3 10.9871 18.2815 114.0979 0.0000 0.0000 0.0000
# 4 0.0000 0.0000 0.0000 -9.1663 0.0000 0.0000
# 5 0.0000 0.0000 0.0000 0.0000 25.9835 0.0000
# 6 0.0000 0.0000 0.0000 0.0000 0.0000 27.8950
#
#
#
# Elastic Compliance Matrix: (Units=1/GPa)
#
#
# Indices 1 2 3 4 5 6 
#
# 1 0.013650 -0.002460 -0.000920 0.000000 0.000000 0.000000
# 2 -0.002460 0.009226 -0.001241 0.000000 0.000000 0.000000
# 3 -0.000920 -0.001241 0.009052 0.000000 0.000000 0.000000
# 4 0.000000 0.000000 0.000000 -0.109095 0.000000 0.000000
# 5 0.000000 0.000000 0.000000 0.000000 0.038486 0.000000
# 6 0.000000 0.000000 0.000000 0.000000 0.000000 0.035849
#
#
# Mechanical properties :
#
#
# Convention : Reuss Voigt Hill
#
# Bulk Modulus (GPa) = 44.08139 45.77701 44.92920
# Shear Modulus (GPa) = 357.83694 26.09942 191.96818
#
# Velocity S-wave (km/s) = 12.78081 3.45168 9.36117
# Velocity P-wave (km/s) = 15.42470 6.06484 11.71972
#
# Compressibility (1/GPa) = 0.02268531
#
# Stress axis : x y z
#
# Youngs Moduli (GPa) = 73.25794 108.39096 110.47370
#
# Poissons Ratio (x) = 0.26661 0.10168
# Poissons Ratio (y) = 0.18019 0.13714
# Poissons Ratio (z) = 0.06742 0.13455
#
# Static dielectric constant tensor:
#      x y z
#    x 4.066150 0.000000 0.000000 
#    y 0.000000 3.721670 0.000000 
#    z 0.000000 0.000000 4.199070 
# 
# 
# High freq. dielectric constant tensor:
#      x y z
#    x 1.872100 0.000000 0.000000 
#    y 0.000000 1.837790 0.000000 
#    z 0.000000 0.000000 1.858460 
# 
# From -- ./inp_files/18966.got.cif
#   From: 2010.03.12/outbox.cif.g09.slc.cpg/sg55_10_cif.got.tgz:18966.got - 2010.04.16 15:19:21.
