data_PCOD8225134
_publ_section_title
;
Structure prediction by ZEFSAII (Michael W. Deem and Ramdas Pophale) SiO2 
 PCOD8225134
Probable space group: P B A M
;
_chemical_formula_sum "Si O2"
_cell_formula_units_Z 56
_cell_length_a 19.882950
_cell_length_b 9.415164
_cell_length_c 14.686374
_cell_angle_alpha 90.000000
_cell_angle_beta 90.000000
_cell_angle_gamma 90.000000
_cell_volume 2749.307351
_symmetry_space_group_name_H-M "P B A M"
_symmetry_group_IT_number 55
_symmetry_cell_setting 'orthorhombic'
loop_
_space_group_symop_operation_xyz
x,y,z
-x,-y,z
1/2+x,1/2-y,-z
1/2-x,1/2+y,-z
-x,-y,-z
x,y,-z
1/2-x,1/2+y,z
1/2+x,1/2-y,z
loop_
_atom_site_type_symbol
_atom_site_label
_atom_site_fract_x
_atom_site_fract_y
_atom_site_fract_z
Si Si1 0.012123 0.168711 0.218251
Si Si2 0.220479 0.553949 0.103870
Si Si3 0.366490 0.609910 0.899245
Si Si4 0.750886 0.615936 0.724006
Si Si5 0.799408 0.868668 0.605552
Si Si6 0.452064 0.633863 0.595719
Si Si7 0.869600 0.203522 0.838743
O O1 0.079347 0.196150 0.159949
O O2 0.026241 0.230563 0.319185
O O3 0.945981 0.249593 0.184126
O O4 0.000000 0.000000 0.222456
O O5 0.289280 0.640085 0.130741
O O6 0.211632 0.431526 0.180854
O O7 0.160073 0.666133 0.103858
O O8 0.226072 0.490691 0.000000
O O9 0.374568 0.439247 0.897948
O O10 0.379862 0.665975 0.000000
O O11 0.793996 0.728323 0.667426
O O12 0.746134 0.485989 0.653911
O O13 0.676524 0.676040 0.749365
O O14 0.776271 0.844202 0.500000
O O15 0.876144 0.921363 0.609610
O O16 0.500000 0.500000 0.589555
O O17 0.456892 0.720524 0.500000
#
# Coordination Sequence:
#
# PCOD8225134 Si02
#       7
#     8   8   8   8   8   8   8
#     4   9  17  29  50  79 112 145 186 240 295 342
#     4  10  20  35  56  84 121 163 204 247 307 369
#     4   9  18  30  48  79 113 147 191 245 295 348
#     4  11  21  38  56  87 126 157 204 252 302 365
#     4  11  22  37  61  90 123 162 202 253 309 364
#     4   9  17  32  55  84 113 146 195 247 296 355
#     4  10  19  32  55  83 118 153 191 246 304 357
#
# _framework density 20.368766000000001
#
# number of rings (size 3 to 8) (size 9 to 14) (size 15 to 20)
#    0.000    2.143    1.429    4.286    0.000    3.714 
#    0.000    0.714    0.000    0.857    0.000    3.000 
#    0.000    0.000    0.000    0.000    0.000    0.000 
#
# Total GULP energy -693798.633813 kJ/mol
# GULP energy per Si atom -12389.261318 kJ/mol
# Density = 2.032241 g / cm^3
# Si number density = 20.368766 Si / 1000 Ang^3
#
#
#
# Elastic Constant Matrix: (Units=GPa)
#
#
# Indices 1 2 3 4 5 6 
#
# 1 86.5038 25.8608 41.1484 0.0000 0.0000 0.0000
# 2 25.8608 57.5842 28.4544 0.0000 0.0000 0.0000
# 3 41.1484 28.4544 139.3640 0.0000 0.0000 0.0000
# 4 0.0000 0.0000 0.0000 14.8690 0.0000 0.0000
# 5 0.0000 0.0000 0.0000 0.0000 23.9684 0.0000
# 6 0.0000 0.0000 0.0000 0.0000 0.0000 20.3546
#
#
#
# Elastic Compliance Matrix: (Units=1/GPa)
#
#
# Indices 1 2 3 4 5 6 
#
# 1 0.014606 -0.004925 -0.003307 0.000000 0.000000 0.000000
# 2 -0.004925 0.020975 -0.002828 0.000000 0.000000 0.000000
# 3 -0.003307 -0.002828 0.008729 0.000000 0.000000 0.000000
# 4 0.000000 0.000000 0.000000 0.067254 0.000000 0.000000
# 5 0.000000 0.000000 0.000000 0.000000 0.041722 0.000000
# 6 0.000000 0.000000 0.000000 0.000000 0.000000 0.049129
#
#
# Mechanical properties :
#
#
# Convention : Reuss Voigt Hill
#
# Bulk Modulus (GPa) = 45.06670 52.70879 48.88774
# Shear Modulus (GPa) = 21.55802 24.37097 22.96449
#
# Velocity S-wave (km/s) = 3.25681 3.46278 3.36138
# Velocity P-wave (km/s) = 6.02627 6.47466 6.25448
#
# Compressibility (1/GPa) = 0.02218933
#
# Stress axis : x y z
#
# Youngs Moduli (GPa) = 68.46672 47.67486 114.55682
#
# Poissons Ratio (x) = 0.23481 0.37882
# Poissons Ratio (y) = 0.33722 0.32401
# Poissons Ratio (z) = 0.22641 0.13484
#
# Static dielectric constant tensor:
#      x y z
#    x 3.794050 0.000000 0.000000 
#    y 0.000000 3.130390 0.000000 
#    z 0.000000 0.000000 4.269860 
# 
# 
# High freq. dielectric constant tensor:
#      x y z
#    x 1.792690 0.000000 0.000000 
#    y 0.000000 1.735200 0.000000 
#    z 0.000000 0.000000 1.818120 
# 
# From -- ./inp_files/19769.got.cif
#   From: 2010.03.12/outbox.cif.g09.slc.cpg/sg55_10_cif.got.tgz:19769.got - 2010.04.16 15:19:21.
