data_PCOD8225351
_publ_section_title
;
Structure prediction by ZEFSAII (Michael W. Deem and Ramdas Pophale) SiO2 
 PCOD8225351
Probable space group: P B A M
;
_chemical_formula_sum "Si O2"
_cell_formula_units_Z 64
_cell_length_a 19.128476
_cell_length_b 23.029819
_cell_length_c 8.772551
_cell_angle_alpha 90.000000
_cell_angle_beta 90.000000
_cell_angle_gamma 90.000000
_cell_volume 3864.531012
_symmetry_space_group_name_H-M "P B A M"
_symmetry_group_IT_number 55
_symmetry_cell_setting 'orthorhombic'
loop_
_space_group_symop_operation_xyz
x,y,z
-x,-y,z
1/2+x,1/2-y,-z
1/2-x,1/2+y,-z
-x,-y,-z
x,y,-z
1/2-x,1/2+y,z
1/2+x,1/2-y,z
loop_
_atom_site_type_symbol
_atom_site_label
_atom_site_fract_x
_atom_site_fract_y
_atom_site_fract_z
Si Si1 0.132757 0.436115 0.678244
Si Si2 0.994444 0.256613 0.820487
Si Si3 0.505567 0.887189 0.819087
Si Si4 0.214961 0.337302 0.827976
Si Si5 0.659191 0.737555 0.822436
Si Si6 0.360970 0.715649 0.175029
Si Si7 0.651326 0.942717 0.819840
Si Si8 0.736729 0.843579 0.321589
O O1 0.121364 0.441057 0.500000
O O2 0.058515 0.423750 0.754903
O O3 0.189209 0.386023 0.712302
O O4 0.163847 0.495481 0.742690
O O5 0.996071 0.321753 0.752123
O O6 0.059319 0.217759 0.760552
O O7 0.921432 0.225121 0.778735
O O8 0.003733 0.262950 0.000000
O O9 0.577258 0.916761 0.764864
O O10 0.499922 0.887327 0.000000
O O11 0.295511 0.320281 0.790034
O O12 0.168179 0.280434 0.808567
O O13 0.208200 0.361367 0.000000
O O14 0.686053 0.790949 0.723198
O O15 0.666725 0.756017 0.000000
O O16 0.316585 0.670915 0.275800
O O17 0.357167 0.694897 0.000000
O O18 0.713794 0.901252 0.766236
O O19 0.654026 0.949675 0.000000
O O20 0.732168 0.854756 0.500000
#
# Coordination Sequence:
#
# PCOD8225351 Si02
#       8
#     8   8   8   8   8   8   8   8
#     4  12  24  34  47  70 103 134 167 207 250 292
#     4   9  15  29  53  77  97 125 168 207 239 281
#     4  10  19  34  52  70  95 132 173 206 237 284
#     4   9  17  31  50  71  96 130 171 205 239 287
#     4   9  17  32  53  74  96 128 168 207 245 288
#     4   9  17  31  52  72  96 129 165 201 239 289
#     4  11  22  37  55  69  91 131 177 210 243 290
#     4  11  21  32  47  72 103 129 160 203 250 294
#
# _framework density 16.560870999999999
#
# number of rings (size 3 to 8) (size 9 to 14) (size 15 to 20)
#    0.000    2.000    2.500    3.750    0.000    4.500 
#    0.000    0.625    0.000    0.000    0.000    0.875 
#    0.000    7.000    0.000    0.000    0.000    0.000 
#
# Total GULP energy -793585.512172 kJ/mol
# GULP energy per Si atom -12399.773628 kJ/mol
# Density = 1.652318 g / cm^3
# Si number density = 16.560871 Si / 1000 Ang^3
#
#
#
# Elastic Constant Matrix: (Units=GPa)
#
#
# Indices 1 2 3 4 5 6 
#
# 1 106.4980 28.8936 14.3315 0.0000 0.0000 0.0000
# 2 28.8936 59.2521 15.8644 0.0000 0.0000 0.0000
# 3 14.3315 15.8644 25.2879 0.0000 0.0000 0.0000
# 4 0.0000 0.0000 0.0000 17.1252 0.0000 0.0000
# 5 0.0000 0.0000 0.0000 0.0000 9.7235 0.0000
# 6 0.0000 0.0000 0.0000 0.0000 0.0000 19.5554
#
#
#
# Elastic Compliance Matrix: (Units=1/GPa)
#
#
# Indices 1 2 3 4 5 6 
#
# 1 0.011069 -0.004469 -0.003470 0.000000 0.000000 0.000000
# 2 -0.004469 0.022088 -0.011325 0.000000 0.000000 0.000000
# 3 -0.003470 -0.011325 0.048616 0.000000 0.000000 0.000000
# 4 0.000000 0.000000 0.000000 0.058393 0.000000 0.000000
# 5 0.000000 0.000000 0.000000 0.000000 0.102843 0.000000
# 6 0.000000 0.000000 0.000000 0.000000 0.000000 0.051137
#
#
# Mechanical properties :
#
#
# Convention : Reuss Voigt Hill
#
# Bulk Modulus (GPa) = 23.12307 34.35745 28.74026
# Shear Modulus (GPa) = 14.40556 18.07740 16.24148
#
# Velocity S-wave (km/s) = 2.95253 3.30748 3.13503
# Velocity P-wave (km/s) = 5.06123 5.94787 5.52237
#
# Compressibility (1/GPa) = 0.04324685
#
# Stress axis : x y z
#
# Youngs Moduli (GPa) = 90.34095 45.27296 20.56956
#
# Poissons Ratio (x) = 0.20231 0.07137
# Poissons Ratio (y) = 0.40371 0.23294
# Poissons Ratio (z) = 0.31346 0.51269
#
# Static dielectric constant tensor:
#      x y z
#    x 3.373080 0.000000 0.000000 
#    y 0.000000 2.969200 0.000000 
#    z 0.000000 0.000000 2.946140 
# 
# 
# High freq. dielectric constant tensor:
#      x y z
#    x 1.639200 0.000000 0.000000 
#    y 0.000000 1.609650 0.000000 
#    z 0.000000 0.000000 1.624430 
# 
# From -- ./inp_files/9136.got.cif
#   From: 2010.03.12/outbox.cif.g09.slc.cpg/sg55_5_cif.got.tgz:9136.got - 2010.04.16 15:19:21.
