data_PCOD8225008
_publ_section_title
;
Structure prediction by ZEFSAII (Michael W. Deem and Ramdas Pophale) SiO2 
 PCOD8225008
Probable space group: P B A M
;
_chemical_formula_sum "Si O2"
_cell_formula_units_Z 64
_cell_length_a 19.623680
_cell_length_b 20.477495
_cell_length_c 8.825593
_cell_angle_alpha 90.000000
_cell_angle_beta 90.000000
_cell_angle_gamma 90.000000
_cell_volume 3546.509909
_symmetry_space_group_name_H-M "P B A M"
_symmetry_group_IT_number 55
_symmetry_cell_setting 'orthorhombic'
loop_
_space_group_symop_operation_xyz
x,y,z
-x,-y,z
1/2+x,1/2-y,-z
1/2-x,1/2+y,-z
-x,-y,-z
x,y,-z
1/2-x,1/2+y,z
1/2+x,1/2-y,z
loop_
_atom_site_type_symbol
_atom_site_label
_atom_site_fract_x
_atom_site_fract_y
_atom_site_fract_z
Si Si1 0.708463 0.684099 0.178474
Si Si2 0.219221 0.430883 0.328049
Si Si3 0.933009 0.234428 0.821271
Si Si4 0.576745 0.131195 0.675322
Si Si5 0.307472 0.074922 0.323357
Si Si6 0.715380 0.305010 0.320957
Si Si7 0.582297 0.270236 0.820881
Si Si8 0.559664 0.882227 0.821072
O O1 0.733239 0.611678 0.218628
O O2 0.630534 0.691818 0.238954
O O3 0.755771 0.737395 0.257675
O O4 0.713071 0.695520 0.000000
O O5 0.239730 0.413690 0.500000
O O6 0.139488 0.417585 0.301657
O O7 0.231988 0.507123 0.292410
O O8 0.924642 0.308616 0.763962
O O9 0.006489 0.205796 0.768908
O O10 0.931830 0.235701 0.000000
O O11 0.566608 0.150336 0.500000
O O12 0.592315 0.195456 0.772522
O O13 0.509782 0.094526 0.739359
O O14 0.324902 0.082859 0.500000
O O15 0.259967 0.133825 0.264578
O O16 0.377658 0.073235 0.230525
O O17 0.713392 0.300603 0.500000
O O18 0.638634 0.315288 0.259711
O O19 0.591901 0.275106 0.000000
O O20 0.549320 0.887288 0.000000
#
# Coordination Sequence:
#
# PCOD8225008 Si02
#       8
#     8   8   8   8   8   8   8   8
#     4  11  20  34  57  81 105 136 175 222 270 316
#     4  10  22  38  53  75 108 144 181 222 266 318
#     4   8  17  32  51  78 107 134 168 216 266 313
#     4  10  19  32  51  75 107 144 182 219 262 318
#     4  10  22  38  54  74 107 147 183 221 268 319
#     4  11  21  34  54  81 107 138 180 222 267 319
#     4  10  19  33  54  80 109 139 174 221 272 317
#     4  10  19  33  52  76 108 142 181 223 264 314
#
# _framework density 18.045909999999999
#
# number of rings (size 3 to 8) (size 9 to 14) (size 15 to 20)
#    0.000    2.000    2.500    2.625    0.000    2.000 
#    0.000    4.375    0.000    0.750    0.000    5.250 
#    0.000    0.000    0.000    0.000    0.000    0.000 
#
# Total GULP energy -793571.101818 kJ/mol
# GULP energy per Si atom -12399.548466 kJ/mol
# Density = 1.800484 g / cm^3
# Si number density = 18.045910 Si / 1000 Ang^3
#
#
#
# Elastic Constant Matrix: (Units=GPa)
#
#
# Indices 1 2 3 4 5 6 
#
# 1 109.1702 30.0826 31.2723 0.0000 0.0000 0.0000
# 2 30.0826 61.0085 16.3069 0.0000 0.0000 0.0000
# 3 31.2723 16.3069 56.3414 0.0000 0.0000 0.0000
# 4 0.0000 0.0000 0.0000 17.9194 0.0000 0.0000
# 5 0.0000 0.0000 0.0000 0.0000 28.9169 0.0000
# 6 0.0000 0.0000 0.0000 0.0000 0.0000 21.2063
#
#
#
# Elastic Compliance Matrix: (Units=1/GPa)
#
#
# Indices 1 2 3 4 5 6 
#
# 1 0.011911 -0.004450 -0.005323 0.000000 0.000000 0.000000
# 2 -0.004450 0.019428 -0.003153 0.000000 0.000000 0.000000
# 3 -0.005323 -0.003153 0.021616 0.000000 0.000000 0.000000
# 4 0.000000 0.000000 0.000000 0.055806 0.000000 0.000000
# 5 0.000000 0.000000 0.000000 0.000000 0.034582 0.000000
# 6 0.000000 0.000000 0.000000 0.000000 0.000000 0.047156
#
#
# Mechanical properties :
#
#
# Convention : Reuss Voigt Hill
#
# Bulk Modulus (GPa) = 36.89696 42.42709 39.66203
# Shear Modulus (GPa) = 22.18413 23.53240 22.85826
#
# Velocity S-wave (km/s) = 3.50996 3.61505 3.56290
# Velocity P-wave (km/s) = 6.07594 6.40207 6.24113
#
# Compressibility (1/GPa) = 0.02710250
#
# Stress axis : x y z
#
# Youngs Moduli (GPa) = 83.95435 51.47114 46.26174
#
# Poissons Ratio (x) = 0.22907 0.24626
# Poissons Ratio (y) = 0.37364 0.14586
# Poissons Ratio (z) = 0.44691 0.16228
#
# Static dielectric constant tensor:
#      x y z
#    x 3.761190 0.000000 0.000000 
#    y 0.000000 3.125060 0.000000 
#    z 0.000000 0.000000 3.283190 
# 
# 
# High freq. dielectric constant tensor:
#      x y z
#    x 1.707300 0.000000 0.000000 
#    y 0.000000 1.666100 0.000000 
#    z 0.000000 0.000000 1.698310 
# 
# From -- ./inp_files/9119.got.cif
#   From: 2010.03.12/outbox.cif.g09.slc.cpg/sg55_5_cif.got.tgz:9119.got - 2010.04.16 15:19:21.
