data_PCOD8225430
_publ_section_title
;
Structure prediction by ZEFSAII (Michael W. Deem and Ramdas Pophale) SiO2 
 PCOD8225430
Probable space group: P B A M
;
_chemical_formula_sum "Si O2"
_cell_formula_units_Z 56
_cell_length_a 22.304328
_cell_length_b 14.375200
_cell_length_c 8.619089
_cell_angle_alpha 90.000000
_cell_angle_beta 90.000000
_cell_angle_gamma 90.000000
_cell_volume 2763.531403
_symmetry_space_group_name_H-M "P B A M"
_symmetry_group_IT_number 55
_symmetry_cell_setting 'orthorhombic'
loop_
_space_group_symop_operation_xyz
x,y,z
-x,-y,z
1/2+x,1/2-y,-z
1/2-x,1/2+y,-z
-x,-y,-z
x,y,-z
1/2-x,1/2+y,z
1/2+x,1/2-y,z
loop_
_atom_site_type_symbol
_atom_site_label
_atom_site_fract_x
_atom_site_fract_y
_atom_site_fract_z
Si Si1 0.717135 0.098060 0.682336
Si Si2 0.275848 0.108816 0.681182
Si Si3 0.001917 0.391980 0.180868
Si Si4 0.147750 0.900448 0.316443
Si Si5 0.617372 0.782531 0.180780
Si Si6 0.851828 0.902303 0.181390
Si Si7 0.609264 0.220308 0.682806
O O1 0.716914 0.110541 0.500000
O O2 0.784149 0.118027 0.743472
O O3 0.668034 0.167881 0.753080
O O4 0.698918 0.992724 0.727084
O O5 0.259855 0.115149 0.500000
O O6 0.325185 0.184252 0.723088
O O7 0.215012 0.129300 0.773091
O O8 0.051907 0.342124 0.282475
O O9 0.000000 0.500000 0.227168
O O10 0.938963 0.345574 0.225768
O O11 0.016851 0.378778 0.000000
O O12 0.141629 0.891272 0.500000
O O13 0.105618 0.824164 0.232642
O O14 0.127680 0.003578 0.267374
O O15 0.631425 0.789218 0.000000
O O16 0.896634 0.819893 0.233223
O O17 0.856893 0.919598 0.000000
O O18 0.614664 0.235903 0.500000
#
# Coordination Sequence:
#
# PCOD8225430 Si02
#       7
#     8   8   8   8   8   8   8
#     4   8  17  32  53  82 113 145 181 228 279 329
#     4  10  19  34  56  84 118 153 191 233 281 336
#     4  10  23  42  60  82 116 153 188 230 281 336
#     4  10  20  37  59  83 114 149 187 233 286 343
#     4  11  22  36  56  83 114 150 192 236 286 339
#     4  11  22  37  57  84 118 151 187 233 287 343
#     4  11  21  36  59  85 113 149 195 238 282 337
#
# _framework density 20.263926000000001
#
# number of rings (size 3 to 8) (size 9 to 14) (size 15 to 20)
#    0.000    1.857    0.000    5.571    0.000    2.571 
#    0.000    7.857    0.000    4.286    0.000    0.000 
#    0.000    0.000    0.000    0.000    0.000    0.000 
#
# Total GULP energy -694537.268824 kJ/mol
# GULP energy per Si atom -12402.451229 kJ/mol
# Density = 2.021780 g / cm^3
# Si number density = 20.263926 Si / 1000 Ang^3
#
#
#
# Elastic Constant Matrix: (Units=GPa)
#
#
# Indices 1 2 3 4 5 6 
#
# 1 52.6652 51.9069 23.0835 0.0000 0.0000 0.0000
# 2 51.9069 146.4753 24.3562 0.0000 0.0000 0.0000
# 3 23.0835 24.3562 61.5819 0.0000 0.0000 0.0000
# 4 0.0000 0.0000 0.0000 33.4334 0.0000 0.0000
# 5 0.0000 0.0000 0.0000 0.0000 27.5439 0.0000
# 6 0.0000 0.0000 0.0000 0.0000 0.0000 33.0080
#
#
#
# Elastic Compliance Matrix: (Units=1/GPa)
#
#
# Indices 1 2 3 4 5 6 
#
# 1 0.032637 -0.010202 -0.008199 0.000000 0.000000 0.000000
# 2 -0.010202 0.010497 -0.000327 0.000000 0.000000 0.000000
# 3 -0.008199 -0.000327 0.019441 0.000000 0.000000 0.000000
# 4 0.000000 0.000000 0.000000 0.029910 0.000000 0.000000
# 5 0.000000 0.000000 0.000000 0.000000 0.036306 0.000000
# 6 0.000000 0.000000 0.000000 0.000000 0.000000 0.030296
#
#
# Mechanical properties :
#
#
# Convention : Reuss Voigt Hill
#
# Bulk Modulus (GPa) = 39.81139 51.04618 45.42879
# Shear Modulus (GPa) = 24.40026 29.55544 26.97785
#
# Velocity S-wave (km/s) = 3.47381 3.82321 3.65269
# Velocity P-wave (km/s) = 5.98155 6.68839 6.34482
#
# Compressibility (1/GPa) = 0.02511844
#
# Stress axis : x y z
#
# Youngs Moduli (GPa) = 30.64025 95.26567 51.43725
#
# Poissons Ratio (x) = 0.97193 0.42171
# Poissons Ratio (y) = 0.31260 0.01684
# Poissons Ratio (z) = 0.25121 0.03119
#
# Static dielectric constant tensor:
#      x y z
#    x 3.527510 0.000000 0.000000 
#    y 0.000000 4.001210 0.000000 
#    z 0.000000 0.000000 3.476800 
# 
# 
# High freq. dielectric constant tensor:
#      x y z
#    x 1.765350 0.000000 0.000000 
#    y 0.000000 1.813390 0.000000 
#    z 0.000000 0.000000 1.783140 
# 
# From -- ./inp_files/6186.got.cif
#   From: 2010.03.12/outbox.cif.g09.slc.cpg/sg55_4_cif.got.tgz:6186.got - 2010.04.16 15:19:21.
