data_PCOD8225179
_publ_section_title
;
Structure prediction by ZEFSAII (Michael W. Deem and Ramdas Pophale) SiO2 
 PCOD8225179
Probable space group: P B A M
;
_chemical_formula_sum "Si O2"
_cell_formula_units_Z 48
_cell_length_a 9.461714
_cell_length_b 30.748069
_cell_length_c 8.794454
_cell_angle_alpha 90.000000
_cell_angle_beta 90.000000
_cell_angle_gamma 90.000000
_cell_volume 2558.565533
_symmetry_space_group_name_H-M "P B A M"
_symmetry_group_IT_number 55
_symmetry_cell_setting 'orthorhombic'
loop_
_space_group_symop_operation_xyz
x,y,z
-x,-y,z
1/2+x,1/2-y,-z
1/2-x,1/2+y,-z
-x,-y,-z
x,y,-z
1/2-x,1/2+y,z
1/2+x,1/2-y,z
loop_
_atom_site_type_symbol
_atom_site_label
_atom_site_fract_x
_atom_site_fract_y
_atom_site_fract_z
Si Si1 0.602048 0.381864 0.178986
Si Si2 0.082790 0.209002 0.324281
Si Si3 0.092327 0.712172 0.673903
Si Si4 0.087532 0.457416 0.179524
Si Si5 0.099078 0.615998 0.681010
Si Si6 0.592100 0.539514 0.820207
O O1 0.550203 0.334717 0.232320
O O2 0.747782 0.397369 0.255565
O O3 0.479731 0.415287 0.228311
O O4 0.626989 0.382182 0.000000
O O5 0.042323 0.200333 0.500000
O O6 0.244051 0.223031 0.307580
O O7 0.994030 0.248493 0.248218
O O8 0.043643 0.711346 0.500000
O O9 0.059897 0.664437 0.743224
O O10 0.247356 0.462524 0.241181
O O11 0.000000 0.500000 0.225763
O O12 0.020885 0.416227 0.262817
O O13 0.081973 0.449177 0.000000
O O14 0.110027 0.616173 0.500000
O O15 0.500000 0.500000 0.750196
O O16 0.597122 0.534398 0.000000
#
# Coordination Sequence:
#
# PCOD8225179 Si02
#       6
#     8   8   8   8   8   8
#     4  10  19  33  53  76 103 135 171 212 258 305
#     4   9  17  32  51  71  98 133 172 210 252 302
#     4   8  16  30  49  70  94 129 167 203 246 298
#     4  10  20  35  56  79 103 135 173 213 262 315
#     4  10  20  35  54  77 105 137 175 216 258 306
#     4   9  18  33  53  76 101 132 170 208 250 308
#
# _framework density 18.760511000000001
#
# number of rings (size 3 to 8) (size 9 to 14) (size 15 to 20)
#    0.000    2.667    0.000    3.000    0.000    4.333 
#    0.000    7.500    0.000    3.500    0.000    0.000 
#    0.000    0.000    0.000    0.000    0.000    0.000 
#
# Total GULP energy -595105.380362 kJ/mol
# GULP energy per Si atom -12398.028758 kJ/mol
# Density = 1.871781 g / cm^3
# Si number density = 18.760511 Si / 1000 Ang^3
#
#
#
# Elastic Constant Matrix: (Units=GPa)
#
#
# Indices 1 2 3 4 5 6 
#
# 1 144.7225 99.1291 30.3703 0.0000 0.0000 0.0000
# 2 99.1291 145.5379 34.0447 0.0000 0.0000 0.0000
# 3 30.3703 34.0447 40.4333 0.0000 0.0000 0.0000
# 4 0.0000 0.0000 0.0000 26.9563 0.0000 0.0000
# 5 0.0000 0.0000 0.0000 0.0000 21.0490 0.0000
# 6 0.0000 0.0000 0.0000 0.0000 0.0000 42.8444
#
#
#
# Elastic Compliance Matrix: (Units=1/GPa)
#
#
# Indices 1 2 3 4 5 6 
#
# 1 0.013225 -0.008324 -0.002925 0.000000 0.000000 0.000000
# 2 -0.008324 0.013795 -0.005363 0.000000 0.000000 0.000000
# 3 -0.002925 -0.005363 0.031445 0.000000 0.000000 0.000000
# 4 0.000000 0.000000 0.000000 0.037097 0.000000 0.000000
# 5 0.000000 0.000000 0.000000 0.000000 0.047508 0.000000
# 6 0.000000 0.000000 0.000000 0.000000 0.000000 0.023340
#
#
# Mechanical properties :
#
#
# Convention : Reuss Voigt Hill
#
# Bulk Modulus (GPa) = 39.61807 73.08686 56.35247
# Shear Modulus (GPa) = 24.03291 29.31328 26.67309
#
# Velocity S-wave (km/s) = 3.58304 3.95713 3.77472
# Velocity P-wave (km/s) = 6.18718 7.74086 7.00722
#
# Compressibility (1/GPa) = 0.02524101
#
# Stress axis : x y z
#
# Youngs Moduli (GPa) = 75.61504 72.49000 31.80142
#
# Poissons Ratio (x) = 0.60337 0.09302
# Poissons Ratio (y) = 0.62938 0.17056
# Poissons Ratio (z) = 0.22118 0.38879
#
# Static dielectric constant tensor:
#      x y z
#    x 3.545600 0.000000 0.000000 
#    y 0.000000 3.708760 0.000000 
#    z 0.000000 0.000000 3.117960 
# 
# 
# High freq. dielectric constant tensor:
#      x y z
#    x 1.730440 0.000000 0.000000 
#    y 0.000000 1.743860 0.000000 
#    z 0.000000 0.000000 1.693130 
# 
# From -- ./inp_files/2890.got.cif
#   From: 2010.03.12/outbox.cif.g09.slc.cpg/sg55_2_cif.got.tgz:2890.got - 2010.04.16 15:19:21.
