data_PCOD8225782
_publ_section_title
;
Structure prediction by ZEFSAII (Michael W. Deem and Ramdas Pophale) SiO2 
 PCOD8225782
Probable space group: P B A M
;
_chemical_formula_sum "Si O2"
_cell_formula_units_Z 64
_cell_length_a 18.686657
_cell_length_b 11.806462
_cell_length_c 14.498921
_cell_angle_alpha 90.000000
_cell_angle_beta 90.000000
_cell_angle_gamma 90.000000
_cell_volume 3198.799881
_symmetry_space_group_name_H-M "P B A M"
_symmetry_group_IT_number 55
_symmetry_cell_setting 'orthorhombic'
loop_
_space_group_symop_operation_xyz
x,y,z
-x,-y,z
1/2+x,1/2-y,-z
1/2-x,1/2+y,-z
-x,-y,-z
x,y,-z
1/2-x,1/2+y,z
1/2+x,1/2-y,z
loop_
_atom_site_type_symbol
_atom_site_label
_atom_site_fract_x
_atom_site_fract_y
_atom_site_fract_z
Si Si1 0.670766 0.741885 0.599708
Si Si2 0.465570 0.880750 0.398110
Si Si3 0.808961 0.423138 0.762828
Si Si4 0.443105 0.094084 0.892210
Si Si5 0.687832 0.141822 0.649094
Si Si6 0.068089 0.938808 0.334334
Si Si7 0.843918 0.866362 0.249663
Si Si8 0.487516 0.722533 0.219788
O O1 0.668594 0.804096 0.500000
O O2 0.671119 0.836895 0.679626
O O3 0.736643 0.652378 0.597493
O O4 0.600221 0.663694 0.606255
O O5 0.494919 0.842959 0.500000
O O6 0.380046 0.897022 0.411047
O O7 0.483546 0.794082 0.315733
O O8 0.500000 0.000000 0.368592
O O9 0.867175 0.417433 0.842696
O O10 0.805045 0.552952 0.732100
O O11 0.730026 0.393971 0.804588
O O12 0.478479 0.212812 0.865811
O O13 0.500000 0.000000 0.859691
O O14 0.427997 0.087887 0.000000
O O15 0.674245 0.269625 0.678678
O O16 0.036467 0.886285 0.239392
O O17 0.130704 0.026024 0.309139
O O18 0.000000 0.000000 0.385394
O O19 0.908830 0.819930 0.186155
#
# Coordination Sequence:
#
# PCOD8225782 Si02
#       8
#     8   8   8   8   8   8   8   8
#     4  11  23  36  56  88 122 165 210 250 300 361
#     4  10  20  32  52  83 117 156 202 247 292 353
#     4  11  21  40  63  88 122 162 210 258 307 363
#     4  11  23  40  65  96 125 158 201 256 322 381
#     4  10  20  37  57  82 122 166 203 249 309 356
#     4  10  20  38  60  83 116 161 204 249 298 357
#     4   9  20  37  63  87 115 162 202 250 301 365
#     4  10  19  38  60  84 120 159 196 248 306 363
#
# _framework density 20.007503
#
# number of rings (size 3 to 8) (size 9 to 14) (size 15 to 20)
#    0.000    1.750    2.500    3.000    0.000    1.750 
#    0.000    5.625    0.000   12.000    0.000    0.000 
#    0.000    0.000    0.000    0.000    0.000    0.000 
#
# Total GULP energy -792837.761063 kJ/mol
# GULP energy per Si atom -12388.090017 kJ/mol
# Density = 1.996197 g / cm^3
# Si number density = 20.007503 Si / 1000 Ang^3
#
#
#
# Elastic Constant Matrix: (Units=GPa)
#
#
# Indices 1 2 3 4 5 6 
#
# 1 149.7336 45.0886 45.6847 0.0000 0.0000 0.0000
# 2 45.0886 94.6454 30.3047 0.0000 0.0000 0.0000
# 3 45.6847 30.3047 71.4986 0.0000 0.0000 0.0000
# 4 0.0000 0.0000 0.0000 -3.4703 0.0000 0.0000
# 5 0.0000 0.0000 0.0000 0.0000 -9.9995 0.0000
# 6 0.0000 0.0000 0.0000 0.0000 0.0000 39.5121
#
#
#
# Elastic Compliance Matrix: (Units=1/GPa)
#
#
# Indices 1 2 3 4 5 6 
#
# 1 0.008893 -0.002797 -0.004497 0.000000 0.000000 0.000000
# 2 -0.002797 0.013104 -0.003767 0.000000 0.000000 0.000000
# 3 -0.004497 -0.003767 0.018456 0.000000 0.000000 0.000000
# 4 0.000000 0.000000 0.000000 -0.288160 0.000000 0.000000
# 5 0.000000 0.000000 0.000000 0.000000 -0.100005 0.000000
# 6 0.000000 0.000000 0.000000 0.000000 0.000000 0.025309
#
#
# Mechanical properties :
#
#
# Convention : Reuss Voigt Hill
#
# Bulk Modulus (GPa) = 54.54957 62.00371 58.27664
# Shear Modulus (GPa) = -16.99693 18.19510 0.59909
#
# Velocity S-wave (km/s) = -2.91783 3.01892 0.54780
# Velocity P-wave (km/s) = 3.99651 6.57338 5.43974
#
# Compressibility (1/GPa) = 0.01833195
#
# Stress axis : x y z
#
# Youngs Moduli (GPa) = 112.45276 76.31074 54.18213
#
# Poissons Ratio (x) = 0.21341 0.24364
# Poissons Ratio (y) = 0.31449 0.20412
# Poissons Ratio (z) = 0.50566 0.28749
#
# Static dielectric constant tensor:
#      x y z
#    x 4.466850 0.000000 0.000000 
#    y 0.000000 3.802850 0.000000 
#    z 0.000000 0.000000 3.014800 
# 
# 
# High freq. dielectric constant tensor:
#      x y z
#    x 1.814340 0.000000 0.000000 
#    y 0.000000 1.794430 0.000000 
#    z 0.000000 0.000000 1.713560 
# 
# From -- ./inp_files/19503.got.cif
#   From: 2010.03.12/outbox.cif.g09.slc.cpg/sg55_10_cif.got.tgz:19503.got - 2010.04.16 15:19:21.
