data_PCOD8225007
_publ_section_title
;
Structure prediction by ZEFSAII (Michael W. Deem and Ramdas Pophale) SiO2 
 PCOD8225007
Probable space group: P B A M
;
_chemical_formula_sum "Si O2"
_cell_formula_units_Z 64
_cell_length_a 20.892352
_cell_length_b 19.545822
_cell_length_c 8.993444
_cell_angle_alpha 90.000000
_cell_angle_beta 90.000000
_cell_angle_gamma 90.000000
_cell_volume 3672.546544
_symmetry_space_group_name_H-M "P B A M"
_symmetry_group_IT_number 55
_symmetry_cell_setting 'orthorhombic'
loop_
_space_group_symop_operation_xyz
x,y,z
-x,-y,z
1/2+x,1/2-y,-z
1/2-x,1/2+y,-z
-x,-y,-z
x,y,-z
1/2-x,1/2+y,z
1/2+x,1/2-y,z
loop_
_atom_site_type_symbol
_atom_site_label
_atom_site_fract_x
_atom_site_fract_y
_atom_site_fract_z
Si Si1 0.809426 0.711670 0.176463
Si Si2 0.374048 0.569715 0.173622
Si Si3 0.731443 0.082127 0.326729
Si Si4 0.067310 0.205066 0.176639
Si Si5 0.690518 0.786738 0.327862
Si Si6 0.427007 0.279314 0.828395
Si Si7 0.742403 0.930374 0.669742
Si Si8 0.136620 0.919481 0.829835
O O1 0.813396 0.633822 0.235069
O O2 0.874399 0.747747 0.232716
O O3 0.747294 0.749469 0.240660
O O4 0.803483 0.712315 0.000000
O O5 0.421894 0.627490 0.238425
O O6 0.303408 0.584739 0.231118
O O7 0.396265 0.492374 0.212903
O O8 0.369979 0.581324 0.000000
O O9 0.724558 0.098686 0.500000
O O10 0.804644 0.095189 0.279220
O O11 0.710842 0.003874 0.288675
O O12 0.998916 0.233593 0.233500
O O13 0.064327 0.204554 0.000000
O O14 0.697237 0.766751 0.500000
O O15 0.621607 0.764417 0.268820
O O16 0.692642 0.868805 0.304637
O O17 0.415291 0.360452 0.810058
O O18 0.419118 0.257248 0.000000
O O19 0.766115 0.933488 0.500000
O O20 0.162281 0.922141 0.000000
#
# Coordination Sequence:
#
# PCOD8225007 Si02
#       8
#     8   8   8   8   8   8   8   8
#     4  11  20  33  53  77 103 134 172 213 253 298
#     4   9  16  29  48  72 101 136 172 205 241 291
#     4  10  19  32  51  75 103 132 166 211 259 301
#     4   9  19  33  50  73 104 138 172 211 253 298
#     4  11  21  34  53  77 102 133 172 212 255 303
#     4  10  20  34  50  73 105 139 172 209 254 301
#     4   9  19  33  50  74 103 132 165 210 258 302
#     4   9  17  28  47  73 102 135 172 204 241 296
#
# _framework density 17.426600000000001
#
# number of rings (size 3 to 8) (size 9 to 14) (size 15 to 20)
#    0.000    2.250    2.500    1.125    0.000    1.500 
#    0.000    4.375    0.000    0.750    0.000    9.625 
#    0.000    0.000    0.000    0.000    0.000    0.000 
#
# Total GULP energy -793313.704930 kJ/mol
# GULP energy per Si atom -12395.526640 kJ/mol
# Density = 1.738694 g / cm^3
# Si number density = 17.426600 Si / 1000 Ang^3
#
#
#
# Elastic Constant Matrix: (Units=GPa)
#
#
# Indices 1 2 3 4 5 6 
#
# 1 105.1294 56.8460 29.0306 0.0000 0.0000 0.0000
# 2 56.8460 109.8196 33.0965 0.0000 0.0000 0.0000
# 3 29.0306 33.0965 51.2881 0.0000 0.0000 0.0000
# 4 0.0000 0.0000 0.0000 24.1117 0.0000 0.0000
# 5 0.0000 0.0000 0.0000 0.0000 1.1722 0.0000
# 6 0.0000 0.0000 0.0000 0.0000 0.0000 23.4976
#
#
#
# Elastic Compliance Matrix: (Units=1/GPa)
#
#
# Indices 1 2 3 4 5 6 
#
# 1 0.013836 -0.005961 -0.003985 0.000000 0.000000 0.000000
# 2 -0.005961 0.013872 -0.005578 0.000000 0.000000 0.000000
# 3 -0.003985 -0.005578 0.025353 0.000000 0.000000 0.000000
# 4 0.000000 0.000000 0.000000 0.041474 0.000000 0.000000
# 5 0.000000 0.000000 0.000000 0.000000 0.853081 0.000000
# 6 0.000000 0.000000 0.000000 0.000000 0.000000 0.042557
#
#
# Mechanical properties :
#
#
# Convention : Reuss Voigt Hill
#
# Bulk Modulus (GPa) = 45.42653 56.02038 50.72345
# Shear Modulus (GPa) = 4.86117 19.57391 12.21754
#
# Velocity S-wave (km/s) = 1.67200 3.35508 2.65068
# Velocity P-wave (km/s) = 5.46364 6.87205 6.20791
#
# Compressibility (1/GPa) = 0.02201357
#
# Stress axis : x y z
#
# Youngs Moduli (GPa) = 72.27717 72.08561 39.44350
#
# Poissons Ratio (x) = 0.42969 0.15717
# Poissons Ratio (y) = 0.43083 0.22001
# Poissons Ratio (z) = 0.28801 0.40209
#
# Static dielectric constant tensor:
#      x y z
#    x 3.121350 0.000000 0.000000 
#    y 0.000000 3.636230 0.000000 
#    z 0.000000 0.000000 3.181860 
# 
# 
# High freq. dielectric constant tensor:
#      x y z
#    x 1.640750 0.000000 0.000000 
#    y 0.000000 1.685310 0.000000 
#    z 0.000000 0.000000 1.664780 
# 
# From -- ./inp_files/8098.got.cif
#   From: 2010.03.12/outbox.cif.g09.slc.cpg/sg55_5_cif.got.tgz:8098.got - 2010.04.16 15:19:21.
