data_PCOD8225789
_publ_section_title
;
Structure prediction by ZEFSAII (Michael W. Deem and Ramdas Pophale) SiO2 
 PCOD8225789
Probable space group: P B A M
;
_chemical_formula_sum "Si O2"
_cell_formula_units_Z 32
_cell_length_a 9.886717
_cell_length_b 18.480523
_cell_length_c 8.520559
_cell_angle_alpha 90.000000
_cell_angle_beta 90.000000
_cell_angle_gamma 90.000000
_cell_volume 1556.805828
_symmetry_space_group_name_H-M "P B A M"
_symmetry_group_IT_number 55
_symmetry_cell_setting 'orthorhombic'
loop_
_space_group_symop_operation_xyz
x,y,z
-x,-y,z
1/2+x,1/2-y,-z
1/2-x,1/2+y,-z
-x,-y,-z
x,y,-z
1/2-x,1/2+y,z
1/2+x,1/2-y,z
loop_
_atom_site_type_symbol
_atom_site_label
_atom_site_fract_x
_atom_site_fract_y
_atom_site_fract_z
Si Si1 0.855094 0.976766 0.313341
Si Si2 0.697439 0.315157 0.684231
Si Si3 0.984098 0.293838 0.181209
Si Si4 0.103551 0.434655 0.321244
O O1 0.856754 0.975420 0.500000
O O2 0.813646 0.897383 0.253045
O O3 0.746864 0.036282 0.256552
O O4 0.000000 0.000000 0.244052
O O5 0.669654 0.309238 0.500000
O O6 0.584505 0.270191 0.774095
O O7 0.846967 0.285506 0.719463
O O8 0.056828 0.369951 0.211629
O O9 0.945438 0.288199 0.000000
O O10 0.114756 0.405795 0.500000
O O11 0.000000 0.500000 0.313084
#
# Coordination Sequence:
#
# PCOD8225789 Si02
#       4
#     8   8   8   8
#     4   9  19  36  62  95 122 151 207 272 311 356
#     4  11  23  43  67  92 123 170 220 260 309 381
#     4  12  26  42  61  93 134 169 206 264 331 381
#     4  10  19  38  65  91 119 160 215 262 306 373
#
# _framework density 20.554907
#
# number of rings (size 3 to 8) (size 9 to 14) (size 15 to 20)
#    0.000    1.500    2.500    3.000    3.500    0.500 
#    0.000    0.000    0.000    3.750    0.000    0.000 
#    0.000    0.000    0.000    0.000    0.000    0.000 
#
# Total GULP energy -396925.956236 kJ/mol
# GULP energy per Si atom -12403.936132 kJ/mol
# Density = 2.050812 g / cm^3
# Si number density = 20.554907 Si / 1000 Ang^3
#
#
#
# Elastic Constant Matrix: (Units=GPa)
#
#
# Indices 1 2 3 4 5 6 
#
# 1 138.9911 24.0911 1.1674 0.0000 0.0000 0.0000
# 2 24.0911 69.5253 17.8757 0.0000 0.0000 0.0000
# 3 1.1674 17.8757 53.6972 0.0000 0.0000 0.0000
# 4 0.0000 0.0000 0.0000 16.9481 0.0000 0.0000
# 5 0.0000 0.0000 0.0000 0.0000 -104.5548 0.0000
# 6 0.0000 0.0000 0.0000 0.0000 0.0000 40.0270
#
#
#
# Elastic Compliance Matrix: (Units=1/GPa)
#
#
# Indices 1 2 3 4 5 6 
#
# 1 0.007685 -0.002865 0.000787 0.000000 0.000000 0.000000
# 2 -0.002865 0.016798 -0.005530 0.000000 0.000000 0.000000
# 3 0.000787 -0.005530 0.020447 0.000000 0.000000 0.000000
# 4 0.000000 0.000000 0.000000 0.059004 0.000000 0.000000
# 5 0.000000 0.000000 0.000000 0.000000 -0.009564 0.000000
# 6 0.000000 0.000000 0.000000 0.000000 0.000000 0.024983
#
#
# Mechanical properties :
#
#
# Convention : Reuss Voigt Hill
#
# Bulk Modulus (GPa) = 33.65522 38.72021 36.18771
# Shear Modulus (GPa) = 34.60878 5.08935 19.84906
#
# Velocity S-wave (km/s) = 4.10777 1.57523 3.11088
# Velocity P-wave (km/s) = 6.23757 4.71029 5.52694
#
# Compressibility (1/GPa) = 0.02971307
#
# Stress axis : x y z
#
# Youngs Moduli (GPa) = 130.12877 59.53176 48.90776
#
# Poissons Ratio (x) = 0.17056 -0.03848
# Poissons Ratio (y) = 0.37283 0.27044
# Poissons Ratio (z) = -0.10237 0.32919
#
# Static dielectric constant tensor:
#      x y z
#    x 4.806480 0.000000 0.000000 
#    y 0.000000 3.876920 0.000000 
#    z 0.000000 0.000000 3.399010 
# 
# 
# High freq. dielectric constant tensor:
#      x y z
#    x 1.822510 0.000000 0.000000 
#    y 0.000000 1.810520 0.000000 
#    z 0.000000 0.000000 1.772660 
# 
# From -- ./inp_files/2003.got.cif
#   From: 2010.03.12/outbox.cif.g09.slc.cpg/sg55_2_cif.got.tgz:2003.got - 2010.04.16 15:19:21.
