data_PCOD8225050
_publ_section_title
;
Structure prediction by ZEFSAII (Michael W. Deem and Ramdas Pophale) SiO2 
 PCOD8225050
Probable space group: P B A M
;
_chemical_formula_sum "Si O2"
_cell_formula_units_Z 48
_cell_length_a 10.002639
_cell_length_b 18.186609
_cell_length_c 14.522577
_cell_angle_alpha 90.000000
_cell_angle_beta 90.000000
_cell_angle_gamma 90.000000
_cell_volume 2641.861299
_symmetry_space_group_name_H-M "P B A M"
_symmetry_group_IT_number 55
_symmetry_cell_setting 'orthorhombic'
loop_
_space_group_symop_operation_xyz
x,y,z
-x,-y,z
1/2+x,1/2-y,-z
1/2-x,1/2+y,-z
-x,-y,-z
x,y,-z
1/2-x,1/2+y,z
1/2+x,1/2-y,z
loop_
_atom_site_type_symbol
_atom_site_label
_atom_site_fract_x
_atom_site_fract_y
_atom_site_fract_z
Si Si1 0.098383 0.690024 0.897214
Si Si2 0.766115 0.079129 0.748445
Si Si3 0.742101 0.953837 0.108041
Si Si4 0.162271 0.272435 0.194893
Si Si5 0.428574 0.622461 0.757055
Si Si6 0.652461 0.476522 0.601642
O O1 0.118655 0.602855 0.877422
O O2 0.193933 0.742989 0.837444
O O3 0.941953 0.707937 0.885941
O O4 0.141851 0.708248 0.000000
O O5 0.681769 0.154132 0.744384
O O6 0.920748 0.096856 0.761607
O O7 0.716785 0.028141 0.833581
O O8 0.754044 0.038747 0.649539
O O9 0.870034 0.909533 0.147210
O O10 0.763162 0.973432 0.000000
O O11 0.087563 0.209890 0.253821
O O12 0.345358 0.593027 0.669400
O O13 0.500000 0.500000 0.590989
O O14 0.711303 0.458550 0.500000
#
# Coordination Sequence:
#
# PCOD8225050 Si02
#       6
#     8   8   8   8   8   8
#     4  10  21  35  50  72 106 145 188 221 262 316
#     4  10  19  32  52  78 105 138 177 221 266 313
#     4   9  19  33  50  74 102 137 179 223 261 310
#     4  11  20  35  51  75 107 145 174 223 268 314
#     4   9  18  33  51  77 105 138 179 215 263 315
#     4   8  15  31  56  80 103 131 172 217 261 313
#
# _framework density 18.169008999999999
#
# number of rings (size 3 to 8) (size 9 to 14) (size 15 to 20)
#    0.000    2.500    1.667    2.000    0.000    4.000 
#    0.000    2.500    0.000    0.000    0.000   15.167 
#    0.000    0.000    0.000    0.000    0.000    0.000 
#
# Total GULP energy -594702.140558 kJ/mol
# GULP energy per Si atom -12389.627928 kJ/mol
# Density = 1.812766 g / cm^3
# Si number density = 18.169009 Si / 1000 Ang^3
#
#
#
# Elastic Constant Matrix: (Units=GPa)
#
#
# Indices 1 2 3 4 5 6 
#
# 1 36.5292 14.3524 7.0880 0.0000 0.0000 0.0000
# 2 14.3524 128.6535 51.6414 0.0000 0.0000 0.0000
# 3 7.0880 51.6414 115.9250 0.0000 0.0000 0.0000
# 4 0.0000 0.0000 0.0000 15.7589 0.0000 0.0000
# 5 0.0000 0.0000 0.0000 0.0000 12.0903 0.0000
# 6 0.0000 0.0000 0.0000 0.0000 0.0000 26.7887
#
#
#
# Elastic Compliance Matrix: (Units=1/GPa)
#
#
# Indices 1 2 3 4 5 6 
#
# 1 0.028645 -0.003035 -0.000399 0.000000 0.000000 0.000000
# 2 -0.003035 0.009787 -0.004174 0.000000 0.000000 0.000000
# 3 -0.000399 -0.004174 0.010510 0.000000 0.000000 0.000000
# 4 0.000000 0.000000 0.000000 0.063456 0.000000 0.000000
# 5 0.000000 0.000000 0.000000 0.000000 0.082711 0.000000
# 6 0.000000 0.000000 0.000000 0.000000 0.000000 0.037329
#
#
# Mechanical properties :
#
#
# Convention : Reuss Voigt Hill
#
# Bulk Modulus (GPa) = 29.65175 47.47459 38.56317
# Shear Modulus (GPa) = 19.31259 24.79597 22.05428
#
# Velocity S-wave (km/s) = 3.26382 3.69825 3.48780
# Velocity P-wave (km/s) = 5.52799 6.66500 6.12294
#
# Compressibility (1/GPa) = 0.03372482
#
# Stress axis : x y z
#
# Youngs Moduli (GPa) = 34.90955 102.17663 95.14572
#
# Poissons Ratio (x) = 0.31014 0.03799
# Poissons Ratio (y) = 0.10596 0.39716
# Poissons Ratio (z) = 0.01394 0.42651
#
# Static dielectric constant tensor:
#      x y z
#    x 3.193050 0.000000 0.000000 
#    y 0.000000 3.664330 0.000000 
#    z 0.000000 0.000000 3.377100 
# 
# 
# High freq. dielectric constant tensor:
#      x y z
#    x 1.684470 0.000000 0.000000 
#    y 0.000000 1.714460 0.000000 
#    z 0.000000 0.000000 1.677790 
# 
# From -- ./inp_files/17307.got.cif
#   From: 2010.03.12/outbox.cif.g09.slc.cpg/sg55_9_cif.got.tgz:17307.got - 2010.04.16 15:19:21.
