data_PCOD8225573
_publ_section_title
;
Structure prediction by ZEFSAII (Michael W. Deem and Ramdas Pophale) SiO2 
 PCOD8225573
Probable space group: P B A M
;
_chemical_formula_sum "Si O2"
_cell_formula_units_Z 48
_cell_length_a 29.293890
_cell_length_b 10.180742
_cell_length_c 8.517004
_cell_angle_alpha 90.000000
_cell_angle_beta 90.000000
_cell_angle_gamma 90.000000
_cell_volume 2540.056221
_symmetry_space_group_name_H-M "P B A M"
_symmetry_group_IT_number 55
_symmetry_cell_setting 'orthorhombic'
loop_
_space_group_symop_operation_xyz
x,y,z
-x,-y,z
1/2+x,1/2-y,-z
1/2-x,1/2+y,-z
-x,-y,-z
x,y,-z
1/2-x,1/2+y,z
1/2+x,1/2-y,z
loop_
_atom_site_type_symbol
_atom_site_label
_atom_site_fract_x
_atom_site_fract_y
_atom_site_fract_z
Si Si1 0.889501 0.273747 0.316037
Si Si2 0.383083 0.508383 0.817182
Si Si3 0.979757 0.359515 0.181225
Si Si4 0.531470 0.380489 0.317563
Si Si5 0.786655 0.982875 0.312897
Si Si6 0.212435 0.720842 0.314258
O O1 0.896277 0.297511 0.500000
O O2 0.896890 0.120355 0.280998
O O3 0.925997 0.360638 0.222036
O O4 0.838798 0.315819 0.259013
O O5 0.421213 0.617834 0.779573
O O6 0.334228 0.563506 0.762215
O O7 0.381930 0.474142 0.000000
O O8 0.000000 0.500000 0.223579
O O9 0.005758 0.255005 0.287731
O O10 0.986872 0.323449 0.000000
O O11 0.500000 0.500000 0.258444
O O12 0.542978 0.393829 0.500000
O O13 0.790929 0.974690 0.500000
O O14 0.747793 0.885448 0.245240
O O15 0.774892 0.131603 0.258066
O O16 0.214435 0.716374 0.500000
#
# Coordination Sequence:
#
# PCOD8225573 Si02
#       6
#     8   8   8   8   8   8
#     4  10  19  35  58  83 110 146 192 231 270 328
#     4  11  21  34  56  84 113 145 182 229 285 335
#     4  11  24  40  57  82 119 154 183 224 284 343
#     4  11  22  37  61  87 109 142 192 238 273 322
#     4   9  17  34  55  78 107 141 181 227 273 325
#     4   8  16  31  55  79 105 136 178 228 272 315
#
# _framework density 18.897220000000001
#
# number of rings (size 3 to 8) (size 9 to 14) (size 15 to 20)
#    0.000    2.000    1.667    4.000    0.000    2.000 
#    3.000    4.167    0.000    0.000    0.000    0.000 
#    0.000    0.000    0.000    0.000    0.000    0.000 
#
# Total GULP energy -595290.798182 kJ/mol
# GULP energy per Si atom -12401.891629 kJ/mol
# Density = 1.885421 g / cm^3
# Si number density = 18.897220 Si / 1000 Ang^3
#
#
#
# Elastic Constant Matrix: (Units=GPa)
#
#
# Indices 1 2 3 4 5 6 
#
# 1 161.5400 78.4873 24.9597 0.0000 0.0000 0.0000
# 2 78.4873 96.9109 21.3188 0.0000 0.0000 0.0000
# 3 24.9597 21.3188 42.0994 0.0000 0.0000 0.0000
# 4 0.0000 0.0000 0.0000 16.5315 0.0000 0.0000
# 5 0.0000 0.0000 0.0000 0.0000 17.4140 0.0000
# 6 0.0000 0.0000 0.0000 0.0000 0.0000 38.2479
#
#
#
# Elastic Compliance Matrix: (Units=1/GPa)
#
#
# Indices 1 2 3 4 5 6 
#
# 1 0.010374 -0.007933 -0.002134 0.000000 0.000000 0.000000
# 2 -0.007933 0.017678 -0.004249 0.000000 0.000000 0.000000
# 3 -0.002134 -0.004249 0.027170 0.000000 0.000000 0.000000
# 4 0.000000 0.000000 0.000000 0.060491 0.000000 0.000000
# 5 0.000000 0.000000 0.000000 0.000000 0.057425 0.000000
# 6 0.000000 0.000000 0.000000 0.000000 0.000000 0.026145
#
#
# Mechanical properties :
#
#
# Convention : Reuss Voigt Hill
#
# Bulk Modulus (GPa) = 37.60558 61.12021 49.36290
# Shear Modulus (GPa) = 21.11685 26.15765 23.63725
#
# Velocity S-wave (km/s) = 3.34647 3.72453 3.54055
# Velocity P-wave (km/s) = 5.90551 7.13511 6.54923
#
# Compressibility (1/GPa) = 0.02659180
#
# Stress axis : x y z
#
# Youngs Moduli (GPa) = 96.39148 56.56712 36.80539
#
# Poissons Ratio (x) = 0.44873 0.07853
# Poissons Ratio (y) = 0.76465 0.15638
# Poissons Ratio (z) = 0.20566 0.24035
#
# Static dielectric constant tensor:
#      x y z
#    x 3.804830 0.000000 0.000000 
#    y 0.000000 3.402750 0.000000 
#    z 0.000000 0.000000 3.245790 
# 
# 
# High freq. dielectric constant tensor:
#      x y z
#    x 1.747510 0.000000 0.000000 
#    y 0.000000 1.711520 0.000000 
#    z 0.000000 0.000000 1.723130 
# 
# From -- ./inp_files/2894.got.cif
#   From: 2010.03.12/outbox.cif.g09.slc.cpg/sg55_2_cif.got.tgz:2894.got - 2010.04.16 15:19:21.
