data_PCOD8225853
_publ_section_title
;
Structure prediction by ZEFSAII (Michael W. Deem and Ramdas Pophale) SiO2 
 PCOD8225853
Probable space group: P B A M
;
_chemical_formula_sum "Si O2"
_cell_formula_units_Z 64
_cell_length_a 10.226387
_cell_length_b 26.866482
_cell_length_c 13.649277
_cell_angle_alpha 90.000000
_cell_angle_beta 90.000000
_cell_angle_gamma 90.000000
_cell_volume 3750.098485
_symmetry_space_group_name_H-M "P B A M"
_symmetry_group_IT_number 55
_symmetry_cell_setting 'orthorhombic'
loop_
_space_group_symop_operation_xyz
x,y,z
-x,-y,z
1/2+x,1/2-y,-z
1/2-x,1/2+y,-z
-x,-y,-z
x,y,-z
1/2-x,1/2+y,z
1/2+x,1/2-y,z
loop_
_atom_site_type_symbol
_atom_site_label
_atom_site_fract_x
_atom_site_fract_y
_atom_site_fract_z
Si Si1 0.873389 0.528445 0.116606
Si Si2 0.346212 0.309177 0.810116
Si Si3 0.646546 0.304568 0.608842
Si Si4 0.400757 0.861954 0.113613
Si Si5 0.361150 0.276121 0.391365
Si Si6 0.126059 0.033077 0.114467
Si Si7 0.884980 0.858262 0.804866
Si Si8 0.644232 0.800655 0.114478
O O1 0.876641 0.584016 0.162145
O O2 0.746886 0.499198 0.154059
O O3 0.000000 0.500000 0.155892
O O4 0.870072 0.530784 0.000000
O O5 0.225193 0.327894 0.872465
O O6 0.319159 0.315388 0.693047
O O7 0.473804 0.339715 0.841820
O O8 0.365923 0.250849 0.828271
O O9 0.647645 0.328737 0.500000
O O10 0.781040 0.274694 0.625868
O O11 0.519008 0.268091 0.618620
O O12 0.637877 0.348091 0.689413
O O13 0.528609 0.835407 0.157941
O O14 0.427472 0.869982 0.000000
O O15 0.327524 0.297371 0.500000
O O16 0.123173 0.083152 0.177334
O O17 0.139393 0.047075 0.000000
O O18 0.000000 0.000000 0.134762
O O19 0.780717 0.828255 0.869139
O O20 0.625091 0.789668 0.000000
#
# Coordination Sequence:
#
# PCOD8225853 Si02
#       8
#     8   8   8   8   8   8   8   8
#     4   9  17  32  50  67  89 122 165 211 248 277
#     4  11  21  32  48  71 103 135 162 195 237 294
#     4   9  18  33  52  73  98 127 162 204 247 293
#     4  10  21  34  49  70 100 136 170 202 242 291
#     4   9  18  32  50  71  96 128 163 201 241 282
#     4  10  20  33  50  71  96 126 165 210 250 287
#     4  11  21  33  51  74  99 129 166 206 246 296
#     4  11  22  33  46  69 103 138 167 195 233 290
#
# _framework density 17.066219
#
# number of rings (size 3 to 8) (size 9 to 14) (size 15 to 20)
#    0.000    2.000    1.250    3.000    1.750    6.000 
#    0.000    0.000    0.000    0.375    0.000    0.875 
#    0.000    2.000    0.000    0.000    0.000    0.000 
#
# Total GULP energy -793411.657545 kJ/mol
# GULP energy per Si atom -12397.057149 kJ/mol
# Density = 1.702738 g / cm^3
# Si number density = 17.066219 Si / 1000 Ang^3
#
#
#
# Elastic Constant Matrix: (Units=GPa)
#
#
# Indices 1 2 3 4 5 6 
#
# 1 93.0549 33.3519 27.0729 0.0000 0.0000 0.0000
# 2 33.3519 104.3301 31.0442 0.0000 0.0000 0.0000
# 3 27.0729 31.0442 46.7782 0.0000 0.0000 0.0000
# 4 0.0000 0.0000 0.0000 16.4539 0.0000 0.0000
# 5 0.0000 0.0000 0.0000 0.0000 22.7330 0.0000
# 6 0.0000 0.0000 0.0000 0.0000 0.0000 29.3134
#
#
#
# Elastic Compliance Matrix: (Units=1/GPa)
#
#
# Indices 1 2 3 4 5 6 
#
# 1 0.013412 -0.002464 -0.006127 0.000000 0.000000 0.000000
# 2 -0.002464 0.012396 -0.006800 0.000000 0.000000 0.000000
# 3 -0.006127 -0.006800 0.029436 0.000000 0.000000 0.000000
# 4 0.000000 0.000000 0.000000 0.060776 0.000000 0.000000
# 5 0.000000 0.000000 0.000000 0.000000 0.043989 0.000000
# 6 0.000000 0.000000 0.000000 0.000000 0.000000 0.034114
#
#
# Mechanical properties :
#
#
# Convention : Reuss Voigt Hill
#
# Bulk Modulus (GPa) = 40.88050 47.45569 44.16809
# Shear Modulus (GPa) = 21.45359 23.87965 22.66662
#
# Velocity S-wave (km/s) = 3.54938 3.74469 3.64834
# Velocity P-wave (km/s) = 6.38776 6.82379 6.60937
#
# Compressibility (1/GPa) = 0.02446154
#
# Stress axis : x y z
#
# Youngs Moduli (GPa) = 74.55939 80.66907 33.97148
#
# Poissons Ratio (x) = 0.19881 0.20813
# Poissons Ratio (y) = 0.18375 0.23102
# Poissons Ratio (z) = 0.45681 0.54859
#
# Static dielectric constant tensor:
#      x y z
#    x 3.419000 0.000000 0.000000 
#    y 0.000000 3.113700 0.000000 
#    z 0.000000 0.000000 3.149130 
# 
# 
# High freq. dielectric constant tensor:
#      x y z
#    x 1.680070 0.000000 0.000000 
#    y 0.000000 1.638760 0.000000 
#    z 0.000000 0.000000 1.634440 
# 
# From -- ./inp_files/17916.got.cif
#   From: 2010.03.12/outbox.cif.g09.slc.cpg/sg55_9_cif.got.tgz:17916.got - 2010.04.16 15:19:21.
