data_PCOD8225760
_publ_section_title
;
Structure prediction by ZEFSAII (Michael W. Deem and Ramdas Pophale) SiO2 
 PCOD8225760
Probable space group: P B A M
;
_chemical_formula_sum "Si O2"
_cell_formula_units_Z 48
_cell_length_a 14.616088
_cell_length_b 8.625895
_cell_length_c 18.085950
_cell_angle_alpha 90.000000
_cell_angle_beta 90.000000
_cell_angle_gamma 90.000000
_cell_volume 2280.219432
_symmetry_space_group_name_H-M "P B A M"
_symmetry_group_IT_number 55
_symmetry_cell_setting 'orthorhombic'
loop_
_space_group_symop_operation_xyz
x,y,z
-x,-y,z
1/2+x,1/2-y,-z
1/2-x,1/2+y,-z
-x,-y,-z
x,y,-z
1/2-x,1/2+y,z
1/2+x,1/2-y,z
loop_
_atom_site_type_symbol
_atom_site_label
_atom_site_fract_x
_atom_site_fract_y
_atom_site_fract_z
Si Si1 0.183157 0.171430 0.677806
Si Si2 0.629350 0.683182 0.333179
Si Si3 0.543779 0.668126 0.821967
Si Si4 0.028848 0.326340 0.414666
Si Si5 0.795802 0.053907 0.914447
Si Si6 0.851583 0.743659 0.845505
O O1 0.285617 0.204456 0.650636
O O2 0.116221 0.284285 0.633921
O O3 0.177490 0.206592 0.764113
O O4 0.160140 0.993913 0.662942
O O5 0.585723 0.729029 0.254360
O O6 0.554806 0.711090 0.396657
O O7 0.500000 0.500000 0.806775
O O8 0.622312 0.662527 0.883869
O O9 0.461595 0.781324 0.848937
O O10 0.055346 0.308441 0.500000
O O11 0.000000 0.500000 0.394193
O O12 0.701370 0.088730 0.870307
O O13 0.820552 0.875413 0.903174
O O14 0.782779 0.091096 0.000000
#
# Coordination Sequence:
#
# PCOD8225760 Si02
#       6
#     8   8   8   8   8   8
#     4  12  22  40  70  98 131 179 227 274 331 402
#     4  12  22  41  68  99 133 172 226 277 329 400
#     4  10  19  37  62  90 122 166 221 263 320 390
#     4  11  26  46  68 101 138 173 219 279 344 401
#     4  11  23  38  61  92 129 169 215 273 329 384
#     4  11  21  40  63  90 126 171 217 269 326 399
#
# _framework density 21.050605000000001
#
# number of rings (size 3 to 8) (size 9 to 14) (size 15 to 20)
#    0.000    0.833    6.667    2.000    0.000    5.667 
#    0.000    0.833    0.000    2.000    0.000    0.000 
#    0.000    0.000    0.000    0.000    0.000    0.000 
#
# Total GULP energy -595420.531866 kJ/mol
# GULP energy per Si atom -12404.594414 kJ/mol
# Density = 2.100269 g / cm^3
# Si number density = 21.050605 Si / 1000 Ang^3
#
#
#
# Elastic Constant Matrix: (Units=GPa)
#
#
# Indices 1 2 3 4 5 6 
#
# 1 146.9969 32.2842 37.8263 0.0000 0.0000 0.0000
# 2 32.2842 66.3368 37.5362 0.0000 0.0000 0.0000
# 3 37.8263 37.5362 66.7015 0.0000 0.0000 0.0000
# 4 0.0000 0.0000 0.0000 24.7329 0.0000 0.0000
# 5 0.0000 0.0000 0.0000 0.0000 19.6471 0.0000
# 6 0.0000 0.0000 0.0000 0.0000 0.0000 35.3047
#
#
#
# Elastic Compliance Matrix: (Units=1/GPa)
#
#
# Indices 1 2 3 4 5 6 
#
# 1 0.008139 -0.001980 -0.003501 0.000000 0.000000 0.000000
# 2 -0.001980 0.022599 -0.011595 0.000000 0.000000 0.000000
# 3 -0.003501 -0.011595 0.023503 0.000000 0.000000 0.000000
# 4 0.000000 0.000000 0.000000 0.040432 0.000000 0.000000
# 5 0.000000 0.000000 0.000000 0.000000 0.050898 0.000000
# 6 0.000000 0.000000 0.000000 0.000000 0.000000 0.028325
#
#
# Mechanical properties :
#
#
# Convention : Reuss Voigt Hill
#
# Bulk Modulus (GPa) = 49.77951 55.03653 52.40802
# Shear Modulus (GPa) = 23.28364 27.42952 25.35658
#
# Velocity S-wave (km/s) = 3.32939 3.61366 3.47443
# Velocity P-wave (km/s) = 6.20311 6.60402 6.40670
#
# Compressibility (1/GPa) = 0.02008859
#
# Stress axis : x y z
#
# Youngs Moduli (GPa) = 122.87066 44.24994 42.54811
#
# Poissons Ratio (x) = 0.08760 0.14898
# Poissons Ratio (y) = 0.24324 0.49334
# Poissons Ratio (z) = 0.43022 0.51307
#
# Static dielectric constant tensor:
#      x y z
#    x 4.405410 0.000000 0.000000 
#    y 0.000000 3.730510 0.000000 
#    z 0.000000 0.000000 3.650860 
# 
# 
# High freq. dielectric constant tensor:
#      x y z
#    x 1.845260 0.000000 0.000000 
#    y 0.000000 1.809000 0.000000 
#    z 0.000000 0.000000 1.817250 
# 
# From -- ./inp_files/21489.got.cif
#   From: 2010.03.12/outbox.cif.g09.slc.cpg/sg55_11_cif.got.tgz:21489.got - 2010.04.16 15:19:21.
