data_PCOD8225251
_publ_section_title
;
Structure prediction by ZEFSAII (Michael W. Deem and Ramdas Pophale) SiO2 
 PCOD8225251
Probable space group: P B A M
;
_chemical_formula_sum "Si O2"
_cell_formula_units_Z 64
_cell_length_a 24.661037
_cell_length_b 14.630835
_cell_length_c 9.064533
_cell_angle_alpha 90.000000
_cell_angle_beta 90.000000
_cell_angle_gamma 90.000000
_cell_volume 3270.588322
_symmetry_space_group_name_H-M "P B A M"
_symmetry_group_IT_number 55
_symmetry_cell_setting 'orthorhombic'
loop_
_space_group_symop_operation_xyz
x,y,z
-x,-y,z
1/2+x,1/2-y,-z
1/2-x,1/2+y,-z
-x,-y,-z
x,y,-z
1/2-x,1/2+y,z
1/2+x,1/2-y,z
loop_
_atom_site_type_symbol
_atom_site_label
_atom_site_fract_x
_atom_site_fract_y
_atom_site_fract_z
Si Si1 0.307845 0.813892 0.828531
Si Si2 0.403604 0.741047 0.662252
Si Si3 0.665001 0.992399 0.826439
Si Si4 0.862421 0.954738 0.330971
Si Si5 0.554612 0.950603 0.673570
Si Si6 0.238318 0.129604 0.174853
Si Si7 0.549715 0.564564 0.174268
Si Si8 0.973056 0.249326 0.332737
O O1 0.369403 0.789187 0.788750
O O2 0.267942 0.734534 0.763719
O O3 0.299074 0.918393 0.776317
O O4 0.299973 0.808125 0.000000
O O5 0.380310 0.767200 0.500000
O O6 0.401961 0.632128 0.681730
O O7 0.464187 0.775847 0.678056
O O8 0.607746 0.994674 0.745165
O O9 0.701224 0.904226 0.784458
O O10 0.653046 0.996514 0.000000
O O11 0.851652 0.982808 0.500000
O O12 0.805149 0.935576 0.253407
O O13 0.893757 0.035785 0.248546
O O14 0.558097 0.966972 0.500000
O O15 0.556922 0.842819 0.712631
O O16 0.500000 0.000000 0.734550
O O17 0.228019 0.122547 0.000000
O O18 0.500000 0.500000 0.227649
O O19 0.540595 0.669314 0.219509
O O20 0.556339 0.558679 0.000000
O O21 0.958340 0.218911 0.500000
#
# Coordination Sequence:
#
# PCOD8225251 Si02
#       8
#     8   8   8   8   8   8   8   8
#     4   9  18  33  55  79 104 141 183 229 281 335
#     4   9  17  30  52  79 106 141 184 229 274 327
#     4  10  21  38  59  84 114 150 191 237 292 347
#     4  10  19  33  55  80 109 147 191 238 283 330
#     4  10  22  40  62  86 116 152 191 240 296 350
#     4   9  19  37  57  79 111 145 186 238 286 337
#     4  11  22  34  52  81 117 156 194 233 284 345
#     4  10  20  35  54  79 113 152 189 230 285 342
#
# _framework density 19.568345999999998
#
# number of rings (size 3 to 8) (size 9 to 14) (size 15 to 20)
#    0.000    2.250    1.250    1.500    0.000    4.250 
#    2.250    0.000    0.000    0.000    0.000    0.000 
#    0.000    0.000    0.000    0.000    0.000    0.000 
#
# Total GULP energy -793271.049096 kJ/mol
# GULP energy per Si atom -12394.860142 kJ/mol
# Density = 1.952381 g / cm^3
# Si number density = 19.568346 Si / 1000 Ang^3
#
#
#
# Elastic Constant Matrix: (Units=GPa)
#
#
# Indices 1 2 3 4 5 6 
#
# 1 96.7591 49.0100 31.2369 0.0000 0.0000 0.0000
# 2 49.0100 111.1058 34.4640 0.0000 0.0000 0.0000
# 3 31.2369 34.4640 38.7191 0.0000 0.0000 0.0000
# 4 0.0000 0.0000 0.0000 23.0175 0.0000 0.0000
# 5 0.0000 0.0000 0.0000 0.0000 27.1178 0.0000
# 6 0.0000 0.0000 0.0000 0.0000 0.0000 27.6105
#
#
#
# Elastic Compliance Matrix: (Units=1/GPa)
#
#
# Indices 1 2 3 4 5 6 
#
# 1 0.015159 -0.003997 -0.008672 0.000000 0.000000 0.000000
# 2 -0.003997 0.013487 -0.008780 0.000000 0.000000 0.000000
# 3 -0.008672 -0.008780 0.040639 0.000000 0.000000 0.000000
# 4 0.000000 0.000000 0.000000 0.043445 0.000000 0.000000
# 5 0.000000 0.000000 0.000000 0.000000 0.036876 0.000000
# 6 0.000000 0.000000 0.000000 0.000000 0.000000 0.036218
#
#
# Mechanical properties :
#
#
# Convention : Reuss Voigt Hill
#
# Bulk Modulus (GPa) = 37.89855 52.88956 45.39406
# Shear Modulus (GPa) = 21.05100 24.34070 22.69585
#
# Velocity S-wave (km/s) = 3.28345 3.53070 3.40931
# Velocity P-wave (km/s) = 5.81240 6.61119 6.22463
#
# Compressibility (1/GPa) = 0.02638623
#
# Stress axis : x y z
#
# Youngs Moduli (GPa) = 65.96738 74.14505 24.60704
#
# Poissons Ratio (x) = 0.29634 0.21339
# Poissons Ratio (y) = 0.26366 0.21606
# Poissons Ratio (z) = 0.57207 0.65103
#
# Static dielectric constant tensor:
#      x y z
#    x 3.344230 0.000000 0.000000 
#    y 0.000000 3.797450 0.000000 
#    z 0.000000 0.000000 3.465950 
# 
# 
# High freq. dielectric constant tensor:
#      x y z
#    x 1.743700 0.000000 0.000000 
#    y 0.000000 1.769510 0.000000 
#    z 0.000000 0.000000 1.751660 
# 
# From -- ./inp_files/9667.got.cif
#   From: 2010.03.12/outbox.cif.g09.slc.cpg/sg55_5_cif.got.tgz:9667.got - 2010.04.16 15:19:21.
