data_PCOD8225683
_publ_section_title
;
Structure prediction by ZEFSAII (Michael W. Deem and Ramdas Pophale) SiO2 
 PCOD8225683
Probable space group: P B A M
;
_chemical_formula_sum "Si O2"
_cell_formula_units_Z 64
_cell_length_a 24.518174
_cell_length_b 14.961867
_cell_length_c 8.933778
_cell_angle_alpha 90.000000
_cell_angle_beta 90.000000
_cell_angle_gamma 90.000000
_cell_volume 3277.246203
_symmetry_space_group_name_H-M "P B A M"
_symmetry_group_IT_number 55
_symmetry_cell_setting 'orthorhombic'
loop_
_space_group_symop_operation_xyz
x,y,z
-x,-y,z
1/2+x,1/2-y,-z
1/2-x,1/2+y,-z
-x,-y,-z
x,y,-z
1/2-x,1/2+y,z
1/2+x,1/2-y,z
loop_
_atom_site_type_symbol
_atom_site_label
_atom_site_fract_x
_atom_site_fract_y
_atom_site_fract_z
Si Si1 0.937532 0.337751 0.827818
Si Si2 0.351831 0.286036 0.673581
Si Si3 0.107056 0.492464 0.323029
Si Si4 0.562840 0.182889 0.827740
Si Si5 0.242099 0.263054 0.829920
Si Si6 0.670643 0.511838 0.326035
Si Si7 0.363927 0.654148 0.826510
Si Si8 0.782577 0.535281 0.172709
O O1 0.898849 0.260014 0.768046
O O2 0.931768 0.429023 0.735750
O O3 0.998750 0.302585 0.808537
O O4 0.923670 0.357845 0.000000
O O5 0.360731 0.264444 0.500000
O O6 0.292894 0.247633 0.720365
O O7 0.355010 0.391493 0.708446
O O8 0.109207 0.495762 0.500000
O O9 0.083074 0.398371 0.272264
O O10 0.167454 0.509864 0.259531
O O11 0.591754 0.273616 0.772149
O O12 0.579225 0.162521 0.000000
O O13 0.196871 0.189674 0.794395
O O14 0.213809 0.358585 0.803071
O O15 0.263541 0.256470 0.000000
O O16 0.683063 0.500790 0.500000
O O17 0.628298 0.436478 0.269096
O O18 0.726486 0.497221 0.236558
O O19 0.372689 0.631699 0.000000
O O20 0.786440 0.507578 0.000000
#
# Coordination Sequence:
#
# PCOD8225683 Si02
#       8
#     8   8   8   8   8   8   8   8
#     4  11  24  41  64  86 113 156 204 250 295 347
#     4  10  22  40  59  83 121 157 195 247 297 349
#     4  12  24  37  58  89 124 158 193 238 294 359
#     4  10  22  43  64  87 118 154 201 250 292 345
#     4   9  18  34  58  84 114 152 193 238 290 347
#     4  10  22  38  57  87 124 158 194 242 300 356
#     4  10  20  37  61  88 117 154 199 245 293 348
#     4  10  19  36  59  84 118 157 196 239 287 345
#
# _framework density 19.528590000000001
#
# number of rings (size 3 to 8) (size 9 to 14) (size 15 to 20)
#    0.000    1.750    1.250    3.000    1.750    5.500 
#    0.000    0.625    0.000    3.750    0.000    0.000 
#    0.000    0.000    0.000    0.000    0.000    0.000 
#
# Total GULP energy -793933.364147 kJ/mol
# GULP energy per Si atom -12405.208815 kJ/mol
# Density = 1.948414 g / cm^3
# Si number density = 19.528590 Si / 1000 Ang^3
#
#
#
# Elastic Constant Matrix: (Units=GPa)
#
#
# Indices 1 2 3 4 5 6 
#
# 1 84.0917 40.8651 52.8132 0.0000 0.0000 0.0000
# 2 40.8651 73.2106 43.3708 0.0000 0.0000 0.0000
# 3 52.8132 43.3708 118.3428 0.0000 0.0000 0.0000
# 4 0.0000 0.0000 0.0000 32.7647 0.0000 0.0000
# 5 0.0000 0.0000 0.0000 0.0000 16.1565 0.0000
# 6 0.0000 0.0000 0.0000 0.0000 0.0000 27.3262
#
#
#
# Elastic Compliance Matrix: (Units=1/GPa)
#
#
# Indices 1 2 3 4 5 6 
#
# 1 0.019066 -0.007155 -0.005886 0.000000 0.000000 0.000000
# 2 -0.007155 0.020132 -0.004185 0.000000 0.000000 0.000000
# 3 -0.005886 -0.004185 0.012611 0.000000 0.000000 0.000000
# 4 0.000000 0.000000 0.000000 0.030521 0.000000 0.000000
# 5 0.000000 0.000000 0.000000 0.000000 0.061895 0.000000
# 6 0.000000 0.000000 0.000000 0.000000 0.000000 0.036595
#
#
# Mechanical properties :
#
#
# Convention : Reuss Voigt Hill
#
# Bulk Modulus (GPa) = 57.61742 61.08258 59.35000
# Shear Modulus (GPa) = 22.61857 24.48919 23.55388
#
# Velocity S-wave (km/s) = 3.40697 3.54505 3.47670
# Velocity P-wave (km/s) = 6.71154 6.93563 6.82451
#
# Compressibility (1/GPa) = 0.01735586
#
# Stress axis : x y z
#
# Youngs Moduli (GPa) = 52.45020 49.67117 79.29782
#
# Poissons Ratio (x) = 0.35540 0.46677
# Poissons Ratio (y) = 0.37529 0.33187
# Poissons Ratio (z) = 0.30874 0.20788
#
# Static dielectric constant tensor:
#      x y z
#    x 3.494860 0.000000 0.000000 
#    y 0.000000 3.599750 0.000000 
#    z 0.000000 0.000000 3.561010 
# 
# 
# High freq. dielectric constant tensor:
#      x y z
#    x 1.750810 0.000000 0.000000 
#    y 0.000000 1.765360 0.000000 
#    z 0.000000 0.000000 1.763340 
# 
# From -- ./inp_files/9700.got.cif
#   From: 2010.03.12/outbox.cif.g09.slc.cpg/sg55_5_cif.got.tgz:9700.got - 2010.04.16 15:19:21.
