data_PCOD8225716
_publ_section_title
;
Structure prediction by ZEFSAII (Michael W. Deem and Ramdas Pophale) SiO2 
 PCOD8225716
Probable space group: P B A M
;
_chemical_formula_sum "Si O2"
_cell_formula_units_Z 64
_cell_length_a 19.760556
_cell_length_b 18.687325
_cell_length_c 9.061774
_cell_angle_alpha 90.000000
_cell_angle_beta 90.000000
_cell_angle_gamma 90.000000
_cell_volume 3346.258794
_symmetry_space_group_name_H-M "P B A M"
_symmetry_group_IT_number 55
_symmetry_cell_setting 'orthorhombic'
loop_
_space_group_symop_operation_xyz
x,y,z
-x,-y,z
1/2+x,1/2-y,-z
1/2-x,1/2+y,-z
-x,-y,-z
x,y,-z
1/2-x,1/2+y,z
1/2+x,1/2-y,z
loop_
_atom_site_type_symbol
_atom_site_label
_atom_site_fract_x
_atom_site_fract_y
_atom_site_fract_z
Si Si1 0.695577 0.043370 0.329510
Si Si2 0.154212 0.199679 0.674796
Si Si3 0.737506 0.689852 0.324691
Si Si4 0.414619 0.310000 0.671687
Si Si5 0.826145 0.959241 0.671330
Si Si6 0.057370 0.444254 0.174120
Si Si7 0.437359 0.451345 0.826125
Si Si8 0.530051 0.203939 0.329201
O O1 0.675246 0.053242 0.500000
O O2 0.731309 0.115221 0.268472
O O3 0.628098 0.027558 0.238421
O O4 0.746755 0.977017 0.308386
O O5 0.159885 0.194997 0.500000
O O6 0.216764 0.245771 0.738486
O O7 0.158849 0.119290 0.738487
O O8 0.084494 0.236937 0.723438
O O9 0.737276 0.690388 0.500000
O O10 0.661253 0.700619 0.266299
O O11 0.414615 0.331629 0.500000
O O12 0.451190 0.372998 0.760947
O O13 0.455645 0.236604 0.696694
O O14 0.846755 0.964858 0.500000
O O15 0.868581 0.017639 0.759423
O O16 0.037589 0.366786 0.234320
O O17 0.000000 0.500000 0.223343
O O18 0.063920 0.439170 0.000000
O O19 0.500000 0.500000 0.777375
O O20 0.429675 0.446490 0.000000
O O21 0.542681 0.184311 0.500000
#
# Coordination Sequence:
#
# PCOD8225716 Si02
#       8
#     8   8   8   8   8   8   8   8
#     4  10  19  36  62  87 113 146 191 246 298 352
#     4   9  17  31  54  83 113 144 183 235 292 345
#     4   9  16  31  55  83 113 141 177 235 292 341
#     4  10  20  35  59  88 114 146 190 239 291 345
#     4  10  20  35  59  88 113 146 193 244 297 348
#     4  11  25  42  60  84 118 160 201 242 291 349
#     4  11  23  36  51  77 118 162 196 232 281 341
#     4  10  20  36  60  88 116 150 193 243 293 345
#
# _framework density 19.125837000000001
#
# number of rings (size 3 to 8) (size 9 to 14) (size 15 to 20)
#    0.000    2.000    2.500    1.500    0.000    5.000 
#    0.000    3.125    0.000    0.000    0.000    0.000 
#    0.000    0.000    0.000    0.000    0.000    0.000 
#
# Total GULP energy -793735.585887 kJ/mol
# GULP energy per Si atom -12402.118529 kJ/mol
# Density = 1.908231 g / cm^3
# Si number density = 19.125837 Si / 1000 Ang^3
#
#
#
# Elastic Constant Matrix: (Units=GPa)
#
#
# Indices 1 2 3 4 5 6 
#
# 1 129.1622 38.8179 37.3751 0.0000 0.0000 0.0000
# 2 38.8179 99.1020 26.9198 0.0000 0.0000 0.0000
# 3 37.3751 26.9198 46.6925 0.0000 0.0000 0.0000
# 4 0.0000 0.0000 0.0000 19.8686 0.0000 0.0000
# 5 0.0000 0.0000 0.0000 0.0000 19.7099 0.0000
# 6 0.0000 0.0000 0.0000 0.0000 0.0000 37.3860
#
#
#
# Elastic Compliance Matrix: (Units=1/GPa)
#
#
# Indices 1 2 3 4 5 6 
#
# 1 0.010452 -0.002160 -0.007121 0.000000 0.000000 0.000000
# 2 -0.002160 0.012411 -0.005426 0.000000 0.000000 0.000000
# 3 -0.007121 -0.005426 0.030245 0.000000 0.000000 0.000000
# 4 0.000000 0.000000 0.000000 0.050331 0.000000 0.000000
# 5 0.000000 0.000000 0.000000 0.000000 0.050736 0.000000
# 6 0.000000 0.000000 0.000000 0.000000 0.000000 0.026748
#
#
# Mechanical properties :
#
#
# Convention : Reuss Voigt Hill
#
# Bulk Modulus (GPa) = 42.20578 53.46468 47.83523
# Shear Modulus (GPa) = 22.91115 26.84917 24.88016
#
# Velocity S-wave (km/s) = 3.46485 3.75082 3.61067
# Velocity P-wave (km/s) = 6.17432 6.83908 6.51518
#
# Compressibility (1/GPa) = 0.02369344
#
# Stress axis : x y z
#
# Youngs Moduli (GPa) = 95.67690 80.57667 33.06292
#
# Poissons Ratio (x) = 0.17401 0.23545
# Poissons Ratio (y) = 0.20662 0.17941
# Poissons Ratio (z) = 0.68133 0.43724
#
# Static dielectric constant tensor:
#      x y z
#    x 3.694010 0.000000 0.000000 
#    y 0.000000 3.600100 0.000000 
#    z 0.000000 0.000000 3.148550 
# 
# 
# High freq. dielectric constant tensor:
#      x y z
#    x 1.756700 0.000000 0.000000 
#    y 0.000000 1.747510 0.000000 
#    z 0.000000 0.000000 1.705520 
# 
# From -- ./inp_files/8953.got.cif
#   From: 2010.03.12/outbox.cif.g09.slc.cpg/sg55_5_cif.got.tgz:8953.got - 2010.04.16 15:19:21.
