data_PCOD8225643
_publ_section_title
;
Structure prediction by ZEFSAII (Michael W. Deem and Ramdas Pophale) SiO2 
 PCOD8225643
Probable space group: P B A M
;
_chemical_formula_sum "Si O2"
_cell_formula_units_Z 48
_cell_length_a 13.574387
_cell_length_b 9.461502
_cell_length_c 17.048916
_cell_angle_alpha 90.000000
_cell_angle_beta 90.000000
_cell_angle_gamma 90.000000
_cell_volume 2189.662008
_symmetry_space_group_name_H-M "P B A M"
_symmetry_group_IT_number 55
_symmetry_cell_setting 'orthorhombic'
loop_
_space_group_symop_operation_xyz
x,y,z
-x,-y,z
1/2+x,1/2-y,-z
1/2-x,1/2+y,-z
-x,-y,-z
x,y,-z
1/2-x,1/2+y,z
1/2+x,1/2-y,z
loop_
_atom_site_type_symbol
_atom_site_label
_atom_site_fract_x
_atom_site_fract_y
_atom_site_fract_z
Si Si1 0.359791 0.100381 0.500000
Si Si2 0.185859 0.900642 0.270378
Si Si3 0.706844 0.007616 0.000000
Si Si4 0.046444 0.729402 0.170874
Si Si5 0.875994 0.211714 0.000000
Si Si6 0.860623 0.567240 0.837019
Si Si7 0.066455 0.285865 0.500000
Si Si8 0.204991 0.169764 0.628926
O O1 0.446598 0.220434 0.500000
O O2 0.293354 0.111904 0.576395
O O3 0.405820 0.947818 0.500000
O O4 0.082615 0.840722 0.236839
O O5 0.250744 0.913681 0.192665
O O6 0.248449 0.803419 0.328346
O O7 0.167091 0.050472 0.311338
O O8 0.819386 0.061814 0.000000
O O9 0.642610 0.069109 0.929942
O O10 0.706186 0.836599 0.000000
O O11 0.102294 0.584652 0.191848
O O12 0.931323 0.697512 0.187911
O O13 0.060044 0.779131 0.080247
O O14 0.109741 0.212030 0.577652
#
# Coordination Sequence:
#
# PCOD8225643 Si02
#       8
#     4   8   4   8   4   8   4   8
#     4  10  22  45  74  97 126 171 216 254 320 383
#     4  12  22  40  64  94 137 171 205 269 337 387
#     4  10  19  35  63  86 120 170 227 281 321 386
#     4  10  21  38  62  92 124 174 225 274 321 392
#     4  10  19  35  63  86 120 170 229 275 327 382
#     4  10  21  38  62  91 125 172 228 269 328 392
#     4  10  22  45  74 101 124 170 218 254 309 393
#     4  11  24  42  68 100 133 166 211 265 318 391
#
# _framework density 21.921189999999999
#
# number of rings (size 3 to 8) (size 9 to 14) (size 15 to 20)
#    0.000    1.500    5.000    0.500    0.000    3.333 
#    0.000    4.167    0.000    1.000    0.000    0.000 
#    0.000    0.000    0.000    0.000    0.000    0.083 
#
# Total GULP energy -595048.856189 kJ/mol
# GULP energy per Si atom -12396.851171 kJ/mol
# Density = 2.187130 g / cm^3
# Si number density = 21.921190 Si / 1000 Ang^3
#
#
#
# Elastic Constant Matrix: (Units=GPa)
#
#
# Indices 1 2 3 4 5 6 
#
# 1 83.7579 22.4853 27.2905 0.0000 0.0000 0.0000
# 2 22.4853 62.9192 18.6952 0.0000 0.0000 0.0000
# 3 27.2905 18.6952 81.7206 0.0000 0.0000 0.0000
# 4 0.0000 0.0000 0.0000 33.3783 0.0000 0.0000
# 5 0.0000 0.0000 0.0000 0.0000 2.6844 0.0000
# 6 0.0000 0.0000 0.0000 0.0000 0.0000 35.6623
#
#
#
# Elastic Compliance Matrix: (Units=1/GPa)
#
#
# Indices 1 2 3 4 5 6 
#
# 1 0.014256 -0.003948 -0.003857 0.000000 0.000000 0.000000
# 2 -0.003948 0.018146 -0.002833 0.000000 0.000000 0.000000
# 3 -0.003857 -0.002833 0.014173 0.000000 0.000000 0.000000
# 4 0.000000 0.000000 0.000000 0.029960 0.000000 0.000000
# 5 0.000000 0.000000 0.000000 0.000000 0.372529 0.000000
# 6 0.000000 0.000000 0.000000 0.000000 0.000000 0.028041
#
#
# Mechanical properties :
#
#
# Convention : Reuss Voigt Hill
#
# Bulk Modulus (GPa) = 39.52897 40.59330 40.06114
# Shear Modulus (GPa) = 9.86554 25.00678 17.43616
#
# Velocity S-wave (km/s) = 2.12373 3.38118 2.82335
# Velocity P-wave (km/s) = 4.90766 5.81388 5.37988
#
# Compressibility (1/GPa) = 0.02529790
#
# Stress axis : x y z
#
# Youngs Moduli (GPa) = 70.14570 55.10820 70.55642
#
# Poissons Ratio (x) = 0.21759 0.27217
# Poissons Ratio (y) = 0.27697 0.19986
# Poissons Ratio (z) = 0.27059 0.15610
#
# Static dielectric constant tensor:
#      x y z
#    x 3.952510 0.000000 0.000000 
#    y 0.000000 3.948240 0.000000 
#    z 0.000000 0.000000 4.470290 
# 
# 
# High freq. dielectric constant tensor:
#      x y z
#    x 1.851680 0.000000 0.000000 
#    y 0.000000 1.858590 0.000000 
#    z 0.000000 0.000000 1.871090 
# 
# From -- ./inp_files/21570.got.cif
#   From: 2010.03.12/outbox.cif.g09.slc.cpg/sg55_11_cif.got.tgz:21570.got - 2010.04.16 15:19:21.
