data_PCOD8225303
_publ_section_title
;
Structure prediction by ZEFSAII (Michael W. Deem and Ramdas Pophale) SiO2 
 PCOD8225303
Probable space group: P B A M
;
_chemical_formula_sum "Si O2"
_cell_formula_units_Z 48
_cell_length_a 27.661092
_cell_length_b 10.144372
_cell_length_c 8.785282
_cell_angle_alpha 90.000000
_cell_angle_beta 90.000000
_cell_angle_gamma 90.000000
_cell_volume 2465.188847
_symmetry_space_group_name_H-M "P B A M"
_symmetry_group_IT_number 55
_symmetry_cell_setting 'orthorhombic'
loop_
_space_group_symop_operation_xyz
x,y,z
-x,-y,z
1/2+x,1/2-y,-z
1/2-x,1/2+y,-z
-x,-y,-z
x,y,-z
1/2-x,1/2+y,z
1/2+x,1/2-y,z
loop_
_atom_site_type_symbol
_atom_site_label
_atom_site_fract_x
_atom_site_fract_y
_atom_site_fract_z
Si Si1 0.861606 0.023554 0.320274
Si Si2 0.710723 0.749375 0.680218
Si Si3 0.036791 0.612954 0.319641
Si Si4 0.037992 0.890442 0.820199
Si Si5 0.358731 0.024843 0.681385
Si Si6 0.818937 0.749227 0.318749
O O1 0.871104 0.030639 0.500000
O O2 0.848356 0.877087 0.263892
O O3 0.816797 0.116038 0.272998
O O4 0.909171 0.072150 0.237161
O O5 0.713868 0.760616 0.500000
O O6 0.764635 0.749249 0.749589
O O7 0.681741 0.875246 0.744896
O O8 0.036564 0.630609 0.500000
O O9 0.020877 0.750900 0.246916
O O10 0.089390 0.571374 0.257531
O O11 0.000000 0.500000 0.266873
O O12 0.038775 0.880204 0.000000
O O13 0.000000 0.000000 0.763462
O O14 0.359069 0.025242 0.500000
O O15 0.347030 0.878901 0.743282
O O16 0.815880 0.747501 0.500000
#
# Coordination Sequence:
#
# PCOD8225303 Si02
#       6
#     8   8   8   8   8   8
#     4  10  19  33  56  84 110 143 186 229 275 325
#     4   9  15  27  47  77 115 145 173 215 270 327
#     4  10  21  37  60  87 111 138 177 231 284 332
#     4  11  25  42  58  78 109 150 190 233 285 337
#     4   9  16  28  45  74 112 139 167 212 266 320
#     4   9  17  26  46  82 117 144 171 215 272 326
#
# _framework density 19.471126000000002
#
# number of rings (size 3 to 8) (size 9 to 14) (size 15 to 20)
#    0.000    2.333    1.667    1.500    2.333    5.667 
#    0.000    0.000    0.000    1.000    0.000    0.000 
#    0.000    0.000    0.000    0.000    0.000    0.000 
#
# Total GULP energy -595207.974824 kJ/mol
# GULP energy per Si atom -12400.166142 kJ/mol
# Density = 1.942681 g / cm^3
# Si number density = 19.471126 Si / 1000 Ang^3
#
#
#
# Elastic Constant Matrix: (Units=GPa)
#
#
# Indices 1 2 3 4 5 6 
#
# 1 109.5945 63.5407 21.5413 0.0000 0.0000 0.0000
# 2 63.5407 192.5008 26.3167 0.0000 0.0000 0.0000
# 3 21.5413 26.3167 20.8053 0.0000 0.0000 0.0000
# 4 0.0000 0.0000 0.0000 11.8502 0.0000 0.0000
# 5 0.0000 0.0000 0.0000 0.0000 5.5263 0.0000
# 6 0.0000 0.0000 0.0000 0.0000 0.0000 41.1157
#
#
#
# Elastic Compliance Matrix: (Units=1/GPa)
#
#
# Indices 1 2 3 4 5 6 
#
# 1 0.012655 -0.002885 -0.009454 0.000000 0.000000 0.000000
# 2 -0.002885 0.006939 -0.005790 0.000000 0.000000 0.000000
# 3 -0.009454 -0.005790 0.065176 0.000000 0.000000 0.000000
# 4 0.000000 0.000000 0.000000 0.084387 0.000000 0.000000
# 5 0.000000 0.000000 0.000000 0.000000 0.180953 0.000000
# 6 0.000000 0.000000 0.000000 0.000000 0.000000 0.024322
#
#
# Mechanical properties :
#
#
# Convention : Reuss Voigt Hill
#
# Bulk Modulus (GPa) = 20.61293 60.63311 40.62302
# Shear Modulus (GPa) = 11.71344 25.79856 18.75600
#
# Velocity S-wave (km/s) = 2.45537 3.64396 3.10703
# Velocity P-wave (km/s) = 4.31832 6.99372 5.81206
#
# Compressibility (1/GPa) = 0.04851324
#
# Stress axis : x y z
#
# Youngs Moduli (GPa) = 79.01803 144.12329 15.34300
#
# Poissons Ratio (x) = 0.41577 0.14505
# Poissons Ratio (y) = 0.22795 0.08883
# Poissons Ratio (z) = 0.74704 0.83442
#
# Static dielectric constant tensor:
#      x y z
#    x 3.750860 0.000000 0.000000 
#    y 0.000000 3.897440 0.000000 
#    z 0.000000 0.000000 2.917960 
# 
# 
# High freq. dielectric constant tensor:
#      x y z
#    x 1.770520 0.000000 0.000000 
#    y 0.000000 1.780000 0.000000 
#    z 0.000000 0.000000 1.689910 
# 
# From -- ./inp_files/10501.got.cif
#   From: 2010.03.12/outbox.cif.g09.slc.cpg/sg55_6_cif.got.tgz:10501.got - 2010.04.16 15:19:21.
