data_PCOD8225397
_publ_section_title
;
Structure prediction by ZEFSAII (Michael W. Deem and Ramdas Pophale) SiO2 
 PCOD8225397
Probable space group: P B A M
;
_chemical_formula_sum "Si O2"
_cell_formula_units_Z 52
_cell_length_a 25.051091
_cell_length_b 5.003471
_cell_length_c 20.239964
_cell_angle_alpha 90.000000
_cell_angle_beta 90.000000
_cell_angle_gamma 90.000000
_cell_volume 2536.925812
_symmetry_space_group_name_H-M "P B A M"
_symmetry_group_IT_number 55
_symmetry_cell_setting 'orthorhombic'
loop_
_space_group_symop_operation_xyz
x,y,z
-x,-y,z
1/2+x,1/2-y,-z
1/2-x,1/2+y,-z
-x,-y,-z
x,y,-z
1/2-x,1/2+y,z
1/2+x,1/2-y,z
loop_
_atom_site_type_symbol
_atom_site_label
_atom_site_fract_x
_atom_site_fract_y
_atom_site_fract_z
Si Si1 0.311624 0.255011 0.500000
Si Si2 0.713134 0.685708 0.141840
Si Si3 0.718069 0.627056 0.354003
Si Si4 0.372254 0.429705 0.252751
Si Si5 0.377057 0.739805 0.500000
Si Si6 0.555923 0.079315 0.257808
Si Si7 0.716289 0.583231 0.000000
Si Si8 0.967501 0.740182 0.597080
O O1 0.281520 0.357586 0.434006
O O2 0.365203 0.426152 0.500000
O O3 0.325731 0.939187 0.500000
O O4 0.761200 0.476329 0.151331
O O5 0.666569 0.650621 0.193914
O O6 0.685995 0.654327 0.068563
O O7 0.762525 0.415945 0.328915
O O8 0.661747 0.540274 0.320935
O O9 0.404337 0.695049 0.227754
O O10 0.413181 0.194727 0.268103
O O11 0.408850 0.782634 0.432750
O O12 0.537274 0.217716 0.324961
O O13 0.500000 0.000000 0.219188
O O14 0.730295 0.269083 0.000000
O O15 0.000000 0.500000 0.565334
O O16 0.000000 0.000000 0.576171
#
# Coordination Sequence:
#
# PCOD8225397 Si02
#       8
#     4   8   8   8   4   8   4   8
#     4  12  24  38  54  72 104 144 177 216 262 323
#     4  10  19  34  55  87 121 151 182 222 269 327
#     4  12  24  40  57  79 108 143 183 227 272 327
#     4  12  22  37  59  84 109 145 185 229 277 325
#     4  12  22  36  54  78  98 128 178 222 271 339
#     4  11  23  39  56  79 109 143 183 230 280 332
#     4   8  16  30  52  80 119 154 179 214 268 324
#     4  11  21  36  54  74 100 131 170 230 289 331
#
# _framework density 20.497250999999999
#
# number of rings (size 3 to 8) (size 9 to 14) (size 15 to 20)
#    0.000    0.923    0.000    9.692    0.000    0.000 
#    0.000    0.000    0.000    0.000    0.000    3.231 
#    0.000    0.000    0.000    0.000    0.000    0.000 
#
# Total GULP energy -644300.899707 kJ/mol
# GULP energy per Si atom -12390.401917 kJ/mol
# Density = 2.045060 g / cm^3
# Si number density = 20.497251 Si / 1000 Ang^3
#
#
#
# Elastic Constant Matrix: (Units=GPa)
#
#
# Indices 1 2 3 4 5 6 
#
# 1 87.4771 28.1304 20.7521 0.0000 0.0000 0.0000
# 2 28.1304 110.3560 3.3598 0.0000 0.0000 0.0000
# 3 20.7521 3.3598 78.7189 0.0000 0.0000 0.0000
# 4 0.0000 0.0000 0.0000 29.5982 0.0000 0.0000
# 5 0.0000 0.0000 0.0000 0.0000 13.9479 0.0000
# 6 0.0000 0.0000 0.0000 0.0000 0.0000 45.1552
#
#
#
# Elastic Compliance Matrix: (Units=1/GPa)
#
#
# Indices 1 2 3 4 5 6 
#
# 1 0.013285 -0.003284 -0.003362 0.000000 0.000000 0.000000
# 2 -0.003284 0.009885 0.000444 0.000000 0.000000 0.000000
# 3 -0.003362 0.000444 0.013571 0.000000 0.000000 0.000000
# 4 0.000000 0.000000 0.000000 0.033786 0.000000 0.000000
# 5 0.000000 0.000000 0.000000 0.000000 0.071695 0.000000
# 6 0.000000 0.000000 0.000000 0.000000 0.000000 0.022146
#
#
# Mechanical properties :
#
#
# Convention : Reuss Voigt Hill
#
# Bulk Modulus (GPa) = 41.09054 42.33739 41.71397
# Shear Modulus (GPa) = 27.04379 32.69424 29.86902
#
# Velocity S-wave (km/s) = 3.63628 3.99815 3.82150
# Velocity P-wave (km/s) = 6.14169 6.48179 6.31403
#
# Compressibility (1/GPa) = 0.02433650
#
# Stress axis : x y z
#
# Youngs Moduli (GPa) = 75.27146 101.16121 73.68751
#
# Poissons Ratio (x) = 0.33223 0.24775
# Poissons Ratio (y) = 0.24720 -0.03271
# Poissons Ratio (z) = 0.25307 -0.04490
#
# Static dielectric constant tensor:
#      x y z
#    x 3.838700 0.000000 0.000000 
#    y 0.000000 4.028030 0.000000 
#    z 0.000000 0.000000 3.664870 
# 
# 
# High freq. dielectric constant tensor:
#      x y z
#    x 1.788880 0.000000 0.000000 
#    y 0.000000 1.830510 0.000000 
#    z 0.000000 0.000000 1.771080 
# 
# From -- ./inp_files/22369.got.cif
#   From: 2010.03.12/outbox.cif.g09.slc.cpg/sg55_12_cif.got.tgz:22369.got - 2010.04.16 15:19:21.
