data_PCOD8225358
_publ_section_title
;
Structure prediction by ZEFSAII (Michael W. Deem and Ramdas Pophale) SiO2 
 PCOD8225358
Probable space group: P B A M
;
_chemical_formula_sum "Si O2"
_cell_formula_units_Z 64
_cell_length_a 14.717573
_cell_length_b 25.843148
_cell_length_c 8.903285
_cell_angle_alpha 90.000000
_cell_angle_beta 90.000000
_cell_angle_gamma 90.000000
_cell_volume 3386.350358
_symmetry_space_group_name_H-M "P B A M"
_symmetry_group_IT_number 55
_symmetry_cell_setting 'orthorhombic'
loop_
_space_group_symop_operation_xyz
x,y,z
-x,-y,z
1/2+x,1/2-y,-z
1/2-x,1/2+y,-z
-x,-y,-z
x,y,-z
1/2-x,1/2+y,z
1/2+x,1/2-y,z
loop_
_atom_site_type_symbol
_atom_site_label
_atom_site_fract_x
_atom_site_fract_y
_atom_site_fract_z
Si Si1 0.774517 0.525859 0.177636
Si Si2 0.901019 0.778942 0.676296
Si Si3 0.903036 0.211244 0.821833
Si Si4 0.779773 0.309228 0.821332
Si Si5 0.613989 0.163054 0.663939
Si Si6 0.656101 0.920262 0.177511
Si Si7 0.310591 0.383846 0.667204
Si Si8 0.459012 0.925499 0.825559
O O1 0.768156 0.464289 0.216848
O O2 0.694295 0.558536 0.258393
O O3 0.873851 0.543083 0.241725
O O4 0.766172 0.536090 0.000000
O O5 0.906513 0.791521 0.500000
O O6 0.821101 0.811674 0.752250
O O7 0.870726 0.721130 0.714081
O O8 0.998008 0.787575 0.750352
O O9 0.841359 0.260219 0.765999
O O10 0.863927 0.155991 0.771935
O O11 0.910769 0.212494 0.000000
O O12 0.821817 0.363235 0.759382
O O13 0.771381 0.307866 0.000000
O O14 0.566228 0.160500 0.500000
O O15 0.709769 0.135995 0.654711
O O16 0.551667 0.135340 0.787492
O O17 0.558106 0.941138 0.238849
O O18 0.647894 0.914716 0.000000
O O19 0.354566 0.387531 0.500000
O O20 0.457521 0.935175 0.000000
#
# Coordination Sequence:
#
# PCOD8225358 Si02
#       8
#     8   8   8   8   8   8   8   8
#     4   9  17  30  51  77 105 142 183 222 267 319
#     4  11  22  36  54  77 109 147 183 222 275 331
#     4  11  22  36  57  84 110 140 183 230 275 324
#     4  10  21  36  55  80 112 147 183 226 269 321
#     4   9  18  31  47  70 103 140 174 212 260 315
#     4   9  17  31  50  75 108 142 178 221 270 320
#     4  10  19  34  53  75 106 140 178 220 265 316
#     4   9  16  27  48  76 105 139 180 221 261 313
#
# _framework density 18.899403
#
# number of rings (size 3 to 8) (size 9 to 14) (size 15 to 20)
#    0.000    2.250    1.250    2.250    0.000    4.500 
#    0.000    1.875    0.000    3.750    0.000    5.250 
#    0.000    0.000    0.000    0.000    0.000    0.000 
#
# Total GULP energy -792864.209917 kJ/mol
# GULP energy per Si atom -12388.503280 kJ/mol
# Density = 1.885639 g / cm^3
# Si number density = 18.899403 Si / 1000 Ang^3
#
#
#
# Elastic Constant Matrix: (Units=GPa)
#
#
# Indices 1 2 3 4 5 6 
#
# 1 72.8629 33.8970 25.0505 0.0000 0.0000 0.0000
# 2 33.8970 72.2640 15.1288 0.0000 0.0000 0.0000
# 3 25.0505 15.1288 37.7434 0.0000 0.0000 0.0000
# 4 0.0000 0.0000 0.0000 25.1369 0.0000 0.0000
# 5 0.0000 0.0000 0.0000 0.0000 18.3554 0.0000
# 6 0.0000 0.0000 0.0000 0.0000 0.0000 19.4365
#
#
#
# Elastic Compliance Matrix: (Units=1/GPa)
#
#
# Indices 1 2 3 4 5 6 
#
# 1 0.020991 -0.007564 -0.010900 0.000000 0.000000 0.000000
# 2 -0.007564 0.017832 -0.002127 0.000000 0.000000 0.000000
# 3 -0.010900 -0.002127 0.034581 0.000000 0.000000 0.000000
# 4 0.000000 0.000000 0.000000 0.039782 0.000000 0.000000
# 5 0.000000 0.000000 0.000000 0.000000 0.054480 0.000000
# 6 0.000000 0.000000 0.000000 0.000000 0.000000 0.051450
#
#
# Mechanical properties :
#
#
# Convention : Reuss Voigt Hill
#
# Bulk Modulus (GPa) = 31.03484 36.78033 33.90759
# Shear Modulus (GPa) = 18.44759 19.83869 19.14314
#
# Velocity S-wave (km/s) = 3.12764 3.24342 3.18606
# Velocity P-wave (km/s) = 5.43135 5.79049 5.61379
#
# Compressibility (1/GPa) = 0.03222185
#
# Stress axis : x y z
#
# Youngs Moduli (GPa) = 47.63997 56.08008 28.91724
#
# Poissons Ratio (x) = 0.42421 0.31519
# Poissons Ratio (y) = 0.36036 0.06151
# Poissons Ratio (z) = 0.51926 0.11929
#
# Static dielectric constant tensor:
#      x y z
#    x 3.412900 0.000000 0.000000 
#    y 0.000000 3.967030 0.000000 
#    z 0.000000 0.000000 3.506250 
# 
# 
# High freq. dielectric constant tensor:
#      x y z
#    x 1.708370 0.000000 0.000000 
#    y 0.000000 1.737850 0.000000 
#    z 0.000000 0.000000 1.716740 
# 
# From -- ./inp_files/6648.got.cif
#   From: 2010.03.12/outbox.cif.g09.slc.cpg/sg55_4_cif.got.tgz:6648.got - 2010.04.16 15:19:21.
