data_PCOD8225186
_publ_section_title
;
Structure prediction by ZEFSAII (Michael W. Deem and Ramdas Pophale) SiO2 
 PCOD8225186
Probable space group: P B A M
;
_chemical_formula_sum "Si O2"
_cell_formula_units_Z 64
_cell_length_a 20.393460
_cell_length_b 13.361915
_cell_length_c 12.124909
_cell_angle_alpha 90.000000
_cell_angle_beta 90.000000
_cell_angle_gamma 90.000000
_cell_volume 3303.985312
_symmetry_space_group_name_H-M "P B A M"
_symmetry_group_IT_number 55
_symmetry_cell_setting 'orthorhombic'
loop_
_space_group_symop_operation_xyz
x,y,z
-x,-y,z
1/2+x,1/2-y,-z
1/2-x,1/2+y,-z
-x,-y,-z
x,y,-z
1/2-x,1/2+y,z
1/2+x,1/2-y,z
loop_
_atom_site_type_symbol
_atom_site_label
_atom_site_fract_x
_atom_site_fract_y
_atom_site_fract_z
Si Si1 0.158347 0.660788 0.264399
Si Si2 0.717994 0.021580 0.378555
Si Si3 0.143927 0.037781 0.694319
Si Si4 0.070435 0.531204 0.873359
Si Si5 0.144113 0.349653 0.782719
Si Si6 0.789909 0.839350 0.127322
Si Si7 0.914442 0.160613 0.630471
Si Si8 0.060229 0.224456 0.625682
O O1 0.173464 0.574814 0.352871
O O2 0.095962 0.627894 0.191878
O O3 0.220142 0.677208 0.184735
O O4 0.140553 0.760947 0.330268
O O5 0.699327 0.059971 0.500000
O O6 0.793897 0.992069 0.378954
O O7 0.703802 0.111314 0.293390
O O8 0.096034 0.942243 0.698410
O O9 0.169375 0.070259 0.815868
O O10 0.107040 0.128725 0.635869
O O11 0.120238 0.438838 0.860651
O O12 0.000000 0.500000 0.825239
O O13 0.064637 0.562575 0.000000
O O14 0.169196 0.262542 0.862302
O O15 0.085084 0.312961 0.704342
O O16 0.779685 0.867605 0.000000
O O17 0.907261 0.141126 0.500000
O O18 0.986617 0.198016 0.661651
O O19 0.061480 0.262710 0.500000
#
# Coordination Sequence:
#
# PCOD8225186 Si02
#       8
#     8   8   8   8   8   8   8   8
#     4  10  21  35  52  79 106 136 176 218 265 318
#     4  10  19  33  53  78 109 137 167 213 266 319
#     4  10  21  35  54  79 106 141 182 221 262 316
#     4  10  20  35  54  74 100 135 174 218 264 312
#     4  10  20  34  55  80 105 136 176 218 267 322
#     4  10  21  38  57  77 105 138 175 225 273 313
#     4  11  21  35  55  79 111 147 180 217 265 322
#     4  10  20  34  54  80 111 146 180 217 264 323
#
# _framework density 19.370546999999998
#
# number of rings (size 3 to 8) (size 9 to 14) (size 15 to 20)
#    0.000    1.875    0.000    4.500    0.000    1.000 
#    0.000    9.375    0.000   13.500    0.000    0.000 
#    0.000    0.000    0.000    0.000    0.000    0.000 
#
# Total GULP energy -793776.901235 kJ/mol
# GULP energy per Si atom -12402.764082 kJ/mol
# Density = 1.932646 g / cm^3
# Si number density = 19.370547 Si / 1000 Ang^3
#
#
#
# Elastic Constant Matrix: (Units=GPa)
#
#
# Indices 1 2 3 4 5 6 
#
# 1 81.6140 4.6294 27.6010 0.0000 0.0000 0.0000
# 2 4.6294 62.2019 12.8851 0.0000 0.0000 0.0000
# 3 27.6010 12.8851 79.0859 0.0000 0.0000 0.0000
# 4 0.0000 0.0000 0.0000 18.1737 0.0000 0.0000
# 5 0.0000 0.0000 0.0000 0.0000 26.2023 0.0000
# 6 0.0000 0.0000 0.0000 0.0000 0.0000 33.7727
#
#
#
# Elastic Compliance Matrix: (Units=1/GPa)
#
#
# Indices 1 2 3 4 5 6 
#
# 1 0.013893 -0.000031 -0.004844 0.000000 0.000000 0.000000
# 2 -0.000031 0.016638 -0.002700 0.000000 0.000000 0.000000
# 3 -0.004844 -0.002700 0.014775 0.000000 0.000000 0.000000
# 4 0.000000 0.000000 0.000000 0.055025 0.000000 0.000000
# 5 0.000000 0.000000 0.000000 0.000000 0.038165 0.000000
# 6 0.000000 0.000000 0.000000 0.000000 0.000000 0.029610
#
#
# Mechanical properties :
#
#
# Convention : Reuss Voigt Hill
#
# Bulk Modulus (GPa) = 33.15966 34.79253 33.97609
# Shear Modulus (GPa) = 25.86580 27.48216 26.67398
#
# Velocity S-wave (km/s) = 3.65816 3.77073 3.71487
# Velocity P-wave (km/s) = 5.91596 6.07934 5.99821
#
# Compressibility (1/GPa) = 0.03015713
#
# Stress axis : x y z
#
# Youngs Moduli (GPa) = 71.98101 60.10232 67.68293
#
# Poissons Ratio (x) = 0.00184 0.32782
# Poissons Ratio (y) = 0.00221 0.18275
# Poissons Ratio (z) = 0.34864 0.16228
#
# Static dielectric constant tensor:
#      x y z
#    x 3.622300 0.000000 0.000000 
#    y 0.000000 3.488300 0.000000 
#    z 0.000000 0.000000 3.344210 
# 
# 
# High freq. dielectric constant tensor:
#      x y z
#    x 1.763600 0.000000 0.000000 
#    y 0.000000 1.753550 0.000000 
#    z 0.000000 0.000000 1.743600 
# 
# From -- ./inp_files/15783.got.cif
#   From: 2010.03.12/outbox.cif.g09.slc.cpg/sg55_8_cif.got.tgz:15783.got - 2010.04.16 15:19:21.
