data_PCOD8225165
_publ_section_title
;
Structure prediction by ZEFSAII (Michael W. Deem and Ramdas Pophale) SiO2 
 PCOD8225165
Probable space group: P B A M
;
_chemical_formula_sum "Si O2"
_cell_formula_units_Z 56
_cell_length_a 20.732533
_cell_length_b 14.593666
_cell_length_c 9.222113
_cell_angle_alpha 90.000000
_cell_angle_beta 90.000000
_cell_angle_gamma 90.000000
_cell_volume 2790.276280
_symmetry_space_group_name_H-M "P B A M"
_symmetry_group_IT_number 55
_symmetry_cell_setting 'orthorhombic'
loop_
_space_group_symop_operation_xyz
x,y,z
-x,-y,z
1/2+x,1/2-y,-z
1/2-x,1/2+y,-z
-x,-y,-z
x,y,-z
1/2-x,1/2+y,z
1/2+x,1/2-y,z
loop_
_atom_site_type_symbol
_atom_site_label
_atom_site_fract_x
_atom_site_fract_y
_atom_site_fract_z
Si Si1 0.742292 0.815980 0.827423
Si Si2 0.235557 0.498350 0.338306
Si Si3 0.441189 0.567677 0.839731
Si Si4 0.396186 0.259977 0.831326
Si Si5 0.534793 0.222788 0.834297
Si Si6 0.627317 0.563904 0.659993
Si Si7 0.340351 0.823932 0.671526
O O1 0.669844 0.787663 0.781092
O O2 0.796277 0.751313 0.754202
O O3 0.747354 0.920573 0.775197
O O4 0.752781 0.811492 0.000000
O O5 0.223669 0.539482 0.500000
O O6 0.295809 0.428775 0.341966
O O7 0.178973 0.428746 0.291514
O O8 0.500000 0.500000 0.817918
O O9 0.463091 0.669331 0.808718
O O10 0.387376 0.536749 0.725191
O O11 0.411114 0.559336 0.000000
O O12 0.459660 0.196659 0.797861
O O13 0.404415 0.356441 0.752958
O O14 0.394488 0.283562 0.000000
O O15 0.585700 0.177659 0.725712
O O16 0.551904 0.195518 0.000000
O O17 0.597659 0.571137 0.500000
O O18 0.336486 0.803701 0.500000
#
# Coordination Sequence:
#
# PCOD8225165 Si02
#       7
#     8   8   8   8   8   8   8
#     4  11  23  39  65  94 118 156 204 251 302 355
#     4  10  23  41  60  85 120 159 198 247 301 355
#     4  10  19  33  52  77 113 154 188 231 293 354
#     4  10  21  39  60  85 118 153 194 244 296 351
#     4  10  21  38  59  84 117 158 199 245 300 354
#     4  11  21  34  55  83 114 152 193 239 293 350
#     4  11  23  41  62  88 124 161 198 247 302 358
#
# _framework density 20.069699
#
# number of rings (size 3 to 8) (size 9 to 14) (size 15 to 20)
#    0.000    1.571    2.857    2.143    0.000    6.571 
#    0.000    0.714    0.000    4.286    0.000    0.000 
#    0.000    0.000    0.000    0.000    0.000    0.000 
#
# Total GULP energy -694133.066231 kJ/mol
# GULP energy per Si atom -12395.233326 kJ/mol
# Density = 2.002402 g / cm^3
# Si number density = 20.069699 Si / 1000 Ang^3
#
#
#
# Elastic Constant Matrix: (Units=GPa)
#
#
# Indices 1 2 3 4 5 6 
#
# 1 101.0806 10.6819 34.5201 0.0000 0.0000 0.0000
# 2 10.6819 50.5304 26.2785 0.0000 0.0000 0.0000
# 3 34.5201 26.2785 78.1428 0.0000 0.0000 0.0000
# 4 0.0000 0.0000 0.0000 15.6387 0.0000 0.0000
# 5 0.0000 0.0000 0.0000 0.0000 28.4545 0.0000
# 6 0.0000 0.0000 0.0000 0.0000 0.0000 29.7859
#
#
#
# Elastic Compliance Matrix: (Units=1/GPa)
#
#
# Indices 1 2 3 4 5 6 
#
# 1 0.011654 0.000259 -0.005235 0.000000 0.000000 0.000000
# 2 0.000259 0.023990 -0.008182 0.000000 0.000000 0.000000
# 3 -0.005235 -0.008182 0.017861 0.000000 0.000000 0.000000
# 4 0.000000 0.000000 0.000000 0.063944 0.000000 0.000000
# 5 0.000000 0.000000 0.000000 0.000000 0.035144 0.000000
# 6 0.000000 0.000000 0.000000 0.000000 0.000000 0.033573
#
#
# Mechanical properties :
#
#
# Convention : Reuss Voigt Hill
#
# Bulk Modulus (GPa) = 36.77980 41.41274 39.09627
# Shear Modulus (GPa) = 22.56872 25.32736 23.94804
#
# Velocity S-wave (km/s) = 3.35702 3.55628 3.45808
# Velocity P-wave (km/s) = 5.77857 6.12716 5.95542
#
# Compressibility (1/GPa) = 0.02718884
#
# Stress axis : x y z
#
# Youngs Moduli (GPa) = 85.81049 41.68327 55.98691
#
# Poissons Ratio (x) = -0.01080 0.29310
# Poissons Ratio (y) = -0.02223 0.45809
# Poissons Ratio (z) = 0.44923 0.34106
#
# Static dielectric constant tensor:
#      x y z
#    x 4.127440 0.000000 0.000000 
#    y 0.000000 3.421210 0.000000 
#    z 0.000000 0.000000 3.693450 
# 
# 
# High freq. dielectric constant tensor:
#      x y z
#    x 1.795310 0.000000 0.000000 
#    y 0.000000 1.759130 0.000000 
#    z 0.000000 0.000000 1.784300 
# 
# From -- ./inp_files/6033.got.cif
#   From: 2010.03.12/outbox.cif.g09.slc.cpg/sg55_4_cif.got.tgz:6033.got - 2010.04.16 15:19:21.
