data_PCOD8225328
_publ_section_title
;
Structure prediction by ZEFSAII (Michael W. Deem and Ramdas Pophale) SiO2 
 PCOD8225328
Probable space group: P B A M
;
_chemical_formula_sum "Si O2"
_cell_formula_units_Z 64
_cell_length_a 18.511085
_cell_length_b 12.094450
_cell_length_c 14.031250
_cell_angle_alpha 90.000000
_cell_angle_beta 90.000000
_cell_angle_gamma 90.000000
_cell_volume 3141.335781
_symmetry_space_group_name_H-M "P B A M"
_symmetry_group_IT_number 55
_symmetry_cell_setting 'orthorhombic'
loop_
_space_group_symop_operation_xyz
x,y,z
-x,-y,z
1/2+x,1/2-y,-z
1/2-x,1/2+y,-z
-x,-y,-z
x,y,-z
1/2-x,1/2+y,z
1/2+x,1/2-y,z
loop_
_atom_site_type_symbol
_atom_site_label
_atom_site_fract_x
_atom_site_fract_y
_atom_site_fract_z
Si Si1 0.890475 0.191346 0.892787
Si Si2 0.732763 0.127144 0.893934
Si Si3 0.621891 0.946989 0.892776
Si Si4 0.308481 0.800531 0.697813
Si Si5 0.056165 0.422305 0.723894
Si Si6 0.108272 0.104935 0.390176
Si Si7 0.021662 0.805171 0.720478
Si Si8 0.655980 0.645554 0.391649
O O1 0.818525 0.119045 0.877714
O O2 0.870865 0.318257 0.865970
O O3 0.951296 0.143831 0.821185
O O4 0.920203 0.180882 0.000000
O O5 0.695319 0.204622 0.813493
O O6 0.701439 0.002795 0.885406
O O7 0.716817 0.177063 0.000000
O O8 0.568546 0.010399 0.821668
O O9 0.591249 0.960531 0.000000
O O10 0.368934 0.894024 0.669012
O O11 0.330877 0.682679 0.656041
O O12 0.232022 0.835975 0.657938
O O13 0.018383 0.307040 0.746885
O O14 0.000000 0.500000 0.663247
O O15 0.095151 0.139159 0.500000
O O16 0.032311 0.112828 0.334576
O O17 0.136571 0.982095 0.381270
O O18 0.092865 0.782019 0.656481
O O19 0.662501 0.683980 0.500000
#
# Coordination Sequence:
#
# PCOD8225328 Si02
#       8
#     8   8   8   8   8   8   8   8
#     4  10  19  33  57  88 121 160 206 248 294 359
#     4   9  18  34  54  86 126 162 195 240 294 352
#     4   9  18  32  54  84 119 161 206 243 287 349
#     4  10  21  37  62  91 120 156 196 253 300 358
#     4  10  20  34  54  86 124 155 189 241 300 353
#     4  10  23  42  63  87 119 153 196 256 313 366
#     4  11  21  37  59  87 115 158 199 248 305 353
#     4  11  23  41  66  89 111 152 208 252 298 370
#
# _framework density 20.373497
#
# number of rings (size 3 to 8) (size 9 to 14) (size 15 to 20)
#    0.000    2.000    2.500    1.125    0.000    4.750 
#    0.000    1.875    0.000   15.000    0.000    0.000 
#    0.000    0.000    0.000    0.000    0.000    0.000 
#
# Total GULP energy -793249.064754 kJ/mol
# GULP energy per Si atom -12394.516637 kJ/mol
# Density = 2.032713 g / cm^3
# Si number density = 20.373497 Si / 1000 Ang^3
#
#
#
# Elastic Constant Matrix: (Units=GPa)
#
#
# Indices 1 2 3 4 5 6 
#
# 1 140.4694 26.9298 50.3243 0.0000 0.0000 0.0000
# 2 26.9298 29.8021 25.3344 0.0000 0.0000 0.0000
# 3 50.3243 25.3344 122.4144 0.0000 0.0000 0.0000
# 4 0.0000 0.0000 0.0000 24.9356 0.0000 0.0000
# 5 0.0000 0.0000 0.0000 0.0000 29.9272 0.0000
# 6 0.0000 0.0000 0.0000 0.0000 0.0000 30.1719
#
#
#
# Elastic Compliance Matrix: (Units=1/GPa)
#
#
# Indices 1 2 3 4 5 6 
#
# 1 0.009202 -0.006188 -0.002502 0.000000 0.000000 0.000000
# 2 -0.006188 0.044879 -0.006744 0.000000 0.000000 0.000000
# 3 -0.002502 -0.006744 0.010593 0.000000 0.000000 0.000000
# 4 0.000000 0.000000 0.000000 0.040103 0.000000 0.000000
# 5 0.000000 0.000000 0.000000 0.000000 0.033414 0.000000
# 6 0.000000 0.000000 0.000000 0.000000 0.000000 0.033143
#
#
# Mechanical properties :
#
#
# Convention : Reuss Voigt Hill
#
# Bulk Modulus (GPa) = 29.58058 55.31809 42.44933
# Shear Modulus (GPa) = 23.42220 29.68011 26.55115
#
# Velocity S-wave (km/s) = 3.39431 3.82095 3.61393
# Velocity P-wave (km/s) = 5.46923 6.83206 6.18828
#
# Compressibility (1/GPa) = 0.03380597
#
# Stress axis : x y z
#
# Youngs Moduli (GPa) = 108.67557 22.28195 94.39851
#
# Poissons Ratio (x) = 0.13788 0.23620
# Poissons Ratio (y) = 0.67246 0.63665
# Poissons Ratio (z) = 0.27193 0.15028
#
# Static dielectric constant tensor:
#      x y z
#    x 3.975220 0.000000 0.000000 
#    y 0.000000 3.533190 0.000000 
#    z 0.000000 0.000000 3.913230 
# 
# 
# High freq. dielectric constant tensor:
#      x y z
#    x 1.808870 0.000000 0.000000 
#    y 0.000000 1.774070 0.000000 
#    z 0.000000 0.000000 1.795560 
# 
# From -- ./inp_files/19543.got.cif
#   From: 2010.03.12/outbox.cif.g09.slc.cpg/sg55_10_cif.got.tgz:19543.got - 2010.04.16 15:19:21.
