data_PCOD8225222
_publ_section_title
;
Structure prediction by ZEFSAII (Michael W. Deem and Ramdas Pophale) SiO2 
 PCOD8225222
Probable space group: P B A M
;
_chemical_formula_sum "Si O2"
_cell_formula_units_Z 48
_cell_length_a 9.849310
_cell_length_b 27.825267
_cell_length_c 9.307557
_cell_angle_alpha 90.000000
_cell_angle_beta 90.000000
_cell_angle_gamma 90.000000
_cell_volume 2550.826098
_symmetry_space_group_name_H-M "P B A M"
_symmetry_group_IT_number 55
_symmetry_cell_setting 'orthorhombic'
loop_
_space_group_symop_operation_xyz
x,y,z
-x,-y,z
1/2+x,1/2-y,-z
1/2-x,1/2+y,-z
-x,-y,-z
x,y,-z
1/2-x,1/2+y,z
1/2+x,1/2-y,z
loop_
_atom_site_type_symbol
_atom_site_label
_atom_site_fract_x
_atom_site_fract_y
_atom_site_fract_z
Si Si1 0.233673 0.886643 0.163480
Si Si2 0.224668 0.614642 0.169178
Si Si3 0.984066 0.946098 0.830559
Si Si4 0.165000 0.707777 0.331112
Si Si5 0.648237 0.202890 0.331244
Si Si6 0.512967 0.051510 0.162921
O O1 0.292733 0.844157 0.257620
O O2 0.333151 0.932058 0.169311
O O3 0.094884 0.908061 0.229458
O O4 0.216413 0.867923 0.000000
O O5 0.339736 0.576196 0.210520
O O6 0.241808 0.664459 0.251951
O O7 0.085227 0.591724 0.230325
O O8 0.223594 0.626174 0.000000
O O9 0.007038 0.949745 0.000000
O O10 0.000000 0.000000 0.764352
O O11 0.173527 0.698578 0.500000
O O12 0.251465 0.754263 0.285864
O O13 0.007290 0.713463 0.281494
O O14 0.651986 0.194087 0.500000
O O15 0.500000 0.000000 0.242630
O O16 0.459518 0.044958 0.000000
#
# Coordination Sequence:
#
# PCOD8225222 Si02
#       6
#     8   8   8   8   8   8
#     4  10  19  33  54  81 109 137 174 218 261 305
#     4  10  19  33  54  81 109 137 174 218 261 305
#     4   9  18  32  52  81 114 144 175 213 258 309
#     4  10  22  39  57  77 103 138 177 217 267 323
#     4  10  22  39  57  77 103 138 177 217 267 323
#     4   9  16  28  50  77 104 136 171 207 252 309
#
# _framework density 18.817433000000001
#
# number of rings (size 3 to 8) (size 9 to 14) (size 15 to 20)
#    0.000    2.333    1.667    1.000    2.333    4.667 
#    0.000    0.000    0.000    6.000    0.000    0.000 
#    0.000    0.000    0.000    0.000    0.000    0.000 
#
# Total GULP energy -595041.411113 kJ/mol
# GULP energy per Si atom -12396.696065 kJ/mol
# Density = 1.877460 g / cm^3
# Si number density = 18.817433 Si / 1000 Ang^3
#
#
#
# Elastic Constant Matrix: (Units=GPa)
#
#
# Indices 1 2 3 4 5 6 
#
# 1 95.8911 35.3666 15.4810 0.0000 0.0000 0.0000
# 2 35.3666 123.9303 31.1563 0.0000 0.0000 0.0000
# 3 15.4810 31.1563 19.1839 0.0000 0.0000 0.0000
# 4 0.0000 0.0000 0.0000 -27.1102 0.0000 0.0000
# 5 0.0000 0.0000 0.0000 0.0000 18.2603 0.0000
# 6 0.0000 0.0000 0.0000 0.0000 0.0000 37.6751
#
#
#
# Elastic Compliance Matrix: (Units=1/GPa)
#
#
# Indices 1 2 3 4 5 6 
#
# 1 0.012199 -0.001701 -0.007082 0.000000 0.000000 0.000000
# 2 -0.001701 0.013874 -0.021160 0.000000 0.000000 0.000000
# 3 -0.007082 -0.021160 0.092208 0.000000 0.000000 0.000000
# 4 0.000000 0.000000 0.000000 -0.036886 0.000000 0.000000
# 5 0.000000 0.000000 0.000000 0.000000 0.054764 0.000000
# 6 0.000000 0.000000 0.000000 0.000000 0.000000 0.026543
#
#
# Mechanical properties :
#
#
# Convention : Reuss Voigt Hill
#
# Bulk Modulus (GPa) = 17.12474 44.77922 30.95198
# Shear Modulus (GPa) = 20.65665 16.23180 18.44423
#
# Velocity S-wave (km/s) = 3.31681 2.94018 3.13416
# Velocity P-wave (km/s) = 4.87735 5.94765 5.43889
#
# Compressibility (1/GPa) = 0.05839506
#
# Stress axis : x y z
#
# Youngs Moduli (GPa) = 81.97285 72.07638 10.84504
#
# Poissons Ratio (x) = 0.12259 0.07680
# Poissons Ratio (y) = 0.13943 0.22948
# Poissons Ratio (z) = 0.58053 1.52515
#
# Static dielectric constant tensor:
#      x y z
#    x 3.666900 0.000000 0.000000 
#    y 0.000000 3.523620 0.000000 
#    z 0.000000 0.000000 3.014390 
# 
# 
# High freq. dielectric constant tensor:
#      x y z
#    x 1.747560 0.000000 0.000000 
#    y 0.000000 1.743510 0.000000 
#    z 0.000000 0.000000 1.678210 
# 
# From -- ./inp_files/2903.got.cif
#   From: 2010.03.12/outbox.cif.g09.slc.cpg/sg55_2_cif.got.tgz:2903.got - 2010.04.16 15:19:21.
