data_PCOD8225857
_publ_section_title
;
Structure prediction by ZEFSAII (Michael W. Deem and Ramdas Pophale) SiO2 
 PCOD8225857
Probable space group: P B A M
;
_chemical_formula_sum "Si O2"
_cell_formula_units_Z 40
_cell_length_a 9.533731
_cell_length_b 25.661698
_cell_length_c 9.041017
_cell_angle_alpha 90.000000
_cell_angle_beta 90.000000
_cell_angle_gamma 90.000000
_cell_volume 2211.900411
_symmetry_space_group_name_H-M "P B A M"
_symmetry_group_IT_number 55
_symmetry_cell_setting 'orthorhombic'
loop_
_space_group_symop_operation_xyz
x,y,z
-x,-y,z
1/2+x,1/2-y,-z
1/2-x,1/2+y,-z
-x,-y,-z
x,y,-z
1/2-x,1/2+y,z
1/2+x,1/2-y,z
loop_
_atom_site_type_symbol
_atom_site_label
_atom_site_fract_x
_atom_site_fract_y
_atom_site_fract_z
Si Si1 0.499558 0.329228 0.670712
Si Si2 0.994600 0.720352 0.171478
Si Si3 0.975899 0.558217 0.672092
Si Si4 0.769993 0.632728 0.171948
Si Si5 0.690887 0.854395 0.331874
O O1 0.456604 0.324094 0.500000
O O2 0.523394 0.272135 0.735254
O O3 0.381353 0.361187 0.755545
O O4 0.643388 0.361370 0.691531
O O5 0.858205 0.685157 0.201633
O O6 0.133559 0.690010 0.222768
O O7 0.012841 0.734669 0.000000
O O8 0.936394 0.557891 0.500000
O O9 0.845611 0.582913 0.758294
O O10 0.000000 0.500000 0.731910
O O11 0.117694 0.590551 0.703938
O O12 0.750818 0.622042 0.000000
O O13 0.656841 0.837093 0.500000
#
# Coordination Sequence:
#
# PCOD8225857 Si02
#       5
#     8   8   8   8   8
#     4  11  21  32  49  74 105 137 167 204 248 296
#     4  10  20  33  50  73 102 137 172 204 243 294
#     4   9  18  36  60  79  97 127 169 216 262 307
#     4  10  21  35  52  76 105 136 171 209 250 301
#     4   9  19  34  52  76 102 131 170 210 251 300
#
# _framework density 18.083995999999999
#
# number of rings (size 3 to 8) (size 9 to 14) (size 15 to 20)
#    0.000    2.200    0.000    3.000    0.000    7.600 
#    0.000    1.000    0.000    6.000    0.000    0.000 
#    0.000    0.000    0.000    0.000    0.000    0.000 
#
# Total GULP energy -496162.144686 kJ/mol
# GULP energy per Si atom -12404.053617 kJ/mol
# Density = 1.804284 g / cm^3
# Si number density = 18.083996 Si / 1000 Ang^3
#
#
#
# Elastic Constant Matrix: (Units=GPa)
#
#
# Indices 1 2 3 4 5 6 
#
# 1 120.7112 49.6604 51.3656 0.0000 0.0000 0.0000
# 2 49.6604 112.7873 44.5494 0.0000 0.0000 0.0000
# 3 51.3656 44.5494 83.9824 0.0000 0.0000 0.0000
# 4 0.0000 0.0000 0.0000 19.9250 0.0000 0.0000
# 5 0.0000 0.0000 0.0000 0.0000 27.1724 0.0000
# 6 0.0000 0.0000 0.0000 0.0000 0.0000 11.1190
#
#
#
# Elastic Compliance Matrix: (Units=1/GPa)
#
#
# Indices 1 2 3 4 5 6 
#
# 1 0.011953 -0.003005 -0.005717 0.000000 0.000000 0.000000
# 2 -0.003005 0.011972 -0.004513 0.000000 0.000000 0.000000
# 3 -0.005717 -0.004513 0.017798 0.000000 0.000000 0.000000
# 4 0.000000 0.000000 0.000000 0.050188 0.000000 0.000000
# 5 0.000000 0.000000 0.000000 0.000000 0.036802 0.000000
# 6 0.000000 0.000000 0.000000 0.000000 0.000000 0.089936
#
#
# Mechanical properties :
#
#
# Convention : Reuss Voigt Hill
#
# Bulk Modulus (GPa) = 65.55807 67.62575 66.59191
# Shear Modulus (GPa) = 19.98384 23.10365 21.54374
#
# Velocity S-wave (km/s) = 3.32785 3.57819 3.45529
# Velocity P-wave (km/s) = 7.14820 7.38565 7.26790
#
# Compressibility (1/GPa) = 0.01525365
#
# Stress axis : x y z
#
# Youngs Moduli (GPa) = 83.66037 83.52993 56.18739
#
# Poissons Ratio (x) = 0.25100 0.32121
# Poissons Ratio (y) = 0.25139 0.25356
# Poissons Ratio (z) = 0.47827 0.37694
#
# Static dielectric constant tensor:
#      x y z
#    x 3.386470 0.000000 0.000000 
#    y 0.000000 3.227060 0.000000 
#    z 0.000000 0.000000 3.438970 
# 
# 
# High freq. dielectric constant tensor:
#      x y z
#    x 1.703940 0.000000 0.000000 
#    y 0.000000 1.682140 0.000000 
#    z 0.000000 0.000000 1.709790 
# 
# From -- ./inp_files/2299.got.cif
#   From: 2010.03.12/outbox.cif.g09.slc.cpg/sg55_2_cif.got.tgz:2299.got - 2010.04.16 15:19:21.
