data_PCOD8225767
_publ_section_title
;
Structure prediction by ZEFSAII (Michael W. Deem and Ramdas Pophale) SiO2 
 PCOD8225767
Probable space group: P B A M
;
_chemical_formula_sum "Si O2"
_cell_formula_units_Z 64
_cell_length_a 30.700888
_cell_length_b 12.096238
_cell_length_c 8.504959
_cell_angle_alpha 90.000000
_cell_angle_beta 90.000000
_cell_angle_gamma 90.000000
_cell_volume 3158.446209
_symmetry_space_group_name_H-M "P B A M"
_symmetry_group_IT_number 55
_symmetry_cell_setting 'orthorhombic'
loop_
_space_group_symop_operation_xyz
x,y,z
-x,-y,z
1/2+x,1/2-y,-z
1/2-x,1/2+y,-z
-x,-y,-z
x,y,-z
1/2-x,1/2+y,z
1/2+x,1/2-y,z
loop_
_atom_site_type_symbol
_atom_site_label
_atom_site_fract_x
_atom_site_fract_y
_atom_site_fract_z
Si Si1 0.452861 0.966918 0.812341
Si Si2 0.704591 0.046920 0.179337
Si Si3 0.920617 0.760977 0.180956
Si Si4 0.627447 0.883055 0.185618
Si Si5 0.050200 0.005310 0.813410
Si Si6 0.625523 0.638547 0.315738
Si Si7 0.330617 0.744881 0.678414
Si Si8 0.696757 0.476525 0.820246
O O1 0.445270 0.843794 0.743325
O O2 0.500000 0.000000 0.746549
O O3 0.415234 0.050401 0.754390
O O4 0.451758 0.964606 0.000000
O O5 0.701834 0.154180 0.289591
O O6 0.670670 0.951839 0.232343
O O7 0.753540 0.008631 0.199678
O O8 0.694394 0.080283 0.000000
O O9 0.933156 0.878003 0.258113
O O10 0.869854 0.739323 0.200778
O O11 0.933553 0.768203 0.000000
O O12 0.628703 0.767083 0.274290
O O13 0.625525 0.860706 0.000000
O O14 0.078241 0.907499 0.736072
O O15 0.056250 0.995989 0.000000
O O16 0.000000 0.000000 0.763680
O O17 0.631366 0.621814 0.500000
O O18 0.664389 0.574444 0.228764
O O19 0.347403 0.748187 0.500000
O O20 0.307894 0.628577 0.708734
O O21 0.685831 0.445040 0.000000
#
# Coordination Sequence:
#
# PCOD8225767 Si02
#       8
#     8   8   8   8   8   8   8   8
#     4   9  18  33  61  95 120 151 200 256 302 350
#     4  10  23  43  67  92 118 160 212 259 305 363
#     4  10  19  37  63  89 121 160 206 256 300 356
#     4  10  21  40  64  89 121 161 208 256 304 365
#     4  10  22  39  65  95 121 160 213 260 303 362
#     4  12  26  42  60  89 129 166 201 251 322 379
#     4  12  24  39  63  93 128 162 198 252 317 374
#     4  11  24  43  67  91 119 161 215 261 303 363
#
# _framework density 20.263128999999999
#
# number of rings (size 3 to 8) (size 9 to 14) (size 15 to 20)
#    0.000    1.500    2.500    2.625    3.500    1.750 
#    0.000    0.000    0.000    0.750    0.000    0.000 
#    0.000    0.000    0.000    0.000    0.000    0.000 
#
# Total GULP energy -793638.270413 kJ/mol
# GULP energy per Si atom -12400.597975 kJ/mol
# Density = 2.021701 g / cm^3
# Si number density = 20.263129 Si / 1000 Ang^3
#
#
#
# Elastic Constant Matrix: (Units=GPa)
#
#
# Indices 1 2 3 4 5 6 
#
# 1 127.7629 41.1715 27.7697 0.0000 0.0000 0.0000
# 2 41.1715 134.3224 28.8973 0.0000 0.0000 0.0000
# 3 27.7697 28.8973 43.4646 0.0000 0.0000 0.0000
# 4 0.0000 0.0000 0.0000 5.8739 0.0000 0.0000
# 5 0.0000 0.0000 0.0000 0.0000 6.1527 0.0000
# 6 0.0000 0.0000 0.0000 0.0000 0.0000 27.3718
#
#
#
# Elastic Compliance Matrix: (Units=1/GPa)
#
#
# Indices 1 2 3 4 5 6 
#
# 1 0.009475 -0.001869 -0.004811 0.000000 0.000000 0.000000
# 2 -0.001869 0.009056 -0.004827 0.000000 0.000000 0.000000
# 3 -0.004811 -0.004827 0.029290 0.000000 0.000000 0.000000
# 4 0.000000 0.000000 0.000000 0.170244 0.000000 0.000000
# 5 0.000000 0.000000 0.000000 0.000000 0.162531 0.000000
# 6 0.000000 0.000000 0.000000 0.000000 0.000000 0.036534
#
#
# Mechanical properties :
#
#
# Convention : Reuss Voigt Hill
#
# Bulk Modulus (GPa) = 40.31041 55.69186 48.00114
# Shear Modulus (GPa) = 11.15046 21.72712 16.43879
#
# Velocity S-wave (km/s) = 2.34836 3.27807 2.85136
# Velocity P-wave (km/s) = 5.22395 6.47083 5.88054
#
# Compressibility (1/GPa) = 0.02480748
#
# Stress axis : x y z
#
# Youngs Moduli (GPa) = 105.54084 110.42300 34.14153
#
# Poissons Ratio (x) = 0.20641 0.16425
# Poissons Ratio (y) = 0.19728 0.16479
# Poissons Ratio (z) = 0.50774 0.53297
#
# Static dielectric constant tensor:
#      x y z
#    x 3.893160 0.000000 0.000000 
#    y 0.000000 4.166040 0.000000 
#    z 0.000000 0.000000 3.405170 
# 
# 
# High freq. dielectric constant tensor:
#      x y z
#    x 1.799730 0.000000 0.000000 
#    y 0.000000 1.808230 0.000000 
#    z 0.000000 0.000000 1.764370 
# 
# From -- ./inp_files/10712.got.cif
#   From: 2010.03.12/outbox.cif.g09.slc.cpg/sg55_6_cif.got.tgz:10712.got - 2010.04.16 15:19:21.
