data_PCOD8225272
_publ_section_title
;
Structure prediction by ZEFSAII (Michael W. Deem and Ramdas Pophale) SiO2 
 PCOD8225272
Probable space group: P B A M
;
_chemical_formula_sum "Si O2"
_cell_formula_units_Z 40
_cell_length_a 20.407593
_cell_length_b 9.225222
_cell_length_c 10.527489
_cell_angle_alpha 90.000000
_cell_angle_beta 90.000000
_cell_angle_gamma 90.000000
_cell_volume 1981.953252
_symmetry_space_group_name_H-M "P B A M"
_symmetry_group_IT_number 55
_symmetry_cell_setting 'orthorhombic'
loop_
_space_group_symop_operation_xyz
x,y,z
-x,-y,z
1/2+x,1/2-y,-z
1/2-x,1/2+y,-z
-x,-y,-z
x,y,-z
1/2-x,1/2+y,z
1/2+x,1/2-y,z
loop_
_atom_site_type_symbol
_atom_site_label
_atom_site_fract_x
_atom_site_fract_y
_atom_site_fract_z
Si Si1 0.938707 0.095745 0.644539
Si Si2 0.264325 0.095047 0.773371
Si Si3 0.670773 0.171652 0.351773
Si Si4 0.665114 0.628661 0.861360
Si Si5 0.027830 0.359192 0.644992
O O1 0.914823 0.056297 0.500000
O O2 0.880223 0.078476 0.744211
O O3 0.965808 0.255990 0.651591
O O4 0.000000 0.000000 0.686150
O O5 0.214783 0.199770 0.700656
O O6 0.312591 0.203652 0.848427
O O7 0.305584 0.991641 0.679418
O O8 0.225754 0.984031 0.865104
O O9 0.673160 0.192482 0.500000
O O10 0.596689 0.196037 0.295638
O O11 0.630256 0.616725 0.000000
O O12 0.045854 0.398028 0.500000
O O13 0.000000 0.500000 0.717562
#
# Coordination Sequence:
#
# PCOD8225272 Si02
#       5
#     8   8   8   8   8
#     4  10  21  37  58  84 113 145 185 235 286 336
#     4  10  22  36  55  82 113 151 193 236 284 337
#     4  10  19  33  55  85 117 147 185 235 289 343
#     4  11  23  40  60  82 114 155 195 235 283 339
#     4   9  17  30  50  76 108 144 179 220 275 333
#
# _framework density 20.182110000000002
#
# number of rings (size 3 to 8) (size 9 to 14) (size 15 to 20)
#    0.000    2.000    0.000    3.600    0.000    8.400 
#    0.000    0.000    0.000    6.600    0.000    0.000 
#    0.000    0.000    0.000    0.000    0.000    0.000 
#
# Total GULP energy -495546.238096 kJ/mol
# GULP energy per Si atom -12388.655952 kJ/mol
# Density = 2.013618 g / cm^3
# Si number density = 20.182110 Si / 1000 Ang^3
#
#
#
# Elastic Constant Matrix: (Units=GPa)
#
#
# Indices 1 2 3 4 5 6 
#
# 1 70.0910 -1.1866 35.3259 0.0000 0.0000 0.0000
# 2 -1.1866 86.1672 11.7827 0.0000 0.0000 0.0000
# 3 35.3259 11.7827 86.4958 0.0000 0.0000 0.0000
# 4 0.0000 0.0000 0.0000 9.0185 0.0000 0.0000
# 5 0.0000 0.0000 0.0000 0.0000 18.6457 0.0000
# 6 0.0000 0.0000 0.0000 0.0000 0.0000 30.9817
#
#
#
# Elastic Compliance Matrix: (Units=1/GPa)
#
#
# Indices 1 2 3 4 5 6 
#
# 1 0.018104 0.001284 -0.007569 0.000000 0.000000 0.000000
# 2 0.001284 0.011917 -0.002148 0.000000 0.000000 0.000000
# 3 -0.007569 -0.002148 0.014945 0.000000 0.000000 0.000000
# 4 0.000000 0.000000 0.000000 0.110883 0.000000 0.000000
# 5 0.000000 0.000000 0.000000 0.000000 0.053632 0.000000
# 6 0.000000 0.000000 0.000000 0.000000 0.000000 0.032277
#
#
# Mechanical properties :
#
#
# Convention : Reuss Voigt Hill
#
# Bulk Modulus (GPa) = 35.58618 37.17752 36.38185
# Shear Modulus (GPa) = 18.65754 24.85132 21.75443
#
# Velocity S-wave (km/s) = 3.04379 3.51287 3.28671
# Velocity P-wave (km/s) = 5.47939 5.90887 5.69818
#
# Compressibility (1/GPa) = 0.02810079
#
# Stress axis : x y z
#
# Youngs Moduli (GPa) = 55.23791 83.91561 66.91221
#
# Poissons Ratio (x) = -0.10777 0.50643
# Poissons Ratio (y) = -0.07094 0.14372
# Poissons Ratio (z) = 0.41808 0.18024
#
# Static dielectric constant tensor:
#      x y z
#    x 4.412250 0.000000 0.000000 
#    y 0.000000 3.989740 0.000000 
#    z 0.000000 0.000000 3.325640 
# 
# 
# High freq. dielectric constant tensor:
#      x y z
#    x 1.789280 0.000000 0.000000 
#    y 0.000000 1.812480 0.000000 
#    z 0.000000 0.000000 1.746870 
# 
# From -- ./inp_files/9304.got.cif
#   From: 2010.03.12/outbox.cif.g09.slc.cpg/sg55_5_cif.got.tgz:9304.got - 2010.04.16 15:19:21.
