data_PCOD8225233
_publ_section_title
;
Structure prediction by ZEFSAII (Michael W. Deem and Ramdas Pophale) SiO2 
 PCOD8225233
Probable space group: P B A M
;
_chemical_formula_sum "Si O2"
_cell_formula_units_Z 64
_cell_length_a 15.599508
_cell_length_b 11.326846
_cell_length_c 17.696410
_cell_angle_alpha 90.000000
_cell_angle_beta 90.000000
_cell_angle_gamma 90.000000
_cell_volume 3126.835750
_symmetry_space_group_name_H-M "P B A M"
_symmetry_group_IT_number 55
_symmetry_cell_setting 'orthorhombic'
loop_
_space_group_symop_operation_xyz
x,y,z
-x,-y,z
1/2+x,1/2-y,-z
1/2-x,1/2+y,-z
-x,-y,-z
x,y,-z
1/2-x,1/2+y,z
1/2+x,1/2-y,z
loop_
_atom_site_type_symbol
_atom_site_label
_atom_site_fract_x
_atom_site_fract_y
_atom_site_fract_z
Si Si1 0.683740 0.255610 0.334435
Si Si2 0.014818 0.361746 0.664539
Si Si3 0.530860 0.134279 0.161972
Si Si4 0.360230 0.277654 0.587651
Si Si5 0.787824 0.139075 0.202835
Si Si6 0.376565 0.212489 0.917488
Si Si7 0.185160 0.453652 0.082840
Si Si8 0.898505 0.011062 0.318643
O O1 0.604724 0.182422 0.373381
O O2 0.764493 0.264850 0.390908
O O3 0.714376 0.187347 0.258950
O O4 0.650792 0.387281 0.316984
O O5 0.029452 0.324358 0.751314
O O6 0.000000 0.500000 0.651040
O O7 0.931495 0.295844 0.633333
O O8 0.471946 0.225080 0.115325
O O9 0.622014 0.143879 0.120302
O O10 0.500000 0.000000 0.160142
O O11 0.375478 0.254883 0.500000
O O12 0.372252 0.416714 0.605803
O O13 0.810426 0.242470 0.144497
O O14 0.758219 0.033232 0.146914
O O15 0.869148 0.090847 0.248022
O O16 0.361375 0.075359 0.929226
O O17 0.369347 0.275401 0.000000
O O18 0.217130 0.408280 0.000000
O O19 0.000000 0.000000 0.314242
#
# Coordination Sequence:
#
# PCOD8225233 Si02
#       8
#     8   8   8   8   8   8   8   8
#     4  11  24  43  67  99 128 170 219 268 321 387
#     4  11  23  42  70 100 133 165 217 268 324 384
#     4   9  17  32  56  83 113 153 198 257 306 364
#     4  11  27  46  69  99 132 170 209 262 329 395
#     4  11  22  36  61  87 123 167 217 271 319 370
#     4  10  20  33  52  83 121 162 209 261 319 378
#     4  10  19  33  54  85 121 159 205 262 325 375
#     4  11  24  45  67  94 127 172 225 266 314 392
#
# _framework density 20.467976
#
# number of rings (size 3 to 8) (size 9 to 14) (size 15 to 20)
#    0.000    1.500    2.500    3.000    3.500    3.000 
#    0.000    0.000    0.000    1.500    0.000    0.000 
#    0.000    0.000    0.000    0.000    0.000    0.000 
#
# Total GULP energy -793040.338249 kJ/mol
# GULP energy per Si atom -12391.255285 kJ/mol
# Density = 2.042139 g / cm^3
# Si number density = 20.467976 Si / 1000 Ang^3
#
#
#
# Elastic Constant Matrix: (Units=GPa)
#
#
# Indices 1 2 3 4 5 6 
#
# 1 134.6540 39.9904 39.1447 0.0000 0.0000 0.0000
# 2 39.9904 79.8257 30.3848 0.0000 0.0000 0.0000
# 3 39.1447 30.3848 116.4737 0.0000 0.0000 0.0000
# 4 0.0000 0.0000 0.0000 18.6589 0.0000 0.0000
# 5 0.0000 0.0000 0.0000 0.0000 33.8648 0.0000
# 6 0.0000 0.0000 0.0000 0.0000 0.0000 36.4668
#
#
#
# Elastic Compliance Matrix: (Units=1/GPa)
#
#
# Indices 1 2 3 4 5 6 
#
# 1 0.009160 -0.003794 -0.002089 0.000000 0.000000 0.000000
# 2 -0.003794 0.015480 -0.002763 0.000000 0.000000 0.000000
# 3 -0.002089 -0.002763 0.010009 0.000000 0.000000 0.000000
# 4 0.000000 0.000000 0.000000 0.053594 0.000000 0.000000
# 5 0.000000 0.000000 0.000000 0.000000 0.029529 0.000000
# 6 0.000000 0.000000 0.000000 0.000000 0.000000 0.027422
#
#
# Mechanical properties :
#
#
# Convention : Reuss Voigt Hill
#
# Bulk Modulus (GPa) = 57.61505 61.11037 59.36271
# Shear Modulus (GPa) = 29.71387 32.56034 31.13710
#
# Velocity S-wave (km/s) = 3.81428 3.99280 3.90456
# Velocity P-wave (km/s) = 6.89988 7.15388 7.02803
#
# Compressibility (1/GPa) = 0.01735657
#
# Stress axis : x y z
#
# Youngs Moduli (GPa) = 109.16469 64.60057 99.91505
#
# Poissons Ratio (x) = 0.24510 0.20871
# Poissons Ratio (y) = 0.41417 0.27608
# Poissons Ratio (z) = 0.22804 0.17850
#
# Static dielectric constant tensor:
#      x y z
#    x 3.935180 0.000000 0.000000 
#    y 0.000000 3.585780 0.000000 
#    z 0.000000 0.000000 3.828070 
# 
# 
# High freq. dielectric constant tensor:
#      x y z
#    x 1.812710 0.000000 0.000000 
#    y 0.000000 1.780480 0.000000 
#    z 0.000000 0.000000 1.799850 
# 
# From -- ./inp_files/21664.got.cif
#   From: 2010.03.12/outbox.cif.g09.slc.cpg/sg55_11_cif.got.tgz:21664.got - 2010.04.16 15:19:21.
