data_PCOD8225893
_publ_section_title
;
Structure prediction by ZEFSAII (Michael W. Deem and Ramdas Pophale) SiO2 
 PCOD8225893
Probable space group: P B A M
;
_chemical_formula_sum "Si O2"
_cell_formula_units_Z 48
_cell_length_a 12.017440
_cell_length_b 23.984329
_cell_length_c 8.778044
_cell_angle_alpha 90.000000
_cell_angle_beta 90.000000
_cell_angle_gamma 90.000000
_cell_volume 2530.097682
_symmetry_space_group_name_H-M "P B A M"
_symmetry_group_IT_number 55
_symmetry_cell_setting 'orthorhombic'
loop_
_space_group_symop_operation_xyz
x,y,z
-x,-y,z
1/2+x,1/2-y,-z
1/2-x,1/2+y,-z
-x,-y,-z
x,y,-z
1/2-x,1/2+y,z
1/2+x,1/2-y,z
loop_
_atom_site_type_symbol
_atom_site_label
_atom_site_fract_x
_atom_site_fract_y
_atom_site_fract_z
Si Si1 0.659089 0.291187 0.678915
Si Si2 0.893410 0.670139 0.318720
Si Si3 0.279332 0.422549 0.319645
Si Si4 0.136342 0.636283 0.320405
Si Si5 0.227030 0.039486 0.820217
Si Si6 0.029447 0.102450 0.680289
O O1 0.645191 0.285032 0.500000
O O2 0.635908 0.230743 0.753002
O O3 0.783106 0.311854 0.720477
O O4 0.569593 0.336664 0.738023
O O5 0.893655 0.673294 0.500000
O O6 0.801659 0.626363 0.262233
O O7 0.014248 0.651346 0.259488
O O8 0.272057 0.431244 0.500000
O O9 0.240077 0.478375 0.237027
O O10 0.403319 0.406100 0.267847
O O11 0.138242 0.624213 0.500000
O O12 0.177189 0.580895 0.236778
O O13 0.105947 0.055019 0.754560
O O14 0.221698 0.040910 0.000000
O O15 0.044396 0.096982 0.500000
#
# Coordination Sequence:
#
# PCOD8225893 Si02
#       6
#     8   8   8   8   8   8
#     4   8  15  28  50  80 108 133 167 210 256 305
#     4   9  18  30  51  83 111 138 170 211 259 312
#     4  10  20  33  52  80 111 139 173 214 261 311
#     4   9  18  34  55  78 107 139 172 212 261 313
#     4  11  22  36  54  74 102 140 183 224 263 308
#     4   9  18  33  55  82 109 137 170 216 266 312
#
# _framework density 18.971599000000001
#
# number of rings (size 3 to 8) (size 9 to 14) (size 15 to 20)
#    0.000    2.667    0.000    3.000    2.333    3.333 
#    0.000    4.167    0.000    8.000    0.000    0.000 
#    0.000    0.000    0.000    0.000    0.000    0.000 
#
# Total GULP energy -595187.721831 kJ/mol
# GULP energy per Si atom -12399.744205 kJ/mol
# Density = 1.892842 g / cm^3
# Si number density = 18.971599 Si / 1000 Ang^3
#
#
#
# Elastic Constant Matrix: (Units=GPa)
#
#
# Indices 1 2 3 4 5 6 
#
# 1 110.2861 59.8189 15.7416 0.0000 0.0000 0.0000
# 2 59.8189 145.9271 26.1990 0.0000 0.0000 0.0000
# 3 15.7416 26.1990 34.6845 0.0000 0.0000 0.0000
# 4 0.0000 0.0000 0.0000 -0.8034 0.0000 0.0000
# 5 0.0000 0.0000 0.0000 0.0000 6.5690 0.0000
# 6 0.0000 0.0000 0.0000 0.0000 0.0000 21.9012
#
#
#
# Elastic Compliance Matrix: (Units=1/GPa)
#
#
# Indices 1 2 3 4 5 6 
#
# 1 0.011774 -0.004474 -0.001964 0.000000 0.000000 0.000000
# 2 -0.004474 0.009628 -0.005242 0.000000 0.000000 0.000000
# 3 -0.001964 -0.005242 0.033682 0.000000 0.000000 0.000000
# 4 0.000000 0.000000 0.000000 -1.244725 0.000000 0.000000
# 5 0.000000 0.000000 0.000000 0.000000 0.152230 0.000000
# 6 0.000000 0.000000 0.000000 0.000000 0.000000 0.045660
#
#
# Mechanical properties :
#
#
# Convention : Reuss Voigt Hill
#
# Bulk Modulus (GPa) = 31.52181 54.93521 43.22851
# Shear Modulus (GPa) = -5.22021 18.14256 6.46118
#
# Velocity S-wave (km/s) = -1.66059 3.09577 1.84746
# Velocity P-wave (km/s) = 3.60202 6.46512 5.23318
#
# Compressibility (1/GPa) = 0.03172406
#
# Stress axis : x y z
#
# Youngs Moduli (GPa) = 84.93039 103.86593 29.68911
#
# Poissons Ratio (x) = 0.46469 0.05832
# Poissons Ratio (y) = 0.37997 0.15563
# Poissons Ratio (z) = 0.16684 0.54445
#
# Static dielectric constant tensor:
#      x y z
#    x 3.626390 0.000000 0.000000 
#    y 0.000000 3.763490 0.000000 
#    z 0.000000 0.000000 2.966730 
# 
# 
# High freq. dielectric constant tensor:
#      x y z
#    x 1.741770 0.000000 0.000000 
#    y 0.000000 1.749800 0.000000 
#    z 0.000000 0.000000 1.686630 
# 
# From -- ./inp_files/4062.got.cif
#   From: 2010.03.12/outbox.cif.g09.slc.cpg/sg55_3_cif.got.tgz:4062.got - 2010.04.16 15:19:21.
