data_PCOD8225095
_publ_section_title
;
Structure prediction by ZEFSAII (Michael W. Deem and Ramdas Pophale) SiO2 
 PCOD8225095
Probable space group: P B A M
;
_chemical_formula_sum "Si O2"
_cell_formula_units_Z 64
_cell_length_a 16.742154
_cell_length_b 21.715251
_cell_length_c 8.843954
_cell_angle_alpha 90.000000
_cell_angle_beta 90.000000
_cell_angle_gamma 90.000000
_cell_volume 3215.308592
_symmetry_space_group_name_H-M "P B A M"
_symmetry_group_IT_number 55
_symmetry_cell_setting 'orthorhombic'
loop_
_space_group_symop_operation_xyz
x,y,z
-x,-y,z
1/2+x,1/2-y,-z
1/2-x,1/2+y,-z
-x,-y,-z
x,y,-z
1/2-x,1/2+y,z
1/2+x,1/2-y,z
loop_
_atom_site_type_symbol
_atom_site_label
_atom_site_fract_x
_atom_site_fract_y
_atom_site_fract_z
Si Si1 0.075198 0.261011 0.325181
Si Si2 0.366604 0.408681 0.672903
Si Si3 0.333611 0.069494 0.322698
Si Si4 0.168679 0.036309 0.821777
Si Si5 0.456157 0.624356 0.322045
Si Si6 0.395528 0.951987 0.172343
Si Si7 0.464903 0.139819 0.174060
Si Si8 0.794390 0.646157 0.671109
O O1 0.050493 0.263114 0.500000
O O2 0.074117 0.191092 0.266619
O O3 0.165043 0.287327 0.298095
O O4 0.009875 0.300757 0.237298
O O5 0.370331 0.431942 0.500000
O O6 0.339080 0.465565 0.774223
O O7 0.451246 0.381819 0.724071
O O8 0.301616 0.353278 0.690906
O O9 0.322035 0.075355 0.500000
O O10 0.246751 0.067614 0.248336
O O11 0.381905 0.129051 0.262286
O O12 0.385147 0.009262 0.283101
O O13 0.090697 0.072141 0.766937
O O14 0.175557 0.040088 0.000000
O O15 0.442528 0.615088 0.500000
O O16 0.482175 0.921874 0.195088
O O17 0.328461 0.901936 0.209293
O O18 0.383389 0.974418 0.000000
O O19 0.445758 0.152107 0.000000
O O20 0.816753 0.624948 0.500000
#
# Coordination Sequence:
#
# PCOD8225095 Si02
#       8
#     8   8   8   8   8   8   8   8
#     4   9  19  38  60  86 119 157 203 244 286 345
#     4  10  20  37  62  89 117 153 198 245 296 352
#     4  12  23  36  56  83 117 155 196 242 296 354
#     4  12  25  40  60  87 120 153 195 249 307 360
#     4  10  22  41  62  87 121 158 199 247 298 351
#     4  10  19  32  53  83 119 155 190 236 292 349
#     4  10  21  36  56  84 120 158 195 239 293 350
#     4   9  17  32  57  85 115 155 198 240 284 344
#
# _framework density 19.904778
#
# number of rings (size 3 to 8) (size 9 to 14) (size 15 to 20)
#    0.000    1.750    1.250    3.750    0.000    5.500 
#    2.250    0.000    0.000    0.000    0.000    0.000 
#    0.000    0.000    0.000    0.000    0.000    0.000 
#
# Total GULP energy -793651.012969 kJ/mol
# GULP energy per Si atom -12400.797078 kJ/mol
# Density = 1.985947 g / cm^3
# Si number density = 19.904778 Si / 1000 Ang^3
#
#
#
# Elastic Constant Matrix: (Units=GPa)
#
#
# Indices 1 2 3 4 5 6 
#
# 1 135.6175 51.1854 51.7339 0.0000 0.0000 0.0000
# 2 51.1854 65.9393 22.5522 0.0000 0.0000 0.0000
# 3 51.7339 22.5522 97.8939 0.0000 0.0000 0.0000
# 4 0.0000 0.0000 0.0000 11.5444 0.0000 0.0000
# 5 0.0000 0.0000 0.0000 0.0000 20.4604 0.0000
# 6 0.0000 0.0000 0.0000 0.0000 0.0000 17.5934
#
#
#
# Elastic Compliance Matrix: (Units=1/GPa)
#
#
# Indices 1 2 3 4 5 6 
#
# 1 0.012064 -0.007798 -0.004579 0.000000 0.000000 0.000000
# 2 -0.007798 0.021504 -0.000833 0.000000 0.000000 0.000000
# 3 -0.004579 -0.000833 0.012827 0.000000 0.000000 0.000000
# 4 0.000000 0.000000 0.000000 0.086622 0.000000 0.000000
# 5 0.000000 0.000000 0.000000 0.000000 0.048875 0.000000
# 6 0.000000 0.000000 0.000000 0.000000 0.000000 0.056840
#
#
# Mechanical properties :
#
#
# Convention : Reuss Voigt Hill
#
# Bulk Modulus (GPa) = 50.06388 61.15485 55.60937
# Shear Modulus (GPa) = 18.39531 21.51825 19.95678
#
# Velocity S-wave (km/s) = 3.04331 3.29151 3.16984
# Velocity P-wave (km/s) = 6.12823 6.72576 6.43394
#
# Compressibility (1/GPa) = 0.01997448
#
# Stress axis : x y z
#
# Youngs Moduli (GPa) = 82.89381 46.50344 77.96256
#
# Poissons Ratio (x) = 0.36265 0.35697
# Poissons Ratio (y) = 0.64644 0.06492
# Poissons Ratio (z) = 0.37955 0.03872
#
# Static dielectric constant tensor:
#      x y z
#    x 3.761870 0.000000 0.000000 
#    y 0.000000 3.499500 0.000000 
#    z 0.000000 0.000000 3.591990 
# 
# 
# High freq. dielectric constant tensor:
#      x y z
#    x 1.784890 0.000000 0.000000 
#    y 0.000000 1.756400 0.000000 
#    z 0.000000 0.000000 1.773950 
# 
# From -- ./inp_files/6617.got.cif
#   From: 2010.03.12/outbox.cif.g09.slc.cpg/sg55_4_cif.got.tgz:6617.got - 2010.04.16 15:19:21.
