data_PCOD8225992
_publ_section_title
;
Structure prediction by ZEFSAII (Michael W. Deem and Ramdas Pophale) SiO2 
 PCOD8225992
Probable space group: P B A M
;
_chemical_formula_sum "Si O2"
_cell_formula_units_Z 56
_cell_length_a 19.668362
_cell_length_b 16.532468
_cell_length_c 9.394695
_cell_angle_alpha 90.000000
_cell_angle_beta 90.000000
_cell_angle_gamma 90.000000
_cell_volume 3054.840706
_symmetry_space_group_name_H-M "P B A M"
_symmetry_group_IT_number 55
_symmetry_cell_setting 'orthorhombic'
loop_
_space_group_symop_operation_xyz
x,y,z
-x,-y,z
1/2+x,1/2-y,-z
1/2-x,1/2+y,-z
-x,-y,-z
x,y,-z
1/2-x,1/2+y,z
1/2+x,1/2-y,z
loop_
_atom_site_type_symbol
_atom_site_label
_atom_site_fract_x
_atom_site_fract_y
_atom_site_fract_z
Si Si1 0.242668 0.266207 0.661831
Si Si2 0.198930 0.412694 0.162994
Si Si3 0.047790 0.428383 0.165568
Si Si4 0.476316 0.765142 0.665676
Si Si5 0.658189 0.521503 0.168127
Si Si6 0.639178 0.363308 0.663465
Si Si7 0.112513 0.825988 0.665402
O O1 0.228979 0.291889 0.500000
O O2 0.199651 0.329306 0.752548
O O3 0.213508 0.176448 0.689583
O O4 0.322555 0.268784 0.697810
O O5 0.126359 0.455492 0.190795
O O6 0.261639 0.470454 0.208048
O O7 0.207851 0.387968 0.000000
O O8 0.000000 0.500000 0.224411
O O9 0.031273 0.346731 0.247190
O O10 0.033196 0.412498 0.000000
O O11 0.474894 0.787598 0.500000
O O12 0.417110 0.702608 0.704646
O O13 0.547139 0.724539 0.710482
O O14 0.630116 0.438850 0.233152
O O15 0.615993 0.594249 0.238157
O O16 0.645342 0.521570 0.000000
O O17 0.630682 0.391802 0.500000
O O18 0.109714 0.852230 0.500000
#
# Coordination Sequence:
#
# PCOD8225992 Si02
#       7
#     8   8   8   8   8   8   8
#     4   9  17  32  55  77  99 134 179 220 262 316
#     4   9  18  34  53  74 103 136 173 217 264 312
#     4  10  21  36  55  80 111 145 178 217 270 326
#     4  10  21  37  56  80 109 142 180 222 271 323
#     4  10  21  35  53  79 107 140 183 225 265 315
#     4  10  20  34  53  78 108 140 178 221 269 321
#     4   9  19  36  56  78 108 142 177 223 273 317
#
# _framework density 18.331562000000002
#
# number of rings (size 3 to 8) (size 9 to 14) (size 15 to 20)
#    0.000    2.429    1.429    0.429    0.000    4.286 
#    0.000    2.857    0.000    0.000    0.000    0.000 
#    0.000    0.000    0.000    0.000    0.000    0.000 
#
# Total GULP energy -694387.995943 kJ/mol
# GULP energy per Si atom -12399.785642 kJ/mol
# Density = 1.828984 g / cm^3
# Si number density = 18.331562 Si / 1000 Ang^3
#
#
#
# Elastic Constant Matrix: (Units=GPa)
#
#
# Indices 1 2 3 4 5 6 
#
# 1 103.1449 61.6090 39.5458 0.0000 0.0000 0.0000
# 2 61.6090 108.5342 53.3678 0.0000 0.0000 0.0000
# 3 39.5458 53.3678 64.9587 0.0000 0.0000 0.0000
# 4 0.0000 0.0000 0.0000 -12.3935 0.0000 0.0000
# 5 0.0000 0.0000 0.0000 0.0000 23.4301 0.0000
# 6 0.0000 0.0000 0.0000 0.0000 0.0000 24.6809
#
#
#
# Elastic Compliance Matrix: (Units=1/GPa)
#
#
# Indices 1 2 3 4 5 6 
#
# 1 0.015160 -0.006824 -0.003623 0.000000 0.000000 0.000000
# 2 -0.006824 0.018530 -0.011069 0.000000 0.000000 0.000000
# 3 -0.003623 -0.011069 0.026694 0.000000 0.000000 0.000000
# 4 0.000000 0.000000 0.000000 -0.080688 0.000000 0.000000
# 5 0.000000 0.000000 0.000000 0.000000 0.042680 0.000000
# 6 0.000000 0.000000 0.000000 0.000000 0.000000 0.040517
#
#
# Mechanical properties :
#
#
# Convention : Reuss Voigt Hill
#
# Bulk Modulus (GPa) = 57.63059 65.07590 61.35324
# Shear Modulus (GPa) = 44.75818 15.28453 30.02136
#
# Velocity S-wave (km/s) = 4.94661 2.89066 4.05122
# Velocity P-wave (km/s) = 8.00821 6.83503 7.44476
#
# Compressibility (1/GPa) = 0.01735190
#
# Stress axis : x y z
#
# Youngs Moduli (GPa) = 65.96198 53.96513 37.46147
#
# Poissons Ratio (x) = 0.36828 0.13571
# Poissons Ratio (y) = 0.45015 0.41468
# Poissons Ratio (z) = 0.23896 0.59736
#
# Static dielectric constant tensor:
#      x y z
#    x 3.666050 0.000000 0.000000 
#    y 0.000000 3.173110 0.000000 
#    z 0.000000 0.000000 3.345580 
# 
# 
# High freq. dielectric constant tensor:
#      x y z
#    x 1.722170 0.000000 0.000000 
#    y 0.000000 1.695510 0.000000 
#    z 0.000000 0.000000 1.708440 
# 
# From -- ./inp_files/5996.got.cif
#   From: 2010.03.12/outbox.cif.g09.slc.cpg/sg55_3_cif.got.tgz:5996.got - 2010.04.16 15:19:21.
