data_PCOD8225807
_publ_section_title
;
Structure prediction by ZEFSAII (Michael W. Deem and Ramdas Pophale) SiO2 
 PCOD8225807
Probable space group: P B A M
;
_chemical_formula_sum "Si O2"
_cell_formula_units_Z 48
_cell_length_a 22.874644
_cell_length_b 9.155598
_cell_length_c 12.632394
_cell_angle_alpha 90.000000
_cell_angle_beta 90.000000
_cell_angle_gamma 90.000000
_cell_volume 2645.615474
_symmetry_space_group_name_H-M "P B A M"
_symmetry_group_IT_number 55
_symmetry_cell_setting 'orthorhombic'
loop_
_space_group_symop_operation_xyz
x,y,z
-x,-y,z
1/2+x,1/2-y,-z
1/2-x,1/2+y,-z
-x,-y,-z
x,y,-z
1/2-x,1/2+y,z
1/2+x,1/2-y,z
loop_
_atom_site_type_symbol
_atom_site_label
_atom_site_fract_x
_atom_site_fract_y
_atom_site_fract_z
Si Si1 0.322383 0.790118 0.500000
Si Si2 0.011008 0.830456 0.376509
Si Si3 0.797897 0.355099 0.879947
Si Si4 0.623081 0.830722 0.689422
Si Si5 0.293840 0.121230 0.500000
Si Si6 0.098697 0.334489 0.305075
Si Si7 0.682696 0.190459 0.119625
O O1 0.273147 0.667653 0.500000
O O2 0.362216 0.766266 0.602357
O O3 0.292105 0.947037 0.500000
O O4 0.005846 0.790948 0.500000
O O5 0.075112 0.791720 0.334013
O O6 0.965536 0.733088 0.310731
O O7 0.000000 0.000000 0.355041
O O8 0.849401 0.296619 0.804312
O O9 0.792539 0.528011 0.869350
O O10 0.735180 0.294837 0.843684
O O11 0.812731 0.305597 0.000000
O O12 0.674298 0.817283 0.603600
O O13 0.593804 0.990772 0.683945
O O14 0.126626 0.286733 0.193542
O O15 0.662695 0.225259 0.000000
#
# Coordination Sequence:
#
# PCOD8225807 Si02
#       7
#     4   8   8   8   4   8   8
#     4  10  20  31  48  75 103 132 166 206 255 306
#     4  11  23  37  54  77 102 134 175 220 265 308
#     4   9  18  33  54  80 108 139 174 211 255 305
#     4  10  20  35  54  75 103 139 175 210 254 311
#     4  10  20  31  48  75 103 132 166 206 255 306
#     4  10  20  35  54  75 103 139 175 210 254 311
#     4   9  18  33  54  80 108 139 174 211 255 305
#
# _framework density 18.143227
#
# number of rings (size 3 to 8) (size 9 to 14) (size 15 to 20)
#    0.000    2.167    1.667    1.500    0.000    3.333 
#    0.000    0.833    0.000    5.000    0.000    0.000 
#    0.000    0.000    0.000    0.000    0.000    0.000 
#
# Total GULP energy -595392.333549 kJ/mol
# GULP energy per Si atom -12404.006949 kJ/mol
# Density = 1.810193 g / cm^3
# Si number density = 18.143227 Si / 1000 Ang^3
#
#
#
# Elastic Constant Matrix: (Units=GPa)
#
#
# Indices 1 2 3 4 5 6 
#
# 1 46.9965 9.4481 24.5495 0.0000 0.0000 0.0000
# 2 9.4481 23.6507 21.2817 0.0000 0.0000 0.0000
# 3 24.5495 21.2817 88.9622 0.0000 0.0000 0.0000
# 4 0.0000 0.0000 0.0000 15.1514 0.0000 0.0000
# 5 0.0000 0.0000 0.0000 0.0000 23.8982 0.0000
# 6 0.0000 0.0000 0.0000 0.0000 0.0000 37.7844
#
#
#
# Elastic Compliance Matrix: (Units=1/GPa)
#
#
# Indices 1 2 3 4 5 6 
#
# 1 0.025295 -0.004873 -0.005815 0.000000 0.000000 0.000000
# 2 -0.004873 0.054819 -0.011769 0.000000 0.000000 0.000000
# 3 -0.005815 -0.011769 0.015661 0.000000 0.000000 0.000000
# 4 0.000000 0.000000 0.000000 0.066000 0.000000 0.000000
# 5 0.000000 0.000000 0.000000 0.000000 0.041844 0.000000
# 6 0.000000 0.000000 0.000000 0.000000 0.000000 0.026466
#
#
# Mechanical properties :
#
#
# Convention : Reuss Voigt Hill
#
# Bulk Modulus (GPa) = 19.66119 30.01868 24.83994
# Shear Modulus (GPa) = 17.12603 22.32213 19.72408
#
# Velocity S-wave (km/s) = 3.07569 3.51141 3.30075
# Velocity P-wave (km/s) = 4.84493 5.74642 5.31482
#
# Compressibility (1/GPa) = 0.05086161
#
# Stress axis : x y z
#
# Youngs Moduli (GPa) = 39.53315 18.24179 63.85382
#
# Poissons Ratio (x) = 0.08889 0.37129
# Poissons Ratio (y) = 0.19264 0.75151
# Poissons Ratio (z) = 0.22987 0.21469
#
# Static dielectric constant tensor:
#      x y z
#    x 3.184020 0.000000 0.000000 
#    y 0.000000 3.240760 0.000000 
#    z 0.000000 0.000000 3.557240 
# 
# 
# High freq. dielectric constant tensor:
#      x y z
#    x 1.695550 0.000000 0.000000 
#    y 0.000000 1.696450 0.000000 
#    z 0.000000 0.000000 1.707300 
# 
# From -- ./inp_files/12281.got.cif
#   From: 2010.03.12/outbox.cif.g09.slc.cpg/sg55_7_cif.got.tgz:12281.got - 2010.04.16 15:19:21.
