data_PCOD8225460
_publ_section_title
;
Structure prediction by ZEFSAII (Michael W. Deem and Ramdas Pophale) SiO2 
 PCOD8225460
Probable space group: P B A M
;
_chemical_formula_sum "Si O2"
_cell_formula_units_Z 48
_cell_length_a 20.681541
_cell_length_b 15.055770
_cell_length_c 7.663855
_cell_angle_alpha 90.000000
_cell_angle_beta 90.000000
_cell_angle_gamma 90.000000
_cell_volume 2386.344534
_symmetry_space_group_name_H-M "P B A M"
_symmetry_group_IT_number 55
_symmetry_cell_setting 'orthorhombic'
loop_
_space_group_symop_operation_xyz
x,y,z
-x,-y,z
1/2+x,1/2-y,-z
1/2-x,1/2+y,-z
-x,-y,-z
x,y,-z
1/2-x,1/2+y,z
1/2+x,1/2-y,z
loop_
_atom_site_type_symbol
_atom_site_label
_atom_site_fract_x
_atom_site_fract_y
_atom_site_fract_z
Si Si1 0.098238 0.453295 0.500000
Si Si2 0.593046 0.741165 0.792067
Si Si3 0.306397 0.551480 0.196687
Si Si4 0.262543 0.220513 0.799930
Si Si5 0.035235 0.641836 0.500000
Si Si6 0.932842 0.038612 0.207123
Si Si7 0.784061 0.597255 0.307452
O O1 0.080193 0.555791 0.500000
O O2 0.141168 0.433704 0.326189
O O3 0.038869 0.386554 0.500000
O O4 0.665956 0.761021 0.725647
O O5 0.546651 0.803745 0.678341
O O6 0.575874 0.640690 0.739132
O O7 0.583286 0.757878 0.000000
O O8 0.273427 0.636555 0.293417
O O9 0.373477 0.519717 0.286650
O O10 0.255738 0.470759 0.189976
O O11 0.323003 0.579393 0.000000
O O12 0.217354 0.306122 0.779196
O O13 0.271803 0.195721 0.000000
O O14 0.931153 0.031228 0.000000
O O15 0.000000 0.000000 0.282988
O O16 0.751563 0.601373 0.500000
#
# Coordination Sequence:
#
# PCOD8225460 Si02
#       7
#     4   8   8   8   4   8   8
#     4   9  24  41  56  88 113 159 201 245 314 365
#     4  10  21  37  63  92 116 162 214 247 306 381
#     4  10  19  34  57  84 114 150 196 250 304 357
#     4  10  20  34  58  90 117 151 202 253 303 360
#     4  11  22  43  65  78 128 159 198 263 304 359
#     4   9  18  34  55  83 123 159 195 247 306 369
#     4  10  21  36  56  79 117 148 193 245 301 358
#
# _framework density 20.114446000000001
#
# number of rings (size 3 to 8) (size 9 to 14) (size 15 to 20)
#    0.500    1.667    1.667    1.500    1.167    2.000 
#    0.000    6.250    0.000    0.000    0.000    0.000 
#    0.000    0.000    0.000    0.000    0.000    0.000 
#
# Total GULP energy -594895.473770 kJ/mol
# GULP energy per Si atom -12393.655704 kJ/mol
# Density = 2.006866 g / cm^3
# Si number density = 20.114446 Si / 1000 Ang^3
#
#
#
# Elastic Constant Matrix: (Units=GPa)
#
#
# Indices 1 2 3 4 5 6 
#
# 1 166.2358 91.8296 19.7240 0.0000 0.0000 0.0000
# 2 91.8296 176.5965 16.5709 0.0000 0.0000 0.0000
# 3 19.7240 16.5709 41.8807 0.0000 0.0000 0.0000
# 4 0.0000 0.0000 0.0000 21.1625 0.0000 0.0000
# 5 0.0000 0.0000 0.0000 0.0000 15.8182 0.0000
# 6 0.0000 0.0000 0.0000 0.0000 0.0000 38.8893
#
#
#
# Elastic Compliance Matrix: (Units=1/GPa)
#
#
# Indices 1 2 3 4 5 6 
#
# 1 0.008664 -0.004281 -0.002386 0.000000 0.000000 0.000000
# 2 -0.004281 0.007996 -0.001148 0.000000 0.000000 0.000000
# 3 -0.002386 -0.001148 0.025455 0.000000 0.000000 0.000000
# 4 0.000000 0.000000 0.000000 0.047253 0.000000 0.000000
# 5 0.000000 0.000000 0.000000 0.000000 0.063218 0.000000
# 6 0.000000 0.000000 0.000000 0.000000 0.000000 0.025714
#
#
# Mechanical properties :
#
#
# Convention : Reuss Voigt Hill
#
# Bulk Modulus (GPa) = 37.75704 71.21800 54.48752
# Shear Modulus (GPa) = 24.65973 32.27991 28.46982
#
# Velocity S-wave (km/s) = 3.50519 4.01036 3.76625
# Velocity P-wave (km/s) = 5.93242 7.54501 6.78678
#
# Compressibility (1/GPa) = 0.02648512
#
# Stress axis : x y z
#
# Youngs Moduli (GPa) = 115.42543 125.05478 39.28455
#
# Poissons Ratio (x) = 0.53538 0.09374
# Poissons Ratio (y) = 0.49415 0.04509
# Poissons Ratio (z) = 0.27544 0.14353
#
# Static dielectric constant tensor:
#      x y z
#    x 3.805870 0.000000 0.000000 
#    y 0.000000 3.746750 0.000000 
#    z 0.000000 0.000000 3.370260 
# 
# 
# High freq. dielectric constant tensor:
#      x y z
#    x 1.781110 0.000000 0.000000 
#    y 0.000000 1.796250 0.000000 
#    z 0.000000 0.000000 1.758670 
# 
# From -- ./inp_files/7475.got.cif
#   From: 2010.03.12/outbox.cif.g09.slc.cpg/sg55_4_cif.got.tgz:7475.got - 2010.04.16 15:19:21.
