data_PCOD8225249
_publ_section_title
;
Structure prediction by ZEFSAII (Michael W. Deem and Ramdas Pophale) SiO2 
 PCOD8225249
Probable space group: P B A M
;
_chemical_formula_sum "Si O2"
_cell_formula_units_Z 64
_cell_length_a 19.345616
_cell_length_b 8.652360
_cell_length_c 19.868347
_cell_angle_alpha 90.000000
_cell_angle_beta 90.000000
_cell_angle_gamma 90.000000
_cell_volume 3325.667913
_symmetry_space_group_name_H-M "P B A M"
_symmetry_group_IT_number 55
_symmetry_cell_setting 'orthorhombic'
loop_
_space_group_symop_operation_xyz
x,y,z
-x,-y,z
1/2+x,1/2-y,-z
1/2-x,1/2+y,-z
-x,-y,-z
x,y,-z
1/2-x,1/2+y,z
1/2+x,1/2-y,z
loop_
_atom_site_type_symbol
_atom_site_label
_atom_site_fract_x
_atom_site_fract_y
_atom_site_fract_z
Si Si1 0.659176 0.662050 0.192740
Si Si2 0.924734 0.444729 0.816763
Si Si3 0.165744 0.081844 0.421679
Si Si4 0.309432 0.936621 0.422048
Si Si5 0.429999 0.080324 0.661549
Si Si6 0.230643 0.125271 0.871350
Si Si7 0.838708 0.589873 0.073642
Si Si8 0.571553 0.575811 0.681394
O O1 0.595255 0.766571 0.162358
O O2 0.676624 0.501107 0.156891
O O3 0.726370 0.778947 0.187488
O O4 0.633760 0.605292 0.265678
O O5 0.909175 0.465872 0.737786
O O6 0.884902 0.568867 0.860890
O O7 0.000000 0.500000 0.834409
O O8 0.147913 0.057285 0.500000
O O9 0.181090 0.258628 0.404662
O O10 0.232439 0.983139 0.399672
O O11 0.099861 0.031644 0.378193
O O12 0.319808 0.974273 0.500000
O O13 0.365342 0.038393 0.383869
O O14 0.448138 0.258928 0.651617
O O15 0.500000 0.000000 0.637097
O O16 0.190029 0.238729 0.919804
O O17 0.280244 0.039832 0.923263
O O18 0.875191 0.575122 0.000000
O O19 0.500000 0.500000 0.710655
#
# Coordination Sequence:
#
# PCOD8225249 Si02
#       8
#     8   8   8   8   8   8   8   8
#     4   9  20  36  56  83 111 143 183 229 282 334
#     4   9  20  37  55  78 110 148 186 223 270 332
#     4  10  22  38  56  80 110 146 186 231 281 333
#     4  10  21  38  59  83 111 144 185 231 281 336
#     4  10  21  38  58  82 111 145 186 230 281 336
#     4   9  19  35  55  82 111 139 178 229 283 335
#     4  10  19  33  55  80 108 143 183 229 278 329
#     4  11  23  37  56  81 110 147 188 230 280 339
#
# _framework density 19.244254999999999
#
# number of rings (size 3 to 8) (size 9 to 14) (size 15 to 20)
#    0.000    2.250    0.000    1.875    0.000   11.250 
#    0.000    0.625    0.000    0.750    0.000    0.000 
#    0.000    0.000    0.000    0.000    0.000    0.000 
#
# Total GULP energy -792849.940118 kJ/mol
# GULP energy per Si atom -12388.280314 kJ/mol
# Density = 1.920045 g / cm^3
# Si number density = 19.244255 Si / 1000 Ang^3
#
#
#
# Elastic Constant Matrix: (Units=GPa)
#
#
# Indices 1 2 3 4 5 6 
#
# 1 75.4570 37.4772 37.8850 0.0000 0.0000 0.0000
# 2 37.4772 109.5371 32.9340 0.0000 0.0000 0.0000
# 3 37.8850 32.9340 46.8551 0.0000 0.0000 0.0000
# 4 0.0000 0.0000 0.0000 7.7513 0.0000 0.0000
# 5 0.0000 0.0000 0.0000 0.0000 20.6963 0.0000
# 6 0.0000 0.0000 0.0000 0.0000 0.0000 37.2066
#
#
#
# Elastic Compliance Matrix: (Units=1/GPa)
#
#
# Indices 1 2 3 4 5 6 
#
# 1 0.023008 -0.002889 -0.016573 0.000000 0.000000 0.000000
# 2 -0.002889 0.011938 -0.006055 0.000000 0.000000 0.000000
# 3 -0.016573 -0.006055 0.038999 0.000000 0.000000 0.000000
# 4 0.000000 0.000000 0.000000 0.129010 0.000000 0.000000
# 5 0.000000 0.000000 0.000000 0.000000 0.048318 0.000000
# 6 0.000000 0.000000 0.000000 0.000000 0.000000 0.026877
#
#
# Mechanical properties :
#
#
# Convention : Reuss Voigt Hill
#
# Bulk Modulus (GPa) = 43.64745 49.82684 46.73714
# Shear Modulus (GPa) = 14.84464 21.36771 18.10617
#
# Velocity S-wave (km/s) = 2.78039 3.33579 3.07067
# Velocity P-wave (km/s) = 5.74782 6.38629 6.07545
#
# Compressibility (1/GPa) = 0.02291085
#
# Stress axis : x y z
#
# Youngs Moduli (GPa) = 43.46262 83.76264 25.64198
#
# Poissons Ratio (x) = 0.24201 0.42496
# Poissons Ratio (y) = 0.12558 0.15527
# Poissons Ratio (z) = 0.72029 0.50721
#
# Static dielectric constant tensor:
#      x y z
#    x 3.817530 0.000000 0.000000 
#    y 0.000000 3.763310 0.000000 
#    z 0.000000 0.000000 3.372880 
# 
# 
# High freq. dielectric constant tensor:
#      x y z
#    x 1.742830 0.000000 0.000000 
#    y 0.000000 1.766940 0.000000 
#    z 0.000000 0.000000 1.731450 
# 
# From -- ./inp_files/21981.got.cif
#   From: 2010.03.12/outbox.cif.g09.slc.cpg/sg55_11_cif.got.tgz:21981.got - 2010.04.16 15:19:21.
