data_PCOD8225214
_publ_section_title
;
Structure prediction by ZEFSAII (Michael W. Deem and Ramdas Pophale) SiO2 
 PCOD8225214
Probable space group: P B A M
;
_chemical_formula_sum "Si O2"
_cell_formula_units_Z 64
_cell_length_a 19.295798
_cell_length_b 19.188307
_cell_length_c 9.069538
_cell_angle_alpha 90.000000
_cell_angle_beta 90.000000
_cell_angle_gamma 90.000000
_cell_volume 3358.029964
_symmetry_space_group_name_H-M "P B A M"
_symmetry_group_IT_number 55
_symmetry_cell_setting 'orthorhombic'
loop_
_space_group_symop_operation_xyz
x,y,z
-x,-y,z
1/2+x,1/2-y,-z
1/2-x,1/2+y,-z
-x,-y,-z
x,y,-z
1/2-x,1/2+y,z
1/2+x,1/2-y,z
loop_
_atom_site_type_symbol
_atom_site_label
_atom_site_fract_x
_atom_site_fract_y
_atom_site_fract_z
Si Si1 0.757623 0.994393 0.329345
Si Si2 0.238012 0.649260 0.174343
Si Si3 0.607054 0.023456 0.332861
Si Si4 0.903023 0.034042 0.327760
Si Si5 0.960421 0.646220 0.170768
Si Si6 0.622190 0.279631 0.829867
Si Si7 0.533074 0.391064 0.674122
Si Si8 0.402430 0.139976 0.328276
O O1 0.761108 0.968605 0.500000
O O2 0.760967 0.927217 0.225882
O O3 0.688245 0.038956 0.304044
O O4 0.821989 0.045545 0.289598
O O5 0.299277 0.703016 0.221913
O O6 0.166573 0.671891 0.253538
O O7 0.225618 0.649009 0.000000
O O8 0.585638 0.042240 0.500000
O O9 0.561409 0.069774 0.225003
O O10 0.593854 0.942658 0.300198
O O11 0.916814 0.030704 0.500000
O O12 0.952969 0.096333 0.270782
O O13 0.924415 0.958069 0.267384
O O14 0.896370 0.698814 0.200165
O O15 0.028957 0.673042 0.255927
O O16 0.979473 0.641400 0.000000
O O17 0.563500 0.322830 0.747169
O O18 0.615397 0.299075 0.000000
O O19 0.538827 0.380378 0.500000
O O20 0.400046 0.158745 0.500000
#
# Coordination Sequence:
#
# PCOD8225214 Si02
#       8
#     8   8   8   8   8   8   8   8
#     4   9  16  30  52  77 108 138 169 216 268 311
#     4  10  19  33  54  79 106 138 174 211 255 310
#     4   9  19  34  54  80 107 134 169 223 278 317
#     4   8  14  26  47  77 107 135 173 221 267 304
#     4  11  23  38  55  76 107 145 178 213 262 318
#     4  10  22  37  51  74 110 146 179 217 259 309
#     4   9  16  28  50  75 101 139 182 220 259 309
#     4  10  21  38  60  84 107 130 169 224 272 313
#
# _framework density 19.058793999999999
#
# number of rings (size 3 to 8) (size 9 to 14) (size 15 to 20)
#    0.000    2.500    1.250    3.000    0.000    5.500 
#    0.000    3.125    0.000    3.000    0.000    0.000 
#    0.000    0.000    0.000    0.000    0.000    0.000 
#
# Total GULP energy -793253.930356 kJ/mol
# GULP energy per Si atom -12394.592662 kJ/mol
# Density = 1.901542 g / cm^3
# Si number density = 19.058794 Si / 1000 Ang^3
#
#
#
# Elastic Constant Matrix: (Units=GPa)
#
#
# Indices 1 2 3 4 5 6 
#
# 1 147.6795 25.6906 50.5915 0.0000 0.0000 0.0000
# 2 25.6906 38.3989 26.4487 0.0000 0.0000 0.0000
# 3 50.5915 26.4487 76.0649 0.0000 0.0000 0.0000
# 4 0.0000 0.0000 0.0000 22.9613 0.0000 0.0000
# 5 0.0000 0.0000 0.0000 0.0000 27.0437 0.0000
# 6 0.0000 0.0000 0.0000 0.0000 0.0000 27.1720
#
#
#
# Elastic Compliance Matrix: (Units=1/GPa)
#
#
# Indices 1 2 3 4 5 6 
#
# 1 0.008946 -0.002481 -0.005087 0.000000 0.000000 0.000000
# 2 -0.002481 0.034932 -0.010496 0.000000 0.000000 0.000000
# 3 -0.005087 -0.010496 0.020180 0.000000 0.000000 0.000000
# 4 0.000000 0.000000 0.000000 0.043552 0.000000 0.000000
# 5 0.000000 0.000000 0.000000 0.000000 0.036977 0.000000
# 6 0.000000 0.000000 0.000000 0.000000 0.000000 0.036803
#
#
# Mechanical properties :
#
#
# Convention : Reuss Voigt Hill
#
# Bulk Modulus (GPa) = 35.80536 51.95610 43.88073
# Shear Modulus (GPa) = 22.04319 26.06291 24.05305
#
# Velocity S-wave (km/s) = 3.40456 3.70198 3.55638
# Velocity P-wave (km/s) = 5.85510 6.75226 6.31962
#
# Compressibility (1/GPa) = 0.02792878
#
# Stress axis : x y z
#
# Youngs Moduli (GPa) = 111.78428 28.62706 49.55434
#
# Poissons Ratio (x) = 0.07103 0.25209
# Poissons Ratio (y) = 0.27735 0.52013
# Poissons Ratio (z) = 0.56867 0.30047
#
# Static dielectric constant tensor:
#      x y z
#    x 3.930200 0.000000 0.000000 
#    y 0.000000 3.116020 0.000000 
#    z 0.000000 0.000000 3.326790 
# 
# 
# High freq. dielectric constant tensor:
#      x y z
#    x 1.763380 0.000000 0.000000 
#    y 0.000000 1.699610 0.000000 
#    z 0.000000 0.000000 1.726630 
# 
# From -- ./inp_files/8975.got.cif
#   From: 2010.03.12/outbox.cif.g09.slc.cpg/sg55_5_cif.got.tgz:8975.got - 2010.04.16 15:19:21.
