data_PCOD8225516
_publ_section_title
;
Structure prediction by ZEFSAII (Michael W. Deem and Ramdas Pophale) SiO2 
 PCOD8225516
Probable space group: P B A M
;
_chemical_formula_sum "Si O2"
_cell_formula_units_Z 40
_cell_length_a 18.165727
_cell_length_b 10.365761
_cell_length_c 10.495675
_cell_angle_alpha 90.000000
_cell_angle_beta 90.000000
_cell_angle_gamma 90.000000
_cell_volume 1976.352233
_symmetry_space_group_name_H-M "P B A M"
_symmetry_group_IT_number 55
_symmetry_cell_setting 'orthorhombic'
loop_
_space_group_symop_operation_xyz
x,y,z
-x,-y,z
1/2+x,1/2-y,-z
1/2-x,1/2+y,-z
-x,-y,-z
x,y,-z
1/2-x,1/2+y,z
1/2+x,1/2-y,z
loop_
_atom_site_type_symbol
_atom_site_label
_atom_site_fract_x
_atom_site_fract_y
_atom_site_fract_z
Si Si1 0.373361 0.508737 0.854987
Si Si2 0.733432 0.901831 0.273110
Si Si3 0.177865 0.340740 0.639437
Si Si4 0.433554 0.773545 0.148972
Si Si5 0.600040 0.770425 0.851666
O O1 0.289772 0.556229 0.837674
O O2 0.428644 0.622326 0.810862
O O3 0.389718 0.371743 0.787299
O O4 0.389684 0.480520 0.000000
O O5 0.766566 0.779422 0.346809
O O6 0.654179 0.869517 0.215523
O O7 0.723713 0.025905 0.363596
O O8 0.139546 0.326622 0.500000
O O9 0.119445 0.350984 0.755242
O O10 0.516879 0.820433 0.169355
O O11 0.409102 0.793285 0.000000
O O12 0.620288 0.768606 0.000000
#
# Coordination Sequence:
#
# PCOD8225516 Si02
#       5
#     8   8   8   8   8
#     4   9  17  32  57  88 122 158 196 240 291 350
#     4  11  21  38  60  87 118 156 201 244 300 345
#     4  11  24  42  62  85 120 158 201 246 297 355
#     4   9  20  37  61  89 123 158 196 243 296 352
#     4  10  19  34  59  93 124 155 196 246 297 353
#
# _framework density 20.239307
#
# number of rings (size 3 to 8) (size 9 to 14) (size 15 to 20)
#    0.000    2.000    2.000    1.800    0.000    5.600 
#    0.000    5.000    0.000    2.400    0.000    0.000 
#    0.000    0.000    0.000    0.000    0.000    0.000 
#
# Total GULP energy -495695.629475 kJ/mol
# GULP energy per Si atom -12392.390737 kJ/mol
# Density = 2.019324 g / cm^3
# Si number density = 20.239307 Si / 1000 Ang^3
#
#
#
# Elastic Constant Matrix: (Units=GPa)
#
#
# Indices 1 2 3 4 5 6 
#
# 1 100.6601 34.9292 41.1844 0.0000 0.0000 0.0000
# 2 34.9292 100.6758 25.6330 0.0000 0.0000 0.0000
# 3 41.1844 25.6330 78.6832 0.0000 0.0000 0.0000
# 4 0.0000 0.0000 0.0000 4.9120 0.0000 0.0000
# 5 0.0000 0.0000 0.0000 0.0000 15.1065 0.0000
# 6 0.0000 0.0000 0.0000 0.0000 0.0000 26.0729
#
#
#
# Elastic Compliance Matrix: (Units=1/GPa)
#
#
# Indices 1 2 3 4 5 6 
#
# 1 0.013497 -0.003145 -0.006040 0.000000 0.000000 0.000000
# 2 -0.003145 0.011564 -0.002121 0.000000 0.000000 0.000000
# 3 -0.006040 -0.002121 0.016562 0.000000 0.000000 0.000000
# 4 0.000000 0.000000 0.000000 0.203582 0.000000 0.000000
# 5 0.000000 0.000000 0.000000 0.000000 0.066197 0.000000
# 6 0.000000 0.000000 0.000000 0.000000 0.000000 0.038354
#
#
# Mechanical properties :
#
#
# Convention : Reuss Voigt Hill
#
# Bulk Modulus (GPa) = 52.60257 53.72358 53.16307
# Shear Modulus (GPa) = 13.20290 21.10312 17.15301
#
# Velocity S-wave (km/s) = 2.55686 3.23256 2.91436
# Velocity P-wave (km/s) = 5.89605 6.36666 6.13587
#
# Compressibility (1/GPa) = 0.01901048
#
# Stress axis : x y z
#
# Youngs Moduli (GPa) = 74.09085 86.47490 60.38025
#
# Poissons Ratio (x) = 0.27195 0.36470
# Poissons Ratio (y) = 0.23301 0.12808
# Poissons Ratio (z) = 0.44751 0.18343
#
# Static dielectric constant tensor:
#      x y z
#    x 3.527860 0.000000 0.000000 
#    y 0.000000 3.926070 0.000000 
#    z 0.000000 0.000000 3.348110 
# 
# 
# High freq. dielectric constant tensor:
#      x y z
#    x 1.782750 0.000000 0.000000 
#    y 0.000000 1.808750 0.000000 
#    z 0.000000 0.000000 1.751080 
# 
# From -- ./inp_files/11858.got.cif
#   From: 2010.03.12/outbox.cif.g09.slc.cpg/sg55_6_cif.got.tgz:11858.got - 2010.04.16 15:19:21.
