data_PCOD8225267
_publ_section_title
;
Structure prediction by ZEFSAII (Michael W. Deem and Ramdas Pophale) SiO2 
 PCOD8225267
Probable space group: P B A M
;
_chemical_formula_sum "Si O2"
_cell_formula_units_Z 64
_cell_length_a 14.577034
_cell_length_b 10.398080
_cell_length_c 21.130405
_cell_angle_alpha 90.000000
_cell_angle_beta 90.000000
_cell_angle_gamma 90.000000
_cell_volume 3202.802378
_symmetry_space_group_name_H-M "P B A M"
_symmetry_group_IT_number 55
_symmetry_cell_setting 'orthorhombic'
loop_
_space_group_symop_operation_xyz
x,y,z
-x,-y,z
1/2+x,1/2-y,-z
1/2-x,1/2+y,-z
-x,-y,-z
x,y,-z
1/2-x,1/2+y,z
1/2+x,1/2-y,z
loop_
_atom_site_type_symbol
_atom_site_label
_atom_site_fract_x
_atom_site_fract_y
_atom_site_fract_z
Si Si1 0.829005 0.354239 0.847229
Si Si2 0.600324 0.500000 0.706388
Si Si3 0.250000 0.750000 0.386962
Si Si4 0.000000 0.347893 0.070648
Si Si5 0.891170 0.276525 0.715947
Si Si6 0.670995 0.145761 0.847229
Si Si7 0.108830 0.276525 0.715948
Si Si8 0.659630 0.500000 0.431303
O O1 0.909423 0.302197 0.892635
O O2 0.867918 0.363407 0.775838
O O3 0.750000 0.250000 0.855403
O O4 0.797281 0.500000 0.865257
O O5 0.500000 0.500000 0.735423
O O6 0.646711 0.630522 0.731571
O O7 0.646711 0.369478 0.731571
O O8 0.593250 0.500000 0.629443
O O9 0.167485 0.685370 0.345353
O O10 0.332515 0.814630 0.345353
O O11 0.280948 0.630838 0.429806
O O12 0.219052 0.869162 0.429806
O O13 0.000000 0.500000 0.067794
O O14 0.090578 0.302197 0.107364
O O15 1.000000 0.288432 0.000000
O O16 0.000000 0.280560 0.700074
O O17 0.632082 0.136594 0.775838
O O18 0.608628 0.500000 0.500000
#
# Coordination Sequence:
#
# PCOD8225267 Si02
#       8
#     8   8   8   8   8   8   8   8
#     4  11  23  36  59  91 118 155 192 239 291 341
#     4   8  18  33  52  83 109 144 178 237 295 329
#     4  10  21  34  54  78 109 142 182 238 286 332
#     4   9  20  42  63  85 119 161 202 233 277 345
#     4  10  19  33  55  83 116 144 187 233 290 348
#     4  11  23  36  59  91 118 155 192 239 291 341
#     4  10  19  33  55  83 116 144 187 233 290 348
#     4  10  20  35  53  74 104 147 187 224 281 345
#
# _framework density 19.982499000000001
#
# number of rings (size 3 to 8) (size 9 to 14) (size 15 to 20)
#    0.000    2.125    2.500    0.375    3.500    0.750 
#    0.000    0.625    0.000    3.750    0.000    0.000 
#    0.000    0.000    0.000    0.000    0.000    0.000 
#
# Total GULP energy -792840.715046 kJ/mol
# GULP energy per Si atom -12388.136173 kJ/mol
# Density = 1.993702 g / cm^3
# Si number density = 19.982499 Si / 1000 Ang^3
#
#
#
# Elastic Constant Matrix: (Units=GPa)
#
#
# Indices 1 2 3 4 5 6 
#
# 1 105.8617 23.4474 29.4884 0.0000 0.0000 0.0000
# 2 23.4474 84.7445 14.5463 0.0000 0.0000 0.0000
# 3 29.4884 14.5463 97.2416 0.0000 0.0000 0.0000
# 4 0.0000 0.0000 0.0000 3.2818 0.0000 0.0000
# 5 0.0000 0.0000 0.0000 0.0000 22.3368 0.0000
# 6 0.0000 0.0000 0.0000 0.0000 0.0000 19.9086
#
#
#
# Elastic Compliance Matrix: (Units=1/GPa)
#
#
# Indices 1 2 3 4 5 6 
#
# 1 0.010807 -0.002492 -0.002905 0.000000 0.000000 0.000000
# 2 -0.002492 0.012686 -0.001142 0.000000 0.000000 0.000000
# 3 -0.002905 -0.001142 0.011335 0.000000 0.000000 0.000000
# 4 0.000000 0.000000 0.000000 0.304706 0.000000 0.000000
# 5 0.000000 0.000000 0.000000 0.000000 0.044769 0.000000
# 6 0.000000 0.000000 0.000000 0.000000 0.000000 0.050230
#
#
# Mechanical properties :
#
#
# Convention : Reuss Voigt Hill
#
# Bulk Modulus (GPa) = 45.97346 46.97911 46.47629
# Shear Modulus (GPa) = 10.99238 23.79649 17.39444
#
# Velocity S-wave (km/s) = 2.34797 3.45464 2.95360
# Velocity P-wave (km/s) = 5.51429 6.28282 5.91106
#
# Compressibility (1/GPa) = 0.02175168
#
# Stress axis : x y z
#
# Youngs Moduli (GPa) = 92.53055 78.82956 88.21988
#
# Poissons Ratio (x) = 0.19641 0.25624
# Poissons Ratio (y) = 0.23055 0.10075
# Poissons Ratio (z) = 0.26876 0.09003
#
# Static dielectric constant tensor:
#      x y z
#    x 3.567370 0.000000 0.000000 
#    y 0.000000 3.733070 0.000000 
#    z 0.000000 0.000000 3.559730 
# 
# 
# High freq. dielectric constant tensor:
#      x y z
#    x 1.775220 0.000000 0.000000 
#    y 0.000000 1.778150 0.000000 
#    z 0.000000 0.000000 1.758930 
# 
# From -- ./inp_files/21652.got.cif
#   From: 2010.03.12/outbox.cif.g09.slc.cpg/sg55_11_cif.got.tgz:21652.got - 2010.04.16 15:19:21.
