data_PCOD8225892
_publ_section_title
;
Structure prediction by ZEFSAII (Michael W. Deem and Ramdas Pophale) SiO2 
 PCOD8225892
Probable space group: P B A M
;
_chemical_formula_sum "Si O2"
_cell_formula_units_Z 56
_cell_length_a 16.434415
_cell_length_b 20.197359
_cell_length_c 8.935707
_cell_angle_alpha 90.000000
_cell_angle_beta 90.000000
_cell_angle_gamma 90.000000
_cell_volume 2966.045127
_symmetry_space_group_name_H-M "P B A M"
_symmetry_group_IT_number 55
_symmetry_cell_setting 'orthorhombic'
loop_
_space_group_symop_operation_xyz
x,y,z
-x,-y,z
1/2+x,1/2-y,-z
1/2-x,1/2+y,-z
-x,-y,-z
x,y,-z
1/2-x,1/2+y,z
1/2+x,1/2-y,z
loop_
_atom_site_type_symbol
_atom_site_label
_atom_site_fract_x
_atom_site_fract_y
_atom_site_fract_z
Si Si1 0.828972 0.199723 0.823412
Si Si2 0.072857 0.047079 0.325736
Si Si3 0.847815 0.347867 0.824459
Si Si4 0.502156 0.687106 0.325094
Si Si5 0.526926 0.178078 0.178113
Si Si6 0.186184 0.393578 0.822612
Si Si7 0.755812 0.968731 0.821848
O O1 0.811026 0.276323 0.782952
O O2 0.753603 0.157499 0.761865
O O3 0.908932 0.173581 0.741483
O O4 0.843095 0.191254 0.000000
O O5 0.088831 0.034755 0.500000
O O6 0.052556 0.123235 0.291449
O O7 0.153133 0.027210 0.237106
O O8 0.000000 0.000000 0.269026
O O9 0.791580 0.405124 0.753104
O O10 0.940926 0.351976 0.765695
O O11 0.848927 0.359478 0.000000
O O12 0.510854 0.700928 0.500000
O O13 0.458826 0.749451 0.247297
O O14 0.597622 0.129051 0.235769
O O15 0.527709 0.186788 0.000000
O O16 0.206120 0.467049 0.764977
O O17 0.186941 0.391459 0.000000
O O18 0.759877 0.966489 0.000000
#
# Coordination Sequence:
#
# PCOD8225892 Si02
#       7
#     8   8   8   8   8   8   8
#     4   9  17  32  52  74 103 135 169 211 262 310
#     4  10  22  38  53  72 105 142 173 212 266 318
#     4   8  16  30  49  75 104 133 167 208 256 305
#     4  10  20  34  52  76 102 131 176 220 255 308
#     4   9  18  34  55  76 103 139 171 209 264 309
#     4   9  18  31  52  80 105 132 173 217 255 306
#     4  10  20  33  52  80 107 135 175 216 253 307
#
# _framework density 18.880358999999999
#
# number of rings (size 3 to 8) (size 9 to 14) (size 15 to 20)
#    0.000    2.714    0.000    2.143    2.000    2.000 
#    0.000    7.143    0.000    0.000    0.000    5.000 
#    0.000    0.000    0.000    0.000    0.000    0.000 
#
# Total GULP energy -694332.675136 kJ/mol
# GULP energy per Si atom -12398.797770 kJ/mol
# Density = 1.883739 g / cm^3
# Si number density = 18.880359 Si / 1000 Ang^3
#
#
#
# Elastic Constant Matrix: (Units=GPa)
#
#
# Indices 1 2 3 4 5 6 
#
# 1 95.4473 57.8688 23.6255 0.0000 0.0000 0.0000
# 2 57.8688 117.2611 26.6143 0.0000 0.0000 0.0000
# 3 23.6255 26.6143 30.8699 0.0000 0.0000 0.0000
# 4 0.0000 0.0000 0.0000 18.4210 0.0000 0.0000
# 5 0.0000 0.0000 0.0000 0.0000 9.3009 0.0000
# 6 0.0000 0.0000 0.0000 0.0000 0.0000 38.6038
#
#
#
# Elastic Compliance Matrix: (Units=1/GPa)
#
#
# Indices 1 2 3 4 5 6 
#
# 1 0.016011 -0.006366 -0.006765 0.000000 0.000000 0.000000
# 2 -0.006366 0.013134 -0.006451 0.000000 0.000000 0.000000
# 3 -0.006765 -0.006451 0.043133 0.000000 0.000000 0.000000
# 4 0.000000 0.000000 0.000000 0.054286 0.000000 0.000000
# 5 0.000000 0.000000 0.000000 0.000000 0.107517 0.000000
# 6 0.000000 0.000000 0.000000 0.000000 0.000000 0.025904
#
#
# Mechanical properties :
#
#
# Convention : Reuss Voigt Hill
#
# Bulk Modulus (GPa) = 30.19917 51.08838 40.64378
# Shear Modulus (GPa) = 16.11924 22.29645 19.20785
#
# Velocity S-wave (km/s) = 2.92508 3.44020 3.19305
# Velocity P-wave (km/s) = 5.23812 6.54964 5.93024
#
# Compressibility (1/GPa) = 0.03311349
#
# Stress axis : x y z
#
# Youngs Moduli (GPa) = 62.45590 76.13899 23.18384
#
# Poissons Ratio (x) = 0.48471 0.15685
# Poissons Ratio (y) = 0.39760 0.14956
# Poissons Ratio (z) = 0.42253 0.49118
#
# Static dielectric constant tensor:
#      x y z
#    x 3.652520 0.000000 0.000000 
#    y 0.000000 3.743160 0.000000 
#    z 0.000000 0.000000 3.074600 
# 
# 
# High freq. dielectric constant tensor:
#      x y z
#    x 1.739460 0.000000 0.000000 
#    y 0.000000 1.744190 0.000000 
#    z 0.000000 0.000000 1.693330 
# 
# From -- ./inp_files/5975.got.cif
#   From: 2010.03.12/outbox.cif.g09.slc.cpg/sg55_3_cif.got.tgz:5975.got - 2010.04.16 15:19:21.
