data_PCOD8225538
_publ_section_title
;
Structure prediction by ZEFSAII (Michael W. Deem and Ramdas Pophale) SiO2 
 PCOD8225538
Probable space group: P B A M
;
_chemical_formula_sum "Si O2"
_cell_formula_units_Z 64
_cell_length_a 9.056885
_cell_length_b 19.587759
_cell_length_c 18.837565
_cell_angle_alpha 90.000000
_cell_angle_beta 90.000000
_cell_angle_gamma 90.000000
_cell_volume 3341.860901
_symmetry_space_group_name_H-M "P B A M"
_symmetry_group_IT_number 55
_symmetry_cell_setting 'orthorhombic'
loop_
_space_group_symop_operation_xyz
x,y,z
-x,-y,z
1/2+x,1/2-y,-z
1/2-x,1/2+y,-z
-x,-y,-z
x,y,-z
1/2-x,1/2+y,z
1/2+x,1/2-y,z
loop_
_atom_site_type_symbol
_atom_site_label
_atom_site_fract_x
_atom_site_fract_y
_atom_site_fract_z
Si Si1 0.116391 0.438586 0.294843
Si Si2 0.156465 0.465950 0.921994
Si Si3 0.105842 0.337591 0.580040
Si Si4 0.162331 0.162714 0.719428
Si Si5 0.622141 0.160003 0.167772
Si Si6 0.833842 0.981190 0.790580
Si Si7 0.603663 0.738121 0.215320
Si Si8 0.728761 0.798666 0.419425
O O1 0.132246 0.403465 0.370969
O O2 0.069610 0.381787 0.237508
O O3 0.273344 0.469446 0.271165
O O4 0.000000 0.500000 0.296597
O O5 0.127234 0.387495 0.900896
O O6 0.251496 0.507404 0.864902
O O7 0.000000 0.500000 0.926324
O O8 0.232737 0.467932 0.000000
O O9 0.123843 0.364477 0.500000
O O10 0.225814 0.279493 0.597530
O O11 0.945457 0.305116 0.592214
O O12 0.185563 0.096182 0.766507
O O13 0.294346 0.214379 0.736853
O O14 0.183565 0.150443 0.634584
O O15 0.002009 0.194506 0.733288
O O16 0.500506 0.220032 0.159971
O O17 0.789208 0.187986 0.172370
O O18 0.000000 0.000000 0.804761
O O19 0.774753 0.818276 0.500000
#
# Coordination Sequence:
#
# PCOD8225538 Si02
#       8
#     8   8   8   8   8   8   8   8
#     4  11  21  35  55  77 108 150 190 232 278 332
#     4  10  21  39  62  84 111 148 184 217 260 324
#     4  10  21  36  54  79 109 144 188 234 285 342
#     4  11  19  34  54  80 109 139 183 228 273 326
#     4  10  19  35  54  82 110 139 182 225 271 324
#     4  11  23  37  58  85 113 144 182 228 272 320
#     4  10  20  31  56  81 106 141 179 229 278 320
#     4  10  20  33  52  78 108 143 184 235 287 333
#
# _framework density 19.151005999999999
#
# number of rings (size 3 to 8) (size 9 to 14) (size 15 to 20)
#    0.000    1.625    0.000    8.250    0.000    1.500 
#    0.000    1.250    0.000    3.750    0.000    0.000 
#    0.000    0.000    0.000    0.000    0.000    0.000 
#
# Total GULP energy -793511.789533 kJ/mol
# GULP energy per Si atom -12398.621711 kJ/mol
# Density = 1.910742 g / cm^3
# Si number density = 19.151006 Si / 1000 Ang^3
#
#
#
# Elastic Constant Matrix: (Units=GPa)
#
#
# Indices 1 2 3 4 5 6 
#
# 1 101.8761 40.3218 56.2297 0.0000 0.0000 0.0000
# 2 40.3218 98.5075 73.7814 0.0000 0.0000 0.0000
# 3 56.2297 73.7814 141.2606 0.0000 0.0000 0.0000
# 4 0.0000 0.0000 0.0000 66.9238 0.0000 0.0000
# 5 0.0000 0.0000 0.0000 0.0000 29.2404 0.0000
# 6 0.0000 0.0000 0.0000 0.0000 0.0000 26.7934
#
#
#
# Elastic Compliance Matrix: (Units=1/GPa)
#
#
# Indices 1 2 3 4 5 6 
#
# 1 0.012904 -0.002357 -0.003906 0.000000 0.000000 0.000000
# 2 -0.002357 0.017105 -0.007996 0.000000 0.000000 0.000000
# 3 -0.003906 -0.007996 0.012810 0.000000 0.000000 0.000000
# 4 0.000000 0.000000 0.000000 0.014942 0.000000 0.000000
# 5 0.000000 0.000000 0.000000 0.000000 0.034199 0.000000
# 6 0.000000 0.000000 0.000000 0.000000 0.000000 0.037323
#
#
# Mechanical properties :
#
#
# Convention : Reuss Voigt Hill
#
# Bulk Modulus (GPa) = 69.91674 75.81222 72.86448
# Shear Modulus (GPa) = 30.75627 36.01228 33.38427
#
# Velocity S-wave (km/s) = 4.01182 4.34111 4.17971
# Velocity P-wave (km/s) = 7.61886 8.04981 7.83730
#
# Compressibility (1/GPa) = 0.01430273
#
# Stress axis : x y z
#
# Youngs Moduli (GPa) = 77.49318 58.46188 78.06286
#
# Poissons Ratio (x) = 0.13778 0.30489
# Poissons Ratio (y) = 0.18263 0.62419
# Poissons Ratio (z) = 0.30267 0.46746
#
# Static dielectric constant tensor:
#      x y z
#    x 3.588860 0.000000 0.000000 
#    y 0.000000 3.502300 0.000000 
#    z 0.000000 0.000000 3.644540 
# 
# 
# High freq. dielectric constant tensor:
#      x y z
#    x 1.755030 0.000000 0.000000 
#    y 0.000000 1.742500 0.000000 
#    z 0.000000 0.000000 1.730410 
# 
# From -- ./inp_files/21098.got.cif
#   From: 2010.03.12/outbox.cif.g09.slc.cpg/sg55_11_cif.got.tgz:21098.got - 2010.04.16 15:19:21.
