data_PCOD8225791
_publ_section_title
;
Structure prediction by ZEFSAII (Michael W. Deem and Ramdas Pophale) SiO2 
 PCOD8225791
Probable space group: P B A M
;
_chemical_formula_sum "Si O2"
_cell_formula_units_Z 64
_cell_length_a 9.390977
_cell_length_b 17.772290
_cell_length_c 19.130600
_cell_angle_alpha 90.000000
_cell_angle_beta 90.000000
_cell_angle_gamma 90.000000
_cell_volume 3192.881197
_symmetry_space_group_name_H-M "P B A M"
_symmetry_group_IT_number 55
_symmetry_cell_setting 'orthorhombic'
loop_
_space_group_symop_operation_xyz
x,y,z
-x,-y,z
1/2+x,1/2-y,-z
1/2-x,1/2+y,-z
-x,-y,-z
x,y,-z
1/2-x,1/2+y,z
1/2+x,1/2-y,z
loop_
_atom_site_type_symbol
_atom_site_label
_atom_site_fract_x
_atom_site_fract_y
_atom_site_fract_z
Si Si1 0.319890 0.678377 0.080327
Si Si2 0.500725 0.190720 0.863712
Si Si3 0.875202 0.943763 0.181526
Si Si4 0.882377 0.565122 0.668226
Si Si5 0.822916 0.846832 0.318051
Si Si6 0.976711 0.284691 0.299704
Si Si7 0.162770 0.019471 0.581188
Si Si8 0.865073 0.547148 0.179611
O O1 0.162598 0.685900 0.112654
O O2 0.410886 0.753854 0.087205
O O3 0.413523 0.616491 0.121902
O O4 0.307073 0.655241 0.000000
O O5 0.509651 0.212199 0.782700
O O6 0.586506 0.112514 0.873152
O O7 0.822789 0.901299 0.250765
O O8 0.751996 0.993718 0.144916
O O9 0.000000 0.000000 0.201821
O O10 0.759027 0.547760 0.612421
O O11 0.806303 0.572437 0.744327
O O12 0.000000 0.500000 0.661651
O O13 0.954294 0.646710 0.656053
O O14 0.692500 0.788203 0.311657
O O15 0.803229 0.899584 0.385063
O O16 0.964690 0.795991 0.325760
O O17 0.197918 0.026187 0.500000
O O18 0.000000 0.000000 0.596232
O O19 0.000000 0.500000 0.201483
#
# Coordination Sequence:
#
# PCOD8225791 Si02
#       8
#     8   8   8   8   8   8   8   8
#     4  12  26  45  63  92 136 176 216 263 331 406
#     4  11  22  42  66  94 128 171 215 267 331 394
#     4  12  24  40  67  97 127 168 223 282 320 375
#     4  10  19  38  65  96 127 167 212 267 321 380
#     4  12  23  43  64 102 133 167 217 273 328 388
#     4  11  22  38  70 101 128 162 221 277 329 382
#     4  11  25  44  65  94 138 180 217 262 323 393
#     4  10  19  38  66  95 124 157 213 274 321 374
#
# _framework density 20.044592000000002
#
# number of rings (size 3 to 8) (size 9 to 14) (size 15 to 20)
#    0.000    0.875    6.250    1.500    3.500    1.500 
#    0.000    3.125    0.000    0.000    0.000    0.000 
#    0.000    0.000    0.000    0.000    0.000    0.000 
#
# Total GULP energy -793458.649669 kJ/mol
# GULP energy per Si atom -12397.791401 kJ/mol
# Density = 1.999897 g / cm^3
# Si number density = 20.044592 Si / 1000 Ang^3
#
#
#
# Elastic Constant Matrix: (Units=GPa)
#
#
# Indices 1 2 3 4 5 6 
#
# 1 93.9917 34.1076 24.6656 0.0000 0.0000 0.0000
# 2 34.1076 88.1711 23.0475 0.0000 0.0000 0.0000
# 3 24.6656 23.0475 87.6123 0.0000 0.0000 0.0000
# 4 0.0000 0.0000 0.0000 24.1933 0.0000 0.0000
# 5 0.0000 0.0000 0.0000 0.0000 24.1031 0.0000
# 6 0.0000 0.0000 0.0000 0.0000 0.0000 45.6224
#
#
#
# Elastic Compliance Matrix: (Units=1/GPa)
#
#
# Indices 1 2 3 4 5 6 
#
# 1 0.012861 -0.004326 -0.002483 0.000000 0.000000 0.000000
# 2 -0.004326 0.013634 -0.002369 0.000000 0.000000 0.000000
# 3 -0.002483 -0.002369 0.012736 0.000000 0.000000 0.000000
# 4 0.000000 0.000000 0.000000 0.041334 0.000000 0.000000
# 5 0.000000 0.000000 0.000000 0.000000 0.041488 0.000000
# 6 0.000000 0.000000 0.000000 0.000000 0.000000 0.021919
#
#
# Mechanical properties :
#
#
# Convention : Reuss Voigt Hill
#
# Bulk Modulus (GPa) = 47.90186 48.15741 48.02963
# Shear Modulus (GPa) = 29.53592 31.31405 30.42499
#
# Velocity S-wave (km/s) = 3.84280 3.95678 3.90021
# Velocity P-wave (km/s) = 6.60598 6.70463 6.65549
#
# Compressibility (1/GPa) = 0.02087602
#
# Stress axis : x y z
#
# Youngs Moduli (GPa) = 77.75726 73.34502 78.51765
#
# Poissons Ratio (x) = 0.31729 0.19493
# Poissons Ratio (y) = 0.33637 0.18599
# Poissons Ratio (z) = 0.19304 0.17374
#
# Static dielectric constant tensor:
#      x y z
#    x 3.693690 0.000000 0.000000 
#    y 0.000000 3.812660 0.000000 
#    z 0.000000 0.000000 3.393260 
# 
# 
# High freq. dielectric constant tensor:
#      x y z
#    x 1.790680 0.000000 0.000000 
#    y 0.000000 1.790180 0.000000 
#    z 0.000000 0.000000 1.749770 
# 
# From -- ./inp_files/22700.got.cif
#   From: 2010.03.12/outbox.cif.g09.slc.cpg/sg55_12_cif.got.tgz:22700.got - 2010.04.16 15:19:21.
