data_PCOD8225517
_publ_section_title
;
Structure prediction by ZEFSAII (Michael W. Deem and Ramdas Pophale) SiO2 
 PCOD8225517
Probable space group: P B A M
;
_chemical_formula_sum "Si O2"
_cell_formula_units_Z 56
_cell_length_a 14.658447
_cell_length_b 21.598260
_cell_length_c 8.777023
_cell_angle_alpha 90.000000
_cell_angle_beta 90.000000
_cell_angle_gamma 90.000000
_cell_volume 2778.778708
_symmetry_space_group_name_H-M "P B A M"
_symmetry_group_IT_number 55
_symmetry_cell_setting 'orthorhombic'
loop_
_space_group_symop_operation_xyz
x,y,z
-x,-y,z
1/2+x,1/2-y,-z
1/2-x,1/2+y,-z
-x,-y,-z
x,y,-z
1/2-x,1/2+y,z
1/2+x,1/2-y,z
loop_
_atom_site_type_symbol
_atom_site_label
_atom_site_fract_x
_atom_site_fract_y
_atom_site_fract_z
Si Si1 0.405248 0.597633 0.821353
Si Si2 0.441200 0.825176 0.322273
Si Si3 0.722494 0.514763 0.179643
Si Si4 0.613476 0.752798 0.681081
Si Si5 0.686915 0.286026 0.322481
Si Si6 0.594790 0.613282 0.680695
Si Si7 0.590026 0.037899 0.679685
O O1 0.334029 0.545477 0.769032
O O2 0.366573 0.664184 0.775813
O O3 0.500602 0.583661 0.738822
O O4 0.423210 0.595600 0.000000
O O5 0.459455 0.833705 0.500000
O O6 0.532330 0.794746 0.249773
O O7 0.354949 0.781491 0.290492
O O8 0.421754 0.892702 0.252889
O O9 0.680390 0.575454 0.256654
O O10 0.825288 0.505287 0.237689
O O11 0.720996 0.523365 0.000000
O O12 0.607416 0.749291 0.500000
O O13 0.708534 0.783574 0.731621
O O14 0.603600 0.683191 0.744314
O O15 0.676679 0.303652 0.500000
O O16 0.597150 0.611262 0.500000
O O17 0.609064 0.038029 0.500000
O O18 0.500000 0.000000 0.721620
#
# Coordination Sequence:
#
# PCOD8225517 Si02
#       7
#     8   8   8   8   8   8   8
#     4  11  24  40  57  84 123 159 195 243 300 357
#     4   9  17  34  56  87 123 148 184 244 303 340
#     4  11  25  42  59  82 122 167 196 238 304 360
#     4   9  18  32  58  90 117 146 184 240 302 346
#     4  10  19  34  60  86 114 154 197 240 291 351
#     4  11  21  39  66  93 116 150 200 248 296 357
#     4  10  22  39  64  94 120 153 205 256 291 346
#
# _framework density 20.152736999999998
#
# number of rings (size 3 to 8) (size 9 to 14) (size 15 to 20)
#    0.000    1.857    1.429    2.571    2.000    6.571 
#    0.000    3.571    0.000    0.000    0.000    0.000 
#    0.000    0.000    0.000    0.000    0.000    0.000 
#
# Total GULP energy -694607.413217 kJ/mol
# GULP energy per Si atom -12403.703807 kJ/mol
# Density = 2.010687 g / cm^3
# Si number density = 20.152737 Si / 1000 Ang^3
#
#
#
# Elastic Constant Matrix: (Units=GPa)
#
#
# Indices 1 2 3 4 5 6 
#
# 1 123.6155 19.3031 25.7410 0.0000 0.0000 0.0000
# 2 19.3031 84.2863 18.6745 0.0000 0.0000 0.0000
# 3 25.7410 18.6745 43.1049 0.0000 0.0000 0.0000
# 4 0.0000 0.0000 0.0000 14.5577 0.0000 0.0000
# 5 0.0000 0.0000 0.0000 0.0000 21.3910 0.0000
# 6 0.0000 0.0000 0.0000 0.0000 0.0000 35.0373
#
#
#
# Elastic Compliance Matrix: (Units=1/GPa)
#
#
# Indices 1 2 3 4 5 6 
#
# 1 0.009313 -0.000996 -0.005130 0.000000 0.000000 0.000000
# 2 -0.000996 0.013231 -0.005137 0.000000 0.000000 0.000000
# 3 -0.005130 -0.005137 0.028488 0.000000 0.000000 0.000000
# 4 0.000000 0.000000 0.000000 0.068692 0.000000 0.000000
# 5 0.000000 0.000000 0.000000 0.000000 0.046749 0.000000
# 6 0.000000 0.000000 0.000000 0.000000 0.000000 0.028541
#
#
# Mechanical properties :
#
#
# Convention : Reuss Voigt Hill
#
# Bulk Modulus (GPa) = 35.08086 42.04932 38.56509
# Shear Modulus (GPa) = 22.02229 26.68307 24.35268
#
# Velocity S-wave (km/s) = 3.30929 3.64269 3.47998
# Velocity P-wave (km/s) = 5.66102 6.21312 5.94348
#
# Compressibility (1/GPa) = 0.02850557
#
# Stress axis : x y z
#
# Youngs Moduli (GPa) = 107.37177 75.58199 35.10218
#
# Poissons Ratio (x) = 0.07530 0.18008
# Poissons Ratio (y) = 0.10698 0.18032
# Poissons Ratio (z) = 0.55082 0.38827
#
# Static dielectric constant tensor:
#      x y z
#    x 3.901120 0.000000 0.000000 
#    y 0.000000 3.834390 0.000000 
#    z 0.000000 0.000000 3.290090 
# 
# 
# High freq. dielectric constant tensor:
#      x y z
#    x 1.804690 0.000000 0.000000 
#    y 0.000000 1.795770 0.000000 
#    z 0.000000 0.000000 1.749300 
# 
# From -- ./inp_files/6174.got.cif
#   From: 2010.03.12/outbox.cif.g09.slc.cpg/sg55_4_cif.got.tgz:6174.got - 2010.04.16 15:19:21.
