data_PCOD8225990
_publ_section_title
;
Structure prediction by ZEFSAII (Michael W. Deem and Ramdas Pophale) SiO2 
 PCOD8225990
Probable space group: P B A M
;
_chemical_formula_sum "Si O2"
_cell_formula_units_Z 64
_cell_length_a 18.180211
_cell_length_b 20.499952
_cell_length_c 9.289877
_cell_angle_alpha 90.000000
_cell_angle_beta 90.000000
_cell_angle_gamma 90.000000
_cell_volume 3462.276336
_symmetry_space_group_name_H-M "P B A M"
_symmetry_group_IT_number 55
_symmetry_cell_setting 'orthorhombic'
loop_
_space_group_symop_operation_xyz
x,y,z
-x,-y,z
1/2+x,1/2-y,-z
1/2-x,1/2+y,-z
-x,-y,-z
x,y,-z
1/2-x,1/2+y,z
1/2+x,1/2-y,z
loop_
_atom_site_type_symbol
_atom_site_label
_atom_site_fract_x
_atom_site_fract_y
_atom_site_fract_z
Si Si1 0.051259 0.441370 0.169953
Si Si2 0.958474 0.937276 0.329031
Si Si3 0.701243 0.066665 0.333913
Si Si4 0.786682 0.195754 0.332244
Si Si5 0.456239 0.311674 0.667947
Si Si6 0.290658 0.562341 0.667088
Si Si7 0.037825 0.684689 0.833194
Si Si8 0.708019 0.824862 0.831394
O O1 0.130141 0.448544 0.241017
O O2 0.000000 0.500000 0.224767
O O3 0.013369 0.374286 0.218410
O O4 0.062047 0.445186 0.000000
O O5 0.963924 0.939407 0.500000
O O6 0.874382 0.937396 0.278592
O O7 0.998808 0.872872 0.269974
O O8 0.000000 0.000000 0.263361
O O9 0.677986 0.069854 0.500000
O O10 0.736792 0.134963 0.284553
O O11 0.760345 0.010052 0.307204
O O12 0.776819 0.212306 0.500000
O O13 0.870666 0.177040 0.297358
O O14 0.761782 0.258560 0.240902
O O15 0.470312 0.302068 0.500000
O O16 0.487491 0.247787 0.745566
O O17 0.284217 0.582730 0.500000
O O18 0.246739 0.613134 0.763045
O O19 0.121860 0.666418 0.799291
O O20 0.026965 0.700127 0.000000
O O21 0.725387 0.821871 0.000000
#
# Coordination Sequence:
#
# PCOD8225990 Si02
#       8
#     8   8   8   8   8   8   8   8
#     4  10  21  37  55  74 100 136 175 215 259 305
#     4   9  17  31  53  78 102 131 168 206 246 297
#     4  10  21  35  53  78 106 136 171 213 260 308
#     4   9  18  34  54  77 106 136 169 212 257 301
#     4   9  17  31  54  79 101 131 169 206 246 296
#     4  10  20  34  53  78 107 136 168 211 259 303
#     4   9  19  35  53  73 100 134 169 208 254 301
#     4  10  20  35  55  77 102 136 175 210 251 307
#
# _framework density 18.484949
#
# number of rings (size 3 to 8) (size 9 to 14) (size 15 to 20)
#    0.000    2.500    0.000    1.875    0.000    7.250 
#    0.000    4.375    0.000    3.000    0.000    0.000 
#    0.000    0.000    0.000    0.000    0.000    0.000 
#
# Total GULP energy -793785.465688 kJ/mol
# GULP energy per Si atom -12402.897901 kJ/mol
# Density = 1.844288 g / cm^3
# Si number density = 18.484949 Si / 1000 Ang^3
#
#
#
# Elastic Constant Matrix: (Units=GPa)
#
#
# Indices 1 2 3 4 5 6 
#
# 1 64.9932 27.4577 22.5580 0.0000 0.0000 0.0000
# 2 27.4577 104.7298 34.4681 0.0000 0.0000 0.0000
# 3 22.5580 34.4681 42.1119 0.0000 0.0000 0.0000
# 4 0.0000 0.0000 0.0000 20.6558 0.0000 0.0000
# 5 0.0000 0.0000 0.0000 0.0000 21.1275 0.0000
# 6 0.0000 0.0000 0.0000 0.0000 0.0000 38.1079
#
#
#
# Elastic Compliance Matrix: (Units=1/GPa)
#
#
# Indices 1 2 3 4 5 6 
#
# 1 0.019286 -0.002267 -0.008475 0.000000 0.000000 0.000000
# 2 -0.002267 0.013335 -0.009700 0.000000 0.000000 0.000000
# 3 -0.008475 -0.009700 0.036226 0.000000 0.000000 0.000000
# 4 0.000000 0.000000 0.000000 0.048412 0.000000 0.000000
# 5 0.000000 0.000000 0.000000 0.000000 0.047332 0.000000
# 6 0.000000 0.000000 0.000000 0.000000 0.000000 0.026241
#
#
# Mechanical properties :
#
#
# Convention : Reuss Voigt Hill
#
# Bulk Modulus (GPa) = 35.76340 42.31137 39.03738
# Shear Modulus (GPa) = 20.74364 24.46832 22.60598
#
# Velocity S-wave (km/s) = 3.35355 3.64220 3.50085
# Velocity P-wave (km/s) = 5.86382 6.37392 6.12418
#
# Compressibility (1/GPa) = 0.02796155
#
# Stress axis : x y z
#
# Youngs Moduli (GPa) = 51.85238 74.98913 27.60459
#
# Poissons Ratio (x) = 0.16999 0.23395
# Poissons Ratio (y) = 0.11754 0.26778
# Poissons Ratio (z) = 0.43946 0.72743
#
# Static dielectric constant tensor:
#      x y z
#    x 3.395310 0.000000 0.000000 
#    y 0.000000 3.615690 0.000000 
#    z 0.000000 0.000000 3.202390 
# 
# 
# High freq. dielectric constant tensor:
#      x y z
#    x 1.717330 0.000000 0.000000 
#    y 0.000000 1.732950 0.000000 
#    z 0.000000 0.000000 1.695500 
# 
# From -- ./inp_files/7962.got.cif
#   From: 2010.03.12/outbox.cif.g09.slc.cpg/sg55_4_cif.got.tgz:7962.got - 2010.04.16 15:19:21.
