data_PCOD8225115
_publ_section_title
;
Structure prediction by ZEFSAII (Michael W. Deem and Ramdas Pophale) SiO2 
 PCOD8225115
Probable space group: P B A M
;
_chemical_formula_sum "Si O2"
_cell_formula_units_Z 56
_cell_length_a 18.711908
_cell_length_b 11.304449
_cell_length_c 13.488493
_cell_angle_alpha 90.000000
_cell_angle_beta 90.000000
_cell_angle_gamma 90.000000
_cell_volume 2853.191380
_symmetry_space_group_name_H-M "P B A M"
_symmetry_group_IT_number 55
_symmetry_cell_setting 'orthorhombic'
loop_
_space_group_symop_operation_xyz
x,y,z
-x,-y,z
1/2+x,1/2-y,-z
1/2-x,1/2+y,-z
-x,-y,-z
x,y,-z
1/2-x,1/2+y,z
1/2+x,1/2-y,z
loop_
_atom_site_type_symbol
_atom_site_label
_atom_site_fract_x
_atom_site_fract_y
_atom_site_fract_z
Si Si1 0.477658 0.343562 0.757582
Si Si2 0.117964 0.458123 0.384650
Si Si3 0.174139 0.272108 0.112217
Si Si4 0.124724 0.733003 0.613873
Si Si5 0.619725 0.458525 0.211821
Si Si6 0.761157 0.123163 0.713445
Si Si7 0.540105 0.114802 0.194690
O O1 0.437106 0.317653 0.655473
O O2 0.428025 0.429477 0.827590
O O3 0.557080 0.390540 0.726130
O O4 0.485367 0.222917 0.819272
O O5 0.101331 0.427483 0.500000
O O6 0.108940 0.596673 0.363512
O O7 0.197449 0.417388 0.357496
O O8 0.062017 0.393932 0.311628
O O9 0.150810 0.135523 0.133161
O O10 0.236735 0.322048 0.181628
O O11 0.108427 0.362126 0.126102
O O12 0.201913 0.277882 0.000000
O O13 0.130022 0.760979 0.500000
O O14 0.200262 0.767236 0.661558
O O15 0.686572 0.509542 0.273652
O O16 0.500000 0.000000 0.154572
#
# Coordination Sequence:
#
# PCOD8225115 Si02
#       7
#     8   8   8   8   8   8   8
#     4   9  18  35  56  83 111 153 192 229 286 339
#     4  10  20  32  52  82 114 153 196 234 280 344
#     4  10  22  38  59  84 109 145 192 242 291 347
#     4  10  19  32  54  83 117 154 198 238 280 342
#     4   9  19  37  59  78 111 150 191 232 290 346
#     4  10  20  36  55  79 115 154 189 242 297 338
#     4  10  19  35  57  82 116 148 184 235 291 335
#
# _framework density 19.627144000000001
#
# number of rings (size 3 to 8) (size 9 to 14) (size 15 to 20)
#    0.000    2.286    1.429    1.286    0.000    1.714 
#    0.000   12.143    0.000   11.143    0.000    0.000 
#    0.000    0.000    0.000    0.000    0.000    0.000 
#
# Total GULP energy -693769.382571 kJ/mol
# GULP energy per Si atom -12388.738974 kJ/mol
# Density = 1.958247 g / cm^3
# Si number density = 19.627144 Si / 1000 Ang^3
#
#
#
# Elastic Constant Matrix: (Units=GPa)
#
#
# Indices 1 2 3 4 5 6 
#
# 1 73.0294 34.2937 9.2149 0.0000 0.0000 0.0000
# 2 34.2937 109.7921 23.3430 0.0000 0.0000 0.0000
# 3 9.2149 23.3430 70.5028 0.0000 0.0000 0.0000
# 4 0.0000 0.0000 0.0000 21.3642 0.0000 0.0000
# 5 0.0000 0.0000 0.0000 0.0000 13.8942 0.0000
# 6 0.0000 0.0000 0.0000 0.0000 0.0000 33.0838
#
#
#
# Elastic Compliance Matrix: (Units=1/GPa)
#
#
# Indices 1 2 3 4 5 6 
#
# 1 0.016061 -0.004917 -0.000471 0.000000 0.000000 0.000000
# 2 -0.004917 0.011303 -0.003100 0.000000 0.000000 0.000000
# 3 -0.000471 -0.003100 0.015272 0.000000 0.000000 0.000000
# 4 0.000000 0.000000 0.000000 0.046807 0.000000 0.000000
# 5 0.000000 0.000000 0.000000 0.000000 0.071973 0.000000
# 6 0.000000 0.000000 0.000000 0.000000 0.000000 0.030226
#
#
# Mechanical properties :
#
#
# Convention : Reuss Voigt Hill
#
# Bulk Modulus (GPa) = 38.97023 43.00305 40.98664
# Shear Modulus (GPa) = 23.02333 26.09994 24.56163
#
# Velocity S-wave (km/s) = 3.42868 3.65058 3.54137
# Velocity P-wave (km/s) = 5.96429 6.30290 6.13593
#
# Compressibility (1/GPa) = 0.02566061
#
# Stress axis : x y z
#
# Youngs Moduli (GPa) = 62.26119 88.47322 65.48040
#
# Poissons Ratio (x) = 0.43498 0.03087
# Poissons Ratio (y) = 0.30611 0.20297
# Poissons Ratio (z) = 0.02935 0.27424
#
# Static dielectric constant tensor:
#      x y z
#    x 3.743000 0.000000 0.000000 
#    y 0.000000 3.975010 0.000000 
#    z 0.000000 0.000000 3.139420 
# 
# 
# High freq. dielectric constant tensor:
#      x y z
#    x 1.779760 0.000000 0.000000 
#    y 0.000000 1.783790 0.000000 
#    z 0.000000 0.000000 1.717760 
# 
# From -- ./inp_files/15348.got.cif
#   From: 2010.03.12/outbox.cif.g09.slc.cpg/sg55_8_cif.got.tgz:15348.got - 2010.04.16 15:19:21.
