data_PCOD8225157
_publ_section_title
;
Structure prediction by ZEFSAII (Michael W. Deem and Ramdas Pophale) SiO2 
 PCOD8225157
Probable space group: P B A M
;
_chemical_formula_sum "Si O2"
_cell_formula_units_Z 48
_cell_length_a 5.016591
_cell_length_b 15.825130
_cell_length_c 29.577728
_cell_angle_alpha 90.000000
_cell_angle_beta 90.000000
_cell_angle_gamma 90.000000
_cell_volume 2348.122726
_symmetry_space_group_name_H-M "P B A M"
_symmetry_group_IT_number 55
_symmetry_cell_setting 'orthorhombic'
loop_
_space_group_symop_operation_xyz
x,y,z
-x,-y,z
1/2+x,1/2-y,-z
1/2-x,1/2+y,-z
-x,-y,-z
x,y,-z
1/2-x,1/2+y,z
1/2+x,1/2-y,z
loop_
_atom_site_type_symbol
_atom_site_label
_atom_site_fract_x
_atom_site_fract_y
_atom_site_fract_z
Si Si1 0.533230 0.900193 0.314834
Si Si2 0.767161 0.696733 0.000000
Si Si3 0.463589 0.401419 0.734636
Si Si4 0.130269 0.308011 0.097028
Si Si5 0.652084 0.806996 0.596227
Si Si6 0.755485 0.056463 0.171683
Si Si7 0.542159 0.804116 0.500000
O O1 0.254250 0.859622 0.298825
O O2 0.603692 0.876933 0.365893
O O3 0.751731 0.862132 0.279331
O O4 0.500000 0.000000 0.311267
O O5 0.837703 0.648875 0.046966
O O6 0.953896 0.780996 0.000000
O O7 0.500000 0.500000 0.725137
O O8 0.369103 0.388431 0.786344
O O9 0.840018 0.267721 0.103463
O O10 0.160954 0.381789 0.132756
O O11 0.950232 0.771714 0.600894
O O12 0.610706 0.852704 0.546991
O O13 0.500000 0.000000 0.187123
O O14 0.000000 0.000000 0.153185
O O15 0.730696 0.720230 0.500000
#
# Coordination Sequence:
#
# PCOD8225157 Si02
#       7
#     8   4   8   8   8   8   4
#     4  10  19  33  52  73  96 129 169 205 241 293
#     4   8  16  32  54  74 102 142 176 204 258 330
#     4   9  18  33  52  70  97 136 169 195 245 312
#     4  10  20  36  56  80 107 140 178 219 264 315
#     4  10  19  33  51  74 100 129 163 204 249 297
#     4  11  21  36  56  79 106 141 180 219 261 314
#     4   8  16  30  49  68  95 132 162 188 242 312
#
# _framework density 20.441863999999999
#
# number of rings (size 3 to 8) (size 9 to 14) (size 15 to 20)
#    0.000    2.333    0.000    4.500    0.000    0.000 
#    0.000    6.250    0.000    0.000    0.000   10.500 
#    0.000    0.000    0.000    0.000    0.000    0.000 
#
# Total GULP energy -594695.239023 kJ/mol
# GULP energy per Si atom -12389.484146 kJ/mol
# Density = 2.039534 g / cm^3
# Si number density = 20.441864 Si / 1000 Ang^3
#
#
#
# Elastic Constant Matrix: (Units=GPa)
#
#
# Indices 1 2 3 4 5 6 
#
# 1 95.9352 7.3941 26.6828 0.0000 0.0000 0.0000
# 2 7.3941 17.1407 27.6397 0.0000 0.0000 0.0000
# 3 26.6828 27.6397 165.8487 0.0000 0.0000 0.0000
# 4 0.0000 0.0000 0.0000 27.1356 0.0000 0.0000
# 5 0.0000 0.0000 0.0000 0.0000 32.0945 0.0000
# 6 0.0000 0.0000 0.0000 0.0000 0.0000 17.7206
#
#
#
# Elastic Compliance Matrix: (Units=1/GPa)
#
#
# Indices 1 2 3 4 5 6 
#
# 1 0.010995 -0.002585 -0.001338 0.000000 0.000000 0.000000
# 2 -0.002585 0.080388 -0.012981 0.000000 0.000000 0.000000
# 3 -0.001338 -0.012981 0.008408 0.000000 0.000000 0.000000
# 4 0.000000 0.000000 0.000000 0.036852 0.000000 0.000000
# 5 0.000000 0.000000 0.000000 0.000000 0.031158 0.000000
# 6 0.000000 0.000000 0.000000 0.000000 0.000000 0.056432
#
#
# Mechanical properties :
#
#
# Convention : Reuss Voigt Hill
#
# Bulk Modulus (GPa) = 15.15559 44.70643 29.93101
# Shear Modulus (GPa) = 17.85481 29.87067 23.86274
#
# Velocity S-wave (km/s) = 2.95861 3.82678 3.42035
# Velocity P-wave (km/s) = 4.37050 6.43763 5.50202
#
# Compressibility (1/GPa) = 0.06598224
#
# Stress axis : x y z
#
# Youngs Moduli (GPa) = 90.94929 12.43964 118.93048
#
# Poissons Ratio (x) = 0.03216 0.15914
# Poissons Ratio (y) = 0.23514 1.54386
# Poissons Ratio (z) = 0.12170 0.16148
#
# Static dielectric constant tensor:
#      x y z
#    x 4.266470 0.000000 0.000000 
#    y 0.000000 2.939560 0.000000 
#    z 0.000000 0.000000 4.053160 
# 
# 
# High freq. dielectric constant tensor:
#      x y z
#    x 1.832190 0.000000 0.000000 
#    y 0.000000 1.717900 0.000000 
#    z 0.000000 0.000000 1.819760 
# 
# From -- ./inp_files/23815.got.cif
#   From: 2010.03.12/outbox.cif.g09.slc.cpg/sg55_12_cif.got.tgz:23815.got - 2010.04.16 15:19:21.
