data_PCOD8225121
_publ_section_title
;
Structure prediction by ZEFSAII (Michael W. Deem and Ramdas Pophale) SiO2 
 PCOD8225121
Probable space group: P B A M
;
_chemical_formula_sum "Si O2"
_cell_formula_units_Z 64
_cell_length_a 25.077147
_cell_length_b 14.898318
_cell_length_c 8.955635
_cell_angle_alpha 90.000000
_cell_angle_beta 90.000000
_cell_angle_gamma 90.000000
_cell_volume 3345.890707
_symmetry_space_group_name_H-M "P B A M"
_symmetry_group_IT_number 55
_symmetry_cell_setting 'orthorhombic'
loop_
_space_group_symop_operation_xyz
x,y,z
-x,-y,z
1/2+x,1/2-y,-z
1/2-x,1/2+y,-z
-x,-y,-z
x,y,-z
1/2-x,1/2+y,z
1/2+x,1/2-y,z
loop_
_atom_site_type_symbol
_atom_site_label
_atom_site_fract_x
_atom_site_fract_y
_atom_site_fract_z
Si Si1 0.940818 0.333193 0.675757
Si Si2 0.344441 0.285026 0.676190
Si Si3 0.113974 0.485850 0.325098
Si Si4 0.559112 0.198877 0.677457
Si Si5 0.237587 0.259956 0.828649
Si Si6 0.670037 0.511163 0.323439
Si Si7 0.367311 0.657694 0.822755
Si Si8 0.778207 0.532711 0.172486
O O1 0.942176 0.320375 0.500000
O O2 0.895899 0.266353 0.742526
O O3 0.928083 0.436363 0.715546
O O4 0.998761 0.307920 0.739386
O O5 0.341455 0.275713 0.500000
O O6 0.291141 0.238048 0.738343
O O7 0.347851 0.389001 0.725275
O O8 0.127540 0.485359 0.500000
O O9 0.089611 0.391339 0.273426
O O10 0.167508 0.508599 0.235450
O O11 0.561267 0.211159 0.500000
O O12 0.584748 0.284415 0.756281
O O13 0.189227 0.198887 0.770659
O O14 0.219192 0.361313 0.802204
O O15 0.250322 0.240234 0.000000
O O16 0.668807 0.498537 0.500000
O O17 0.629025 0.442088 0.246180
O O18 0.729159 0.490494 0.262884
O O19 0.372935 0.654921 0.000000
O O20 0.771292 0.506194 0.000000
#
# Coordination Sequence:
#
# PCOD8225121 Si02
#       8
#     8   8   8   8   8   8   8   8
#     4   9  19  36  57  82 110 145 187 234 283 330
#     4   9  19  36  57  80 109 142 183 233 279 326
#     4  10  19  32  54  84 114 147 185 227 273 332
#     4  10  20  36  58  82 112 148 189 233 278 331
#     4   9  19  34  52  75 108 145 178 218 271 330
#     4  10  21  36  55  81 110 144 187 233 280 334
#     4  11  22  37  56  81 112 148 187 231 282 335
#     4  10  19  34  53  78 114 150 179 219 273 331
#
# _framework density 19.127941
#
# number of rings (size 3 to 8) (size 9 to 14) (size 15 to 20)
#    0.000    2.250    1.250    1.500    1.750    3.500 
#    0.000    1.875    0.000    5.250    0.000    0.000 
#    0.000    0.000    0.000    0.000    0.000    0.000 
#
# Total GULP energy -793718.656197 kJ/mol
# GULP energy per Si atom -12401.854003 kJ/mol
# Density = 1.908440 g / cm^3
# Si number density = 19.127941 Si / 1000 Ang^3
#
#
#
# Elastic Constant Matrix: (Units=GPa)
#
#
# Indices 1 2 3 4 5 6 
#
# 1 108.5308 31.6939 25.4488 0.0000 0.0000 0.0000
# 2 31.6939 45.9171 16.2385 0.0000 0.0000 0.0000
# 3 25.4488 16.2385 42.7781 0.0000 0.0000 0.0000
# 4 0.0000 0.0000 0.0000 19.8739 0.0000 0.0000
# 5 0.0000 0.0000 0.0000 0.0000 12.1813 0.0000
# 6 0.0000 0.0000 0.0000 0.0000 0.0000 30.7506
#
#
#
# Elastic Compliance Matrix: (Units=1/GPa)
#
#
# Indices 1 2 3 4 5 6 
#
# 1 0.012318 -0.006828 -0.004737 0.000000 0.000000 0.000000
# 2 -0.006828 0.028940 -0.006924 0.000000 0.000000 0.000000
# 3 -0.004737 -0.006924 0.028822 0.000000 0.000000 0.000000
# 4 0.000000 0.000000 0.000000 0.050317 0.000000 0.000000
# 5 0.000000 0.000000 0.000000 0.000000 0.082093 0.000000
# 6 0.000000 0.000000 0.000000 0.000000 0.000000 0.032520
#
#
# Mechanical properties :
#
#
# Convention : Reuss Voigt Hill
#
# Bulk Modulus (GPa) = 30.20705 38.22095 34.21400
# Shear Modulus (GPa) = 17.66651 20.81747 19.24199
#
# Velocity S-wave (km/s) = 3.04237 3.30256 3.17513
# Velocity P-wave (km/s) = 5.30733 5.87943 5.60069
#
# Compressibility (1/GPa) = 0.03310486
#
# Stress axis : x y z
#
# Youngs Moduli (GPa) = 81.17879 34.55461 34.69518
#
# Poissons Ratio (x) = 0.23593 0.16433
# Poissons Ratio (y) = 0.55426 0.24022
# Poissons Ratio (z) = 0.38451 0.23925
#
# Static dielectric constant tensor:
#      x y z
#    x 3.616870 0.000000 0.000000 
#    y 0.000000 3.588200 0.000000 
#    z 0.000000 0.000000 3.277050 
# 
# 
# High freq. dielectric constant tensor:
#      x y z
#    x 1.737760 0.000000 0.000000 
#    y 0.000000 1.749200 0.000000 
#    z 0.000000 0.000000 1.725970 
# 
# From -- ./inp_files/6658.got.cif
#   From: 2010.03.12/outbox.cif.g09.slc.cpg/sg55_4_cif.got.tgz:6658.got - 2010.04.16 15:19:21.
