data_PCOD8225906
_publ_section_title
;
Structure prediction by ZEFSAII (Michael W. Deem and Ramdas Pophale) SiO2 
 PCOD8225906
Probable space group: P B A M
;
_chemical_formula_sum "Si O2"
_cell_formula_units_Z 64
_cell_length_a 16.635526
_cell_length_b 21.339988
_cell_length_c 9.051867
_cell_angle_alpha 90.000000
_cell_angle_beta 90.000000
_cell_angle_gamma 90.000000
_cell_volume 3213.430212
_symmetry_space_group_name_H-M "P B A M"
_symmetry_group_IT_number 55
_symmetry_cell_setting 'orthorhombic'
loop_
_space_group_symop_operation_xyz
x,y,z
-x,-y,z
1/2+x,1/2-y,-z
1/2-x,1/2+y,-z
-x,-y,-z
x,y,-z
1/2-x,1/2+y,z
1/2+x,1/2-y,z
loop_
_atom_site_type_symbol
_atom_site_label
_atom_site_fract_x
_atom_site_fract_y
_atom_site_fract_z
Si Si1 0.087680 0.257746 0.173130
Si Si2 0.363039 0.407470 0.674320
Si Si3 0.328183 0.077764 0.326586
Si Si4 0.824658 0.964295 0.171015
Si Si5 0.473660 0.623795 0.170178
Si Si6 0.403863 0.945033 0.332452
Si Si7 0.470808 0.132039 0.174259
Si Si8 0.785565 0.668347 0.666722
O O1 0.065280 0.188471 0.227049
O O2 0.174848 0.276822 0.236613
O O3 0.017840 0.305362 0.225786
O O4 0.097680 0.260510 0.000000
O O5 0.362243 0.421259 0.500000
O O6 0.328213 0.468066 0.755165
O O7 0.451656 0.391640 0.727200
O O8 0.306211 0.347623 0.712481
O O9 0.318359 0.089699 0.500000
O O10 0.241008 0.079447 0.250857
O O11 0.384266 0.131711 0.255048
O O12 0.369241 0.011877 0.287929
O O13 0.910777 0.931938 0.188913
O O14 0.801154 0.971750 0.000000
O O15 0.501931 0.629754 0.000000
O O16 0.436995 0.944930 0.500000
O O17 0.477906 0.928306 0.225928
O O18 0.332333 0.896385 0.312160
O O19 0.457765 0.129722 0.000000
O O20 0.789684 0.692685 0.500000
#
# Coordination Sequence:
#
# PCOD8225906 Si02
#       8
#     8   8   8   8   8   8   8   8
#     4   9  20  40  61  82 114 154 197 239 286 342
#     4  11  22  39  63  92 121 151 192 240 295 355
#     4  11  21  35  54  80 117 155 191 232 292 353
#     4  11  23  39  61  87 118 152 194 246 297 348
#     4  10  23  43  62  85 116 154 197 244 294 344
#     4   9  17  32  52  76 112 152 186 228 284 344
#     4  10  20  33  53  83 113 148 194 238 284 343
#     4   9  18  35  58  85 117 150 189 235 282 342
#
# _framework density 19.916412999999999
#
# number of rings (size 3 to 8) (size 9 to 14) (size 15 to 20)
#    0.000    2.000    1.250    2.250    0.000    7.000 
#    2.250    0.000    0.000    0.000    0.000    0.000 
#    0.000    0.000    0.000    0.000    0.000    0.000 
#
# Total GULP energy -793723.579737 kJ/mol
# GULP energy per Si atom -12401.930933 kJ/mol
# Density = 1.987108 g / cm^3
# Si number density = 19.916413 Si / 1000 Ang^3
#
#
#
# Elastic Constant Matrix: (Units=GPa)
#
#
# Indices 1 2 3 4 5 6 
#
# 1 108.7152 18.6699 54.5961 0.0000 0.0000 0.0000
# 2 18.6699 48.8903 25.0280 0.0000 0.0000 0.0000
# 3 54.5961 25.0280 91.9965 0.0000 0.0000 0.0000
# 4 0.0000 0.0000 0.0000 15.2894 0.0000 0.0000
# 5 0.0000 0.0000 0.0000 0.0000 39.5013 0.0000
# 6 0.0000 0.0000 0.0000 0.0000 0.0000 15.9469
#
#
#
# Elastic Compliance Matrix: (Units=1/GPa)
#
#
# Indices 1 2 3 4 5 6 
#
# 1 0.013163 -0.001194 -0.007487 0.000000 0.000000 0.000000
# 2 -0.001194 0.023872 -0.005786 0.000000 0.000000 0.000000
# 3 -0.007487 -0.005786 0.016887 0.000000 0.000000 0.000000
# 4 0.000000 0.000000 0.000000 0.065405 0.000000 0.000000
# 5 0.000000 0.000000 0.000000 0.000000 0.025316 0.000000
# 6 0.000000 0.000000 0.000000 0.000000 0.000000 0.062708
#
#
# Mechanical properties :
#
#
# Convention : Reuss Voigt Hill
#
# Bulk Modulus (GPa) = 40.01809 49.57668 44.79739
# Shear Modulus (GPa) = 20.44036 24.23472 22.33754
#
# Velocity S-wave (km/s) = 3.20708 3.49208 3.35261
# Velocity P-wave (km/s) = 5.81811 6.41918 6.12603
#
# Compressibility (1/GPa) = 0.02498870
#
# Stress axis : x y z
#
# Youngs Moduli (GPa) = 75.96849 41.89041 59.21601
#
# Poissons Ratio (x) = 0.05001 0.44336
# Poissons Ratio (y) = 0.09070 0.34262
# Poissons Ratio (z) = 0.56878 0.24237
#
# Static dielectric constant tensor:
#      x y z
#    x 3.785440 0.000000 0.000000 
#    y 0.000000 3.582890 0.000000 
#    z 0.000000 0.000000 3.597640 
# 
# 
# High freq. dielectric constant tensor:
#      x y z
#    x 1.784160 0.000000 0.000000 
#    y 0.000000 1.761770 0.000000 
#    z 0.000000 0.000000 1.776600 
# 
# From -- ./inp_files/6616.got.cif
#   From: 2010.03.12/outbox.cif.g09.slc.cpg/sg55_4_cif.got.tgz:6616.got - 2010.04.16 15:19:21.
