data_PCOD8225084
_publ_section_title
;
Structure prediction by ZEFSAII (Michael W. Deem and Ramdas Pophale) SiO2 
 PCOD8225084
Probable space group: P B A M
;
_chemical_formula_sum "Si O2"
_cell_formula_units_Z 64
_cell_length_a 23.035255
_cell_length_b 15.866125
_cell_length_c 9.296549
_cell_angle_alpha 90.000000
_cell_angle_beta 90.000000
_cell_angle_gamma 90.000000
_cell_volume 3397.704915
_symmetry_space_group_name_H-M "P B A M"
_symmetry_group_IT_number 55
_symmetry_cell_setting 'orthorhombic'
loop_
_space_group_symop_operation_xyz
x,y,z
-x,-y,z
1/2+x,1/2-y,-z
1/2-x,1/2+y,-z
-x,-y,-z
x,y,-z
1/2-x,1/2+y,z
1/2+x,1/2-y,z
loop_
_atom_site_type_symbol
_atom_site_label
_atom_site_fract_x
_atom_site_fract_y
_atom_site_fract_z
Si Si1 0.928334 0.755583 0.328281
Si Si2 0.656567 0.963335 0.340830
Si Si3 0.987085 0.093210 0.670777
Si Si4 0.955168 0.568466 0.666141
Si Si5 0.756509 0.599893 0.341059
Si Si6 0.314028 0.190627 0.166172
Si Si7 0.134700 0.842871 0.334713
Si Si8 0.309590 0.755124 0.831831
O O1 0.919971 0.752994 0.500000
O O2 0.956100 0.665429 0.274109
O O3 0.866019 0.773348 0.256180
O O4 0.968675 0.833532 0.278012
O O5 0.645091 0.923799 0.500000
O O6 0.656397 0.895283 0.216343
O O7 0.609331 0.034737 0.307101
O O8 0.719627 0.005718 0.337384
O O9 0.988395 0.088519 0.500000
O O10 0.923338 0.116246 0.729259
O O11 0.000000 0.000000 0.734815
O O12 0.972125 0.574647 0.500000
O O13 0.000000 0.500000 0.738366
O O14 0.768075 0.640763 0.500000
O O15 0.687616 0.591592 0.314673
O O16 0.788480 0.653289 0.218861
O O17 0.349806 0.259963 0.249553
O O18 0.244820 0.192345 0.199148
O O19 0.326081 0.203986 0.000000
O O20 0.124670 0.817498 0.500000
O O21 0.325024 0.758860 0.000000
#
# Coordination Sequence:
#
# PCOD8225084 Si02
#       8
#     8   8   8   8   8   8   8   8
#     4  10  19  34  58  81 109 146 183 227 272 320
#     4  10  19  32  53  81 111 140 179 222 267 324
#     4   9  19  34  55  86 113 137 179 231 279 325
#     4   9  18  31  51  80 113 145 181 220 265 326
#     4   9  17  32  54  80 108 137 176 224 268 319
#     4  10  22  36  51  77 111 144 179 221 270 326
#     4   9  18  34  57  79 106 142 180 221 273 323
#     4  10  20  35  53  75 106 142 181 221 269 323
#
# _framework density 18.836245000000002
#
# number of rings (size 3 to 8) (size 9 to 14) (size 15 to 20)
#    0.000    2.500    1.250    0.750    1.750    3.000 
#    0.000    3.125    0.000    2.250    0.000    0.000 
#    0.000    0.000    0.000    0.000    0.000    0.000 
#
# Total GULP energy -793127.689410 kJ/mol
# GULP energy per Si atom -12392.620147 kJ/mol
# Density = 1.879337 g / cm^3
# Si number density = 18.836245 Si / 1000 Ang^3
#
#
#
# Elastic Constant Matrix: (Units=GPa)
#
#
# Indices 1 2 3 4 5 6 
#
# 1 133.8225 67.1645 37.2139 0.0000 0.0000 0.0000
# 2 67.1645 122.3366 30.3859 0.0000 0.0000 0.0000
# 3 37.2139 30.3859 46.1200 0.0000 0.0000 0.0000
# 4 0.0000 0.0000 0.0000 -13.4878 0.0000 0.0000
# 5 0.0000 0.0000 0.0000 0.0000 17.5888 0.0000
# 6 0.0000 0.0000 0.0000 0.0000 0.0000 23.4990
#
#
#
# Elastic Compliance Matrix: (Units=1/GPa)
#
#
# Indices 1 2 3 4 5 6 
#
# 1 0.011625 -0.004845 -0.006188 0.000000 0.000000 0.000000
# 2 -0.004845 0.011793 -0.003860 0.000000 0.000000 0.000000
# 3 -0.006188 -0.003860 0.029219 0.000000 0.000000 0.000000
# 4 0.000000 0.000000 0.000000 -0.074141 0.000000 0.000000
# 5 0.000000 0.000000 0.000000 0.000000 0.056854 0.000000
# 6 0.000000 0.000000 0.000000 0.000000 0.000000 0.042555
#
#
# Mechanical properties :
#
#
# Convention : Reuss Voigt Hill
#
# Bulk Modulus (GPa) = 43.76325 63.53417 53.64871
# Shear Modulus (GPa) = 43.36163 16.68764 30.02464
#
# Velocity S-wave (km/s) = 4.80315 2.97969 3.99680
# Velocity P-wave (km/s) = 7.35149 6.75582 7.05994
#
# Compressibility (1/GPa) = 0.02285022
#
# Stress axis : x y z
#
# Youngs Moduli (GPa) = 86.01967 84.79481 34.22457
#
# Poissons Ratio (x) = 0.41087 0.21178
# Poissons Ratio (y) = 0.41681 0.13211
# Poissons Ratio (z) = 0.53228 0.32732
#
# Static dielectric constant tensor:
#      x y z
#    x 3.631490 0.000000 0.000000 
#    y 0.000000 3.485440 0.000000 
#    z 0.000000 0.000000 3.180860 
# 
# 
# High freq. dielectric constant tensor:
#      x y z
#    x 1.741310 0.000000 0.000000 
#    y 0.000000 1.722780 0.000000 
#    z 0.000000 0.000000 1.694830 
# 
# From -- ./inp_files/9801.got.cif
#   From: 2010.03.12/outbox.cif.g09.slc.cpg/sg55_5_cif.got.tgz:9801.got - 2010.04.16 15:19:21.
