data_PCOD8225331
_publ_section_title
;
Structure prediction by ZEFSAII (Michael W. Deem and Ramdas Pophale) SiO2 
 PCOD8225331
Probable space group: P B A M
;
_chemical_formula_sum "Si O2"
_cell_formula_units_Z 64
_cell_length_a 15.848936
_cell_length_b 19.341175
_cell_length_c 10.875039
_cell_angle_alpha 90.000000
_cell_angle_beta 90.000000
_cell_angle_gamma 90.000000
_cell_volume 3333.602316
_symmetry_space_group_name_H-M "P B A M"
_symmetry_group_IT_number 55
_symmetry_cell_setting 'orthorhombic'
loop_
_space_group_symop_operation_xyz
x,y,z
-x,-y,z
1/2+x,1/2-y,-z
1/2-x,1/2+y,-z
-x,-y,-z
x,y,-z
1/2-x,1/2+y,z
1/2+x,1/2-y,z
loop_
_atom_site_type_symbol
_atom_site_label
_atom_site_fract_x
_atom_site_fract_y
_atom_site_fract_z
Si Si1 0.311205 0.055247 0.736207
Si Si2 0.969763 0.252867 0.776562
Si Si3 0.639346 0.223902 0.641200
Si Si4 0.803825 0.295020 0.359699
Si Si5 0.022346 0.898603 0.859688
Si Si6 0.135230 0.020131 0.854661
Si Si7 0.528876 0.900918 0.863979
Si Si8 0.593067 0.071338 0.360191
O O1 0.299474 0.122672 0.652779
O O2 0.223363 0.031408 0.789812
O O3 0.375203 0.073646 0.847213
O O4 0.345709 0.993691 0.650937
O O5 0.889687 0.263948 0.691186
O O6 0.956668 0.181759 0.848156
O O7 0.976816 0.317739 0.868328
O O8 0.054871 0.245733 0.699508
O O9 0.634691 0.245364 0.500000
O O10 0.721867 0.259023 0.703831
O O11 0.646033 0.141325 0.659359
O O12 0.803271 0.273326 0.500000
O O13 0.930292 0.920450 0.807520
O O14 0.097978 0.946313 0.806766
O O15 0.017475 0.920431 0.000000
O O16 0.151598 0.022522 0.000000
O O17 0.477644 0.932220 0.747502
O O18 0.497107 0.926228 0.000000
O O19 0.553111 0.071360 0.500000
#
# Coordination Sequence:
#
# PCOD8225331 Si02
#       8
#     8   8   8   8   8   8   8   8
#     4  11  21  33  56  81 111 144 188 233 277 337
#     4  10  19  33  58  79 106 145 186 231 284 334
#     4   9  19  36  54  77 108 142 185 232 281 335
#     4  10  21  35  54  80 109 145 187 233 285 340
#     4   9  18  34  55  78 109 145 184 226 278 343
#     4   9  19  34  53  80 110 146 184 227 283 339
#     4  10  22  37  54  82 115 147 186 234 286 332
#     4  10  22  38  58  81 111 150 191 233 281 340
#
# _framework density 19.198450999999999
#
# number of rings (size 3 to 8) (size 9 to 14) (size 15 to 20)
#    0.000    2.250    0.000    3.375    1.750    5.500 
#    0.000    0.000    0.000    3.750    0.000    5.250 
#    0.000    0.000    0.000    0.000    0.000    0.000 
#
# Total GULP energy -793161.622626 kJ/mol
# GULP energy per Si atom -12393.150354 kJ/mol
# Density = 1.915475 g / cm^3
# Si number density = 19.198451 Si / 1000 Ang^3
#
#
#
# Elastic Constant Matrix: (Units=GPa)
#
#
# Indices 1 2 3 4 5 6 
#
# 1 145.1081 52.6373 46.0566 0.0000 0.0000 0.0000
# 2 52.6373 117.4551 15.6481 0.0000 0.0000 0.0000
# 3 46.0566 15.6481 85.4913 0.0000 0.0000 0.0000
# 4 0.0000 0.0000 0.0000 6.6191 0.0000 0.0000
# 5 0.0000 0.0000 0.0000 0.0000 16.5084 0.0000
# 6 0.0000 0.0000 0.0000 0.0000 0.0000 31.8196
#
#
#
# Elastic Compliance Matrix: (Units=1/GPa)
#
#
# Indices 1 2 3 4 5 6 
#
# 1 0.009686 -0.003737 -0.004534 0.000000 0.000000 0.000000
# 2 -0.003737 0.010168 0.000152 0.000000 0.000000 0.000000
# 3 -0.004534 0.000152 0.014112 0.000000 0.000000 0.000000
# 4 0.000000 0.000000 0.000000 0.151077 0.000000 0.000000
# 5 0.000000 0.000000 0.000000 0.000000 0.060575 0.000000
# 6 0.000000 0.000000 0.000000 0.000000 0.000000 0.031427
#
#
# Mechanical properties :
#
#
# Convention : Reuss Voigt Hill
#
# Bulk Modulus (GPa) = 56.40702 64.08206 60.24454
# Shear Modulus (GPa) = 16.71162 26.57026 21.64094
#
# Velocity S-wave (km/s) = 2.95357 3.72422 3.36106
# Velocity P-wave (km/s) = 6.40907 7.20724 6.81985
#
# Compressibility (1/GPa) = 0.01772829
#
# Stress axis : x y z
#
# Youngs Moduli (GPa) = 103.24173 98.34534 70.86175
#
# Poissons Ratio (x) = 0.36749 0.32130
# Poissons Ratio (y) = 0.38578 -0.01076
# Poissons Ratio (z) = 0.46812 -0.01494
#
# Static dielectric constant tensor:
#      x y z
#    x 3.649090 0.000000 0.000000 
#    y 0.000000 3.665440 0.000000 
#    z 0.000000 0.000000 3.236270 
# 
# 
# High freq. dielectric constant tensor:
#      x y z
#    x 1.750070 0.000000 0.000000 
#    y 0.000000 1.762990 0.000000 
#    z 0.000000 0.000000 1.723730 
# 
# From -- ./inp_files/14415.got.cif
#   From: 2010.03.12/outbox.cif.g09.slc.cpg/sg55_8_cif.got.tgz:14415.got - 2010.04.16 15:19:21.
