data_PCOD8225662
_publ_section_title
;
Structure prediction by ZEFSAII (Michael W. Deem and Ramdas Pophale) SiO2 
 PCOD8225662
Probable space group: P B A M
;
_chemical_formula_sum "Si O2"
_cell_formula_units_Z 56
_cell_length_a 19.864975
_cell_length_b 15.996391
_cell_length_c 9.041621
_cell_angle_alpha 90.000000
_cell_angle_beta 90.000000
_cell_angle_gamma 90.000000
_cell_volume 2873.136984
_symmetry_space_group_name_H-M "P B A M"
_symmetry_group_IT_number 55
_symmetry_cell_setting 'orthorhombic'
loop_
_space_group_symop_operation_xyz
x,y,z
-x,-y,z
1/2+x,1/2-y,-z
1/2-x,1/2+y,-z
-x,-y,-z
x,y,-z
1/2-x,1/2+y,z
1/2+x,1/2-y,z
loop_
_atom_site_type_symbol
_atom_site_label
_atom_site_fract_x
_atom_site_fract_y
_atom_site_fract_z
Si Si1 0.634242 0.790550 0.171544
Si Si2 0.882718 0.633347 0.324781
Si Si3 0.984758 0.753265 0.173206
Si Si4 0.197085 0.062283 0.674309
Si Si5 0.736783 0.251836 0.328028
Si Si6 0.669864 0.977408 0.174711
Si Si7 0.560269 0.439002 0.827002
O O1 0.562730 0.753249 0.218117
O O2 0.691832 0.736345 0.250553
O O3 0.639156 0.887606 0.217632
O O4 0.647629 0.780052 0.000000
O O5 0.888142 0.622184 0.500000
O O6 0.946685 0.684312 0.268601
O O7 0.815023 0.681342 0.276364
O O8 0.881532 0.543948 0.244852
O O9 0.959403 0.844921 0.217008
O O10 0.974175 0.734496 0.000000
O O11 0.200492 0.045852 0.500000
O O12 0.205181 0.159312 0.717320
O O13 0.125628 0.031658 0.736584
O O14 0.256630 0.010424 0.752308
O O15 0.750569 0.247804 0.500000
O O16 0.675401 0.990571 0.000000
O O17 0.500000 0.500000 0.780680
O O18 0.576375 0.446541 0.000000
#
# Coordination Sequence:
#
# PCOD8225662 Si02
#       7
#     8   8   8   8   8   8   8
#     4   9  20  37  57  82 113 150 195 239 283 340
#     4  11  22  37  57  85 116 149 194 238 288 350
#     4  10  21  38  58  81 113 154 193 234 288 346
#     4  10  19  36  58  81 111 146 186 234 288 342
#     4   9  19  35  56  80 109 145 187 234 284 341
#     4  10  21  37  57  83 112 148 193 241 289 336
#     4  10  21  36  56  84 117 151 191 238 290 348
#
# _framework density 19.49089
#
# number of rings (size 3 to 8) (size 9 to 14) (size 15 to 20)
#    0.000    2.143    1.429    1.286    0.000    4.857 
#    0.000    4.286    0.000    0.000    0.000    0.000 
#    0.000    0.000    0.000    0.000    0.000    0.000 
#
# Total GULP energy -694634.476108 kJ/mol
# GULP energy per Si atom -12404.187073 kJ/mol
# Density = 1.944653 g / cm^3
# Si number density = 19.490890 Si / 1000 Ang^3
#
#
#
# Elastic Constant Matrix: (Units=GPa)
#
#
# Indices 1 2 3 4 5 6 
#
# 1 82.7850 -1.9084 23.5163 0.0000 0.0000 0.0000
# 2 -1.9084 20.6213 4.4548 0.0000 0.0000 0.0000
# 3 23.5163 4.4548 51.0073 0.0000 0.0000 0.0000
# 4 0.0000 0.0000 0.0000 24.8153 0.0000 0.0000
# 5 0.0000 0.0000 0.0000 0.0000 31.4441 0.0000
# 6 0.0000 0.0000 0.0000 0.0000 0.0000 31.4342
#
#
#
# Elastic Compliance Matrix: (Units=1/GPa)
#
#
# Indices 1 2 3 4 5 6 
#
# 1 0.014051 0.002752 -0.006719 0.000000 0.000000 0.000000
# 2 0.002752 0.049965 -0.005632 0.000000 0.000000 0.000000
# 3 -0.006719 -0.005632 0.023194 0.000000 0.000000 0.000000
# 4 0.000000 0.000000 0.000000 0.040298 0.000000 0.000000
# 5 0.000000 0.000000 0.000000 0.000000 0.031802 0.000000
# 6 0.000000 0.000000 0.000000 0.000000 0.000000 0.031813
#
#
# Mechanical properties :
#
#
# Convention : Reuss Voigt Hill
#
# Bulk Modulus (GPa) = 14.70317 22.94877 18.82597
# Shear Modulus (GPa) = 21.45988 26.09544 23.77766
#
# Velocity S-wave (km/s) = 3.32176 3.66300 3.49655
# Velocity P-wave (km/s) = 4.71934 5.44883 5.09715
#
# Compressibility (1/GPa) = 0.06801252
#
# Stress axis : x y z
#
# Youngs Moduli (GPa) = 71.16710 20.01399 43.11370
#
# Poissons Ratio (x) = -0.05507 0.28966
# Poissons Ratio (y) = -0.19584 0.24283
# Poissons Ratio (z) = 0.47814 0.11273
#
# Static dielectric constant tensor:
#      x y z
#    x 3.615410 0.000000 0.000000 
#    y 0.000000 3.533800 0.000000 
#    z 0.000000 0.000000 3.475410 
# 
# 
# High freq. dielectric constant tensor:
#      x y z
#    x 1.764480 0.000000 0.000000 
#    y 0.000000 1.752770 0.000000 
#    z 0.000000 0.000000 1.757150 
# 
# From -- ./inp_files/8670.got.cif
#   From: 2010.03.12/outbox.cif.g09.slc.cpg/sg55_5_cif.got.tgz:8670.got - 2010.04.16 15:19:21.
