data_PCOD8225467
_publ_section_title
;
Structure prediction by ZEFSAII (Michael W. Deem and Ramdas Pophale) SiO2 
 PCOD8225467
Probable space group: P B A M
;
_chemical_formula_sum "Si O2"
_cell_formula_units_Z 64
_cell_length_a 21.968067
_cell_length_b 15.687454
_cell_length_c 9.284100
_cell_angle_alpha 90.000000
_cell_angle_beta 90.000000
_cell_angle_gamma 90.000000
_cell_volume 3199.514771
_symmetry_space_group_name_H-M "P B A M"
_symmetry_group_IT_number 55
_symmetry_cell_setting 'orthorhombic'
loop_
_space_group_symop_operation_xyz
x,y,z
-x,-y,z
1/2+x,1/2-y,-z
1/2-x,1/2+y,-z
-x,-y,-z
x,y,-z
1/2-x,1/2+y,z
1/2+x,1/2-y,z
loop_
_atom_site_type_symbol
_atom_site_label
_atom_site_fract_x
_atom_site_fract_y
_atom_site_fract_z
Si Si1 0.758515 0.828573 0.842808
Si Si2 0.523486 0.229949 0.666236
Si Si3 0.663041 0.901105 0.661126
Si Si4 0.837546 0.709472 0.333589
Si Si5 0.046095 0.076642 0.667314
Si Si6 0.160294 0.015279 0.842900
Si Si7 0.752318 0.561673 0.658524
Si Si8 0.957687 0.418809 0.170813
O O1 0.695961 0.824371 0.749341
O O2 0.814678 0.786415 0.761782
O O3 0.781920 0.923958 0.866323
O O4 0.745719 0.786979 0.000000
O O5 0.504039 0.216547 0.500000
O O6 0.591402 0.196311 0.693019
O O7 0.517588 0.330659 0.707716
O O8 0.482260 0.171350 0.768538
O O9 0.643185 0.871195 0.500000
O O10 0.606038 0.936567 0.750603
O O11 0.714416 0.971958 0.646821
O O12 0.825044 0.730610 0.500000
O O13 0.801331 0.627188 0.277481
O O14 0.065084 0.077716 0.500000
O O15 0.106055 0.061203 0.759402
O O16 0.000000 0.000000 0.701712
O O17 0.190027 0.937657 0.752257
O O18 0.136816 0.983960 0.000000
O O19 0.731557 0.591201 0.500000
O O20 0.000000 0.500000 0.208052
O O21 0.948321 0.409939 0.000000
#
# Coordination Sequence:
#
# PCOD8225467 Si02
#       8
#     8   8   8   8   8   8   8   8
#     4  10  20  34  55  82 114 147 183 231 290 351
#     4  10  21  38  62  89 118 156 208 255 297 357
#     4  10  20  37  60  82 110 150 194 236 285 344
#     4  10  19  34  57  85 112 145 192 241 291 349
#     4  10  21  39  63  87 113 152 202 256 305 349
#     4  10  20  35  56  82 113 149 187 231 292 355
#     4   9  19  34  56  85 113 144 186 238 289 346
#     4  11  24  40  59  87 124 162 199 245 305 365
#
# _framework density 20.003034
#
# number of rings (size 3 to 8) (size 9 to 14) (size 15 to 20)
#    0.000    2.000    1.250    2.250    0.000    5.250 
#    2.250    0.000    0.000    0.000    0.000    0.000 
#    0.000    0.000    0.000    0.000    0.000    0.000 
#
# Total GULP energy -793192.762254 kJ/mol
# GULP energy per Si atom -12393.636910 kJ/mol
# Density = 1.995751 g / cm^3
# Si number density = 20.003034 Si / 1000 Ang^3
#
#
#
# Elastic Constant Matrix: (Units=GPa)
#
#
# Indices 1 2 3 4 5 6 
#
# 1 70.4082 16.2667 51.5957 0.0000 0.0000 0.0000
# 2 16.2667 67.4055 23.4158 0.0000 0.0000 0.0000
# 3 51.5957 23.4158 114.3530 0.0000 0.0000 0.0000
# 4 0.0000 0.0000 0.0000 22.2867 0.0000 0.0000
# 5 0.0000 0.0000 0.0000 0.0000 22.2472 0.0000
# 6 0.0000 0.0000 0.0000 0.0000 0.0000 34.9889
#
#
#
# Elastic Compliance Matrix: (Units=1/GPa)
#
#
# Indices 1 2 3 4 5 6 
#
# 1 0.021455 -0.001954 -0.009280 0.000000 0.000000 0.000000
# 2 -0.001954 0.016150 -0.002425 0.000000 0.000000 0.000000
# 3 -0.009280 -0.002425 0.013429 0.000000 0.000000 0.000000
# 4 0.000000 0.000000 0.000000 0.044870 0.000000 0.000000
# 5 0.000000 0.000000 0.000000 0.000000 0.044949 0.000000
# 6 0.000000 0.000000 0.000000 0.000000 0.000000 0.028581
#
#
# Mechanical properties :
#
#
# Convention : Reuss Voigt Hill
#
# Bulk Modulus (GPa) = 42.16854 48.30256 45.23555
# Shear Modulus (GPa) = 24.43113 26.63046 25.53079
#
# Velocity S-wave (km/s) = 3.49860 3.65269 3.57647
# Velocity P-wave (km/s) = 6.11941 6.47993 6.30225
#
# Compressibility (1/GPa) = 0.02371436
#
# Stress axis : x y z
#
# Youngs Moduli (GPa) = 46.60921 61.92092 74.46707
#
# Poissons Ratio (x) = 0.12098 0.69108
# Poissons Ratio (y) = 0.09106 0.18061
# Poissons Ratio (z) = 0.43255 0.15018
#
# Static dielectric constant tensor:
#      x y z
#    x 3.488530 0.000000 0.000000 
#    y 0.000000 3.544590 0.000000 
#    z 0.000000 0.000000 4.050180 
# 
# 
# High freq. dielectric constant tensor:
#      x y z
#    x 1.773360 0.000000 0.000000 
#    y 0.000000 1.762020 0.000000 
#    z 0.000000 0.000000 1.788790 
# 
# From -- ./inp_files/9707.got.cif
#   From: 2010.03.12/outbox.cif.g09.slc.cpg/sg55_5_cif.got.tgz:9707.got - 2010.04.16 15:19:21.
