data_PCOD8225748
_publ_section_title
;
Structure prediction by ZEFSAII (Michael W. Deem and Ramdas Pophale) SiO2 
 PCOD8225748
Probable space group: P B A M
;
_chemical_formula_sum "Si O2"
_cell_formula_units_Z 64
_cell_length_a 15.220234
_cell_length_b 23.432761
_cell_length_c 9.087123
_cell_angle_alpha 90.000000
_cell_angle_beta 90.000000
_cell_angle_gamma 90.000000
_cell_volume 3240.941553
_symmetry_space_group_name_H-M "P B A M"
_symmetry_group_IT_number 55
_symmetry_cell_setting 'orthorhombic'
loop_
_space_group_symop_operation_xyz
x,y,z
-x,-y,z
1/2+x,1/2-y,-z
1/2-x,1/2+y,-z
-x,-y,-z
x,y,-z
1/2-x,1/2+y,z
1/2+x,1/2-y,z
loop_
_atom_site_type_symbol
_atom_site_label
_atom_site_fract_x
_atom_site_fract_y
_atom_site_fract_z
Si Si1 0.492454 0.811245 0.673585
Si Si2 0.833980 0.882241 0.171333
Si Si3 0.347095 0.880316 0.831764
Si Si4 0.849426 0.106080 0.832018
Si Si5 0.500728 0.693074 0.170864
Si Si6 0.398450 0.504895 0.672576
Si Si7 0.338875 0.117136 0.669026
Si Si8 0.900241 0.508715 0.669084
O O1 0.480849 0.809571 0.500000
O O2 0.402388 0.834372 0.741596
O O3 0.512987 0.748690 0.731704
O O4 0.571469 0.852946 0.721324
O O5 0.859027 0.939609 0.253727
O O6 0.740990 0.859454 0.232351
O O7 0.905627 0.833682 0.202488
O O8 0.826236 0.895945 0.000000
O O9 0.244794 0.863016 0.818659
O O10 0.357080 0.944098 0.771390
O O11 0.378844 0.878935 0.000000
O O12 0.924317 0.149217 0.777010
O O13 0.848238 0.050523 0.730308
O O14 0.868672 0.087351 0.000000
O O15 0.512080 0.708989 0.000000
O O16 0.500000 0.500000 0.715143
O O17 0.382480 0.509942 0.500000
O O18 0.319524 0.132560 0.500000
O O19 0.346535 0.049341 0.690948
O O20 0.897639 0.529640 0.500000
O O21 0.000000 0.500000 0.719407
#
# Coordination Sequence:
#
# PCOD8225748 Si02
#       8
#     8   8   8   8   8   8   8   8
#     4  11  24  43  64  86 117 159 201 247 304 357
#     4  11  23  39  63  90 121 161 200 243 300 355
#     4  11  23  38  61  93 123 154 199 247 295 355
#     4  10  22  41  63  88 122 161 199 244 300 357
#     4  10  23  43  63  85 117 158 202 249 298 351
#     4  11  22  36  60  93 126 159 198 244 295 353
#     4  10  22  40  62  89 122 158 197 243 299 357
#     4  10  19  37  61  85 121 161 195 238 297 358
#
# _framework density 19.747349
#
# number of rings (size 3 to 8) (size 9 to 14) (size 15 to 20)
#    0.000    1.500    2.500    2.250    0.000    7.750 
#    0.000    3.750    0.000    0.000    0.000    0.000 
#    0.000    0.000    0.000    0.000    0.000    0.000 
#
# Total GULP energy -793995.260397 kJ/mol
# GULP energy per Si atom -12406.175944 kJ/mol
# Density = 1.970240 g / cm^3
# Si number density = 19.747349 Si / 1000 Ang^3
#
#
#
# Elastic Constant Matrix: (Units=GPa)
#
#
# Indices 1 2 3 4 5 6 
#
# 1 79.2206 5.4851 44.5301 0.0000 0.0000 0.0000
# 2 5.4851 75.2269 39.3211 0.0000 0.0000 0.0000
# 3 44.5301 39.3211 83.0645 0.0000 0.0000 0.0000
# 4 0.0000 0.0000 0.0000 38.8055 0.0000 0.0000
# 5 0.0000 0.0000 0.0000 0.0000 28.8745 0.0000
# 6 0.0000 0.0000 0.0000 0.0000 0.0000 14.8317
#
#
#
# Elastic Compliance Matrix: (Units=1/GPa)
#
#
# Indices 1 2 3 4 5 6 
#
# 1 0.019588 0.005396 -0.013055 0.000000 0.000000 0.000000
# 2 0.005396 0.019150 -0.011958 0.000000 0.000000 0.000000
# 3 -0.013055 -0.011958 0.024698 0.000000 0.000000 0.000000
# 4 0.000000 0.000000 0.000000 0.025770 0.000000 0.000000
# 5 0.000000 0.000000 0.000000 0.000000 0.034633 0.000000
# 6 0.000000 0.000000 0.000000 0.000000 0.000000 0.067423
#
#
# Mechanical properties :
#
#
# Convention : Reuss Voigt Hill
#
# Bulk Modulus (GPa) = 41.31978 46.24273 43.78125
# Shear Modulus (GPa) = 20.95891 26.38072 23.66982
#
# Velocity S-wave (km/s) = 3.26138 3.65898 3.46588
# Velocity P-wave (km/s) = 5.92889 6.42797 6.18347
#
# Compressibility (1/GPa) = 0.02420148
#
# Stress axis : x y z
#
# Youngs Moduli (GPa) = 51.05278 52.21926 40.48913
#
# Poissons Ratio (x) = -0.28175 0.52858
# Poissons Ratio (y) = -0.27546 0.48416
# Poissons Ratio (z) = 0.66649 0.62443
#
# Static dielectric constant tensor:
#      x y z
#    x 4.167960 0.000000 0.000000 
#    y 0.000000 3.437900 0.000000 
#    z 0.000000 0.000000 3.594370 
# 
# 
# High freq. dielectric constant tensor:
#      x y z
#    x 1.786830 0.000000 0.000000 
#    y 0.000000 1.761220 0.000000 
#    z 0.000000 0.000000 1.771800 
# 
# From -- ./inp_files/6606.got.cif
#   From: 2010.03.12/outbox.cif.g09.slc.cpg/sg55_4_cif.got.tgz:6606.got - 2010.04.16 15:19:21.
