data_PCOD8225356
_publ_section_title
;
Structure prediction by ZEFSAII (Michael W. Deem and Ramdas Pophale) SiO2 
 PCOD8225356
Probable space group: P B A M
;
_chemical_formula_sum "Si O2"
_cell_formula_units_Z 48
_cell_length_a 18.423618
_cell_length_b 16.584467
_cell_length_c 8.486862
_cell_angle_alpha 90.000000
_cell_angle_beta 90.000000
_cell_angle_gamma 90.000000
_cell_volume 2593.125758
_symmetry_space_group_name_H-M "P B A M"
_symmetry_group_IT_number 55
_symmetry_cell_setting 'orthorhombic'
loop_
_space_group_symop_operation_xyz
x,y,z
-x,-y,z
1/2+x,1/2-y,-z
1/2-x,1/2+y,-z
-x,-y,-z
x,y,-z
1/2-x,1/2+y,z
1/2+x,1/2-y,z
loop_
_atom_site_type_symbol
_atom_site_label
_atom_site_fract_x
_atom_site_fract_y
_atom_site_fract_z
Si Si1 0.930500 0.262433 0.187404
Si Si2 0.199903 0.834263 0.172518
Si Si3 0.659067 0.906471 0.316491
Si Si4 0.412719 0.770636 0.683256
Si Si5 0.834818 0.577541 0.187265
Si Si6 0.208743 0.172836 0.825784
O O1 0.876190 0.191313 0.254123
O O2 0.896388 0.349685 0.222674
O O3 0.004714 0.249306 0.278563
O O4 0.941166 0.255035 0.000000
O O5 0.253704 0.898893 0.255664
O O6 0.245780 0.753374 0.156484
O O7 0.181095 0.868100 0.000000
O O8 0.648770 0.890060 0.500000
O O9 0.742973 0.892372 0.267679
O O10 0.637947 0.997930 0.274650
O O11 0.402009 0.787689 0.500000
O O12 0.391231 0.851005 0.777950
O O13 0.365252 0.692856 0.733000
O O14 0.831824 0.564226 0.000000
O O15 0.190041 0.138722 0.000000
#
# Coordination Sequence:
#
# PCOD8225356 Si02
#       6
#     8   8   8   8   8   8
#     4  10  19  34  53  74 100 135 171 205 248 306
#     4   7  14  29  51  72  91 120 167 209 237 282
#     4  11  21  33  50  77 106 132 164 210 257 297
#     4  11  21  33  50  77 106 132 164 210 257 297
#     4  10  19  34  53  74 100 135 171 205 248 306
#     4   9  17  33  53  72  95 132 173 205 241 298
#
# _framework density 18.510479
#
# number of rings (size 3 to 8) (size 9 to 14) (size 15 to 20)
#    0.000    2.333    0.000    6.500    0.000    0.667 
#    0.000    5.833    0.000    1.000    0.000    7.000 
#    0.000    0.000    0.000    0.000    0.000    0.000 
#
# Total GULP energy -594808.364889 kJ/mol
# GULP energy per Si atom -12391.840935 kJ/mol
# Density = 1.846835 g / cm^3
# Si number density = 18.510479 Si / 1000 Ang^3
#
#
#
# Elastic Constant Matrix: (Units=GPa)
#
#
# Indices 1 2 3 4 5 6 
#
# 1 111.8783 8.3948 11.3169 0.0000 0.0000 0.0000
# 2 8.3948 7.0234 7.5905 0.0000 0.0000 0.0000
# 3 11.3169 7.5905 69.2795 0.0000 0.0000 0.0000
# 4 0.0000 0.0000 0.0000 21.1985 0.0000 0.0000
# 5 0.0000 0.0000 0.0000 0.0000 26.2391 0.0000
# 6 0.0000 0.0000 0.0000 0.0000 0.0000 19.3216
#
#
#
# Elastic Compliance Matrix: (Units=1/GPa)
#
#
# Indices 1 2 3 4 5 6 
#
# 1 0.009827 -0.011355 -0.000361 0.000000 0.000000 0.000000
# 2 -0.011355 0.174626 -0.017278 0.000000 0.000000 0.000000
# 3 -0.000361 -0.017278 0.016386 0.000000 0.000000 0.000000
# 4 0.000000 0.000000 0.000000 0.047173 0.000000 0.000000
# 5 0.000000 0.000000 0.000000 0.000000 0.038111 0.000000
# 6 0.000000 0.000000 0.000000 0.000000 0.000000 0.051755
#
#
# Mechanical properties :
#
#
# Convention : Reuss Voigt Hill
#
# Bulk Modulus (GPa) = 7.00031 26.97620 16.98825
# Shear Modulus (GPa) = 11.27434 24.07711 17.67573
#
# Velocity S-wave (km/s) = 2.47063 3.61047 3.09350
# Velocity P-wave (km/s) = 3.45380 5.65560 4.68586
#
# Compressibility (1/GPa) = 0.14285084
#
# Stress axis : x y z
#
# Youngs Moduli (GPa) = 101.76186 5.72651 61.02662
#
# Poissons Ratio (x) = 0.06503 0.02204
# Poissons Ratio (y) = 1.15555 1.05441
# Poissons Ratio (z) = 0.03674 0.09894
#
# Static dielectric constant tensor:
#      x y z
#    x 3.611480 0.000000 0.000000 
#    y 0.000000 3.271520 0.000000 
#    z 0.000000 0.000000 3.319660 
# 
# 
# High freq. dielectric constant tensor:
#      x y z
#    x 1.715180 0.000000 0.000000 
#    y 0.000000 1.686060 0.000000 
#    z 0.000000 0.000000 1.713620 
# 
# From -- ./inp_files/5578.got.cif
#   From: 2010.03.12/outbox.cif.g09.slc.cpg/sg55_3_cif.got.tgz:5578.got - 2010.04.16 15:19:21.
