data_PCOD8225692
_publ_section_title
;
Structure prediction by ZEFSAII (Michael W. Deem and Ramdas Pophale) SiO2 
 PCOD8225692
Probable space group: P B A M
;
_chemical_formula_sum "Si O2"
_cell_formula_units_Z 64
_cell_length_a 20.515243
_cell_length_b 19.023781
_cell_length_c 9.049829
_cell_angle_alpha 90.000000
_cell_angle_beta 90.000000
_cell_angle_gamma 90.000000
_cell_volume 3531.944547
_symmetry_space_group_name_H-M "P B A M"
_symmetry_group_IT_number 55
_symmetry_cell_setting 'orthorhombic'
loop_
_space_group_symop_operation_xyz
x,y,z
-x,-y,z
1/2+x,1/2-y,-z
1/2-x,1/2+y,-z
-x,-y,-z
x,y,-z
1/2-x,1/2+y,z
1/2+x,1/2-y,z
loop_
_atom_site_type_symbol
_atom_site_label
_atom_site_fract_x
_atom_site_fract_y
_atom_site_fract_z
Si Si1 0.493355 0.321500 0.674909
Si Si2 0.940608 0.050077 0.170871
Si Si3 0.361200 0.830009 0.169897
Si Si4 0.692106 0.470003 0.169396
Si Si5 0.937779 0.453295 0.327705
Si Si6 0.628427 0.327295 0.170988
Si Si7 0.511355 0.822210 0.826380
Si Si8 0.688284 0.039120 0.673638
O O1 0.493050 0.314973 0.500000
O O2 0.442982 0.381053 0.727321
O O3 0.565539 0.341478 0.729470
O O4 0.468556 0.249046 0.745045
O O5 0.874149 0.010187 0.206491
O O6 0.945309 0.072458 0.000000
O O7 0.000000 0.000000 0.214904
O O8 0.340908 0.749328 0.205395
O O9 0.436711 0.841144 0.213000
O O10 0.315709 0.881999 0.262882
O O11 0.349190 0.848145 0.000000
O O12 0.682130 0.387002 0.202910
O O13 0.747774 0.499294 0.273737
O O14 0.712777 0.481574 0.000000
O O15 0.934871 0.433828 0.500000
O O16 0.941089 0.382459 0.232939
O O17 0.874167 0.494828 0.273983
O O18 0.000000 0.500000 0.289935
O O19 0.605007 0.330490 0.000000
O O20 0.521053 0.812077 0.000000
O O21 0.690469 0.046283 0.500000
#
# Coordination Sequence:
#
# PCOD8225692 Si02
#       8
#     8   8   8   8   8   8   8   8
#     4  11  21  32  53  85 119 148 180 230 286 338
#     4  10  19  36  60  82 109 145 188 232 275 323
#     4   9  18  33  56  82 108 140 187 233 273 327
#     4  10  21  38  60  82 111 149 188 232 278 328
#     4  10  20  36  56  80 113 148 185 228 282 335
#     4   9  18  36  58  82 109 144 188 232 276 329
#     4  10  20  34  56  84 112 145 190 238 279 329
#     4  11  23  37  55  81 117 152 184 228 280 338
#
# _framework density 18.120331
#
# number of rings (size 3 to 8) (size 9 to 14) (size 15 to 20)
#    0.000    2.000    2.500    2.625    0.000    4.500 
#    0.000    1.250    0.000    4.500    0.000    0.000 
#    0.000    0.000    0.000    0.000    0.000    0.000 
#
# Total GULP energy -793792.227676 kJ/mol
# GULP energy per Si atom -12403.003557 kJ/mol
# Density = 1.807909 g / cm^3
# Si number density = 18.120331 Si / 1000 Ang^3
#
#
#
# Elastic Constant Matrix: (Units=GPa)
#
#
# Indices 1 2 3 4 5 6 
#
# 1 84.6495 55.6514 34.9952 0.0000 0.0000 0.0000
# 2 55.6514 148.9312 64.5546 0.0000 0.0000 0.0000
# 3 34.9952 64.5546 81.4277 0.0000 0.0000 0.0000
# 4 0.0000 0.0000 0.0000 18.0016 0.0000 0.0000
# 5 0.0000 0.0000 0.0000 0.0000 26.9671 0.0000
# 6 0.0000 0.0000 0.0000 0.0000 0.0000 25.7086
#
#
#
# Elastic Compliance Matrix: (Units=1/GPa)
#
#
# Indices 1 2 3 4 5 6 
#
# 1 0.016223 -0.004631 -0.003300 0.000000 0.000000 0.000000
# 2 -0.004631 0.011552 -0.007168 0.000000 0.000000 0.000000
# 3 -0.003300 -0.007168 0.019382 0.000000 0.000000 0.000000
# 4 0.000000 0.000000 0.000000 0.055551 0.000000 0.000000
# 5 0.000000 0.000000 0.000000 0.000000 0.037082 0.000000
# 6 0.000000 0.000000 0.000000 0.000000 0.000000 0.038897
#
#
# Mechanical properties :
#
#
# Convention : Reuss Voigt Hill
#
# Bulk Modulus (GPa) = 58.97148 69.49007 64.23078
# Shear Modulus (GPa) = 23.30588 24.78929 24.04759
#
# Velocity S-wave (km/s) = 3.59022 3.70271 3.64690
# Velocity P-wave (km/s) = 7.05700 7.53078 7.29773
#
# Compressibility (1/GPa) = 0.01695735
#
# Stress axis : x y z
#
# Youngs Moduli (GPa) = 61.64215 86.56466 51.59498
#
# Poissons Ratio (x) = 0.40092 0.17028
# Poissons Ratio (y) = 0.28549 0.36982
# Poissons Ratio (z) = 0.20344 0.62048
#
# Static dielectric constant tensor:
#      x y z
#    x 3.114920 0.000000 0.000000 
#    y 0.000000 3.558210 0.000000 
#    z 0.000000 0.000000 3.250690 
# 
# 
# High freq. dielectric constant tensor:
#      x y z
#    x 1.671320 0.000000 0.000000 
#    y 0.000000 1.718060 0.000000 
#    z 0.000000 0.000000 1.700290 
# 
# From -- ./inp_files/9023.got.cif
#   From: 2010.03.12/outbox.cif.g09.slc.cpg/sg55_5_cif.got.tgz:9023.got - 2010.04.16 15:19:21.
