data_PCOD8225047
_publ_section_title
;
Structure prediction by ZEFSAII (Michael W. Deem and Ramdas Pophale) SiO2 
 PCOD8225047
Probable space group: P B A M
;
_chemical_formula_sum "Si O2"
_cell_formula_units_Z 56
_cell_length_a 9.264435
_cell_length_b 20.817939
_cell_length_c 15.157450
_cell_angle_alpha 90.000000
_cell_angle_beta 90.000000
_cell_angle_gamma 90.000000
_cell_volume 2923.363462
_symmetry_space_group_name_H-M "P B A M"
_symmetry_group_IT_number 55
_symmetry_cell_setting 'orthorhombic'
loop_
_space_group_symop_operation_xyz
x,y,z
-x,-y,z
1/2+x,1/2-y,-z
1/2-x,1/2+y,-z
-x,-y,-z
x,y,-z
1/2-x,1/2+y,z
1/2+x,1/2-y,z
loop_
_atom_site_type_symbol
_atom_site_label
_atom_site_fract_x
_atom_site_fract_y
_atom_site_fract_z
Si Si1 0.919887 0.934067 0.901542
Si Si2 0.965998 0.181182 0.597866
Si Si3 0.563203 0.931323 0.601672
Si Si4 0.966343 0.198925 0.094774
Si Si5 0.781929 0.754030 0.801463
Si Si6 0.371401 0.809632 0.358418
Si Si7 0.312167 0.616857 0.279365
O O1 0.039453 0.878051 0.905302
O O2 0.822764 0.920877 0.814642
O O3 0.841211 0.935101 0.000000
O O4 0.000000 0.000000 0.884886
O O5 0.991088 0.151990 0.500000
O O6 0.041507 0.251153 0.597598
O O7 0.035093 0.132070 0.670817
O O8 0.795384 0.189510 0.611757
O O9 0.609393 0.930122 0.500000
O O10 0.443930 0.877176 0.619246
O O11 0.707907 0.922773 0.657915
O O12 0.500000 0.000000 0.629027
O O13 0.129006 0.222452 0.113718
O O14 0.867988 0.223542 0.172208
O O15 0.918365 0.226422 0.000000
O O16 0.872641 0.701090 0.747331
O O17 0.740871 0.813837 0.738824
#
# Coordination Sequence:
#
# PCOD8225047 Si02
#       7
#     8   8   8   8   8   8   8
#     4   9  19  36  57  81 108 141 181 223 270 326
#     4  11  21  34  58  86 113 144 182 232 281 330
#     4  11  24  40  56  77 112 154 190 226 273 330
#     4  10  19  32  52  77 107 138 172 219 272 324
#     4  10  19  33  52  79 106 135 175 221 273 327
#     4  11  21  36  55  80 112 146 185 229 278 330
#     4  10  21  37  57  83 111 143 182 229 277 324
#
# _framework density 19.156016999999999
#
# number of rings (size 3 to 8) (size 9 to 14) (size 15 to 20)
#    0.000    1.714    0.000    7.286    0.000    2.857 
#    0.000    0.000    0.000    3.857    0.000    0.000 
#    0.000    0.000    0.000    0.000    0.000    0.000 
#
# Total GULP energy -693887.770990 kJ/mol
# GULP energy per Si atom -12390.853053 kJ/mol
# Density = 1.911242 g / cm^3
# Si number density = 19.156017 Si / 1000 Ang^3
#
#
#
# Elastic Constant Matrix: (Units=GPa)
#
#
# Indices 1 2 3 4 5 6 
#
# 1 99.0589 44.4008 41.6137 0.0000 0.0000 0.0000
# 2 44.4008 93.3054 52.0512 0.0000 0.0000 0.0000
# 3 41.6137 52.0512 125.7758 0.0000 0.0000 0.0000
# 4 0.0000 0.0000 0.0000 16.8957 0.0000 0.0000
# 5 0.0000 0.0000 0.0000 0.0000 20.8076 0.0000
# 6 0.0000 0.0000 0.0000 0.0000 0.0000 21.7050
#
#
#
# Elastic Compliance Matrix: (Units=1/GPa)
#
#
# Indices 1 2 3 4 5 6 
#
# 1 0.013334 -0.005050 -0.002322 0.000000 0.000000 0.000000
# 2 -0.005050 0.015847 -0.004887 0.000000 0.000000 0.000000
# 3 -0.002322 -0.004887 0.010741 0.000000 0.000000 0.000000
# 4 0.000000 0.000000 0.000000 0.059187 0.000000 0.000000
# 5 0.000000 0.000000 0.000000 0.000000 0.048059 0.000000
# 6 0.000000 0.000000 0.000000 0.000000 0.000000 0.046072
#
#
# Mechanical properties :
#
#
# Convention : Reuss Voigt Hill
#
# Bulk Modulus (GPa) = 64.91702 66.03016 65.47359
# Shear Modulus (GPa) = 22.43224 23.88661 23.15942
#
# Velocity S-wave (km/s) = 3.42574 3.53505 3.48082
# Velocity P-wave (km/s) = 7.04342 7.15588 7.09987
#
# Compressibility (1/GPa) = 0.01540428
#
# Stress axis : x y z
#
# Youngs Moduli (GPa) = 74.99715 63.10332 93.09769
#
# Poissons Ratio (x) = 0.31867 0.21615
# Poissons Ratio (y) = 0.37873 0.45500
# Poissons Ratio (z) = 0.17412 0.30841
#
# Static dielectric constant tensor:
#      x y z
#    x 3.286160 0.000000 0.000000 
#    y 0.000000 3.468710 0.000000 
#    z 0.000000 0.000000 3.907530 
# 
# 
# High freq. dielectric constant tensor:
#      x y z
#    x 1.727140 0.000000 0.000000 
#    y 0.000000 1.732840 0.000000 
#    z 0.000000 0.000000 1.770780 
# 
# From -- ./inp_files/17674.got.cif
#   From: 2010.03.12/outbox.cif.g09.slc.cpg/sg55_9_cif.got.tgz:17674.got - 2010.04.16 15:19:21.
