data_PCOD8225629
_publ_section_title
;
Structure prediction by ZEFSAII (Michael W. Deem and Ramdas Pophale) SiO2 
 PCOD8225629
Probable space group: P B A M
;
_chemical_formula_sum "Si O2"
_cell_formula_units_Z 48
_cell_length_a 14.867757
_cell_length_b 18.668388
_cell_length_c 8.767036
_cell_angle_alpha 90.000000
_cell_angle_beta 90.000000
_cell_angle_gamma 90.000000
_cell_volume 2433.352705
_symmetry_space_group_name_H-M "P B A M"
_symmetry_group_IT_number 55
_symmetry_cell_setting 'orthorhombic'
loop_
_space_group_symop_operation_xyz
x,y,z
-x,-y,z
1/2+x,1/2-y,-z
1/2-x,1/2+y,-z
-x,-y,-z
x,y,-z
1/2-x,1/2+y,z
1/2+x,1/2-y,z
loop_
_atom_site_type_symbol
_atom_site_label
_atom_site_fract_x
_atom_site_fract_y
_atom_site_fract_z
Si Si1 0.997852 0.782300 0.181858
Si Si2 0.196521 0.265057 0.822984
Si Si3 0.748218 0.088154 0.320657
Si Si4 0.604326 0.987218 0.821944
Si Si5 0.436081 0.435707 0.818903
Si Si6 0.360579 0.169394 0.176395
O O1 0.900479 0.757520 0.241087
O O2 0.021764 0.861355 0.243168
O O3 0.069754 0.725997 0.250120
O O4 0.999846 0.784215 0.000000
O O5 0.238692 0.329777 0.729274
O O6 0.259192 0.195874 0.799894
O O7 0.192459 0.288188 0.000000
O O8 0.757413 0.083988 0.500000
O O9 0.659825 0.046485 0.267766
O O10 0.836773 0.052743 0.247825
O O11 0.500000 0.000000 0.791858
O O12 0.629604 0.909451 0.752231
O O13 0.628646 0.993527 0.000000
O O14 0.500000 0.500000 0.762582
O O15 0.427561 0.435358 0.000000
O O16 0.386766 0.163039 0.000000
#
# Coordination Sequence:
#
# PCOD8225629 Si02
#       6
#     8   8   8   8   8   8
#     4   9  17  32  58  91 115 139 184 246 302 342
#     4  10  19  35  61  86 113 147 196 252 294 347
#     4  12  25  40  58  85 126 168 198 235 297 366
#     4  10  21  38  63  91 118 152 200 254 302 349
#     4  10  21  38  64  91 116 153 204 256 301 348
#     4   9  17  31  56  88 114 140 185 247 302 343
#
# _framework density 19.725871000000001
#
# number of rings (size 3 to 8) (size 9 to 14) (size 15 to 20)
#    0.000    2.000    1.667    2.500    2.333    3.333 
#    0.000    1.667    0.000    0.000    0.000    0.000 
#    0.000    0.000    0.000    0.000    0.000    0.000 
#
# Total GULP energy -595297.129840 kJ/mol
# GULP energy per Si atom -12402.023538 kJ/mol
# Density = 1.968097 g / cm^3
# Si number density = 19.725871 Si / 1000 Ang^3
#
#
#
# Elastic Constant Matrix: (Units=GPa)
#
#
# Indices 1 2 3 4 5 6 
#
# 1 109.4832 20.5443 22.6680 0.0000 0.0000 0.0000
# 2 20.5443 102.7722 19.7433 0.0000 0.0000 0.0000
# 3 22.6680 19.7433 37.2428 0.0000 0.0000 0.0000
# 4 0.0000 0.0000 0.0000 6.9010 0.0000 0.0000
# 5 0.0000 0.0000 0.0000 0.0000 9.1218 0.0000
# 6 0.0000 0.0000 0.0000 0.0000 0.0000 38.9780
#
#
#
# Elastic Compliance Matrix: (Units=1/GPa)
#
#
# Indices 1 2 3 4 5 6 
#
# 1 0.010538 -0.000973 -0.005898 0.000000 0.000000 0.000000
# 2 -0.000973 0.010923 -0.005198 0.000000 0.000000 0.000000
# 3 -0.005898 -0.005198 0.033196 0.000000 0.000000 0.000000
# 4 0.000000 0.000000 0.000000 0.144906 0.000000 0.000000
# 5 0.000000 0.000000 0.000000 0.000000 0.109628 0.000000
# 6 0.000000 0.000000 0.000000 0.000000 0.000000 0.025655
#
#
# Mechanical properties :
#
#
# Convention : Reuss Voigt Hill
#
# Bulk Modulus (GPa) = 32.76715 41.71217 37.23966
# Shear Modulus (GPa) = 13.54432 23.43633 18.49032
#
# Velocity S-wave (km/s) = 2.62320 3.45062 3.06496
# Velocity P-wave (km/s) = 5.08156 6.08831 5.60757
#
# Compressibility (1/GPa) = 0.03051837
#
# Stress axis : x y z
#
# Youngs Moduli (GPa) = 94.89840 91.54582 30.12389
#
# Poissons Ratio (x) = 0.08912 0.17766
# Poissons Ratio (y) = 0.09238 0.15659
# Poissons Ratio (z) = 0.55968 0.47588
#
# Static dielectric constant tensor:
#      x y z
#    x 3.739560 0.000000 0.000000 
#    y 0.000000 3.810930 0.000000 
#    z 0.000000 0.000000 3.097200 
# 
# 
# High freq. dielectric constant tensor:
#      x y z
#    x 1.785830 0.000000 0.000000 
#    y 0.000000 1.782610 0.000000 
#    z 0.000000 0.000000 1.712010 
# 
# From -- ./inp_files/5660.got.cif
#   From: 2010.03.12/outbox.cif.g09.slc.cpg/sg55_3_cif.got.tgz:5660.got - 2010.04.16 15:19:21.
