data_PCOD8225319
_publ_section_title
;
Structure prediction by ZEFSAII (Michael W. Deem and Ramdas Pophale) SiO2 
 PCOD8225319
Probable space group: P B A M
;
_chemical_formula_sum "Si O2"
_cell_formula_units_Z 64
_cell_length_a 11.899503
_cell_length_b 17.723952
_cell_length_c 15.442861
_cell_angle_alpha 90.000000
_cell_angle_beta 90.000000
_cell_angle_gamma 90.000000
_cell_volume 3256.995439
_symmetry_space_group_name_H-M "P B A M"
_symmetry_group_IT_number 55
_symmetry_cell_setting 'orthorhombic'
loop_
_space_group_symop_operation_xyz
x,y,z
-x,-y,z
1/2+x,1/2-y,-z
1/2-x,1/2+y,-z
-x,-y,-z
x,y,-z
1/2-x,1/2+y,z
1/2+x,1/2-y,z
loop_
_atom_site_type_symbol
_atom_site_label
_atom_site_fract_x
_atom_site_fract_y
_atom_site_fract_z
Si Si1 0.904001 0.349803 0.905315
Si Si2 0.950534 0.859660 0.402586
Si Si3 0.700794 0.459594 0.278245
Si Si4 0.897906 0.714745 0.685253
Si Si5 0.831816 0.129851 0.304112
Si Si6 0.049695 0.581341 0.731161
Si Si7 0.339821 0.591681 0.094516
Si Si8 0.986431 0.198956 0.835956
O O1 0.966990 0.400769 0.833405
O O2 0.770831 0.357684 0.900236
O O3 0.924195 0.261606 0.891750
O O4 0.949954 0.374519 0.000000
O O5 0.926652 0.887434 0.500000
O O6 0.891465 0.916856 0.335491
O O7 0.909156 0.773137 0.394134
O O8 0.083814 0.861011 0.384678
O O9 0.716160 0.545520 0.305868
O O10 0.818549 0.416210 0.292164
O O11 0.661306 0.463465 0.177558
O O12 0.771056 0.686621 0.685581
O O13 0.985795 0.645236 0.675373
O O14 0.923965 0.762655 0.771258
O O15 0.895278 0.149566 0.215471
O O16 0.000000 0.500000 0.709400
O O17 0.447658 0.645372 0.098574
O O18 0.344268 0.549483 0.000000
#
# Coordination Sequence:
#
# PCOD8225319 Si02
#       8
#     8   8   8   8   8   8   8   8
#     4   9  19  32  53  83 118 162 211 261 300 349
#     4  11  26  43  67  94 120 158 202 253 309 372
#     4  11  22  41  64  91 127 162 205 254 310 366
#     4  10  21  39  63  92 119 159 203 251 306 366
#     4  11  22  38  65  89 123 161 203 247 307 370
#     4  10  20  38  63  89 119 165 204 248 312 367
#     4  10  19  34  55  82 122 165 205 251 305 352
#     4  10  19  33  57  84 119 161 211 252 300 357
#
# _framework density 19.650010999999999
#
# number of rings (size 3 to 8) (size 9 to 14) (size 15 to 20)
#    0.000    1.750    3.750    1.500    5.250    1.750 
#    0.000    1.875    0.000    1.500    0.000    0.000 
#    0.000    0.000    0.000    0.000    0.000    0.000 
#
# Total GULP energy -793434.621114 kJ/mol
# GULP energy per Si atom -12397.415955 kJ/mol
# Density = 1.960529 g / cm^3
# Si number density = 19.650011 Si / 1000 Ang^3
#
#
#
# Elastic Constant Matrix: (Units=GPa)
#
#
# Indices 1 2 3 4 5 6 
#
# 1 87.4211 17.1723 29.2913 0.0000 0.0000 0.0000
# 2 17.1723 75.2173 18.6216 0.0000 0.0000 0.0000
# 3 29.2913 18.6216 96.1832 0.0000 0.0000 0.0000
# 4 0.0000 0.0000 0.0000 12.7578 0.0000 0.0000
# 5 0.0000 0.0000 0.0000 0.0000 12.2849 0.0000
# 6 0.0000 0.0000 0.0000 0.0000 0.0000 33.6135
#
#
#
# Elastic Compliance Matrix: (Units=1/GPa)
#
#
# Indices 1 2 3 4 5 6 
#
# 1 0.013046 -0.002095 -0.003567 0.000000 0.000000 0.000000
# 2 -0.002095 0.014301 -0.002131 0.000000 0.000000 0.000000
# 3 -0.003567 -0.002131 0.011896 0.000000 0.000000 0.000000
# 4 0.000000 0.000000 0.000000 0.078384 0.000000 0.000000
# 5 0.000000 0.000000 0.000000 0.000000 0.081401 0.000000
# 6 0.000000 0.000000 0.000000 0.000000 0.000000 0.029750
#
#
# Mechanical properties :
#
#
# Convention : Reuss Voigt Hill
#
# Bulk Modulus (GPa) = 42.27283 43.22134 42.74708
# Shear Modulus (GPa) = 19.82177 24.64699 22.23438
#
# Velocity S-wave (km/s) = 3.17951 3.54545 3.36746
# Velocity P-wave (km/s) = 5.91935 6.22926 6.07628
#
# Compressibility (1/GPa) = 0.02365586
#
# Stress axis : x y z
#
# Youngs Moduli (GPa) = 76.65367 69.92696 84.06417
#
# Poissons Ratio (x) = 0.14651 0.29988
# Poissons Ratio (y) = 0.16061 0.17911
# Poissons Ratio (z) = 0.27344 0.14899
#
# Static dielectric constant tensor:
#      x y z
#    x 3.592340 0.000000 0.000000 
#    y 0.000000 3.581810 0.000000 
#    z 0.000000 0.000000 3.502090 
# 
# 
# High freq. dielectric constant tensor:
#      x y z
#    x 1.771440 0.000000 0.000000 
#    y 0.000000 1.763800 0.000000 
#    z 0.000000 0.000000 1.744960 
# 
# From -- ./inp_files/18548.got.cif
#   From: 2010.03.12/outbox.cif.g09.slc.cpg/sg55_10_cif.got.tgz:18548.got - 2010.04.16 15:19:21.
