data_PCOD8225764
_publ_section_title
;
Structure prediction by ZEFSAII (Michael W. Deem and Ramdas Pophale) SiO2 
 PCOD8225764
Probable space group: P B A M
;
_chemical_formula_sum "Si O2"
_cell_formula_units_Z 32
_cell_length_a 18.951984
_cell_length_b 9.819872
_cell_length_c 8.978390
_cell_angle_alpha 90.000000
_cell_angle_beta 90.000000
_cell_angle_gamma 90.000000
_cell_volume 1670.932761
_symmetry_space_group_name_H-M "P B A M"
_symmetry_group_IT_number 55
_symmetry_cell_setting 'orthorhombic'
loop_
_space_group_symop_operation_xyz
x,y,z
-x,-y,z
1/2+x,1/2-y,-z
1/2-x,1/2+y,-z
-x,-y,-z
x,y,-z
1/2-x,1/2+y,z
1/2+x,1/2-y,z
loop_
_atom_site_type_symbol
_atom_site_label
_atom_site_fract_x
_atom_site_fract_y
_atom_site_fract_z
Si Si1 0.200326 0.996278 0.676884
Si Si2 0.553478 0.623566 0.671217
Si Si3 0.970001 0.648559 0.828050
Si Si4 0.677851 0.200363 0.677297
O O1 0.200208 0.996275 0.500000
O O2 0.129139 0.923944 0.733360
O O3 0.267411 0.912576 0.738225
O O4 0.203216 0.151469 0.735573
O O5 0.500000 0.500000 0.688123
O O6 0.557930 0.672058 0.500000
O O7 0.529374 0.748146 0.772018
O O8 0.898916 0.666377 0.736314
O O9 0.000000 0.500000 0.799335
O O10 0.953718 0.676418 0.000000
O O11 0.674030 0.199551 0.500000
#
# Coordination Sequence:
#
# PCOD8225764 Si02
#       4
#     8   8   8   8
#     4   9  19  34  58  90 117 143 184 239 291 346
#     4  10  19  37  63  88 113 146 192 242 292 345
#     4  11  25  41  56  82 120 158 200 242 284 341
#     4  10  20  38  60  86 117 149 190 239 290 343
#
# _framework density 19.150980000000001
#
# number of rings (size 3 to 8) (size 9 to 14) (size 15 to 20)
#    0.000    2.000    2.500    0.750    3.500    2.500 
#    0.000    2.500    0.000    0.000    0.000    0.000 
#    0.000    0.000    0.000    0.000    0.000    0.000 
#
# Total GULP energy -396864.075621 kJ/mol
# GULP energy per Si atom -12402.002363 kJ/mol
# Density = 1.910739 g / cm^3
# Si number density = 19.150980 Si / 1000 Ang^3
#
#
#
# Elastic Constant Matrix: (Units=GPa)
#
#
# Indices 1 2 3 4 5 6 
#
# 1 105.4498 68.1762 23.3812 0.0000 0.0000 0.0000
# 2 68.1762 130.6542 41.9594 0.0000 0.0000 0.0000
# 3 23.3812 41.9594 27.3077 0.0000 0.0000 0.0000
# 4 0.0000 0.0000 0.0000 25.9360 0.0000 0.0000
# 5 0.0000 0.0000 0.0000 0.0000 -122.7530 0.0000
# 6 0.0000 0.0000 0.0000 0.0000 0.0000 35.2310
#
#
#
# Elastic Compliance Matrix: (Units=1/GPa)
#
#
# Indices 1 2 3 4 5 6 
#
# 1 0.014344 -0.006990 -0.001542 0.000000 0.000000 0.000000
# 2 -0.006990 0.018516 -0.022466 0.000000 0.000000 0.000000
# 3 -0.001542 -0.022466 0.072459 0.000000 0.000000 0.000000
# 4 0.000000 0.000000 0.000000 0.038556 0.000000 0.000000
# 5 0.000000 0.000000 0.000000 0.000000 -0.008146 0.000000
# 6 0.000000 0.000000 0.000000 0.000000 0.000000 0.028384
#
#
# Mechanical properties :
#
#
# Convention : Reuss Voigt Hill
#
# Bulk Modulus (GPa) = 23.08137 58.93837 41.00987
# Shear Modulus (GPa) = 20.78580 -3.65755 8.56413
#
# Velocity S-wave (km/s) = 3.29806 -1.38347 2.11698
# Velocity P-wave (km/s) = 5.15572 5.31888 5.23793
#
# Compressibility (1/GPa) = 0.04332498
#
# Stress axis : x y z
#
# Youngs Moduli (GPa) = 69.71526 54.00757 13.80090
#
# Poissons Ratio (x) = 0.37750 0.02127
# Poissons Ratio (y) = 0.48729 0.31005
# Poissons Ratio (z) = 0.10747 1.21332
#
# Static dielectric constant tensor:
#      x y z
#    x 3.586600 0.000000 0.000000 
#    y 0.000000 3.795500 0.000000 
#    z 0.000000 0.000000 3.195580 
# 
# 
# High freq. dielectric constant tensor:
#      x y z
#    x 1.758140 0.000000 0.000000 
#    y 0.000000 1.760300 0.000000 
#    z 0.000000 0.000000 1.707820 
# 
# From -- ./inp_files/1994.got.cif
#   From: 2010.03.12/outbox.cif.g09.slc.cpg/sg55_1_cif.got.tgz:1994.got - 2010.04.16 15:19:21.
