data_PCOD8225768
_publ_section_title
;
Structure prediction by ZEFSAII (Michael W. Deem and Ramdas Pophale) SiO2 
 PCOD8225768
Probable space group: P B A M
;
_chemical_formula_sum "Si O2"
_cell_formula_units_Z 64
_cell_length_a 14.235198
_cell_length_b 24.744159
_cell_length_c 8.857564
_cell_angle_alpha 90.000000
_cell_angle_beta 90.000000
_cell_angle_gamma 90.000000
_cell_volume 3119.970652
_symmetry_space_group_name_H-M "P B A M"
_symmetry_group_IT_number 55
_symmetry_cell_setting 'orthorhombic'
loop_
_space_group_symop_operation_xyz
x,y,z
-x,-y,z
1/2+x,1/2-y,-z
1/2-x,1/2+y,-z
-x,-y,-z
x,y,-z
1/2-x,1/2+y,z
1/2+x,1/2-y,z
loop_
_atom_site_type_symbol
_atom_site_label
_atom_site_fract_x
_atom_site_fract_y
_atom_site_fract_z
Si Si1 0.211071 0.394822 0.677250
Si Si2 0.413270 0.360782 0.326013
Si Si3 0.108779 0.500991 0.678876
Si Si4 0.563352 0.450662 0.674861
Si Si5 0.546485 0.749594 0.176401
Si Si6 0.205878 0.690503 0.326973
Si Si7 0.748518 0.919011 0.821806
Si Si8 0.140556 0.280240 0.673981
O O1 0.196377 0.395606 0.500000
O O2 0.321836 0.396396 0.717409
O O3 0.158997 0.447126 0.745586
O O4 0.164118 0.339723 0.738392
O O5 0.405672 0.341321 0.500000
O O6 0.506751 0.395358 0.300361
O O7 0.415522 0.309151 0.219731
O O8 0.121401 0.505733 0.500000
O O9 0.155997 0.552914 0.754699
O O10 0.000000 0.500000 0.725451
O O11 0.500000 0.500000 0.733038
O O12 0.590263 0.459112 0.500000
O O13 0.658385 0.450558 0.770078
O O14 0.603409 0.796892 0.260492
O O15 0.438661 0.753917 0.223235
O O16 0.558596 0.758131 0.000000
O O17 0.195848 0.672509 0.500000
O O18 0.254555 0.642123 0.236779
O O19 0.266915 0.744309 0.309032
O O20 0.742481 0.919399 0.000000
O O21 0.107029 0.281471 0.500000
#
# Coordination Sequence:
#
# PCOD8225768 Si02
#       8
#     8   8   8   8   8   8   8   8
#     4   9  18  37  64  93 120 152 207 266 304 352
#     4  10  19  37  63  90 121 161 208 259 311 366
#     4  10  22  41  67  95 121 162 217 264 308 367
#     4  10  21  39  67  96 123 162 215 266 306 362
#     4  12  25  38  57  90 129 163 198 251 321 387
#     4  11  23  43  68  90 119 164 219 265 305 363
#     4  12  26  42  61  91 134 170 203 257 324 386
#     4  10  21  39  65  92 120 161 210 260 309 365
#
# _framework density 20.513013999999998
#
# number of rings (size 3 to 8) (size 9 to 14) (size 15 to 20)
#    0.000    1.500    1.250    4.125    1.750    7.000 
#    0.000    2.500    0.000    0.000    0.000    0.000 
#    0.000    0.000    0.000    0.000    0.000    0.000 
#
# Total GULP energy -793943.693827 kJ/mol
# GULP energy per Si atom -12405.370216 kJ/mol
# Density = 2.046633 g / cm^3
# Si number density = 20.513014 Si / 1000 Ang^3
#
#
#
# Elastic Constant Matrix: (Units=GPa)
#
#
# Indices 1 2 3 4 5 6 
#
# 1 110.0273 19.0624 48.0527 0.0000 0.0000 0.0000
# 2 19.0624 82.0193 27.5788 0.0000 0.0000 0.0000
# 3 48.0527 27.5788 82.1158 0.0000 0.0000 0.0000
# 4 0.0000 0.0000 0.0000 15.4756 0.0000 0.0000
# 5 0.0000 0.0000 0.0000 0.0000 12.3138 0.0000
# 6 0.0000 0.0000 0.0000 0.0000 0.0000 35.1606
#
#
#
# Elastic Compliance Matrix: (Units=1/GPa)
#
#
# Indices 1 2 3 4 5 6 
#
# 1 0.012226 -0.000491 -0.006990 0.000000 0.000000 0.000000
# 2 -0.000491 0.013764 -0.004335 0.000000 0.000000 0.000000
# 3 -0.006990 -0.004335 0.017724 0.000000 0.000000 0.000000
# 4 0.000000 0.000000 0.000000 0.064618 0.000000 0.000000
# 5 0.000000 0.000000 0.000000 0.000000 0.081209 0.000000
# 6 0.000000 0.000000 0.000000 0.000000 0.000000 0.028441
#
#
# Mechanical properties :
#
#
# Convention : Reuss Voigt Hill
#
# Bulk Modulus (GPa) = 49.79508 51.50557 50.65032
# Shear Modulus (GPa) = 20.13618 24.55458 22.34538
#
# Velocity S-wave (km/s) = 3.13650 3.46356 3.30408
# Velocity P-wave (km/s) = 6.11918 6.41547 6.26907
#
# Compressibility (1/GPa) = 0.02008231
#
# Stress axis : x y z
#
# Youngs Moduli (GPa) = 81.79019 72.65255 56.42023
#
# Poissons Ratio (x) = 0.03570 0.39436
# Poissons Ratio (y) = 0.04019 0.24459
# Poissons Ratio (z) = 0.57169 0.31496
#
# Static dielectric constant tensor:
#      x y z
#    x 3.777440 0.000000 0.000000 
#    y 0.000000 3.846810 0.000000 
#    z 0.000000 0.000000 3.431980 
# 
# 
# High freq. dielectric constant tensor:
#      x y z
#    x 1.814040 0.000000 0.000000 
#    y 0.000000 1.811840 0.000000 
#    z 0.000000 0.000000 1.772320 
# 
# From -- ./inp_files/6727.got.cif
#   From: 2010.03.12/outbox.cif.g09.slc.cpg/sg55_4_cif.got.tgz:6727.got - 2010.04.16 15:19:21.
