data_PCOD8225120
_publ_section_title
;
Structure prediction by ZEFSAII (Michael W. Deem and Ramdas Pophale) SiO2 
 PCOD8225120
Probable space group: P B A M
;
_chemical_formula_sum "Si O2"
_cell_formula_units_Z 32
_cell_length_a 9.404451
_cell_length_b 23.273510
_cell_length_c 7.762700
_cell_angle_alpha 90.000000
_cell_angle_beta 90.000000
_cell_angle_gamma 90.000000
_cell_volume 1699.057736
_symmetry_space_group_name_H-M "P B A M"
_symmetry_group_IT_number 55
_symmetry_cell_setting 'orthorhombic'
loop_
_space_group_symop_operation_xyz
x,y,z
-x,-y,z
1/2+x,1/2-y,-z
1/2-x,1/2+y,-z
-x,-y,-z
x,y,-z
1/2-x,1/2+y,z
1/2+x,1/2-y,z
loop_
_atom_site_type_symbol
_atom_site_label
_atom_site_fract_x
_atom_site_fract_y
_atom_site_fract_z
Si Si1 0.332102 0.119309 0.808380
Si Si2 0.625912 0.080646 0.692015
Si Si3 0.190658 0.315639 0.500000
Si Si4 0.370269 0.204286 0.500000
Si Si5 0.657575 0.486716 0.294932
O O1 0.482553 0.085719 0.802177
O O2 0.321259 0.170267 0.670081
O O3 0.204722 0.074954 0.774444
O O4 0.313850 0.145297 0.000000
O O5 0.577357 0.060190 0.500000
O O6 0.702922 0.143291 0.670157
O O7 0.734751 0.035604 0.777101
O O8 0.310197 0.268102 0.500000
O O9 0.037658 0.285468 0.500000
O O10 0.500000 0.500000 0.224313
O O11 0.658936 0.487703 0.500000
#
# Coordination Sequence:
#
# PCOD8225120 Si02
#       5
#     8   8   4   4   8
#     4  11  21  35  57  81 110 149 181 217 269 324
#     4   8  17  35  55  80 104 141 186 218 261 329
#     4   8  18  33  58  75 101 144 178 224 277 306
#     4  10  20  39  56  81 107 138 186 232 259 328
#     4  10  19  32  54  84 114 141 176 227 273 320
#
# _framework density 18.833969
#
# number of rings (size 3 to 8) (size 9 to 14) (size 15 to 20)
#    0.750    1.750    2.500    0.750    0.000    6.500 
#    0.000    5.000    0.000    0.000    0.000    0.000 
#    0.000    0.000    0.000    0.000    0.000    0.000 
#
# Total GULP energy -396566.327194 kJ/mol
# GULP energy per Si atom -12392.697725 kJ/mol
# Density = 1.879110 g / cm^3
# Si number density = 18.833969 Si / 1000 Ang^3
#
#
#
# Elastic Constant Matrix: (Units=GPa)
#
#
# Indices 1 2 3 4 5 6 
#
# 1 40.7161 14.1065 3.7168 0.0000 0.0000 0.0000
# 2 14.1065 57.3768 3.2996 0.0000 0.0000 0.0000
# 3 3.7168 3.2996 64.4448 0.0000 0.0000 0.0000
# 4 0.0000 0.0000 0.0000 1.9400 0.0000 0.0000
# 5 0.0000 0.0000 0.0000 0.0000 3.8131 0.0000
# 6 0.0000 0.0000 0.0000 0.0000 0.0000 40.3976
#
#
#
# Elastic Compliance Matrix: (Units=1/GPa)
#
#
# Indices 1 2 3 4 5 6 
#
# 1 0.026942 -0.006554 -0.001218 0.000000 0.000000 0.000000
# 2 -0.006554 0.019074 -0.000599 0.000000 0.000000 0.000000
# 3 -0.001218 -0.000599 0.015618 0.000000 0.000000 0.000000
# 4 0.000000 0.000000 0.000000 0.515459 0.000000 0.000000
# 5 0.000000 0.000000 0.000000 0.000000 0.262251 0.000000
# 6 0.000000 0.000000 0.000000 0.000000 0.000000 0.024754
#
#
# Mechanical properties :
#
#
# Convention : Reuss Voigt Hill
#
# Bulk Modulus (GPa) = 22.27516 22.75371 22.51443
# Shear Modulus (GPa) = 5.58157 18.65780 12.11969
#
# Velocity S-wave (km/s) = 1.72337 3.15087 2.53949
# Velocity P-wave (km/s) = 3.97653 5.03435 4.53638
#
# Compressibility (1/GPa) = 0.04489306
#
# Stress axis : x y z
#
# Youngs Moduli (GPa) = 37.11652 52.42635 64.02842
#
# Poissons Ratio (x) = 0.34359 0.07801
# Poissons Ratio (y) = 0.24326 0.03833
# Poissons Ratio (z) = 0.04522 0.03138
#
# Static dielectric constant tensor:
#      x y z
#    x 3.433200 0.000000 0.000000 
#    y 0.000000 3.257490 0.000000 
#    z 0.000000 0.000000 3.191240 
# 
# 
# High freq. dielectric constant tensor:
#      x y z
#    x 1.727650 0.000000 0.000000 
#    y 0.000000 1.717950 0.000000 
#    z 0.000000 0.000000 1.704950 
# 
# From -- ./inp_files/2251.got.cif
#   From: 2010.03.12/outbox.cif.g09.slc.cpg/sg55_2_cif.got.tgz:2251.got - 2010.04.16 15:19:21.
