data_PCOD8225818
_publ_section_title
;
Structure prediction by ZEFSAII (Michael W. Deem and Ramdas Pophale) SiO2 
 PCOD8225818
Probable space group: P B A M
;
_chemical_formula_sum "Si O2"
_cell_formula_units_Z 44
_cell_length_a 5.110745
_cell_length_b 33.236800
_cell_length_c 16.267139
_cell_angle_alpha 90.000000
_cell_angle_beta 90.000000
_cell_angle_gamma 90.000000
_cell_volume 2763.214466
_symmetry_space_group_name_H-M "P B A M"
_symmetry_group_IT_number 55
_symmetry_cell_setting 'orthorhombic'
loop_
_space_group_symop_operation_xyz
x,y,z
-x,-y,z
1/2+x,1/2-y,-z
1/2-x,1/2+y,-z
-x,-y,-z
x,y,-z
1/2-x,1/2+y,z
1/2+x,1/2-y,z
loop_
_atom_site_type_symbol
_atom_site_label
_atom_site_fract_x
_atom_site_fract_y
_atom_site_fract_z
Si Si1 0.701236 0.226641 0.097881
Si Si2 0.252304 0.527694 0.000000
Si Si3 0.364115 0.589270 0.860903
Si Si4 0.621277 0.136490 0.905090
Si Si5 0.998445 0.547604 0.408694
Si Si6 0.503041 0.452324 0.691277
O O1 0.462153 0.252878 0.132926
O O2 0.683571 0.180885 0.129282
O O3 0.703114 0.227001 0.000000
O O4 0.500000 0.500000 0.000000
O O5 0.252155 0.554365 0.918604
O O6 0.000000 0.500000 0.000000
O O7 0.617976 0.609936 0.899853
O O8 0.450142 0.570985 0.774959
O O9 0.121647 0.620096 0.851138
O O10 0.528900 0.137599 0.000000
O O11 0.961906 0.566196 0.500000
O O12 0.769048 0.562258 0.348216
O O13 0.000000 0.500000 0.415590
O O14 0.274368 0.561366 0.372194
O O15 0.500000 0.500000 0.708629
#
# Coordination Sequence:
#
# PCOD8225818 Si02
#       6
#     8   4   8   8   8   8
#     4   9  17  29  47  69  87 109 146 194 236 279
#     4  12  24  36  48  60  82 124 174 214 238 258
#     4  12  22  35  47  66  91 126 165 203 243 270
#     4  11  20  34  49  65  91 123 160 198 239 279
#     4   9  17  31  50  69  87 110 144 191 246 296
#     4  10  20  32  47  67  91 118 156 202 236 277
#
# _framework density 15.923482999999999
#
# number of rings (size 3 to 8) (size 9 to 14) (size 15 to 20)
#    0.000    1.636    1.818    4.364    0.000    7.273 
#    0.000    0.000    0.000    0.000    0.000    0.000 
#    0.000    0.000    0.000    0.000    0.000  229.091 
#
# Total GULP energy -545623.097599 kJ/mol
# GULP energy per Si atom -12400.524945 kJ/mol
# Density = 1.588724 g / cm^3
# Si number density = 15.923483 Si / 1000 Ang^3
#
#
#
# Elastic Constant Matrix: (Units=GPa)
#
#
# Indices 1 2 3 4 5 6 
#
# 1 110.3200 28.4343 23.1109 0.0000 0.0000 0.0000
# 2 28.4343 67.6542 29.9576 0.0000 0.0000 0.0000
# 3 23.1109 29.9576 79.5986 0.0000 0.0000 0.0000
# 4 0.0000 0.0000 0.0000 5.4140 0.0000 0.0000
# 5 0.0000 0.0000 0.0000 0.0000 12.9209 0.0000
# 6 0.0000 0.0000 0.0000 0.0000 0.0000 28.4806
#
#
#
# Elastic Compliance Matrix: (Units=1/GPa)
#
#
# Indices 1 2 3 4 5 6 
#
# 1 0.010341 -0.003620 -0.001640 0.000000 0.000000 0.000000
# 2 -0.003620 0.019004 -0.006101 0.000000 0.000000 0.000000
# 3 -0.001640 -0.006101 0.015336 0.000000 0.000000 0.000000
# 4 0.000000 0.000000 0.000000 0.184706 0.000000 0.000000
# 5 0.000000 0.000000 0.000000 0.000000 0.077394 0.000000
# 6 0.000000 0.000000 0.000000 0.000000 0.000000 0.035112
#
#
# Mechanical properties :
#
#
# Convention : Reuss Voigt Hill
#
# Bulk Modulus (GPa) = 45.54148 46.73093 46.13620
# Shear Modulus (GPa) = 13.44321 21.10110 17.27215
#
# Velocity S-wave (km/s) = 2.90873 3.64422 3.29705
# Velocity P-wave (km/s) = 6.32007 6.86425 6.59777
#
# Compressibility (1/GPa) = 0.02195800
#
# Stress axis : x y z
#
# Youngs Moduli (GPa) = 96.70096 52.61986 65.20815
#
# Poissons Ratio (x) = 0.19049 0.10694
# Poissons Ratio (y) = 0.35006 0.39786
# Poissons Ratio (z) = 0.15859 0.32105
#
# Static dielectric constant tensor:
#      x y z
#    x 3.336560 0.000000 0.000000 
#    y 0.000000 2.987270 0.000000 
#    z 0.000000 0.000000 2.849460 
# 
# 
# High freq. dielectric constant tensor:
#      x y z
#    x 1.639490 0.000000 0.000000 
#    y 0.000000 1.585760 0.000000 
#    z 0.000000 0.000000 1.575890 
# 
# From -- ./inp_files/16711.got.cif
#   From: 2010.03.12/outbox.cif.g09.slc.cpg/sg55_9_cif.got.tgz:16711.got - 2010.04.16 15:19:21.
