data_PCOD8225225
_publ_section_title
;
Structure prediction by ZEFSAII (Michael W. Deem and Ramdas Pophale) SiO2 
 PCOD8225225
Probable space group: P B A M
;
_chemical_formula_sum "Si O2"
_cell_formula_units_Z 64
_cell_length_a 10.421585
_cell_length_b 33.181563
_cell_length_c 9.219342
_cell_angle_alpha 90.000000
_cell_angle_beta 90.000000
_cell_angle_gamma 90.000000
_cell_volume 3188.089759
_symmetry_space_group_name_H-M "P B A M"
_symmetry_group_IT_number 55
_symmetry_cell_setting 'orthorhombic'
loop_
_space_group_symop_operation_xyz
x,y,z
-x,-y,z
1/2+x,1/2-y,-z
1/2-x,1/2+y,-z
-x,-y,-z
x,y,-z
1/2-x,1/2+y,z
1/2+x,1/2-y,z
loop_
_atom_site_type_symbol
_atom_site_label
_atom_site_fract_x
_atom_site_fract_y
_atom_site_fract_z
Si Si1 0.728529 0.834140 0.329412
Si Si2 0.646291 0.495036 0.155821
Si Si3 0.705650 0.664645 0.830291
Si Si4 0.230061 0.077326 0.341177
Si Si5 0.768240 0.575925 0.829021
Si Si6 0.485016 0.798848 0.828208
Si Si7 0.985300 0.786110 0.671323
Si Si8 0.988987 0.544738 0.660298
O O1 0.692216 0.834623 0.500000
O O2 0.780151 0.877717 0.277321
O O3 0.602447 0.824426 0.236538
O O4 0.844208 0.803564 0.296864
O O5 0.500000 0.500000 0.123695
O O6 0.656613 0.454579 0.245520
O O7 0.697244 0.535876 0.233115
O O8 0.717270 0.489516 0.000000
O O9 0.697035 0.617351 0.787013
O O10 0.848673 0.680363 0.793344
O O11 0.599043 0.686324 0.733695
O O12 0.675240 0.671590 0.000000
O O13 0.165901 0.076359 0.500000
O O14 0.376431 0.065596 0.351550
O O15 0.908296 0.575069 0.759028
O O16 0.783068 0.574258 0.000000
O O17 0.490400 0.756015 0.751710
O O18 0.505203 0.793981 0.000000
O O19 0.009004 0.780636 0.500000
O O20 0.926319 0.540354 0.500000
O O21 0.000000 0.500000 0.731108
#
# Coordination Sequence:
#
# PCOD8225225 Si02
#       8
#     8   8   8   8   8   8   8   8
#     4  10  23  41  62  91 124 159 201 249 299 356
#     4  10  22  37  54  80 114 156 201 241 290 345
#     4  10  23  41  62  91 124 158 201 250 299 356
#     4  10  21  38  58  83 117 153 194 243 290 342
#     4  10  21  37  57  83 117 153 194 244 290 342
#     4  11  23  41  65  92 120 154 197 241 298 364
#     4  11  24  41  63  91 121 155 197 242 298 363
#     4  10  19  33  54  81 111 147 193 240 291 345
#
# _framework density 20.074717
#
# number of rings (size 3 to 8) (size 9 to 14) (size 15 to 20)
#    0.000    1.750    1.250    2.250    1.750    6.000 
#    0.000    0.000    0.000    0.000    0.000    0.000 
#    0.000    0.000    0.000    0.000    0.000    0.000 
#
# Total GULP energy -793389.345546 kJ/mol
# GULP energy per Si atom -12396.708524 kJ/mol
# Density = 2.002903 g / cm^3
# Si number density = 20.074717 Si / 1000 Ang^3
#
#
#
# Elastic Constant Matrix: (Units=GPa)
#
#
# Indices 1 2 3 4 5 6 
#
# 1 64.6885 4.1528 27.1137 0.0000 0.0000 0.0000
# 2 4.1528 111.8003 33.9770 0.0000 0.0000 0.0000
# 3 27.1137 33.9770 61.7965 0.0000 0.0000 0.0000
# 4 0.0000 0.0000 0.0000 146.2696 0.0000 0.0000
# 5 0.0000 0.0000 0.0000 0.0000 -5.2386 0.0000
# 6 0.0000 0.0000 0.0000 0.0000 0.0000 22.0755
#
#
#
# Elastic Compliance Matrix: (Units=1/GPa)
#
#
# Indices 1 2 3 4 5 6 
#
# 1 0.019399 0.002240 -0.009743 0.000000 0.000000 0.000000
# 2 0.002240 0.010998 -0.007030 0.000000 0.000000 0.000000
# 3 -0.009743 -0.007030 0.024322 0.000000 0.000000 0.000000
# 4 0.000000 0.000000 0.000000 0.006837 0.000000 0.000000
# 5 0.000000 0.000000 0.000000 0.000000 -0.190892 0.000000
# 6 0.000000 0.000000 0.000000 0.000000 0.000000 0.045299
#
#
# Mechanical properties :
#
#
# Convention : Reuss Voigt Hill
#
# Bulk Modulus (GPa) = 38.98095 40.97467 39.97781
# Shear Modulus (GPa) = -107.70934 44.15741 -31.77597
#
# Velocity S-wave (km/s) = -7.33285 4.69513 -3.98287
# Velocity P-wave (km/s) = 7.22732 7.06030 1.09234
#
# Compressibility (1/GPa) = 0.02565355
#
# Stress axis : x y z
#
# Youngs Moduli (GPa) = 51.54994 90.92804 41.11474
#
# Poissons Ratio (x) = -0.20372 0.40059
# Poissons Ratio (y) = -0.11550 0.28903
# Poissons Ratio (z) = 0.50226 0.63921
#
# Static dielectric constant tensor:
#      x y z
#    x 3.583500 0.000000 0.000000 
#    y 0.000000 3.702910 0.000000 
#    z 0.000000 0.000000 3.850270 
# 
# 
# High freq. dielectric constant tensor:
#      x y z
#    x 1.781100 0.000000 0.000000 
#    y 0.000000 1.801970 0.000000 
#    z 0.000000 0.000000 1.779760 
# 
# From -- ./inp_files/4708.got.cif
#   From: 2010.03.12/outbox.cif.g09.slc.cpg/sg55_3_cif.got.tgz:4708.got - 2010.04.16 15:19:21.
