data_PCOD8225491
_publ_section_title
;
Structure prediction by ZEFSAII (Michael W. Deem and Ramdas Pophale) SiO2 
 PCOD8225491
Probable space group: P B A M
;
_chemical_formula_sum "Si O2"
_cell_formula_units_Z 64
_cell_length_a 16.624474
_cell_length_b 21.162289
_cell_length_c 8.959486
_cell_angle_alpha 90.000000
_cell_angle_beta 90.000000
_cell_angle_gamma 90.000000
_cell_volume 3152.054001
_symmetry_space_group_name_H-M "P B A M"
_symmetry_group_IT_number 55
_symmetry_cell_setting 'orthorhombic'
loop_
_space_group_symop_operation_xyz
x,y,z
-x,-y,z
1/2+x,1/2-y,-z
1/2-x,1/2+y,-z
-x,-y,-z
x,y,-z
1/2-x,1/2+y,z
1/2+x,1/2-y,z
loop_
_atom_site_type_symbol
_atom_site_label
_atom_site_fract_x
_atom_site_fract_y
_atom_site_fract_z
Si Si1 0.164321 0.479248 0.822285
Si Si2 0.454178 0.890299 0.330836
Si Si3 0.618925 0.343027 0.673036
Si Si4 0.458467 0.330364 0.826067
Si Si5 0.709551 0.623153 0.826714
Si Si6 0.787701 0.392337 0.325217
Si Si7 0.088950 0.689639 0.178136
Si Si8 0.182556 0.286647 0.666344
O O1 0.082594 0.451793 0.750716
O O2 0.242573 0.438489 0.768814
O O3 0.174770 0.549105 0.761479
O O4 0.155843 0.480027 0.000000
O O5 0.481774 0.907244 0.500000
O O6 0.527738 0.864194 0.234267
O O7 0.386329 0.838040 0.335420
O O8 0.598425 0.335441 0.500000
O O9 0.536427 0.362618 0.752681
O O10 0.691045 0.392677 0.700242
O O11 0.647470 0.276226 0.742122
O O12 0.385253 0.378598 0.788707
O O13 0.439309 0.259265 0.767491
O O14 0.474744 0.326411 0.000000
O O15 0.741864 0.688062 0.757398
O O16 0.724915 0.630425 0.000000
O O17 0.808179 0.396305 0.500000
O O18 0.825837 0.328137 0.255719
O O19 0.097215 0.686893 0.000000
O O20 0.212943 0.270387 0.500000
#
# Coordination Sequence:
#
# PCOD8225491 Si02
#       8
#     8   8   8   8   8   8   8   8
#     4  10  21  39  60  81 112 150 195 240 281 331
#     4  10  19  34  58  85 116 150 185 227 278 334
#     4  10  21  37  56  81 113 148 186 230 281 338
#     4  10  21  36  57  87 118 146 182 228 280 340
#     4   9  19  35  56  82 110 144 185 230 278 330
#     4  11  24  40  58  81 112 151 194 237 282 334
#     4  11  22  36  57  88 121 149 184 228 282 343
#     4   9  17  31  53  81 110 142 179 220 274 334
#
# _framework density 20.304220000000001
#
# number of rings (size 3 to 8) (size 9 to 14) (size 15 to 20)
#    0.000    2.000    1.250    2.250    0.000    4.000 
#    0.000    3.125    0.000    3.750    0.000    0.000 
#    0.000    0.000    0.000    0.000    0.000    0.000 
#
# Total GULP energy -793502.603950 kJ/mol
# GULP energy per Si atom -12398.478187 kJ/mol
# Density = 2.025801 g / cm^3
# Si number density = 20.304220 Si / 1000 Ang^3
#
#
#
# Elastic Constant Matrix: (Units=GPa)
#
#
# Indices 1 2 3 4 5 6 
#
# 1 90.3733 -1.1639 31.3578 0.0000 0.0000 0.0000
# 2 -1.1639 38.6334 9.7341 0.0000 0.0000 0.0000
# 3 31.3578 9.7341 59.0595 0.0000 0.0000 0.0000
# 4 0.0000 0.0000 0.0000 23.1604 0.0000 0.0000
# 5 0.0000 0.0000 0.0000 0.0000 35.2560 0.0000
# 6 0.0000 0.0000 0.0000 0.0000 0.0000 19.5132
#
#
#
# Elastic Compliance Matrix: (Units=1/GPa)
#
#
# Indices 1 2 3 4 5 6 
#
# 1 0.013766 0.002354 -0.007697 0.000000 0.000000 0.000000
# 2 0.002354 0.027408 -0.005767 0.000000 0.000000 0.000000
# 3 -0.007697 -0.005767 0.021970 0.000000 0.000000 0.000000
# 4 0.000000 0.000000 0.000000 0.043177 0.000000 0.000000
# 5 0.000000 0.000000 0.000000 0.000000 0.028364 0.000000
# 6 0.000000 0.000000 0.000000 0.000000 0.000000 0.051247
#
#
# Mechanical properties :
#
#
# Convention : Reuss Voigt Hill
#
# Bulk Modulus (GPa) = 24.43596 29.76914 27.10255
# Shear Modulus (GPa) = 22.54336 25.46180 24.00258
#
# Velocity S-wave (km/s) = 3.33570 3.54505 3.44197
# Velocity P-wave (km/s) = 5.18622 5.60802 5.40124
#
# Compressibility (1/GPa) = 0.04092329
#
# Stress axis : x y z
#
# Youngs Moduli (GPa) = 72.64093 36.48521 45.51757
#
# Poissons Ratio (x) = -0.08589 0.35036
# Poissons Ratio (y) = -0.17101 0.26251
# Poissons Ratio (z) = 0.55914 0.21042
#
# Static dielectric constant tensor:
#      x y z
#    x 3.845640 0.000000 0.000000 
#    y 0.000000 3.572410 0.000000 
#    z 0.000000 0.000000 3.699610 
# 
# 
# High freq. dielectric constant tensor:
#      x y z
#    x 1.801010 0.000000 0.000000 
#    y 0.000000 1.775210 0.000000 
#    z 0.000000 0.000000 1.790300 
# 
# From -- ./inp_files/6716.got.cif
#   From: 2010.03.12/outbox.cif.g09.slc.cpg/sg55_4_cif.got.tgz:6716.got - 2010.04.16 15:19:21.
