data_PCOD8225316
_publ_section_title
;
Structure prediction by ZEFSAII (Michael W. Deem and Ramdas Pophale) SiO2 
 PCOD8225316
Probable space group: P B A M
;
_chemical_formula_sum "Si O2"
_cell_formula_units_Z 56
_cell_length_a 17.524763
_cell_length_b 18.569815
_cell_length_c 8.701715
_cell_angle_alpha 90.000000
_cell_angle_beta 90.000000
_cell_angle_gamma 90.000000
_cell_volume 2831.813095
_symmetry_space_group_name_H-M "P B A M"
_symmetry_group_IT_number 55
_symmetry_cell_setting 'orthorhombic'
loop_
_space_group_symop_operation_xyz
x,y,z
-x,-y,z
1/2+x,1/2-y,-z
1/2-x,1/2+y,-z
-x,-y,-z
x,y,-z
1/2-x,1/2+y,z
1/2+x,1/2-y,z
loop_
_atom_site_type_symbol
_atom_site_label
_atom_site_fract_x
_atom_site_fract_y
_atom_site_fract_z
Si Si1 0.911134 0.190352 0.817585
Si Si2 0.646999 0.837258 0.320480
Si Si3 0.082062 0.185176 0.819341
Si Si4 0.988010 0.416027 0.174797
Si Si5 0.214956 0.918207 0.182906
Si Si6 0.137881 0.335963 0.817509
Si Si7 0.712511 0.418667 0.181208
O O1 0.870334 0.262336 0.761733
O O2 0.862116 0.121509 0.761838
O O3 0.996690 0.182444 0.748063
O O4 0.913327 0.193339 0.000000
O O5 0.650229 0.823447 0.500000
O O6 0.582404 0.895375 0.281308
O O7 0.727059 0.868337 0.264672
O O8 0.129480 0.254142 0.756228
O O9 0.128425 0.112719 0.780098
O O10 0.072762 0.195093 0.000000
O O11 0.000000 0.500000 0.183155
O O12 0.063597 0.378477 0.239619
O O13 0.970981 0.390923 0.000000
O O14 0.287017 0.874198 0.252006
O O15 0.215732 0.999947 0.245786
O O16 0.218979 0.920293 0.000000
O O17 0.144142 0.338741 0.000000
O O18 0.729328 0.416065 0.000000
#
# Coordination Sequence:
#
# PCOD8225316 Si02
#       7
#     8   8   8   8   8   8   8
#     4  10  19  36  60  84 111 146 188 236 287 339
#     4  12  24  37  54  81 117 154 192 231 278 339
#     4   9  17  30  55  84 110 142 183 233 286 334
#     4  10  19  33  57  82 109 146 186 230 282 338
#     4   9  18  31  55  87 114 141 182 234 286 336
#     4   9  15  27  47  77 109 138 176 221 274 333
#     4  10  20  36  57  83 113 147 189 237 286 337
#
# _framework density 19.775316
#
# number of rings (size 3 to 8) (size 9 to 14) (size 15 to 20)
#    0.000    2.143    1.429    3.000    0.000    5.429 
#    0.000    4.286    0.000    0.000    0.000    2.000 
#    0.000    0.000    0.000    0.000    0.000    0.000 
#
# Total GULP energy -694331.557614 kJ/mol
# GULP energy per Si atom -12398.777815 kJ/mol
# Density = 1.973031 g / cm^3
# Si number density = 19.775316 Si / 1000 Ang^3
#
#
#
# Elastic Constant Matrix: (Units=GPa)
#
#
# Indices 1 2 3 4 5 6 
#
# 1 138.4786 61.8042 9.6001 0.0000 0.0000 0.0000
# 2 61.8042 94.6149 0.8894 0.0000 0.0000 0.0000
# 3 9.6001 0.8894 14.0777 0.0000 0.0000 0.0000
# 4 0.0000 0.0000 0.0000 3.1067 0.0000 0.0000
# 5 0.0000 0.0000 0.0000 0.0000 5.2930 0.0000
# 6 0.0000 0.0000 0.0000 0.0000 0.0000 35.8557
#
#
#
# Elastic Compliance Matrix: (Units=1/GPa)
#
#
# Indices 1 2 3 4 5 6 
#
# 1 0.010831 -0.007010 -0.006943 0.000000 0.000000 0.000000
# 2 -0.007010 0.015112 0.003826 0.000000 0.000000 0.000000
# 3 -0.006943 0.003826 0.075528 0.000000 0.000000 0.000000
# 4 0.000000 0.000000 0.000000 0.321885 0.000000 0.000000
# 5 0.000000 0.000000 0.000000 0.000000 0.188928 0.000000
# 6 0.000000 0.000000 0.000000 0.000000 0.000000 0.027890
#
#
# Mechanical properties :
#
#
# Convention : Reuss Voigt Hill
#
# Bulk Modulus (GPa) = 12.31290 43.52872 27.92081
# Shear Modulus (GPa) = 7.27272 20.50960 13.89116
#
# Velocity S-wave (km/s) = 1.91981 3.22395 2.65325
# Velocity P-wave (km/s) = 3.33978 5.99315 4.85139
#
# Compressibility (1/GPa) = 0.08121567
#
# Stress axis : x y z
#
# Youngs Moduli (GPa) = 92.32522 66.17164 13.24020
#
# Poissons Ratio (x) = 0.46386 0.09193
# Poissons Ratio (y) = 0.64719 -0.05065
# Poissons Ratio (z) = 0.64105 -0.25315
#
# Static dielectric constant tensor:
#      x y z
#    x 3.898920 0.000000 0.000000 
#    y 0.000000 3.813530 0.000000 
#    z 0.000000 0.000000 3.033020 
# 
# 
# High freq. dielectric constant tensor:
#      x y z
#    x 1.786180 0.000000 0.000000 
#    y 0.000000 1.783370 0.000000 
#    z 0.000000 0.000000 1.704770 
# 
# From -- ./inp_files/6071.got.cif
#   From: 2010.03.12/outbox.cif.g09.slc.cpg/sg55_4_cif.got.tgz:6071.got - 2010.04.16 15:19:21.
