data_PCOD8225563
_publ_section_title
;
Structure prediction by ZEFSAII (Michael W. Deem and Ramdas Pophale) SiO2 
 PCOD8225563
Probable space group: P B A M
;
_chemical_formula_sum "Si O2"
_cell_formula_units_Z 48
_cell_length_a 9.952613
_cell_length_b 29.082139
_cell_length_c 9.233507
_cell_angle_alpha 90.000000
_cell_angle_beta 90.000000
_cell_angle_gamma 90.000000
_cell_volume 2672.576503
_symmetry_space_group_name_H-M "P B A M"
_symmetry_group_IT_number 55
_symmetry_cell_setting 'orthorhombic'
loop_
_space_group_symop_operation_xyz
x,y,z
-x,-y,z
1/2+x,1/2-y,-z
1/2-x,1/2+y,-z
-x,-y,-z
x,y,-z
1/2-x,1/2+y,z
1/2+x,1/2-y,z
loop_
_atom_site_type_symbol
_atom_site_label
_atom_site_fract_x
_atom_site_fract_y
_atom_site_fract_z
Si Si1 0.504295 0.712618 0.331160
Si Si2 0.859274 0.475073 0.664964
Si Si3 0.293062 0.113610 0.169552
Si Si4 0.303575 0.205986 0.329696
Si Si5 0.134332 0.973433 0.832880
Si Si6 0.015047 0.877149 0.164692
O O1 0.525084 0.706287 0.500000
O O2 0.594405 0.754813 0.275198
O O3 0.348468 0.721505 0.291304
O O4 0.559171 0.665860 0.260940
O O5 0.819463 0.463151 0.500000
O O6 0.870438 0.428517 0.757193
O O7 0.751997 0.510122 0.730107
O O8 0.000000 0.500000 0.673062
O O9 0.343877 0.160589 0.242028
O O10 0.135503 0.106190 0.200746
O O11 0.326866 0.114798 0.000000
O O12 0.318848 0.195987 0.500000
O O13 0.115382 0.919155 0.805681
O O14 0.170977 0.983950 0.000000
O O15 0.000000 0.000000 0.789415
O O16 0.022225 0.860458 0.000000
#
# Coordination Sequence:
#
# PCOD8225563 Si02
#       6
#     8   8   8   8   8   8
#     4   9  18  33  53  75 104 139 174 215 263 314
#     4  11  24  39  54  79 113 146 182 225 270 323
#     4  10  19  35  58  80 105 142 181 220 268 322
#     4   9  18  34  54  77 104 138 176 217 265 317
#     4  10  19  36  59  82 109 141 179 223 269 319
#     4   9  18  33  55  81 107 135 174 224 266 312
#
# _framework density 17.960196
#
# number of rings (size 3 to 8) (size 9 to 14) (size 15 to 20)
#    0.000    2.333    1.667    1.000    0.000    3.667 
#    3.000    0.000    0.000    0.000    0.000    0.000 
#    0.000    0.000    0.000    0.000    0.000    0.000 
#
# Total GULP energy -595331.190274 kJ/mol
# GULP energy per Si atom -12402.733131 kJ/mol
# Density = 1.791932 g / cm^3
# Si number density = 17.960196 Si / 1000 Ang^3
#
#
#
# Elastic Constant Matrix: (Units=GPa)
#
#
# Indices 1 2 3 4 5 6 
#
# 1 67.9845 53.8885 44.2268 0.0000 0.0000 0.0000
# 2 53.8885 132.9316 62.7734 0.0000 0.0000 0.0000
# 3 44.2268 62.7734 83.5508 0.0000 0.0000 0.0000
# 4 0.0000 0.0000 0.0000 38.3095 0.0000 0.0000
# 5 0.0000 0.0000 0.0000 0.0000 23.3024 0.0000
# 6 0.0000 0.0000 0.0000 0.0000 0.0000 30.0109
#
#
#
# Elastic Compliance Matrix: (Units=1/GPa)
#
#
# Indices 1 2 3 4 5 6 
#
# 1 0.025255 -0.006083 -0.008798 0.000000 0.000000 0.000000
# 2 -0.006083 0.013125 -0.006641 0.000000 0.000000 0.000000
# 3 -0.008798 -0.006641 0.021615 0.000000 0.000000 0.000000
# 4 0.000000 0.000000 0.000000 0.026103 0.000000 0.000000
# 5 0.000000 0.000000 0.000000 0.000000 0.042914 0.000000
# 6 0.000000 0.000000 0.000000 0.000000 0.000000 0.033321
#
#
# Mechanical properties :
#
#
# Convention : Reuss Voigt Hill
#
# Bulk Modulus (GPa) = 58.99433 67.36047 63.17740
# Shear Modulus (GPa) = 23.69375 26.56311 25.12843
#
# Velocity S-wave (km/s) = 3.63607 3.84995 3.74454
# Velocity P-wave (km/s) = 7.10961 7.57295 7.34494
#
# Compressibility (1/GPa) = 0.01695078
#
# Stress axis : x y z
#
# Youngs Moduli (GPa) = 39.59688 76.19265 46.26419
#
# Poissons Ratio (x) = 0.46351 0.40702
# Poissons Ratio (y) = 0.24088 0.30722
# Poissons Ratio (z) = 0.34836 0.50597
#
# Static dielectric constant tensor:
#      x y z
#    x 4.282600 0.000000 0.000000 
#    y 0.000000 3.690420 0.000000 
#    z 0.000000 0.000000 3.358110 
# 
# 
# High freq. dielectric constant tensor:
#      x y z
#    x 1.676450 0.000000 0.000000 
#    y 0.000000 1.704830 0.000000 
#    z 0.000000 0.000000 1.697460 
# 
# From -- ./inp_files/2813.got.cif
#   From: 2010.03.12/outbox.cif.g09.slc.cpg/sg55_2_cif.got.tgz:2813.got - 2010.04.16 15:19:21.
