data_PCOD8225164
_publ_section_title
;
Structure prediction by ZEFSAII (Michael W. Deem and Ramdas Pophale) SiO2 
 PCOD8225164
Probable space group: P B A M
;
_chemical_formula_sum "Si O2"
_cell_formula_units_Z 56
_cell_length_a 21.243070
_cell_length_b 15.071585
_cell_length_c 9.449009
_cell_angle_alpha 90.000000
_cell_angle_beta 90.000000
_cell_angle_gamma 90.000000
_cell_volume 3025.258362
_symmetry_space_group_name_H-M "P B A M"
_symmetry_group_IT_number 55
_symmetry_cell_setting 'orthorhombic'
loop_
_space_group_symop_operation_xyz
x,y,z
-x,-y,z
1/2+x,1/2-y,-z
1/2-x,1/2+y,-z
-x,-y,-z
x,y,-z
1/2-x,1/2+y,z
1/2+x,1/2-y,z
loop_
_atom_site_type_symbol
_atom_site_label
_atom_site_fract_x
_atom_site_fract_y
_atom_site_fract_z
Si Si1 0.961272 0.253995 0.664726
Si Si2 0.599351 0.226014 0.334406
Si Si3 0.243198 0.988717 0.665412
Si Si4 0.451857 0.073217 0.841965
Si Si5 0.856339 0.571565 0.159467
Si Si6 0.270116 0.689155 0.332120
Si Si7 0.334907 0.326255 0.334960
O O1 0.951374 0.268898 0.500000
O O2 0.948429 0.347623 0.734366
O O3 0.906348 0.188430 0.723196
O O4 0.033214 0.220939 0.693993
O O5 0.604866 0.200340 0.500000
O O6 0.595305 0.138118 0.237888
O O7 0.659868 0.281794 0.283517
O O8 0.260901 0.989326 0.500000
O O9 0.293923 0.930880 0.748178
O O10 0.180472 0.929918 0.693824
O O11 0.237912 0.088483 0.725705
O O12 0.500000 0.000000 0.785250
O O13 0.383674 0.027460 0.845561
O O14 0.471596 0.105415 0.000000
O O15 0.842570 0.605595 0.000000
O O16 0.267598 0.687317 0.500000
O O17 0.216370 0.755662 0.269505
O O18 0.332729 0.306741 0.500000
#
# Coordination Sequence:
#
# PCOD8225164 Si02
#       7
#     8   8   8   8   8   8   8
#     4  10  20  32  51  77 105 136 175 216 251 303
#     4  10  19  33  52  76 104 135 174 215 252 306
#     4  10  19  34  57  76 100 139 175 213 264 310
#     4  10  20  33  47  69 105 138 165 205 260 316
#     4  11  21  33  51  75 104 135 170 215 264 311
#     4   9  17  31  53  77 101 135 176 212 257 308
#     4   9  17  31  50  77 107 132 168 217 259 302
#
# _framework density 18.510815999999998
#
# number of rings (size 3 to 8) (size 9 to 14) (size 15 to 20)
#    0.000    2.143    2.857    1.286    0.000    2.571 
#    0.000    2.143    0.000    4.286    0.000    0.000 
#    0.000    3.429    0.000    0.000    0.000    0.000 
#
# Total GULP energy -693880.682774 kJ/mol
# GULP energy per Si atom -12390.726478 kJ/mol
# Density = 1.846868 g / cm^3
# Si number density = 18.510816 Si / 1000 Ang^3
#
#
#
# Elastic Constant Matrix: (Units=GPa)
#
#
# Indices 1 2 3 4 5 6 
#
# 1 110.4609 26.4793 19.2259 0.0000 0.0000 0.0000
# 2 26.4793 68.5852 9.5097 0.0000 0.0000 0.0000
# 3 19.2259 9.5097 37.6129 0.0000 0.0000 0.0000
# 4 0.0000 0.0000 0.0000 3.5886 0.0000 0.0000
# 5 0.0000 0.0000 0.0000 0.0000 11.7748 0.0000
# 6 0.0000 0.0000 0.0000 0.0000 0.0000 28.8389
#
#
#
# Elastic Compliance Matrix: (Units=1/GPa)
#
#
# Indices 1 2 3 4 5 6 
#
# 1 0.010687 -0.003491 -0.004580 0.000000 0.000000 0.000000
# 2 -0.003491 0.016250 -0.002324 0.000000 0.000000 0.000000
# 3 -0.004580 -0.002324 0.029515 0.000000 0.000000 0.000000
# 4 0.000000 0.000000 0.000000 0.278659 0.000000 0.000000
# 5 0.000000 0.000000 0.000000 0.000000 0.084927 0.000000
# 6 0.000000 0.000000 0.000000 0.000000 0.000000 0.034675
#
#
# Mechanical properties :
#
#
# Convention : Reuss Voigt Hill
#
# Bulk Modulus (GPa) = 28.04074 36.34318 32.19196
# Shear Modulus (GPa) = 10.25868 19.60340 14.93104
#
# Velocity S-wave (km/s) = 2.35670 3.25780 2.84317
# Velocity P-wave (km/s) = 4.75253 5.81611 5.31101
#
# Compressibility (1/GPa) = 0.03566240
#
# Stress axis : x y z
#
# Youngs Moduli (GPa) = 93.57171 61.53677 33.88063
#
# Poissons Ratio (x) = 0.21482 0.15518
# Poissons Ratio (y) = 0.32666 0.07874
# Poissons Ratio (z) = 0.42856 0.14302
#
# Static dielectric constant tensor:
#      x y z
#    x 3.806040 0.000000 0.000000 
#    y 0.000000 3.342600 0.000000 
#    z 0.000000 0.000000 3.106820 
# 
# 
# High freq. dielectric constant tensor:
#      x y z
#    x 1.729890 0.000000 0.000000 
#    y 0.000000 1.696500 0.000000 
#    z 0.000000 0.000000 1.682360 
# 
# From -- ./inp_files/8802.got.cif
#   From: 2010.03.12/outbox.cif.g09.slc.cpg/sg55_5_cif.got.tgz:8802.got - 2010.04.16 15:19:21.
