data_PCOD8225318
_publ_section_title
;
Structure prediction by ZEFSAII (Michael W. Deem and Ramdas Pophale) SiO2 
 PCOD8225318
Probable space group: P B A M
;
_chemical_formula_sum "Si O2"
_cell_formula_units_Z 64
_cell_length_a 27.578941
_cell_length_b 12.944226
_cell_length_c 9.137399
_cell_angle_alpha 90.000000
_cell_angle_beta 90.000000
_cell_angle_gamma 90.000000
_cell_volume 3261.942207
_symmetry_space_group_name_H-M "P B A M"
_symmetry_group_IT_number 55
_symmetry_cell_setting 'orthorhombic'
loop_
_space_group_symop_operation_xyz
x,y,z
-x,-y,z
1/2+x,1/2-y,-z
1/2-x,1/2+y,-z
-x,-y,-z
x,y,-z
1/2-x,1/2+y,z
1/2+x,1/2-y,z
loop_
_atom_site_type_symbol
_atom_site_label
_atom_site_fract_x
_atom_site_fract_y
_atom_site_fract_z
Si Si1 0.128092 0.365460 0.671594
Si Si2 0.947339 0.463826 0.325851
Si Si3 0.519724 0.604168 0.835296
Si Si4 0.082070 0.190143 0.162377
Si Si5 0.166828 0.052221 0.834087
Si Si6 0.411622 0.256035 0.331908
Si Si7 0.714731 0.227743 0.171403
Si Si8 0.191250 0.844493 0.330512
O O1 0.139426 0.371449 0.500000
O O2 0.096066 0.461870 0.726797
O O3 0.096382 0.264880 0.706406
O O4 0.178451 0.357917 0.759729
O O5 0.949663 0.464362 0.500000
O O6 0.932397 0.350916 0.265480
O O7 0.000000 0.500000 0.263144
O O8 0.500000 0.500000 0.759912
O O9 0.475518 0.684194 0.833559
O O10 0.564843 0.647239 0.748200
O O11 0.537498 0.580479 0.000000
O O12 0.109523 0.079858 0.185296
O O13 0.098695 0.231484 0.000000
O O14 0.196785 0.156176 0.793898
O O15 0.181298 0.959822 0.727413
O O16 0.178309 0.017509 0.000000
O O17 0.426502 0.262768 0.500000
O O18 0.354270 0.267777 0.309800
O O19 0.766696 0.212382 0.243260
O O20 0.718526 0.206563 0.000000
O O21 0.205387 0.855103 0.500000
#
# Coordination Sequence:
#
# PCOD8225318 Si02
#       8
#     8   8   8   8   8   8   8   8
#     4  10  19  33  57  84 108 141 185 230 279 331
#     4   9  18  34  56  82 115 153 187 223 274 336
#     4  10  20  34  53  77 106 141 180 220 265 322
#     4   9  18  33  53  78 108 140 177 223 270 318
#     4   9  19  37  59  80 107 145 183 223 275 333
#     4  10  22  38  54  79 113 145 183 229 276 331
#     4  10  22  40  60  82 110 146 191 239 285 340
#     4  11  23  37  56  83 114 145 181 233 289 339
#
# _framework density 19.620213
#
# number of rings (size 3 to 8) (size 9 to 14) (size 15 to 20)
#    0.000    2.250    0.000    3.375    0.000    7.250 
#    0.000    2.500    0.000    3.375    0.000    0.000 
#    0.000    0.000    0.000    0.000    0.000    0.000 
#
# Total GULP energy -793453.609187 kJ/mol
# GULP energy per Si atom -12397.712644 kJ/mol
# Density = 1.957556 g / cm^3
# Si number density = 19.620213 Si / 1000 Ang^3
#
#
#
# Elastic Constant Matrix: (Units=GPa)
#
#
# Indices 1 2 3 4 5 6 
#
# 1 95.2295 32.6857 43.8427 0.0000 0.0000 0.0000
# 2 32.6857 92.1029 35.3592 0.0000 0.0000 0.0000
# 3 43.8427 35.3592 78.7667 0.0000 0.0000 0.0000
# 4 0.0000 0.0000 0.0000 26.3245 0.0000 0.0000
# 5 0.0000 0.0000 0.0000 0.0000 27.8383 0.0000
# 6 0.0000 0.0000 0.0000 0.0000 0.0000 28.2226
#
#
#
# Elastic Compliance Matrix: (Units=1/GPa)
#
#
# Indices 1 2 3 4 5 6 
#
# 1 0.014576 -0.002486 -0.006997 0.000000 0.000000 0.000000
# 2 -0.002486 0.013542 -0.004695 0.000000 0.000000 0.000000
# 3 -0.006997 -0.004695 0.018698 0.000000 0.000000 0.000000
# 4 0.000000 0.000000 0.000000 0.037987 0.000000 0.000000
# 5 0.000000 0.000000 0.000000 0.000000 0.035922 0.000000
# 6 0.000000 0.000000 0.000000 0.000000 0.000000 0.035433
#
#
# Mechanical properties :
#
#
# Convention : Reuss Voigt Hill
#
# Bulk Modulus (GPa) = 54.17454 54.43047 54.30250
# Shear Modulus (GPa) = 26.22358 26.75784 26.49071
#
# Velocity S-wave (km/s) = 3.65986 3.69696 3.67846
# Velocity P-wave (km/s) = 6.74767 6.78422 6.76597
#
# Compressibility (1/GPa) = 0.01845886
#
# Stress axis : x y z
#
# Youngs Moduli (GPa) = 68.60753 73.84210 53.48153
#
# Poissons Ratio (x) = 0.18361 0.37420
# Poissons Ratio (y) = 0.17059 0.25111
# Poissons Ratio (z) = 0.48003 0.34671
#
# Static dielectric constant tensor:
#      x y z
#    x 3.689580 0.000000 0.000000 
#    y 0.000000 3.528400 0.000000 
#    z 0.000000 0.000000 3.437820 
# 
# 
# High freq. dielectric constant tensor:
#      x y z
#    x 1.774970 0.000000 0.000000 
#    y 0.000000 1.758390 0.000000 
#    z 0.000000 0.000000 1.749710 
# 
# From -- ./inp_files/10768.got.cif
#   From: 2010.03.12/outbox.cif.g09.slc.cpg/sg55_6_cif.got.tgz:10768.got - 2010.04.16 15:19:21.
