data_PCOD8225752
_publ_section_title
;
Structure prediction by ZEFSAII (Michael W. Deem and Ramdas Pophale) SiO2 
 PCOD8225752
Probable space group: P B A M
;
_chemical_formula_sum "Si O2"
_cell_formula_units_Z 48
_cell_length_a 27.474353
_cell_length_b 10.068673
_cell_length_c 8.933256
_cell_angle_alpha 90.000000
_cell_angle_beta 90.000000
_cell_angle_gamma 90.000000
_cell_volume 2471.209075
_symmetry_space_group_name_H-M "P B A M"
_symmetry_group_IT_number 55
_symmetry_cell_setting 'orthorhombic'
loop_
_space_group_symop_operation_xyz
x,y,z
-x,-y,z
1/2+x,1/2-y,-z
1/2-x,1/2+y,-z
-x,-y,-z
x,y,-z
1/2-x,1/2+y,z
1/2+x,1/2-y,z
loop_
_atom_site_type_symbol
_atom_site_label
_atom_site_fract_x
_atom_site_fract_y
_atom_site_fract_z
Si Si1 0.538028 0.611364 0.823407
Si Si2 0.709221 0.735430 0.676429
Si Si3 0.642109 0.972294 0.322488
Si Si4 0.537059 0.886958 0.677391
Si Si5 0.178580 0.245378 0.323095
Si Si6 0.644574 0.517822 0.822793
O O1 0.500000 0.500000 0.769638
O O2 0.521203 0.747844 0.747810
O O3 0.592249 0.572919 0.769527
O O4 0.536016 0.630022 0.000000
O O5 0.702943 0.712886 0.500000
O O6 0.681653 0.866431 0.734630
O O7 0.764962 0.754141 0.721599
O O8 0.687731 0.606800 0.756998
O O9 0.642143 0.975266 0.500000
O O10 0.589794 0.928921 0.260160
O O11 0.655512 0.117738 0.262818
O O12 0.537112 0.871009 0.500000
O O13 0.500000 0.000000 0.730519
O O14 0.171872 0.226720 0.500000
O O15 0.150000 0.130165 0.238857
O O16 0.648470 0.515607 0.000000
#
# Coordination Sequence:
#
# PCOD8225752 Si02
#       6
#     8   8   8   8   8   8
#     4  10  23  42  60  81 114 155 194 232 282 347
#     4  10  19  37  62  84 111 151 194 233 282 341
#     4   9  18  34  55  82 114 143 180 233 281 330
#     4  10  21  37  59  87 114 141 182 239 293 336
#     4  10  21  36  59  87 114 150 192 231 278 340
#     4  11  23  38  57  85 119 152 190 238 286 334
#
# _framework density 19.423689
#
# number of rings (size 3 to 8) (size 9 to 14) (size 15 to 20)
#    0.000    2.000    1.667    1.500    2.333    4.667 
#    0.000    1.667    0.000    0.000    0.000    0.000 
#    0.000    0.000    0.000    0.000    0.000    0.000 
#
# Total GULP energy -595395.811819 kJ/mol
# GULP energy per Si atom -12404.079413 kJ/mol
# Density = 1.937948 g / cm^3
# Si number density = 19.423689 Si / 1000 Ang^3
#
#
#
# Elastic Constant Matrix: (Units=GPa)
#
#
# Indices 1 2 3 4 5 6 
#
# 1 108.4972 63.1232 27.1680 0.0000 0.0000 0.0000
# 2 63.1232 179.1458 34.3845 0.0000 0.0000 0.0000
# 3 27.1680 34.3845 31.7392 0.0000 0.0000 0.0000
# 4 0.0000 0.0000 0.0000 19.7655 0.0000 0.0000
# 5 0.0000 0.0000 0.0000 0.0000 11.7278 0.0000
# 6 0.0000 0.0000 0.0000 0.0000 0.0000 42.2828
#
#
#
# Elastic Compliance Matrix: (Units=1/GPa)
#
#
# Indices 1 2 3 4 5 6 
#
# 1 0.012946 -0.003074 -0.007752 0.000000 0.000000 0.000000
# 2 -0.003074 0.007777 -0.005794 0.000000 0.000000 0.000000
# 3 -0.007752 -0.005794 0.044419 0.000000 0.000000 0.000000
# 4 0.000000 0.000000 0.000000 0.050593 0.000000 0.000000
# 5 0.000000 0.000000 0.000000 0.000000 0.085268 0.000000
# 6 0.000000 0.000000 0.000000 0.000000 0.000000 0.023650
#
#
# Mechanical properties :
#
#
# Convention : Reuss Voigt Hill
#
# Bulk Modulus (GPa) = 31.34486 63.19262 47.26874
# Shear Modulus (GPa) = 18.62005 27.73565 23.17785
#
# Velocity S-wave (km/s) = 3.09953 3.78289 3.45813
# Velocity P-wave (km/s) = 5.38348 7.18921 6.35085
#
# Compressibility (1/GPa) = 0.03190315
#
# Stress axis : x y z
#
# Youngs Moduli (GPa) = 77.24263 128.57960 22.51279
#
# Poissons Ratio (x) = 0.39524 0.17451
# Poissons Ratio (y) = 0.23743 0.13045
# Poissons Ratio (z) = 0.59875 0.74503
#
# Static dielectric constant tensor:
#      x y z
#    x 3.740210 0.000000 0.000000 
#    y 0.000000 3.694400 0.000000 
#    z 0.000000 0.000000 3.194910 
# 
# 
# High freq. dielectric constant tensor:
#      x y z
#    x 1.767390 0.000000 0.000000 
#    y 0.000000 1.774100 0.000000 
#    z 0.000000 0.000000 1.725760 
# 
# From -- ./inp_files/2853.got.cif
#   From: 2010.03.12/outbox.cif.g09.slc.cpg/sg55_2_cif.got.tgz:2853.got - 2010.04.16 15:19:21.
