data_PCOD8225203
_publ_section_title
;
Structure prediction by ZEFSAII (Michael W. Deem and Ramdas Pophale) SiO2 
 PCOD8225203
Probable space group: P B A M
;
_chemical_formula_sum "Si O2"
_cell_formula_units_Z 64
_cell_length_a 20.732160
_cell_length_b 18.477541
_cell_length_c 8.970288
_cell_angle_alpha 90.000000
_cell_angle_beta 90.000000
_cell_angle_gamma 90.000000
_cell_volume 3436.331975
_symmetry_space_group_name_H-M "P B A M"
_symmetry_group_IT_number 55
_symmetry_cell_setting 'orthorhombic'
loop_
_space_group_symop_operation_xyz
x,y,z
-x,-y,z
1/2+x,1/2-y,-z
1/2-x,1/2+y,-z
-x,-y,-z
x,y,-z
1/2-x,1/2+y,z
1/2+x,1/2-y,z
loop_
_atom_site_type_symbol
_atom_site_label
_atom_site_fract_x
_atom_site_fract_y
_atom_site_fract_z
Si Si1 0.863160 0.821442 0.824143
Si Si2 0.756672 0.917375 0.327307
Si Si3 0.499386 0.147796 0.837437
Si Si4 0.367046 0.308615 0.325411
Si Si5 0.745763 0.583857 0.329099
Si Si6 0.861015 0.344149 0.821154
Si Si7 0.637069 0.156766 0.177485
Si Si8 0.993541 0.181139 0.162989
O O1 0.816565 0.872258 0.731562
O O2 0.849384 0.739093 0.771575
O O3 0.936135 0.846424 0.783351
O O4 0.849915 0.829849 0.000000
O O5 0.745172 0.899288 0.500000
O O6 0.692335 0.898935 0.236598
O O7 0.772715 0.001053 0.300626
O O8 0.431157 0.126962 0.759165
O O9 0.567308 0.128398 0.755885
O O10 0.498874 0.233601 0.855244
O O11 0.499517 0.110697 0.000000
O O12 0.367541 0.292143 0.500000
O O13 0.315228 0.368860 0.279718
O O14 0.347098 0.236188 0.238710
O O15 0.437230 0.339524 0.278542
O O16 0.763714 0.598608 0.500000
O O17 0.807761 0.603807 0.232402
O O18 0.860886 0.340754 0.000000
O O19 0.632194 0.154420 0.000000
O O20 0.976952 0.147879 0.000000
#
# Coordination Sequence:
#
# PCOD8225203 Si02
#       8
#     8   8   8   8   8   8   8   8
#     4   9  18  34  56  81 105 130 166 211 258 306
#     4  11  23  37  50  69 102 140 176 212 251 299
#     4   7  13  28  50  76 102 124 152 197 251 301
#     4  10  19  33  54  78 103 134 172 209 250 304
#     4  10  23  38  48  67 104 142 172 208 252 298
#     4  10  19  34  56  79 103 131 165 210 261 307
#     4   9  17  32  56  80  99 125 164 207 250 301
#     4   8  15  30  52  78 106 130 159 207 257 300
#
# _framework density 18.624510000000001
#
# number of rings (size 3 to 8) (size 9 to 14) (size 15 to 20)
#    0.000    2.750    0.000    4.125    0.000    5.000 
#    0.000    6.875    0.000    7.500    0.000    0.000 
#    0.000    0.000    0.000    0.000    0.000    0.000 
#
# Total GULP energy -793097.125599 kJ/mol
# GULP energy per Si atom -12392.142587 kJ/mol
# Density = 1.858212 g / cm^3
# Si number density = 18.624510 Si / 1000 Ang^3
#
#
#
# Elastic Constant Matrix: (Units=GPa)
#
#
# Indices 1 2 3 4 5 6 
#
# 1 116.8122 17.5264 30.8344 0.0000 0.0000 0.0000
# 2 17.5264 39.0088 16.7535 0.0000 0.0000 0.0000
# 3 30.8344 16.7535 55.9088 0.0000 0.0000 0.0000
# 4 0.0000 0.0000 0.0000 18.4263 0.0000 0.0000
# 5 0.0000 0.0000 0.0000 0.0000 14.8365 0.0000
# 6 0.0000 0.0000 0.0000 0.0000 0.0000 -0.1022
#
#
#
# Elastic Compliance Matrix: (Units=1/GPa)
#
#
# Indices 1 2 3 4 5 6 
#
# 1 0.010226 -0.002493 -0.004893 0.000000 0.000000 0.000000
# 2 -0.002493 0.030030 -0.007624 0.000000 0.000000 0.000000
# 3 -0.004893 -0.007624 0.022869 0.000000 0.000000 0.000000
# 4 0.000000 0.000000 0.000000 0.054270 0.000000 0.000000
# 5 0.000000 0.000000 0.000000 0.000000 0.067401 0.000000
# 6 0.000000 0.000000 0.000000 0.000000 0.000000 -9.786527
#
#
# Mechanical properties :
#
#
# Convention : Reuss Voigt Hill
#
# Bulk Modulus (GPa) = 30.20612 37.99538 34.10075
# Shear Modulus (GPa) = -0.52298 16.40650 7.94176
#
# Velocity S-wave (km/s) = -0.53048 2.97123 2.06722
# Velocity P-wave (km/s) = 3.98478 5.67591 4.90380
#
# Compressibility (1/GPa) = 0.03310587
#
# Stress axis : x y z
#
# Youngs Moduli (GPa) = 97.78631 33.30042 43.72693
#
# Poissons Ratio (x) = 0.08303 0.21395
# Poissons Ratio (y) = 0.24381 0.33336
# Poissons Ratio (z) = 0.47845 0.25387
#
# Static dielectric constant tensor:
#      x y z
#    x 3.955510 0.000000 0.000000 
#    y 0.000000 3.099970 0.000000 
#    z 0.000000 0.000000 3.300170 
# 
# 
# High freq. dielectric constant tensor:
#      x y z
#    x 1.747070 0.000000 0.000000 
#    y 0.000000 1.687440 0.000000 
#    z 0.000000 0.000000 1.705930 
# 
# From -- ./inp_files/8950.got.cif
#   From: 2010.03.12/outbox.cif.g09.slc.cpg/sg55_5_cif.got.tgz:8950.got - 2010.04.16 15:19:21.
