data_PCOD8225143
_publ_section_title
;
Structure prediction by ZEFSAII (Michael W. Deem and Ramdas Pophale) SiO2 
 PCOD8225143
Probable space group: P B A M
;
_chemical_formula_sum "Si O2"
_cell_formula_units_Z 64
_cell_length_a 24.995545
_cell_length_b 14.233947
_cell_length_c 8.757581
_cell_angle_alpha 90.000000
_cell_angle_beta 90.000000
_cell_angle_gamma 90.000000
_cell_volume 3115.818257
_symmetry_space_group_name_H-M "P B A M"
_symmetry_group_IT_number 55
_symmetry_cell_setting 'orthorhombic'
loop_
_space_group_symop_operation_xyz
x,y,z
-x,-y,z
1/2+x,1/2-y,-z
1/2-x,1/2+y,-z
-x,-y,-z
x,y,-z
1/2-x,1/2+y,z
1/2+x,1/2-y,z
loop_
_atom_site_type_symbol
_atom_site_label
_atom_site_fract_x
_atom_site_fract_y
_atom_site_fract_z
Si Si1 0.442294 0.977750 0.671301
Si Si2 0.202538 0.287202 0.319625
Si Si3 0.441828 0.470806 0.319718
Si Si4 0.390026 0.653728 0.318023
Si Si5 0.479760 0.777938 0.669036
Si Si6 0.332048 0.983515 0.177655
Si Si7 0.198289 0.688667 0.822734
Si Si8 0.592291 0.735757 0.320177
O O1 0.439551 0.022686 0.500000
O O2 0.440002 0.865722 0.662647
O O3 0.391794 0.011151 0.767556
O O4 0.500000 0.000000 0.747898
O O5 0.198789 0.294254 0.500000
O O6 0.161011 0.209823 0.251037
O O7 0.192431 0.392593 0.259304
O O8 0.260557 0.250145 0.274041
O O9 0.500000 0.500000 0.250377
O O10 0.447293 0.471920 0.500000
O O11 0.394623 0.544537 0.269989
O O12 0.421730 0.369608 0.265096
O O13 0.388591 0.666468 0.500000
O O14 0.444735 0.698532 0.247416
O O15 0.492235 0.738368 0.500000
O O16 0.539686 0.797064 0.732296
O O17 0.296541 0.076561 0.212413
O O18 0.334535 0.961003 0.000000
O O19 0.139869 0.724543 0.779583
O O20 0.208686 0.707879 0.000000
O O21 0.606637 0.742940 0.500000
#
# Coordination Sequence:
#
# PCOD8225143 Si02
#       8
#     8   8   8   8   8   8   8   8
#     4  10  19  32  55  87 121 158 202 254 306 357
#     4  11  23  41  67  91 116 153 207 262 302 354
#     4   9  15  26  50  87 126 156 186 234 296 357
#     4   9  16  29  52  85 120 149 183 239 300 348
#     4   9  15  27  50  83 120 151 186 241 303 354
#     4  11  24  42  63  87 121 162 200 246 308 377
#     4  11  26  45  61  83 122 164 201 246 307 367
#     4  10  19  33  59  91 120 157 204 249 299 358
#
# _framework density 20.540351000000001
#
# number of rings (size 3 to 8) (size 9 to 14) (size 15 to 20)
#    0.000    2.000    2.500    1.875    0.000    4.250 
#    0.000    1.875    0.000    1.125    0.000    0.000 
#    0.000    0.000    0.000    0.000    0.000    0.000 
#
# Total GULP energy -792947.176122 kJ/mol
# GULP energy per Si atom -12389.799627 kJ/mol
# Density = 2.049360 g / cm^3
# Si number density = 20.540351 Si / 1000 Ang^3
#
#
#
# Elastic Constant Matrix: (Units=GPa)
#
#
# Indices 1 2 3 4 5 6 
#
# 1 101.0862 31.1267 23.8560 0.0000 0.0000 0.0000
# 2 31.1267 92.3316 29.8809 0.0000 0.0000 0.0000
# 3 23.8560 29.8809 52.4341 0.0000 0.0000 0.0000
# 4 0.0000 0.0000 0.0000 22.3337 0.0000 0.0000
# 5 0.0000 0.0000 0.0000 0.0000 11.9469 0.0000
# 6 0.0000 0.0000 0.0000 0.0000 0.0000 35.8697
#
#
#
# Elastic Compliance Matrix: (Units=1/GPa)
#
#
# Indices 1 2 3 4 5 6 
#
# 1 0.011608 -0.002702 -0.003741 0.000000 0.000000 0.000000
# 2 -0.002702 0.013909 -0.006697 0.000000 0.000000 0.000000
# 3 -0.003741 -0.006697 0.024590 0.000000 0.000000 0.000000
# 4 0.000000 0.000000 0.000000 0.044775 0.000000 0.000000
# 5 0.000000 0.000000 0.000000 0.000000 0.083704 0.000000
# 6 0.000000 0.000000 0.000000 0.000000 0.000000 0.027879
#
#
# Mechanical properties :
#
#
# Convention : Reuss Voigt Hill
#
# Bulk Modulus (GPa) = 41.97125 46.17546 44.07335
# Shear Modulus (GPa) = 20.77387 24.76260 22.76823
#
# Velocity S-wave (km/s) = 3.18365 3.47588 3.33297
# Velocity P-wave (km/s) = 5.83028 6.21596 6.02620
#
# Compressibility (1/GPa) = 0.02382583
#
# Stress axis : x y z
#
# Youngs Moduli (GPa) = 86.15070 71.89682 40.66694
#
# Poissons Ratio (x) = 0.19430 0.15214
# Poissons Ratio (y) = 0.23282 0.27234
# Poissons Ratio (z) = 0.32230 0.48148
#
# Static dielectric constant tensor:
#      x y z
#    x 3.758800 0.000000 0.000000 
#    y 0.000000 4.026900 0.000000 
#    z 0.000000 0.000000 3.211910 
# 
# 
# High freq. dielectric constant tensor:
#      x y z
#    x 1.804450 0.000000 0.000000 
#    y 0.000000 1.823940 0.000000 
#    z 0.000000 0.000000 1.744960 
# 
# From -- ./inp_files/9722.got.cif
#   From: 2010.03.12/outbox.cif.g09.slc.cpg/sg55_5_cif.got.tgz:9722.got - 2010.04.16 15:19:21.
