data_PCOD8225877
_publ_section_title
;
Structure prediction by ZEFSAII (Michael W. Deem and Ramdas Pophale) SiO2 
 PCOD8225877
Probable space group: P B A M
;
_chemical_formula_sum "Si O2"
_cell_formula_units_Z 56
_cell_length_a 13.685949
_cell_length_b 21.471071
_cell_length_c 10.140149
_cell_angle_alpha 90.000000
_cell_angle_beta 90.000000
_cell_angle_gamma 90.000000
_cell_volume 2979.702888
_symmetry_space_group_name_H-M "P B A M"
_symmetry_group_IT_number 55
_symmetry_cell_setting 'orthorhombic'
loop_
_space_group_symop_operation_xyz
x,y,z
-x,-y,z
1/2+x,1/2-y,-z
1/2-x,1/2+y,-z
-x,-y,-z
x,y,-z
1/2-x,1/2+y,z
1/2+x,1/2-y,z
loop_
_atom_site_type_symbol
_atom_site_label
_atom_site_fract_x
_atom_site_fract_y
_atom_site_fract_z
Si Si1 0.036713 0.564971 0.346046
Si Si2 0.096858 0.030388 0.757813
Si Si3 0.806447 0.089877 0.146754
Si Si4 0.654028 0.137969 0.348771
Si Si5 0.504685 0.347012 0.147164
Si Si6 0.867136 0.780565 0.654789
Si Si7 0.760222 0.392005 0.351352
O O1 0.054946 0.552593 0.500000
O O2 0.957694 0.618913 0.321575
O O3 0.000000 0.500000 0.281385
O O4 0.139755 0.586078 0.278456
O O5 0.064523 0.088318 0.847653
O O6 0.175599 0.055367 0.652332
O O7 0.149265 0.979349 0.848333
O O8 0.000000 0.000000 0.688385
O O9 0.723076 0.097667 0.255467
O O10 0.890754 0.140371 0.174915
O O11 0.762962 0.099642 0.000000
O O12 0.682851 0.123195 0.500000
O O13 0.665984 0.210598 0.316826
O O14 0.538210 0.297418 0.257546
O O15 0.519775 0.319430 0.000000
O O16 0.893015 0.790831 0.500000
O O17 0.779950 0.826134 0.704233
O O18 0.790154 0.379233 0.500000
#
# Coordination Sequence:
#
# PCOD8225877 Si02
#       7
#     8   8   8   8   8   8   8
#     4   9  17  30  49  71  95 129 172 211 250 302
#     4   9  17  30  50  75 102 132 166 205 253 311
#     4  10  20  33  51  76 104 133 166 207 256 305
#     4  10  21  35  52  74 100 134 175 216 258 305
#     4   9  18  33  53  75 101 135 168 200 248 310
#     4   9  19  34  51  75 103 130 166 212 259 304
#     4   9  17  30  49  73 102 133 166 210 260 308
#
# _framework density 18.79382
#
# number of rings (size 3 to 8) (size 9 to 14) (size 15 to 20)
#    0.000    2.714    0.000    1.286    0.000    6.000 
#    0.000    5.714    0.000    7.286    0.000    0.000 
#    0.000    0.000    0.000    0.000    0.000    0.000 
#
# Total GULP energy -694033.438703 kJ/mol
# GULP energy per Si atom -12393.454263 kJ/mol
# Density = 1.875104 g / cm^3
# Si number density = 18.793820 Si / 1000 Ang^3
#
#
#
# Elastic Constant Matrix: (Units=GPa)
#
#
# Indices 1 2 3 4 5 6 
#
# 1 114.9749 39.3139 31.7080 0.0000 0.0000 0.0000
# 2 39.3139 82.7891 20.5946 0.0000 0.0000 0.0000
# 3 31.7080 20.5946 59.0940 0.0000 0.0000 0.0000
# 4 0.0000 0.0000 0.0000 14.3788 0.0000 0.0000
# 5 0.0000 0.0000 0.0000 0.0000 22.1875 0.0000
# 6 0.0000 0.0000 0.0000 0.0000 0.0000 20.7705
#
#
#
# Elastic Compliance Matrix: (Units=1/GPa)
#
#
# Indices 1 2 3 4 5 6 
#
# 1 0.011442 -0.004277 -0.004649 0.000000 0.000000 0.000000
# 2 -0.004277 0.014824 -0.002871 0.000000 0.000000 0.000000
# 3 -0.004649 -0.002871 0.020417 0.000000 0.000000 0.000000
# 4 0.000000 0.000000 0.000000 0.069547 0.000000 0.000000
# 5 0.000000 0.000000 0.000000 0.000000 0.045070 0.000000
# 6 0.000000 0.000000 0.000000 0.000000 0.000000 0.048145
#
#
# Mechanical properties :
#
#
# Convention : Reuss Voigt Hill
#
# Bulk Modulus (GPa) = 43.31067 48.89898 46.10483
# Shear Modulus (GPa) = 20.76953 22.48346 21.62649
#
# Velocity S-wave (km/s) = 3.32795 3.46254 3.39591
# Velocity P-wave (km/s) = 6.15323 6.48542 6.32151
#
# Compressibility (1/GPa) = 0.02308900
#
# Stress axis : x y z
#
# Youngs Moduli (GPa) = 87.39650 67.45731 48.97794
#
# Poissons Ratio (x) = 0.28852 0.22769
# Poissons Ratio (y) = 0.37380 0.14063
# Poissons Ratio (z) = 0.40630 0.19370
#
# Static dielectric constant tensor:
#      x y z
#    x 3.616870 0.000000 0.000000 
#    y 0.000000 3.425810 0.000000 
#    z 0.000000 0.000000 3.094760 
# 
# 
# High freq. dielectric constant tensor:
#      x y z
#    x 1.730590 0.000000 0.000000 
#    y 0.000000 1.728780 0.000000 
#    z 0.000000 0.000000 1.691110 
# 
# From -- ./inp_files/13356.got.cif
#   From: 2010.03.12/outbox.cif.g09.slc.cpg/sg55_7_cif.got.tgz:13356.got - 2010.04.16 15:19:21.
