data_PCOD8225837
_publ_section_title
;
Structure prediction by ZEFSAII (Michael W. Deem and Ramdas Pophale) SiO2 
 PCOD8225837
Probable space group: P B A M
;
_chemical_formula_sum "Si O2"
_cell_formula_units_Z 64
_cell_length_a 12.795471
_cell_length_b 23.444969
_cell_length_c 11.098573
_cell_angle_alpha 90.000000
_cell_angle_beta 90.000000
_cell_angle_gamma 90.000000
_cell_volume 3329.454487
_symmetry_space_group_name_H-M "P B A M"
_symmetry_group_IT_number 55
_symmetry_cell_setting 'orthorhombic'
loop_
_space_group_symop_operation_xyz
x,y,z
-x,-y,z
1/2+x,1/2-y,-z
1/2-x,1/2+y,-z
-x,-y,-z
x,y,-z
1/2-x,1/2+y,z
1/2+x,1/2-y,z
loop_
_atom_site_type_symbol
_atom_site_label
_atom_site_fract_x
_atom_site_fract_y
_atom_site_fract_z
Si Si1 0.180791 0.689789 0.779361
Si Si2 0.747003 0.408109 0.633851
Si Si3 0.011764 0.565661 0.633190
Si Si4 0.520409 0.737625 0.638984
Si Si5 0.987219 0.632787 0.870964
Si Si6 0.831720 0.715275 0.220538
Si Si7 0.328478 0.360858 0.641489
Si Si8 0.614919 0.514032 0.643406
O O1 0.265485 0.646491 0.720178
O O2 0.104066 0.714189 0.676240
O O3 0.247585 0.741194 0.839677
O O4 0.105505 0.657800 0.873626
O O5 0.701406 0.394826 0.500000
O O6 0.868087 0.420791 0.625408
O O7 0.689961 0.463405 0.689855
O O8 0.960786 0.580604 0.500000
O O9 0.000000 0.500000 0.661818
O O10 0.961625 0.597870 0.748450
O O11 0.501525 0.745820 0.500000
O O12 0.408124 0.746355 0.698365
O O13 0.566190 0.675035 0.670340
O O14 0.902334 0.683748 0.878570
O O15 0.976242 0.599233 0.000000
O O16 0.771945 0.667368 0.297549
O O17 0.306373 0.361641 0.500000
O O18 0.345166 0.424896 0.693189
O O19 0.500000 0.500000 0.693546
O O20 0.614766 0.516924 0.500000
#
# Coordination Sequence:
#
# PCOD8225837 Si02
#       8
#     8   8   8   8   8   8   8   8
#     4   9  19  34  49  72 102 138 186 227 270 325
#     4   9  17  29  47  71 104 142 181 217 263 325
#     4   9  19  35  57  83 111 143 179 222 274 330
#     4   9  17  29  46  72 106 141 176 227 283 327
#     4  10  22  38  56  81 112 144 183 230 277 330
#     4  10  20  32  52  75 100 138 184 230 275 325
#     4   9  18  30  45  72 107 141 181 223 273 332
#     4   9  18  29  42  67 102 142 180 217 262 322
#
# _framework density 19.222367999999999
#
# number of rings (size 3 to 8) (size 9 to 14) (size 15 to 20)
#    0.000    2.750    0.000    0.750    3.500    5.750 
#    0.000    0.000    0.000    0.000    0.000    0.000 
#    0.000    8.500    0.000    0.000    0.000    0.000 
#
# Total GULP energy -792909.168096 kJ/mol
# GULP energy per Si atom -12389.205751 kJ/mol
# Density = 1.917862 g / cm^3
# Si number density = 19.222368 Si / 1000 Ang^3
#
#
#
# Elastic Constant Matrix: (Units=GPa)
#
#
# Indices 1 2 3 4 5 6 
#
# 1 57.5871 30.0191 13.7792 0.0000 0.0000 0.0000
# 2 30.0191 110.1031 31.0817 0.0000 0.0000 0.0000
# 3 13.7792 31.0817 89.0190 0.0000 0.0000 0.0000
# 4 0.0000 0.0000 0.0000 11.2676 0.0000 0.0000
# 5 0.0000 0.0000 0.0000 0.0000 0.1407 0.0000
# 6 0.0000 0.0000 0.0000 0.0000 0.0000 36.5750
#
#
#
# Elastic Compliance Matrix: (Units=1/GPa)
#
#
# Indices 1 2 3 4 5 6 
#
# 1 0.020387 -0.005178 -0.001348 0.000000 0.000000 0.000000
# 2 -0.005178 0.011391 -0.003176 0.000000 0.000000 0.000000
# 3 -0.001348 -0.003176 0.012551 0.000000 0.000000 0.000000
# 4 0.000000 0.000000 0.000000 0.088750 0.000000 0.000000
# 5 0.000000 0.000000 0.000000 0.000000 7.106684 0.000000
# 6 0.000000 0.000000 0.000000 0.000000 0.000000 0.027341
#
#
# Mechanical properties :
#
#
# Convention : Reuss Voigt Hill
#
# Bulk Modulus (GPa) = 40.11925 45.16324 42.64125
# Shear Modulus (GPa) = 0.68542 21.71860 11.20201
#
# Velocity S-wave (km/s) = 0.59779 3.36499 2.41666
# Velocity P-wave (km/s) = 4.62525 6.21640 5.47889
#
# Compressibility (1/GPa) = 0.02492569
#
# Stress axis : x y z
#
# Youngs Moduli (GPa) = 49.05188 87.79187 79.67505
#
# Poissons Ratio (x) = 0.45457 0.10738
# Poissons Ratio (y) = 0.25398 0.25302
# Poissons Ratio (z) = 0.06611 0.27879
#
# Static dielectric constant tensor:
#      x y z
#    x 3.517610 0.000000 0.000000 
#    y 0.000000 3.646200 0.000000 
#    z 0.000000 0.000000 3.141380 
# 
# 
# High freq. dielectric constant tensor:
#      x y z
#    x 1.750330 0.000000 0.000000 
#    y 0.000000 1.754890 0.000000 
#    z 0.000000 0.000000 1.694310 
# 
# From -- ./inp_files/13586.got.cif
#   From: 2010.03.12/outbox.cif.g09.slc.cpg/sg55_7_cif.got.tgz:13586.got - 2010.04.16 15:19:21.
