data_PCOD8225096
_publ_section_title
;
Structure prediction by ZEFSAII (Michael W. Deem and Ramdas Pophale) SiO2 
 PCOD8225096
Probable space group: P B A M
;
_chemical_formula_sum "Si O2"
_cell_formula_units_Z 64
_cell_length_a 20.512495
_cell_length_b 18.990077
_cell_length_c 9.015760
_cell_angle_alpha 90.000000
_cell_angle_beta 90.000000
_cell_angle_gamma 90.000000
_cell_volume 3511.943789
_symmetry_space_group_name_H-M "P B A M"
_symmetry_group_IT_number 55
_symmetry_cell_setting 'orthorhombic'
loop_
_space_group_symop_operation_xyz
x,y,z
-x,-y,z
1/2+x,1/2-y,-z
1/2-x,1/2+y,-z
-x,-y,-z
x,y,-z
1/2-x,1/2+y,z
1/2+x,1/2-y,z
loop_
_atom_site_type_symbol
_atom_site_label
_atom_site_fract_x
_atom_site_fract_y
_atom_site_fract_z
Si Si1 0.107428 0.826902 0.672658
Si Si2 0.387402 0.183780 0.172671
Si Si3 0.930549 0.035589 0.171814
Si Si4 0.187258 0.466705 0.669892
Si Si5 0.257444 0.817603 0.332139
Si Si6 0.433742 0.033533 0.825046
Si Si7 0.236728 0.178877 0.827746
Si Si8 0.815497 0.952637 0.324129
O O1 0.089910 0.830657 0.500000
O O2 0.087239 0.750053 0.733408
O O3 0.066858 0.886504 0.757920
O O4 0.183634 0.841354 0.703085
O O5 0.429614 0.115774 0.220289
O O6 0.312470 0.165441 0.210228
O O7 0.395117 0.202308 0.000000
O O8 0.878696 0.987171 0.254078
O O9 0.911571 0.041933 0.000000
O O10 0.000000 0.000000 0.194651
O O11 0.175064 0.487740 0.500000
O O12 0.195072 0.383283 0.689459
O O13 0.126099 0.489392 0.764542
O O14 0.252044 0.504679 0.729344
O O15 0.260463 0.788280 0.500000
O O16 0.281814 0.757958 0.219661
O O17 0.500000 0.000000 0.760185
O O18 0.430989 0.026238 0.000000
O O19 0.191465 0.126804 0.733854
O O20 0.221455 0.168258 0.000000
O O21 0.823429 0.954067 0.500000
#
# Coordination Sequence:
#
# PCOD8225096 Si02
#       8
#     8   8   8   8   8   8   8   8
#     4  10  19  34  57  83 110 144 186 231 280 335
#     4   9  18  33  53  80 111 146 189 232 276 332
#     4  11  24  40  58  83 115 150 187 231 281 336
#     4  10  20  35  56  82 111 142 182 228 278 328
#     4   9  18  34  53  80 113 145 184 232 280 332
#     4  10  21  37  56  81 114 151 189 229 277 329
#     4  10  19  32  53  84 113 145 186 232 283 332
#     4  11  21  36  58  84 112 146 184 229 281 332
#
# _framework density 18.223524999999999
#
# number of rings (size 3 to 8) (size 9 to 14) (size 15 to 20)
#    0.000    2.000    2.500    1.500    0.000    3.750 
#    0.000    1.250    0.000    4.500    0.000    0.000 
#    0.000    0.000    0.000    0.000    0.000    0.000 
#
# Total GULP energy -793817.815067 kJ/mol
# GULP energy per Si atom -12403.403360 kJ/mol
# Density = 1.818205 g / cm^3
# Si number density = 18.223525 Si / 1000 Ang^3
#
#
#
# Elastic Constant Matrix: (Units=GPa)
#
#
# Indices 1 2 3 4 5 6 
#
# 1 85.1808 56.8526 48.5030 0.0000 0.0000 0.0000
# 2 56.8526 125.8054 61.5872 0.0000 0.0000 0.0000
# 3 48.5030 61.5872 85.0102 0.0000 0.0000 0.0000
# 4 0.0000 0.0000 0.0000 35.5706 0.0000 0.0000
# 5 0.0000 0.0000 0.0000 0.0000 23.6659 0.0000
# 6 0.0000 0.0000 0.0000 0.0000 0.0000 24.8365
#
#
#
# Elastic Compliance Matrix: (Units=1/GPa)
#
#
# Indices 1 2 3 4 5 6 
#
# 1 0.019342 -0.005173 -0.007288 0.000000 0.000000 0.000000
# 2 -0.005173 0.013701 -0.006974 0.000000 0.000000 0.000000
# 3 -0.007288 -0.006974 0.020974 0.000000 0.000000 0.000000
# 4 0.000000 0.000000 0.000000 0.028113 0.000000 0.000000
# 5 0.000000 0.000000 0.000000 0.000000 0.042255 0.000000
# 6 0.000000 0.000000 0.000000 0.000000 0.000000 0.040263
#
#
# Mechanical properties :
#
#
# Convention : Reuss Voigt Hill
#
# Bulk Modulus (GPa) = 66.02241 69.98690 68.00465
# Shear Modulus (GPa) = 23.97294 25.41816 24.69555
#
# Velocity S-wave (km/s) = 3.63091 3.73875 3.68523
# Velocity P-wave (km/s) = 7.34070 7.55816 7.45022
#
# Compressibility (1/GPa) = 0.01514637
#
# Stress axis : x y z
#
# Youngs Moduli (GPa) = 51.69972 72.98873 47.67777
#
# Poissons Ratio (x) = 0.37758 0.34748
# Poissons Ratio (y) = 0.26745 0.33251
# Poissons Ratio (z) = 0.37680 0.50904
#
# Static dielectric constant tensor:
#      x y z
#    x 3.169730 0.000000 0.000000 
#    y 0.000000 3.491810 0.000000 
#    z 0.000000 0.000000 3.387550 
# 
# 
# High freq. dielectric constant tensor:
#      x y z
#    x 1.676600 0.000000 0.000000 
#    y 0.000000 1.719790 0.000000 
#    z 0.000000 0.000000 1.711370 
# 
# From -- ./inp_files/8948.got.cif
#   From: 2010.03.12/outbox.cif.g09.slc.cpg/sg55_5_cif.got.tgz:8948.got - 2010.04.16 15:19:21.
