data_PCOD8225750
_publ_section_title
;
Structure prediction by ZEFSAII (Michael W. Deem and Ramdas Pophale) SiO2 
 PCOD8225750
Probable space group: P B A M
;
_chemical_formula_sum "Si O2"
_cell_formula_units_Z 48
_cell_length_a 9.805056
_cell_length_b 15.193527
_cell_length_c 17.045417
_cell_angle_alpha 90.000000
_cell_angle_beta 90.000000
_cell_angle_gamma 90.000000
_cell_volume 2539.313436
_symmetry_space_group_name_H-M "P B A M"
_symmetry_group_IT_number 55
_symmetry_cell_setting 'orthorhombic'
loop_
_space_group_symop_operation_xyz
x,y,z
-x,-y,z
1/2+x,1/2-y,-z
1/2-x,1/2+y,-z
-x,-y,-z
x,y,-z
1/2-x,1/2+y,z
1/2+x,1/2-y,z
loop_
_atom_site_type_symbol
_atom_site_label
_atom_site_fract_x
_atom_site_fract_y
_atom_site_fract_z
Si Si1 0.103748 0.927760 0.344209
Si Si2 0.254421 0.230876 0.798127
Si Si3 0.158680 0.089845 0.907949
Si Si4 0.597644 0.079029 0.407940
Si Si5 0.862593 0.087675 0.162473
Si Si6 0.501561 0.244903 0.311238
O O1 0.247944 0.943548 0.385679
O O2 0.117006 0.942852 0.251568
O O3 0.047529 0.829481 0.361754
O O4 0.000000 0.000000 0.379286
O O5 0.257900 0.159803 0.867224
O O6 0.267392 0.326519 0.838745
O O7 0.116853 0.223791 0.748649
O O8 0.377247 0.208414 0.739896
O O9 0.005434 0.107813 0.879251
O O10 0.209128 0.991954 0.884312
O O11 0.168775 0.102884 0.000000
O O12 0.583693 0.092585 0.500000
O O13 0.553492 0.170009 0.368669
O O14 0.500000 0.000000 0.378900
#
# Coordination Sequence:
#
# PCOD8225750 Si02
#       6
#     8   8   8   8   8   8
#     4  11  21  40  70  94 124 167 219 254 301 385
#     4  11  21  39  64  94 120 162 220 254 310 371
#     4  11  22  37  61  92 126 163 208 263 317 366
#     4  11  27  44  63  98 132 163 204 263 326 367
#     4  10  19  37  61  88 121 164 210 248 302 374
#     4  11  22  41  66  93 122 169 211 259 307 379
#
# _framework density 18.902746
#
# number of rings (size 3 to 8) (size 9 to 14) (size 15 to 20)
#    0.000    1.167    8.333    1.000    4.667    2.333 
#    0.000    0.000    0.000    1.000    0.000    0.000 
#    0.000    0.000    0.000    0.000    0.000    0.000 
#
# Total GULP energy -595242.599131 kJ/mol
# GULP energy per Si atom -12400.887482 kJ/mol
# Density = 1.885972 g / cm^3
# Si number density = 18.902746 Si / 1000 Ang^3
#
#
#
# Elastic Constant Matrix: (Units=GPa)
#
#
# Indices 1 2 3 4 5 6 
#
# 1 104.0132 36.9662 29.5676 0.0000 0.0000 0.0000
# 2 36.9662 138.0295 32.4279 0.0000 0.0000 0.0000
# 3 29.5676 32.4279 81.7649 0.0000 0.0000 0.0000
# 4 0.0000 0.0000 0.0000 28.5080 0.0000 0.0000
# 5 0.0000 0.0000 0.0000 0.0000 22.4634 0.0000
# 6 0.0000 0.0000 0.0000 0.0000 0.0000 40.6559
#
#
#
# Elastic Compliance Matrix: (Units=1/GPa)
#
#
# Indices 1 2 3 4 5 6 
#
# 1 0.011334 -0.002285 -0.003192 0.000000 0.000000 0.000000
# 2 -0.002285 0.008450 -0.002525 0.000000 0.000000 0.000000
# 3 -0.003192 -0.002525 0.014386 0.000000 0.000000 0.000000
# 4 0.000000 0.000000 0.000000 0.035078 0.000000 0.000000
# 5 0.000000 0.000000 0.000000 0.000000 0.044517 0.000000
# 6 0.000000 0.000000 0.000000 0.000000 0.000000 0.024597
#
#
# Mechanical properties :
#
#
# Convention : Reuss Voigt Hill
#
# Bulk Modulus (GPa) = 55.05092 57.97011 56.51052
# Shear Modulus (GPa) = 31.16803 33.31519 32.24161
#
# Velocity S-wave (km/s) = 4.06502 4.20271 4.13444
# Velocity P-wave (km/s) = 7.15675 7.36780 7.26304
#
# Compressibility (1/GPa) = 0.01816500
#
# Stress axis : x y z
#
# Youngs Moduli (GPa) = 88.23153 118.34220 69.51273
#
# Poissons Ratio (x) = 0.27046 0.22189
# Poissons Ratio (y) = 0.20165 0.17551
# Poissons Ratio (z) = 0.28164 0.29880
#
# Static dielectric constant tensor:
#      x y z
#    x 3.578940 0.000000 0.000000 
#    y 0.000000 3.931800 0.000000 
#    z 0.000000 0.000000 3.324210 
# 
# 
# High freq. dielectric constant tensor:
#      x y z
#    x 1.729450 0.000000 0.000000 
#    y 0.000000 1.750050 0.000000 
#    z 0.000000 0.000000 1.723660 
# 
# From -- ./inp_files/20773.got.cif
#   From: 2010.03.12/outbox.cif.g09.slc.cpg/sg55_11_cif.got.tgz:20773.got - 2010.04.16 15:19:21.
