data_PCOD8225011
_publ_section_title
;
Structure prediction by ZEFSAII (Michael W. Deem and Ramdas Pophale) SiO2 
 PCOD8225011
Probable space group: P B A M
;
_chemical_formula_sum "Si O2"
_cell_formula_units_Z 56
_cell_length_a 19.154306
_cell_length_b 18.805207
_cell_length_c 9.002016
_cell_angle_alpha 90.000000
_cell_angle_beta 90.000000
_cell_angle_gamma 90.000000
_cell_volume 3242.532368
_symmetry_space_group_name_H-M "P B A M"
_symmetry_group_IT_number 55
_symmetry_cell_setting 'orthorhombic'
loop_
_space_group_symop_operation_xyz
x,y,z
-x,-y,z
1/2+x,1/2-y,-z
1/2-x,1/2+y,-z
-x,-y,-z
x,y,-z
1/2-x,1/2+y,z
1/2+x,1/2-y,z
loop_
_atom_site_type_symbol
_atom_site_label
_atom_site_fract_x
_atom_site_fract_y
_atom_site_fract_z
Si Si1 0.479386 0.288390 0.675393
Si Si2 0.296899 0.481704 0.825170
Si Si3 0.220757 0.359707 0.325356
Si Si4 0.451249 0.433472 0.827919
Si Si5 0.671905 0.762140 0.327444
Si Si6 0.775131 0.857875 0.825573
Si Si7 0.383757 0.761447 0.176016
O O1 0.491507 0.287087 0.500000
O O2 0.478845 0.369545 0.728101
O O3 0.407561 0.249911 0.721485
O O4 0.539512 0.244813 0.756996
O O5 0.238494 0.437254 0.738102
O O6 0.373010 0.453354 0.781739
O O7 0.290922 0.562805 0.770151
O O8 0.283439 0.475059 0.000000
O O9 0.207126 0.364348 0.500000
O O10 0.285020 0.308236 0.284041
O O11 0.151137 0.331711 0.245170
O O12 0.500000 0.500000 0.794024
O O13 0.456339 0.410933 0.000000
O O14 0.678431 0.778098 0.500000
O O15 0.702665 0.830521 0.243686
O O16 0.839330 0.807877 0.775504
O O17 0.765986 0.855264 0.000000
O O18 0.388040 0.769509 0.000000
#
# Coordination Sequence:
#
# PCOD8225011 Si02
#       7
#     8   8   8   8   8   8   8
#     4  11  21  34  51  76 107 139 174 215 263 315
#     4  10  19  32  51  76 105 137 173 215 260 308
#     4  10  19  34  53  75 103 137 176 216 259 312
#     4  10  20  33  50  74 108 145 178 212 256 311
#     4   9  19  34  51  73 103 135 174 215 256 309
#     4   9  19  34  53  76 103 134 175 218 258 307
#     4  10  20  35  54  77 104 137 177 219 261 309
#
# _framework density 17.270451999999999
#
# number of rings (size 3 to 8) (size 9 to 14) (size 15 to 20)
#    0.000    2.143    1.429    2.143    0.000    5.429 
#    0.000    1.429    0.000    0.857    0.000    6.000 
#    0.000    0.000    0.000    0.000    0.000    0.000 
#
# Total GULP energy -694610.004077 kJ/mol
# GULP energy per Si atom -12403.750073 kJ/mol
# Density = 1.723114 g / cm^3
# Si number density = 17.270452 Si / 1000 Ang^3
#
#
#
# Elastic Constant Matrix: (Units=GPa)
#
#
# Indices 1 2 3 4 5 6 
#
# 1 98.3950 21.8108 32.5247 0.0000 0.0000 0.0000
# 2 21.8108 32.4372 15.3051 0.0000 0.0000 0.0000
# 3 32.5247 15.3051 48.9122 0.0000 0.0000 0.0000
# 4 0.0000 0.0000 0.0000 26.5351 0.0000 0.0000
# 5 0.0000 0.0000 0.0000 0.0000 31.1468 0.0000
# 6 0.0000 0.0000 0.0000 0.0000 0.0000 26.9416
#
#
#
# Elastic Compliance Matrix: (Units=1/GPa)
#
#
# Indices 1 2 3 4 5 6 
#
# 1 0.013914 -0.005854 -0.007420 0.000000 0.000000 0.000000
# 2 -0.005854 0.038632 -0.008195 0.000000 0.000000 0.000000
# 3 -0.007420 -0.008195 0.027943 0.000000 0.000000 0.000000
# 4 0.000000 0.000000 0.000000 0.037686 0.000000 0.000000
# 5 0.000000 0.000000 0.000000 0.000000 0.032106 0.000000
# 6 0.000000 0.000000 0.000000 0.000000 0.000000 0.037117
#
#
# Mechanical properties :
#
#
# Convention : Reuss Voigt Hill
#
# Bulk Modulus (GPa) = 26.63174 35.44732 31.03953
# Shear Modulus (GPa) = 20.58843 24.26494 22.42668
#
# Velocity S-wave (km/s) = 3.45645 3.75240 3.60746
# Velocity P-wave (km/s) = 5.60208 6.27243 5.94671
#
# Compressibility (1/GPa) = 0.03754919
#
# Stress axis : x y z
#
# Youngs Moduli (GPa) = 71.87230 25.88511 35.78675
#
# Poissons Ratio (x) = 0.15154 0.26554
# Poissons Ratio (y) = 0.42077 0.29329
# Poissons Ratio (z) = 0.53330 0.21214
#
# Static dielectric constant tensor:
#      x y z
#    x 3.267180 0.000000 0.000000 
#    y 0.000000 3.174840 0.000000 
#    z 0.000000 0.000000 3.181230 
# 
# 
# High freq. dielectric constant tensor:
#      x y z
#    x 1.662850 0.000000 0.000000 
#    y 0.000000 1.654610 0.000000 
#    z 0.000000 0.000000 1.670220 
# 
# From -- ./inp_files/7799.got.cif
#   From: 2010.03.12/outbox.cif.g09.slc.cpg/sg55_4_cif.got.tgz:7799.got - 2010.04.16 15:19:21.
