data_PCOD8225681
_publ_section_title
;
Structure prediction by ZEFSAII (Michael W. Deem and Ramdas Pophale) SiO2 
 PCOD8225681
Probable space group: P B A M
;
_chemical_formula_sum "Si O2"
_cell_formula_units_Z 56
_cell_length_a 21.547503
_cell_length_b 14.390913
_cell_length_c 9.168315
_cell_angle_alpha 90.000000
_cell_angle_beta 90.000000
_cell_angle_gamma 90.000000
_cell_volume 2842.986672
_symmetry_space_group_name_H-M "P B A M"
_symmetry_group_IT_number 55
_symmetry_cell_setting 'orthorhombic'
loop_
_space_group_symop_operation_xyz
x,y,z
-x,-y,z
1/2+x,1/2-y,-z
1/2-x,1/2+y,-z
-x,-y,-z
x,y,-z
1/2-x,1/2+y,z
1/2+x,1/2-y,z
loop_
_atom_site_type_symbol
_atom_site_label
_atom_site_fract_x
_atom_site_fract_y
_atom_site_fract_z
Si Si1 0.801459 0.693167 0.830094
Si Si2 0.058438 0.618219 0.171820
Si Si3 0.421446 0.913652 0.827632
Si Si4 0.916020 0.206984 0.664878
Si Si5 0.662041 0.399783 0.169735
Si Si6 0.965274 0.907796 0.332307
Si Si7 0.196597 0.919880 0.328427
O O1 0.866007 0.650546 0.768829
O O2 0.801258 0.803680 0.806593
O O3 0.746937 0.649990 0.735623
O O4 0.792296 0.667508 0.000000
O O5 0.090401 0.520954 0.217890
O O6 0.097791 0.702403 0.238928
O O7 0.987845 0.620356 0.234033
O O8 0.059243 0.630773 0.000000
O O9 0.425594 0.906813 0.000000
O O10 0.902028 0.235807 0.500000
O O11 0.870991 0.122250 0.708662
O O12 0.987153 0.176929 0.686149
O O13 0.593057 0.387669 0.231260
O O14 0.700478 0.479678 0.252318
O O15 0.657424 0.425177 0.000000
O O16 0.943067 0.919831 0.500000
O O17 0.000000 0.000000 0.278847
O O18 0.207541 0.932319 0.500000
#
# Coordination Sequence:
#
# PCOD8225681 Si02
#       7
#     8   8   8   8   8   8   8
#     4  10  22  40  60  84 115 150 194 246 294 341
#     4   9  17  32  58  85 110 145 183 224 279 344
#     4   8  16  34  57  82 113 145 180 227 284 338
#     4  10  21  36  54  80 115 150 184 234 288 335
#     4  11  23  39  62  91 119 148 191 249 302 353
#     4  10  19  36  59  83 117 157 190 233 294 354
#     4  11  24  42  59  79 114 157 198 235 281 349
#
# _framework density 19.697595
#
# number of rings (size 3 to 8) (size 9 to 14) (size 15 to 20)
#    0.000    2.143    1.429    2.571    0.000    5.429 
#    0.000    7.143    0.000    0.000    0.000    0.000 
#    0.000    0.000    0.000    0.000    0.000    0.000 
#
# Total GULP energy -694431.950740 kJ/mol
# GULP energy per Si atom -12400.570549 kJ/mol
# Density = 1.965276 g / cm^3
# Si number density = 19.697595 Si / 1000 Ang^3
#
#
#
# Elastic Constant Matrix: (Units=GPa)
#
#
# Indices 1 2 3 4 5 6 
#
# 1 76.0950 35.4517 45.7776 0.0000 0.0000 0.0000
# 2 35.4517 128.1937 59.0056 0.0000 0.0000 0.0000
# 3 45.7776 59.0056 84.0834 0.0000 0.0000 0.0000
# 4 0.0000 0.0000 0.0000 17.6940 0.0000 0.0000
# 5 0.0000 0.0000 0.0000 0.0000 29.1448 0.0000
# 6 0.0000 0.0000 0.0000 0.0000 0.0000 29.0434
#
#
#
# Elastic Compliance Matrix: (Units=1/GPa)
#
#
# Indices 1 2 3 4 5 6 
#
# 1 0.019591 -0.000751 -0.010139 0.000000 0.000000 0.000000
# 2 -0.000751 0.011551 -0.007697 0.000000 0.000000 0.000000
# 3 -0.010139 -0.007697 0.022814 0.000000 0.000000 0.000000
# 4 0.000000 0.000000 0.000000 0.056516 0.000000 0.000000
# 5 0.000000 0.000000 0.000000 0.000000 0.034311 0.000000
# 6 0.000000 0.000000 0.000000 0.000000 0.000000 0.034431
#
#
# Mechanical properties :
#
#
# Convention : Reuss Voigt Hill
#
# Bulk Modulus (GPa) = 59.58665 63.20465 61.39565
# Shear Modulus (GPa) = 22.52418 25.05224 23.78821
#
# Velocity S-wave (km/s) = 3.38523 3.57016 3.47893
# Velocity P-wave (km/s) = 6.75249 7.01084 6.88288
#
# Compressibility (1/GPa) = 0.01678228
#
# Stress axis : x y z
#
# Youngs Moduli (GPa) = 51.04468 86.57017 43.83210
#
# Poissons Ratio (x) = 0.06502 0.44440
# Poissons Ratio (y) = 0.03834 0.33739
# Poissons Ratio (z) = 0.51753 0.66635
#
# Static dielectric constant tensor:
#      x y z
#    x 3.670730 0.000000 0.000000 
#    y 0.000000 3.687200 0.000000 
#    z 0.000000 0.000000 3.367500 
# 
# 
# High freq. dielectric constant tensor:
#      x y z
#    x 1.758060 0.000000 0.000000 
#    y 0.000000 1.781900 0.000000 
#    z 0.000000 0.000000 1.747820 
# 
# From -- ./inp_files/8667.got.cif
#   From: 2010.03.12/outbox.cif.g09.slc.cpg/sg55_5_cif.got.tgz:8667.got - 2010.04.16 15:19:21.
