data_PCOD8225446
_publ_section_title
;
Structure prediction by ZEFSAII (Michael W. Deem and Ramdas Pophale) SiO2 
 PCOD8225446
Probable space group: P B A M
;
_chemical_formula_sum "Si O2"
_cell_formula_units_Z 64
_cell_length_a 12.660034
_cell_length_b 28.864216
_cell_length_c 9.474481
_cell_angle_alpha 90.000000
_cell_angle_beta 90.000000
_cell_angle_gamma 90.000000
_cell_volume 3462.183379
_symmetry_space_group_name_H-M "P B A M"
_symmetry_group_IT_number 55
_symmetry_cell_setting 'orthorhombic'
loop_
_space_group_symop_operation_xyz
x,y,z
-x,-y,z
1/2+x,1/2-y,-z
1/2-x,1/2+y,-z
-x,-y,-z
x,y,-z
1/2-x,1/2+y,z
1/2+x,1/2-y,z
loop_
_atom_site_type_symbol
_atom_site_label
_atom_site_fract_x
_atom_site_fract_y
_atom_site_fract_z
Si Si1 0.947212 0.212824 0.157714
Si Si2 0.630080 0.797240 0.333473
Si Si3 0.901001 0.922971 0.162895
Si Si4 0.873291 0.111299 0.834209
Si Si5 0.680216 0.070171 0.336292
Si Si6 0.321921 0.678588 0.155816
Si Si7 0.225903 0.535630 0.663223
Si Si8 0.954723 0.396088 0.666678
O O1 0.923681 0.252277 0.269734
O O2 0.892613 0.164919 0.205050
O O3 0.072274 0.208083 0.156712
O O4 0.908045 0.226407 0.000000
O O5 0.635429 0.791709 0.500000
O O6 0.748069 0.800323 0.275131
O O7 0.565445 0.843085 0.288245
O O8 0.845524 0.874273 0.192314
O O9 0.837729 0.960441 0.255355
O O10 0.023966 0.919392 0.207937
O O11 0.893004 0.937618 0.000000
O O12 0.773500 0.094063 0.748647
O O13 0.851902 0.106196 0.000000
O O14 0.694215 0.083425 0.500000
O O15 0.568934 0.088716 0.274490
O O16 0.680500 0.015350 0.314153
O O17 0.269457 0.682107 0.000000
O O18 0.248769 0.546397 0.500000
O O19 0.138672 0.571113 0.726923
O O20 0.955054 0.402610 0.500000
#
# Coordination Sequence:
#
# PCOD8225446 Si02
#       8
#     8   8   8   8   8   8   8   8
#     4   9  20  38  57  77 105 144 185 222 270 333
#     4  11  21  33  55  85 111 138 177 229 280 326
#     4   9  18  34  57  80 105 140 182 228 272 320
#     4   9  20  39  57  76 108 147 182 223 278 329
#     4  10  21  36  56  80 111 150 186 222 270 331
#     4   9  18  35  56  76 103 141 182 224 270 323
#     4  10  19  34  57  82 108 144 186 227 273 326
#     4   9  19  36  54  77 111 146 181 222 272 326
#
# _framework density 18.485444999999999
#
# number of rings (size 3 to 8) (size 9 to 14) (size 15 to 20)
#    0.000    2.500    1.250    2.250    0.000    5.000 
#    0.000    9.375    0.000    1.500    0.000    0.000 
#    0.000    0.000    0.000    0.000    0.000    0.000 
#
# Total GULP energy -793558.725372 kJ/mol
# GULP energy per Si atom -12399.355084 kJ/mol
# Density = 1.844337 g / cm^3
# Si number density = 18.485445 Si / 1000 Ang^3
#
#
#
# Elastic Constant Matrix: (Units=GPa)
#
#
# Indices 1 2 3 4 5 6 
#
# 1 114.8397 57.7886 46.9936 0.0000 0.0000 0.0000
# 2 57.7886 71.4864 46.7921 0.0000 0.0000 0.0000
# 3 46.9936 46.7921 66.5771 0.0000 0.0000 0.0000
# 4 0.0000 0.0000 0.0000 27.7293 0.0000 0.0000
# 5 0.0000 0.0000 0.0000 0.0000 33.2692 0.0000
# 6 0.0000 0.0000 0.0000 0.0000 0.0000 22.8364
#
#
#
# Elastic Compliance Matrix: (Units=1/GPa)
#
#
# Indices 1 2 3 4 5 6 
#
# 1 0.015201 -0.009751 -0.003876 0.000000 0.000000 0.000000
# 2 -0.009751 0.032162 -0.015721 0.000000 0.000000 0.000000
# 3 -0.003876 -0.015721 0.028806 0.000000 0.000000 0.000000
# 4 0.000000 0.000000 0.000000 0.036063 0.000000 0.000000
# 5 0.000000 0.000000 0.000000 0.000000 0.030058 0.000000
# 6 0.000000 0.000000 0.000000 0.000000 0.000000 0.043790
#
#
# Mechanical properties :
#
#
# Convention : Reuss Voigt Hill
#
# Bulk Modulus (GPa) = 57.23774 61.78353 59.51064
# Shear Modulus (GPa) = 19.95217 23.52225 21.73721
#
# Velocity S-wave (km/s) = 3.28890 3.57105 3.43287
# Velocity P-wave (km/s) = 6.74191 7.10623 6.92647
#
# Compressibility (1/GPa) = 0.01747099
#
# Stress axis : x y z
#
# Youngs Moduli (GPa) = 65.78633 31.09300 34.71526
#
# Poissons Ratio (x) = 0.30318 0.13457
# Poissons Ratio (y) = 0.64146 0.54577
# Poissons Ratio (z) = 0.25502 0.48883
#
# Static dielectric constant tensor:
#      x y z
#    x 3.490970 0.000000 0.000000 
#    y 0.000000 3.370910 0.000000 
#    z 0.000000 0.000000 3.333280 
# 
# 
# High freq. dielectric constant tensor:
#      x y z
#    x 1.721690 0.000000 0.000000 
#    y 0.000000 1.718020 0.000000 
#    z 0.000000 0.000000 1.701160 
# 
# From -- ./inp_files/4614.got.cif
#   From: 2010.03.12/outbox.cif.g09.slc.cpg/sg55_3_cif.got.tgz:4614.got - 2010.04.16 15:19:21.
