data_PCOD8225513
_publ_section_title
;
Structure prediction by ZEFSAII (Michael W. Deem and Ramdas Pophale) SiO2 
 PCOD8225513
Probable space group: P B A M
;
_chemical_formula_sum "Si O2"
_cell_formula_units_Z 48
_cell_length_a 29.216011
_cell_length_b 9.476593
_cell_length_c 8.306573
_cell_angle_alpha 90.000000
_cell_angle_beta 90.000000
_cell_angle_gamma 90.000000
_cell_volume 2299.826291
_symmetry_space_group_name_H-M "P B A M"
_symmetry_group_IT_number 55
_symmetry_cell_setting 'orthorhombic'
loop_
_space_group_symop_operation_xyz
x,y,z
-x,-y,z
1/2+x,1/2-y,-z
1/2-x,1/2+y,-z
-x,-y,-z
x,y,-z
1/2-x,1/2+y,z
1/2+x,1/2-y,z
loop_
_atom_site_type_symbol
_atom_site_label
_atom_site_fract_x
_atom_site_fract_y
_atom_site_fract_z
Si Si1 0.478191 0.636668 0.186769
Si Si2 0.218906 0.703867 0.684905
Si Si3 0.636330 0.975211 0.808627
Si Si4 0.202739 0.014455 0.813302
Si Si5 0.878488 0.791249 0.808894
Si Si6 0.037390 0.599892 0.814297
O O1 0.500000 0.500000 0.271934
O O2 0.429556 0.683643 0.264329
O O3 0.519542 0.744037 0.209699
O O4 0.468055 0.607293 0.000000
O O5 0.232897 0.687762 0.500000
O O6 0.172461 0.620602 0.717357
O O7 0.213588 0.869891 0.721526
O O8 0.258215 0.632162 0.791443
O O9 0.640937 0.138718 0.754344
O O10 0.587705 0.918578 0.741966
O O11 0.642530 0.955849 0.000000
O O12 0.155285 0.084114 0.749557
O O13 0.198698 0.976192 0.000000
O O14 0.881066 0.788731 0.000000
O O15 0.000000 0.500000 0.728065
O O16 0.041428 0.552710 0.000000
#
# Coordination Sequence:
#
# PCOD8225513 Si02
#       6
#     8   8   8   8   8   8
#     4   9  16  25  42  76 122 156 184 232 298 355
#     4  12  26  43  62  88 121 157 195 245 307 369
#     4  10  19  34  59  89 120 156 201 249 298 356
#     4  11  23  41  65  90 117 152 200 251 299 358
#     4   9  18  32  53  86 121 151 188 243 301 351
#     4   9  15  26  47  80 119 154 191 243 300 349
#
# _framework density 20.871143
#
# number of rings (size 3 to 8) (size 9 to 14) (size 15 to 20)
#    0.000    2.000    1.667    3.000    2.333    1.333 
#    0.000    0.833    0.000    0.500    0.000    1.167 
#    0.000    0.000    0.000    0.000    0.000    0.000 
#
# Total GULP energy -594980.986330 kJ/mol
# GULP energy per Si atom -12395.437215 kJ/mol
# Density = 2.082364 g / cm^3
# Si number density = 20.871143 Si / 1000 Ang^3
#
#
#
# Elastic Constant Matrix: (Units=GPa)
#
#
# Indices 1 2 3 4 5 6 
#
# 1 115.2447 45.7715 4.0260 0.0000 0.0000 0.0000
# 2 45.7715 120.5946 8.1081 0.0000 0.0000 0.0000
# 3 4.0260 8.1081 29.5156 0.0000 0.0000 0.0000
# 4 0.0000 0.0000 0.0000 14.0656 0.0000 0.0000
# 5 0.0000 0.0000 0.0000 0.0000 0.6576 0.0000
# 6 0.0000 0.0000 0.0000 0.0000 0.0000 39.7267
#
#
#
# Elastic Compliance Matrix: (Units=1/GPa)
#
#
# Indices 1 2 3 4 5 6 
#
# 1 0.010221 -0.003857 -0.000335 0.000000 0.000000 0.000000
# 2 -0.003857 0.009904 -0.002194 0.000000 0.000000 0.000000
# 3 -0.000335 -0.002194 0.034529 0.000000 0.000000 0.000000
# 4 0.000000 0.000000 0.000000 0.071095 0.000000 0.000000
# 5 0.000000 0.000000 0.000000 0.000000 1.520617 0.000000
# 6 0.000000 0.000000 0.000000 0.000000 0.000000 0.025172
#
#
# Mechanical properties :
#
#
# Convention : Reuss Voigt Hill
#
# Bulk Modulus (GPa) = 23.87699 42.35178 33.11439
# Shear Modulus (GPa) = 2.94417 24.71994 13.83206
#
# Velocity S-wave (km/s) = 1.18899 3.44526 2.57716
# Velocity P-wave (km/s) = 3.65376 6.01352 4.97556
#
# Compressibility (1/GPa) = 0.04188132
#
# Stress axis : x y z
#
# Youngs Moduli (GPa) = 97.84108 100.97328 28.96130
#
# Poissons Ratio (x) = 0.38943 0.00969
# Poissons Ratio (y) = 0.37735 0.06356
# Poissons Ratio (z) = 0.03274 0.22159
#
# Static dielectric constant tensor:
#      x y z
#    x 4.184610 0.000000 0.000000 
#    y 0.000000 3.888540 0.000000 
#    z 0.000000 0.000000 3.160760 
# 
# 
# High freq. dielectric constant tensor:
#      x y z
#    x 1.835550 0.000000 0.000000 
#    y 0.000000 1.831680 0.000000 
#    z 0.000000 0.000000 1.753530 
# 
# From -- ./inp_files/2780.got.cif
#   From: 2010.03.12/outbox.cif.g09.slc.cpg/sg55_2_cif.got.tgz:2780.got - 2010.04.16 15:19:21.
