data_PCOD8225945
_publ_section_title
;
Structure prediction by ZEFSAII (Michael W. Deem and Ramdas Pophale) SiO2 
 PCOD8225945
Probable space group: P B A M
;
_chemical_formula_sum "Si O2"
_cell_formula_units_Z 64
_cell_length_a 27.574310
_cell_length_b 13.125158
_cell_length_c 9.393621
_cell_angle_alpha 90.000000
_cell_angle_beta 90.000000
_cell_angle_gamma 90.000000
_cell_volume 3399.712780
_symmetry_space_group_name_H-M "P B A M"
_symmetry_group_IT_number 55
_symmetry_cell_setting 'orthorhombic'
loop_
_space_group_symop_operation_xyz
x,y,z
-x,-y,z
1/2+x,1/2-y,-z
1/2-x,1/2+y,-z
-x,-y,-z
x,y,-z
1/2-x,1/2+y,z
1/2+x,1/2-y,z
loop_
_atom_site_type_symbol
_atom_site_label
_atom_site_fract_x
_atom_site_fract_y
_atom_site_fract_z
Si Si1 0.120371 0.367179 0.665761
Si Si2 0.947718 0.458722 0.330364
Si Si3 0.519534 0.603218 0.841080
Si Si4 0.082246 0.194300 0.154908
Si Si5 0.171182 0.064271 0.834041
Si Si6 0.414470 0.260231 0.336046
Si Si7 0.714095 0.246696 0.332815
Si Si8 0.185952 0.856614 0.335854
O O1 0.112094 0.369704 0.500000
O O2 0.096668 0.470725 0.727702
O O3 0.089241 0.273701 0.720972
O O4 0.176579 0.345964 0.704642
O O5 0.948611 0.456237 0.500000
O O6 0.934380 0.346372 0.271919
O O7 0.000000 0.500000 0.273398
O O8 0.500000 0.500000 0.769874
O O9 0.474656 0.678703 0.848043
O O10 0.561982 0.646271 0.745800
O O11 0.540207 0.581697 0.000000
O O12 0.114129 0.092361 0.184502
O O13 0.098905 0.237510 0.000000
O O14 0.203093 0.152566 0.758776
O O15 0.180204 0.956021 0.760899
O O16 0.186089 0.057145 0.000000
O O17 0.429322 0.268464 0.500000
O O18 0.356977 0.274327 0.314832
O O19 0.710814 0.275133 0.500000
O O20 0.766291 0.204461 0.289428
O O21 0.189089 0.892599 0.500000
#
# Coordination Sequence:
#
# PCOD8225945 Si02
#       8
#     8   8   8   8   8   8   8   8
#     4   9  17  31  53  76  97 129 172 212 253 307
#     4   9  17  30  49  74 104 134 165 208 261 312
#     4  10  20  34  51  71  99 135 170 206 256 314
#     4   9  18  32  50  73 101 132 167 210 258 306
#     4  10  20  35  56  79 105 138 175 218 266 317
#     4  10  21  35  52  77 105 135 175 219 262 314
#     4   9  19  35  55  79 105 137 179 224 269 318
#     4  10  21  36  54  77 107 140 174 219 272 321
#
# _framework density 18.825118
#
# number of rings (size 3 to 8) (size 9 to 14) (size 15 to 20)
#    0.000    2.500    0.000    1.875    0.000    5.250 
#    0.000    4.375    0.000    2.250    0.000    0.000 
#    0.000    0.000    0.000    0.000    0.000    0.000 
#
# Total GULP energy -793222.366861 kJ/mol
# GULP energy per Si atom -12394.099482 kJ/mol
# Density = 1.878227 g / cm^3
# Si number density = 18.825118 Si / 1000 Ang^3
#
#
#
# Elastic Constant Matrix: (Units=GPa)
#
#
# Indices 1 2 3 4 5 6 
#
# 1 100.0430 44.0428 33.4576 0.0000 0.0000 0.0000
# 2 44.0428 104.5570 32.0055 0.0000 0.0000 0.0000
# 3 33.4576 32.0055 39.2100 0.0000 0.0000 0.0000
# 4 0.0000 0.0000 0.0000 12.3840 0.0000 0.0000
# 5 0.0000 0.0000 0.0000 0.0000 14.3394 0.0000
# 6 0.0000 0.0000 0.0000 0.0000 0.0000 28.8072
#
#
#
# Elastic Compliance Matrix: (Units=1/GPa)
#
#
# Indices 1 2 3 4 5 6 
#
# 1 0.014722 -0.003141 -0.009999 0.000000 0.000000 0.000000
# 2 -0.003141 0.013420 -0.008274 0.000000 0.000000 0.000000
# 3 -0.009999 -0.008274 0.040789 0.000000 0.000000 0.000000
# 4 0.000000 0.000000 0.000000 0.080749 0.000000 0.000000
# 5 0.000000 0.000000 0.000000 0.000000 0.069738 0.000000
# 6 0.000000 0.000000 0.000000 0.000000 0.000000 0.034714
#
#
# Mechanical properties :
#
#
# Convention : Reuss Voigt Hill
#
# Bulk Modulus (GPa) = 38.30783 51.42463 44.86623
# Shear Modulus (GPa) = 16.35800 20.05973 18.20886
#
# Velocity S-wave (km/s) = 2.95099 3.26787 3.11346
# Velocity P-wave (km/s) = 5.65726 6.45096 6.06711
#
# Compressibility (1/GPa) = 0.02610432
#
# Stress axis : x y z
#
# Youngs Moduli (GPa) = 67.92416 74.51605 24.51625
#
# Poissons Ratio (x) = 0.23404 0.24513
# Poissons Ratio (y) = 0.21334 0.20285
# Poissons Ratio (z) = 0.67915 0.61655
#
# Static dielectric constant tensor:
#      x y z
#    x 3.581110 0.000000 0.000000 
#    y 0.000000 3.477460 0.000000 
#    z 0.000000 0.000000 3.381870 
# 
# 
# High freq. dielectric constant tensor:
#      x y z
#    x 1.737030 0.000000 0.000000 
#    y 0.000000 1.728010 0.000000 
#    z 0.000000 0.000000 1.712120 
# 
# From -- ./inp_files/10766.got.cif
#   From: 2010.03.12/outbox.cif.g09.slc.cpg/sg55_6_cif.got.tgz:10766.got - 2010.04.16 15:19:21.
