data_PCOD8225401
_publ_section_title
;
Structure prediction by ZEFSAII (Michael W. Deem and Ramdas Pophale) SiO2 
 PCOD8225401
Probable space group: P B A M
;
_chemical_formula_sum "Si O2"
_cell_formula_units_Z 64
_cell_length_a 24.411503
_cell_length_b 14.844513
_cell_length_c 9.046789
_cell_angle_alpha 90.000000
_cell_angle_beta 90.000000
_cell_angle_gamma 90.000000
_cell_volume 3278.347114
_symmetry_space_group_name_H-M "P B A M"
_symmetry_group_IT_number 55
_symmetry_cell_setting 'orthorhombic'
loop_
_space_group_symop_operation_xyz
x,y,z
-x,-y,z
1/2+x,1/2-y,-z
1/2-x,1/2+y,-z
-x,-y,-z
x,y,-z
1/2-x,1/2+y,z
1/2+x,1/2-y,z
loop_
_atom_site_type_symbol
_atom_site_label
_atom_site_fract_x
_atom_site_fract_y
_atom_site_fract_z
Si Si1 0.653136 0.891244 0.327501
Si Si2 0.560844 0.233562 0.327529
Si Si3 0.850454 0.597284 0.674020
Si Si4 0.868935 0.904317 0.326642
Si Si5 0.438847 0.250464 0.325742
Si Si6 0.623594 0.593020 0.823987
Si Si7 0.739634 0.388564 0.834816
Si Si8 0.243975 0.897972 0.163119
O O1 0.667211 0.887383 0.500000
O O2 0.600148 0.833027 0.286585
O O3 0.705232 0.850320 0.240717
O O4 0.640461 0.993795 0.278186
O O5 0.559110 0.214289 0.500000
O O6 0.600154 0.156711 0.256985
O O7 0.583181 0.333128 0.294606
O O8 0.499213 0.225044 0.265802
O O9 0.847923 0.608381 0.500000
O O10 0.792547 0.636772 0.732486
O O11 0.860399 0.922491 0.500000
O O12 0.813110 0.861739 0.261460
O O13 0.886924 0.995677 0.246844
O O14 0.438658 0.272020 0.500000
O O15 0.421189 0.339399 0.238851
O O16 0.683857 0.631295 0.778674
O O17 0.618937 0.583220 0.000000
O O18 0.743766 0.495030 0.841119
O O19 0.734490 0.348061 0.000000
O O20 0.254549 0.858467 0.000000
#
# Coordination Sequence:
#
# PCOD8225401 Si02
#       8
#     8   8   8   8   8   8   8   8
#     4   9  18  32  54  81 106 137 177 218 260 310
#     4   9  20  36  53  76 105 137 176 220 264 310
#     4   9  17  32  54  79 106 135 169 212 259 308
#     4  10  19  34  56  79 105 138 175 217 265 318
#     4  10  21  37  54  75 104 139 181 222 261 311
#     4  10  21  37  55  78 107 138 173 216 268 319
#     4   9  17  31  52  78 109 140 170 212 265 317
#     4   8  16  31  50  74 103 132 164 205 257 315
#
# _framework density 19.522033
#
# number of rings (size 3 to 8) (size 9 to 14) (size 15 to 20)
#    0.000    2.750    0.000    1.875    0.000    6.000 
#    0.000   11.875    0.000    0.000    0.000    4.375 
#    0.000    0.000    0.000    0.000    0.000    0.000 
#
# Total GULP energy -793447.880415 kJ/mol
# GULP energy per Si atom -12397.623131 kJ/mol
# Density = 1.947760 g / cm^3
# Si number density = 19.522033 Si / 1000 Ang^3
#
#
#
# Elastic Constant Matrix: (Units=GPa)
#
#
# Indices 1 2 3 4 5 6 
#
# 1 114.3465 16.1705 27.4835 0.0000 0.0000 0.0000
# 2 16.1705 42.2208 19.1309 0.0000 0.0000 0.0000
# 3 27.4835 19.1309 59.6181 0.0000 0.0000 0.0000
# 4 0.0000 0.0000 0.0000 9.2001 0.0000 0.0000
# 5 0.0000 0.0000 0.0000 0.0000 12.1888 0.0000
# 6 0.0000 0.0000 0.0000 0.0000 0.0000 28.1244
#
#
#
# Elastic Compliance Matrix: (Units=1/GPa)
#
#
# Indices 1 2 3 4 5 6 
#
# 1 0.009982 -0.002034 -0.003949 0.000000 0.000000 0.000000
# 2 -0.002034 0.028129 -0.008089 0.000000 0.000000 0.000000
# 3 -0.003949 -0.008089 0.021190 0.000000 0.000000 0.000000
# 4 0.000000 0.000000 0.000000 0.108694 0.000000 0.000000
# 5 0.000000 0.000000 0.000000 0.000000 0.082042 0.000000
# 6 0.000000 0.000000 0.000000 0.000000 0.000000 0.035556
#
#
# Mechanical properties :
#
#
# Convention : Reuss Voigt Hill
#
# Bulk Modulus (GPa) = 32.09504 37.97280 35.03392
# Shear Modulus (GPa) = 15.42625 20.12938 17.77781
#
# Velocity S-wave (km/s) = 2.81409 3.21457 3.02098
# Velocity P-wave (km/s) = 5.19951 5.76814 5.49119
#
# Compressibility (1/GPa) = 0.03115747
#
# Stress axis : x y z
#
# Youngs Moduli (GPa) = 100.17904 35.55041 47.19307
#
# Poissons Ratio (x) = 0.07230 0.18637
# Poissons Ratio (y) = 0.20374 0.38174
# Poissons Ratio (z) = 0.39561 0.28756
#
# Static dielectric constant tensor:
#      x y z
#    x 3.881720 0.000000 0.000000 
#    y 0.000000 3.445160 0.000000 
#    z 0.000000 0.000000 3.496260 
# 
# 
# High freq. dielectric constant tensor:
#      x y z
#    x 1.762940 0.000000 0.000000 
#    y 0.000000 1.754680 0.000000 
#    z 0.000000 0.000000 1.743710 
# 
# From -- ./inp_files/9657.got.cif
#   From: 2010.03.12/outbox.cif.g09.slc.cpg/sg55_5_cif.got.tgz:9657.got - 2010.04.16 15:19:21.
