data_PCOD8225269
_publ_section_title
;
Structure prediction by ZEFSAII (Michael W. Deem and Ramdas Pophale) SiO2 
 PCOD8225269
Probable space group: P B A M
;
_chemical_formula_sum "Si O2"
_cell_formula_units_Z 64
_cell_length_a 16.528375
_cell_length_b 21.966956
_cell_length_c 9.006693
_cell_angle_alpha 90.000000
_cell_angle_beta 90.000000
_cell_angle_gamma 90.000000
_cell_volume 3270.132859
_symmetry_space_group_name_H-M "P B A M"
_symmetry_group_IT_number 55
_symmetry_cell_setting 'orthorhombic'
loop_
_space_group_symop_operation_xyz
x,y,z
-x,-y,z
1/2+x,1/2-y,-z
1/2-x,1/2+y,-z
-x,-y,-z
x,y,-z
1/2-x,1/2+y,z
1/2+x,1/2-y,z
loop_
_atom_site_type_symbol
_atom_site_label
_atom_site_fract_x
_atom_site_fract_y
_atom_site_fract_z
Si Si1 0.184325 0.626113 0.333112
Si Si2 0.096208 0.821163 0.829239
Si Si3 0.680260 0.466352 0.674598
Si Si4 0.771803 0.101568 0.674065
Si Si5 0.136003 0.337423 0.175328
Si Si6 0.544425 0.812944 0.824617
Si Si7 0.072142 0.123069 0.829049
Si Si8 0.821506 0.780008 0.668535
O O1 0.155220 0.612289 0.500000
O O2 0.239287 0.570285 0.274007
O O3 0.105700 0.635316 0.232057
O O4 0.234801 0.688186 0.326066
O O5 0.170012 0.844959 0.731140
O O6 0.067393 0.754975 0.769175
O O7 0.024152 0.870479 0.814594
O O8 0.124592 0.816207 0.000000
O O9 0.665726 0.454915 0.500000
O O10 0.690289 0.536574 0.715230
O O11 0.602172 0.441708 0.764175
O O12 0.759935 0.109297 0.500000
O O13 0.683350 0.105794 0.751040
O O14 0.185470 0.278278 0.227055
O O15 0.044250 0.331880 0.234824
O O16 0.139171 0.343981 0.000000
O O17 0.543816 0.813478 0.000000
O O18 0.109935 0.176269 0.731555
O O19 0.099669 0.129921 0.000000
O O20 0.844355 0.761916 0.500000
#
# Coordination Sequence:
#
# PCOD8225269 Si02
#       8
#     8   8   8   8   8   8   8   8
#     4   9  19  35  56  81 107 142 186 231 277 329
#     4  10  21  38  57  84 121 152 183 229 287 346
#     4   9  21  41  58  78 115 153 193 241 284 336
#     4  11  24  40  58  82 111 151 196 238 289 339
#     4  11  22  38  57  80 114 150 186 232 288 342
#     4  10  21  37  56  83 116 146 179 227 285 340
#     4  10  19  34  58  86 115 151 190 229 279 334
#     4  10  19  33  55  84 115 147 185 227 280 339
#
# _framework density 19.571071
#
# number of rings (size 3 to 8) (size 9 to 14) (size 15 to 20)
#    0.000    2.000    1.250    3.000    0.000    8.500 
#    0.000    3.125    0.000    3.750    0.000    0.000 
#    0.000    0.000    0.000    0.000    0.000    0.000 
#
# Total GULP energy -793643.496449 kJ/mol
# GULP energy per Si atom -12400.679632 kJ/mol
# Density = 1.952653 g / cm^3
# Si number density = 19.571071 Si / 1000 Ang^3
#
#
#
# Elastic Constant Matrix: (Units=GPa)
#
#
# Indices 1 2 3 4 5 6 
#
# 1 95.5943 25.6554 33.7290 0.0000 0.0000 0.0000
# 2 25.6554 40.6152 14.0305 0.0000 0.0000 0.0000
# 3 33.7290 14.0305 48.9905 0.0000 0.0000 0.0000
# 4 0.0000 0.0000 0.0000 28.1269 0.0000 0.0000
# 5 0.0000 0.0000 0.0000 0.0000 25.1545 0.0000
# 6 0.0000 0.0000 0.0000 0.0000 0.0000 23.6863
#
#
#
# Elastic Compliance Matrix: (Units=1/GPa)
#
#
# Indices 1 2 3 4 5 6 
#
# 1 0.015295 -0.006685 -0.008616 0.000000 0.000000 0.000000
# 2 -0.006685 0.030246 -0.004060 0.000000 0.000000 0.000000
# 3 -0.008616 -0.004060 0.027507 0.000000 0.000000 0.000000
# 4 0.000000 0.000000 0.000000 0.035553 0.000000 0.000000
# 5 0.000000 0.000000 0.000000 0.000000 0.039754 0.000000
# 6 0.000000 0.000000 0.000000 0.000000 0.000000 0.042218
#
#
# Mechanical properties :
#
#
# Convention : Reuss Voigt Hill
#
# Bulk Modulus (GPa) = 29.13174 36.89219 33.01196
# Shear Modulus (GPa) = 20.76952 22.84590 21.80771
#
# Velocity S-wave (km/s) = 3.26120 3.42033 3.34171
# Velocity P-wave (km/s) = 5.39425 5.87277 5.63859
#
# Compressibility (1/GPa) = 0.03432682
#
# Stress axis : x y z
#
# Youngs Moduli (GPa) = 65.38118 33.06168 36.35490
#
# Poissons Ratio (x) = 0.22102 0.31322
# Poissons Ratio (y) = 0.43708 0.14760
# Poissons Ratio (z) = 0.56331 0.13423
#
# Static dielectric constant tensor:
#      x y z
#    x 3.604470 0.000000 0.000000 
#    y 0.000000 3.590530 0.000000 
#    z 0.000000 0.000000 3.531980 
# 
# 
# High freq. dielectric constant tensor:
#      x y z
#    x 1.762710 0.000000 0.000000 
#    y 0.000000 1.746130 0.000000 
#    z 0.000000 0.000000 1.761980 
# 
# From -- ./inp_files/6503.got.cif
#   From: 2010.03.12/outbox.cif.g09.slc.cpg/sg55_4_cif.got.tgz:6503.got - 2010.04.16 15:19:21.
