data_PCOD8225713
_publ_section_title
;
Structure prediction by ZEFSAII (Michael W. Deem and Ramdas Pophale) SiO2 
 PCOD8225713
Probable space group: P B A M
;
_chemical_formula_sum "Si O2"
_cell_formula_units_Z 64
_cell_length_a 23.713519
_cell_length_b 14.828929
_cell_length_c 8.743166
_cell_angle_alpha 90.000000
_cell_angle_beta 90.000000
_cell_angle_gamma 90.000000
_cell_volume 3074.500135
_symmetry_space_group_name_H-M "P B A M"
_symmetry_group_IT_number 55
_symmetry_cell_setting 'orthorhombic'
loop_
_space_group_symop_operation_xyz
x,y,z
-x,-y,z
1/2+x,1/2-y,-z
1/2-x,1/2+y,-z
-x,-y,-z
x,y,-z
1/2-x,1/2+y,z
1/2+x,1/2-y,z
loop_
_atom_site_type_symbol
_atom_site_label
_atom_site_fract_x
_atom_site_fract_y
_atom_site_fract_z
Si Si1 0.464697 0.088234 0.178718
Si Si2 0.975048 0.098584 0.827657
Si Si3 0.535650 0.244043 0.323280
Si Si4 0.752617 0.265923 0.320261
Si Si5 0.166033 0.590688 0.819403
Si Si6 0.140386 0.186951 0.824044
Si Si7 0.865628 0.013603 0.176617
Si Si8 0.253402 0.930908 0.817908
O O1 0.492591 0.168644 0.270602
O O2 0.399371 0.080412 0.229173
O O3 0.500000 0.000000 0.223092
O O4 0.469283 0.109012 0.000000
O O5 0.911353 0.085540 0.762301
O O6 0.006852 0.160253 0.707500
O O7 0.976514 0.141304 0.000000
O O8 0.000000 0.000000 0.836827
O O9 0.549489 0.233128 0.500000
O O10 0.595437 0.238738 0.233773
O O11 0.760440 0.257456 0.500000
O O12 0.806879 0.319253 0.254628
O O13 0.696410 0.319975 0.277040
O O14 0.740702 0.168258 0.249130
O O15 0.197246 0.499227 0.762836
O O16 0.172653 0.602159 0.000000
O O17 0.112021 0.088655 0.803352
O O18 0.155968 0.207886 0.000000
O O19 0.804706 0.029279 0.251859
O O20 0.857729 0.034648 0.000000
O O21 0.254834 0.924338 0.000000
#
# Coordination Sequence:
#
# PCOD8225713 Si02
#       8
#     8   8   8   8   8   8   8   8
#     4  10  24  46  71  96 121 167 233 286 322 374
#     4  10  19  36  61  90 122 166 214 256 303 371
#     4  12  26  41  60  95 134 172 208 259 333 392
#     4  12  26  41  61  98 137 170 204 258 337 399
#     4  10  22  44  71  97 125 167 226 278 320 379
#     4  11  21  42  69  92 121 165 219 269 312 378
#     4   9  18  35  62  91 119 155 211 266 310 359
#     4  10  21  40  66  94 121 164 218 268 319 381
#
# _framework density 20.816390999999999
#
# number of rings (size 3 to 8) (size 9 to 14) (size 15 to 20)
#    0.000    1.500    2.500    2.625    3.500    1.500 
#    0.000    0.000    0.000    0.000    0.000    0.000 
#    0.000    0.000    0.000    0.000    0.000    0.000 
#
# Total GULP energy -793398.055912 kJ/mol
# GULP energy per Si atom -12396.844624 kJ/mol
# Density = 2.076901 g / cm^3
# Si number density = 20.816391 Si / 1000 Ang^3
#
#
#
# Elastic Constant Matrix: (Units=GPa)
#
#
# Indices 1 2 3 4 5 6 
#
# 1 132.5933 29.5028 31.4990 0.0000 0.0000 0.0000
# 2 29.5028 87.4202 27.6383 0.0000 0.0000 0.0000
# 3 31.4990 27.6383 52.3084 0.0000 0.0000 0.0000
# 4 0.0000 0.0000 0.0000 -10.9813 0.0000 0.0000
# 5 0.0000 0.0000 0.0000 0.0000 18.9681 0.0000
# 6 0.0000 0.0000 0.0000 0.0000 0.0000 33.2839
#
#
#
# Elastic Compliance Matrix: (Units=1/GPa)
#
#
# Indices 1 2 3 4 5 6 
#
# 1 0.008980 -0.001586 -0.004570 0.000000 0.000000 0.000000
# 2 -0.001586 0.014013 -0.006449 0.000000 0.000000 0.000000
# 3 -0.004570 -0.006449 0.025277 0.000000 0.000000 0.000000
# 4 0.000000 0.000000 0.000000 -0.091064 0.000000 0.000000
# 5 0.000000 0.000000 0.000000 0.000000 0.052720 0.000000
# 6 0.000000 0.000000 0.000000 0.000000 0.000000 0.030045
#
#
# Mechanical properties :
#
#
# Convention : Reuss Voigt Hill
#
# Bulk Modulus (GPa) = 43.36417 49.95577 46.65997
# Shear Modulus (GPa) = 68.61752 20.49959 44.55855
#
# Velocity S-wave (km/s) = 5.74759 3.14153 4.63163
# Velocity P-wave (km/s) = 8.05750 6.09994 7.14607
#
# Compressibility (1/GPa) = 0.02306052
#
# Stress axis : x y z
#
# Youngs Moduli (GPa) = 111.35430 71.36150 39.56203
#
# Poissons Ratio (x) = 0.11318 0.18079
# Poissons Ratio (y) = 0.17660 0.25514
# Poissons Ratio (z) = 0.50887 0.46022
#
# Static dielectric constant tensor:
#      x y z
#    x 4.646180 0.000000 0.000000 
#    y 0.000000 3.865600 0.000000 
#    z 0.000000 0.000000 3.485600 
# 
# 
# High freq. dielectric constant tensor:
#      x y z
#    x 1.835170 0.000000 0.000000 
#    y 0.000000 1.814760 0.000000 
#    z 0.000000 0.000000 1.782320 
# 
# From -- ./inp_files/9783.got.cif
#   From: 2010.03.12/outbox.cif.g09.slc.cpg/sg55_5_cif.got.tgz:9783.got - 2010.04.16 15:19:21.
