data_PCOD8225500
_publ_section_title
;
Structure prediction by ZEFSAII (Michael W. Deem and Ramdas Pophale) SiO2 
 PCOD8225500
Probable space group: P B A M
;
_chemical_formula_sum "Si O2"
_cell_formula_units_Z 48
_cell_length_a 15.076467
_cell_length_b 18.934562
_cell_length_c 8.656376
_cell_angle_alpha 90.000000
_cell_angle_beta 90.000000
_cell_angle_gamma 90.000000
_cell_volume 2471.103621
_symmetry_space_group_name_H-M "P B A M"
_symmetry_group_IT_number 55
_symmetry_cell_setting 'orthorhombic'
loop_
_space_group_symop_operation_xyz
x,y,z
-x,-y,z
1/2+x,1/2-y,-z
1/2-x,1/2+y,-z
-x,-y,-z
x,y,-z
1/2-x,1/2+y,z
1/2+x,1/2-y,z
loop_
_atom_site_type_symbol
_atom_site_label
_atom_site_fract_x
_atom_site_fract_y
_atom_site_fract_z
Si Si1 0.366860 0.678622 0.316400
Si Si2 0.748655 0.582083 0.316203
Si Si3 0.699719 0.737249 0.316445
Si Si4 0.510847 0.789946 0.683912
Si Si5 0.903937 0.976762 0.684188
Si Si6 0.559837 0.066068 0.817951
O O1 0.369868 0.675884 0.500000
O O2 0.272184 0.706676 0.257518
O O3 0.441521 0.731977 0.255767
O O4 0.383157 0.600827 0.248336
O O5 0.754373 0.582046 0.500000
O O6 0.724414 0.659816 0.252227
O O7 0.671932 0.529703 0.255930
O O8 0.842668 0.556467 0.252490
O O9 0.697519 0.733154 0.500000
O O10 0.605699 0.763850 0.253487
O O11 0.508454 0.797327 0.500000
O O12 0.488394 0.864809 0.755644
O O13 0.905203 0.976100 0.500000
O O14 0.000000 0.000000 0.747928
O O15 0.500000 0.000000 0.766270
O O16 0.569021 0.071085 0.000000
#
# Coordination Sequence:
#
# PCOD8225500 Si02
#       6
#     8   8   8   8   8   8
#     4   9  16  28  46  77 111 133 165 217 266 310
#     4  10  19  35  59  85 111 145 186 222 269 334
#     4   9  17  29  50  82 109 132 171 225 272 313
#     4  10  19  34  59  82 107 140 177 223 275 330
#     4   9  17  28  48  81 116 143 170 214 273 329
#     4  11  25  41  54  74 110 150 188 233 279 320
#
# _framework density 19.424517999999999
#
# number of rings (size 3 to 8) (size 9 to 14) (size 15 to 20)
#    0.000    2.333    1.667    1.500    2.333    5.333 
#    0.000    0.833    0.000    1.500    0.000    0.000 
#    0.000    0.000    0.000    0.000    0.000    0.000 
#
# Total GULP energy -595200.000328 kJ/mol
# GULP energy per Si atom -12400.000007 kJ/mol
# Density = 1.938031 g / cm^3
# Si number density = 19.424518 Si / 1000 Ang^3
#
#
#
# Elastic Constant Matrix: (Units=GPa)
#
#
# Indices 1 2 3 4 5 6 
#
# 1 198.7567 94.2769 20.1220 0.0000 0.0000 0.0000
# 2 94.2769 180.9469 20.1590 0.0000 0.0000 0.0000
# 3 20.1220 20.1590 17.7622 0.0000 0.0000 0.0000
# 4 0.0000 0.0000 0.0000 8.7887 0.0000 0.0000
# 5 0.0000 0.0000 0.0000 0.0000 3.2607 0.0000
# 6 0.0000 0.0000 0.0000 0.0000 0.0000 44.8505
#
#
#
# Elastic Compliance Matrix: (Units=1/GPa)
#
#
# Indices 1 2 3 4 5 6 
#
# 1 0.006960 -0.003146 -0.004315 0.000000 0.000000 0.000000
# 2 -0.003146 0.007748 -0.005230 0.000000 0.000000 0.000000
# 3 -0.004315 -0.005230 0.067123 0.000000 0.000000 0.000000
# 4 0.000000 0.000000 0.000000 0.113782 0.000000 0.000000
# 5 0.000000 0.000000 0.000000 0.000000 0.306678 0.000000
# 6 0.000000 0.000000 0.000000 0.000000 0.000000 0.022296
#
#
# Mechanical properties :
#
#
# Convention : Reuss Voigt Hill
#
# Bulk Modulus (GPa) = 17.71461 74.06462 45.88961
# Shear Modulus (GPa) = 8.79065 28.90719 18.84892
#
# Velocity S-wave (km/s) = 2.12964 3.86188 3.11845
# Velocity P-wave (km/s) = 3.89701 7.62219 6.05328
#
# Compressibility (1/GPa) = 0.05645057
#
# Stress axis : x y z
#
# Youngs Moduli (GPa) = 143.67380 129.06334 14.89799
#
# Poissons Ratio (x) = 0.40600 0.06428
# Poissons Ratio (y) = 0.45196 0.07792
# Poissons Ratio (z) = 0.61991 0.67501
#
# Static dielectric constant tensor:
#      x y z
#    x 3.830960 0.000000 0.000000 
#    y 0.000000 3.807830 0.000000 
#    z 0.000000 0.000000 2.912240 
# 
# 
# High freq. dielectric constant tensor:
#      x y z
#    x 1.776870 0.000000 0.000000 
#    y 0.000000 1.773080 0.000000 
#    z 0.000000 0.000000 1.692080 
# 
# From -- ./inp_files/5569.got.cif
#   From: 2010.03.12/outbox.cif.g09.slc.cpg/sg55_3_cif.got.tgz:5569.got - 2010.04.16 15:19:21.
