data_PCOD8225878
_publ_section_title
;
Structure prediction by ZEFSAII (Michael W. Deem and Ramdas Pophale) SiO2 
 PCOD8225878
Probable space group: P B A M
;
_chemical_formula_sum "Si O2"
_cell_formula_units_Z 56
_cell_length_a 14.240273
_cell_length_b 22.209448
_cell_length_c 9.406194
_cell_angle_alpha 90.000000
_cell_angle_beta 90.000000
_cell_angle_gamma 90.000000
_cell_volume 2974.883833
_symmetry_space_group_name_H-M "P B A M"
_symmetry_group_IT_number 55
_symmetry_cell_setting 'orthorhombic'
loop_
_space_group_symop_operation_xyz
x,y,z
-x,-y,z
1/2+x,1/2-y,-z
1/2-x,1/2+y,-z
-x,-y,-z
x,y,-z
1/2-x,1/2+y,z
1/2+x,1/2-y,z
loop_
_atom_site_type_symbol
_atom_site_label
_atom_site_fract_x
_atom_site_fract_y
_atom_site_fract_z
Si Si1 0.108135 0.783573 0.339330
Si Si2 0.102765 0.223423 0.338125
Si Si3 0.588593 0.853415 0.664651
Si Si4 0.891562 0.998223 0.831925
Si Si5 0.911055 0.657095 0.164127
Si Si6 0.709276 0.617995 0.837175
Si Si7 0.710958 0.394732 0.664167
O O1 0.144194 0.791005 0.500000
O O2 0.116368 0.714314 0.291158
O O3 0.174797 0.822980 0.242440
O O4 0.000805 0.805173 0.322802
O O5 0.118588 0.245950 0.500000
O O6 0.116187 0.279283 0.233668
O O7 0.176476 0.172136 0.296187
O O8 0.557945 0.854549 0.500000
O O9 0.499604 0.874407 0.758255
O O10 0.677016 0.897058 0.692921
O O11 0.841146 0.941813 0.762206
O O12 0.839863 0.058234 0.775229
O O13 0.881277 0.991230 0.000000
O O14 0.000000 0.000000 0.784844
O O15 0.821869 0.612643 0.179358
O O16 0.936731 0.668126 0.000000
O O17 0.679468 0.626085 0.000000
O O18 0.688192 0.409067 0.500000
#
# Coordination Sequence:
#
# PCOD8225878 Si02
#       7
#     8   8   8   8   8   8   8
#     4   9  17  30  52  79 104 134 167 201 250 308
#     4   9  18  33  52  77 109 137 163 205 260 308
#     4   9  19  35  53  77 108 136 167 212 262 306
#     4  10  22  39  56  75 103 137 170 210 260 307
#     4  10  20  33  51  76 104 136 174 210 248 303
#     4  10  21  35  50  73 105 137 171 212 255 300
#     4  10  20  35  56  79 103 135 175 216 257 305
#
# _framework density 18.824266000000001
#
# number of rings (size 3 to 8) (size 9 to 14) (size 15 to 20)
#    0.000    2.429    0.000    3.000    0.000    6.571 
#    0.000    0.714    0.000    4.286    0.000    0.000 
#    0.000    0.000    0.000    0.000    0.000    0.000 
#
# Total GULP energy -694433.400563 kJ/mol
# GULP energy per Si atom -12400.596439 kJ/mol
# Density = 1.878142 g / cm^3
# Si number density = 18.824266 Si / 1000 Ang^3
#
#
#
# Elastic Constant Matrix: (Units=GPa)
#
#
# Indices 1 2 3 4 5 6 
#
# 1 125.8216 51.3616 51.7330 0.0000 0.0000 0.0000
# 2 51.3616 53.0239 35.6646 0.0000 0.0000 0.0000
# 3 51.7330 35.6646 70.3572 0.0000 0.0000 0.0000
# 4 0.0000 0.0000 0.0000 25.7122 0.0000 0.0000
# 5 0.0000 0.0000 0.0000 0.0000 23.8410 0.0000
# 6 0.0000 0.0000 0.0000 0.0000 0.0000 31.8853
#
#
#
# Elastic Compliance Matrix: (Units=1/GPa)
#
#
# Indices 1 2 3 4 5 6 
#
# 1 0.014347 -0.010321 -0.005318 0.000000 0.000000 0.000000
# 2 -0.010321 0.036040 -0.010680 0.000000 0.000000 0.000000
# 3 -0.005318 -0.010680 0.023537 0.000000 0.000000 0.000000
# 4 0.000000 0.000000 0.000000 0.038892 0.000000 0.000000
# 5 0.000000 0.000000 0.000000 0.000000 0.041945 0.000000
# 6 0.000000 0.000000 0.000000 0.000000 0.000000 0.031362
#
#
# Mechanical properties :
#
#
# Convention : Reuss Voigt Hill
#
# Bulk Modulus (GPa) = 46.97669 58.52455 52.75062
# Shear Modulus (GPa) = 20.33701 23.65059 21.99380
#
# Velocity S-wave (km/s) = 3.29045 3.54840 3.42186
# Velocity P-wave (km/s) = 6.28058 6.92428 6.61027
#
# Compressibility (1/GPa) = 0.02128715
#
# Stress axis : x y z
#
# Youngs Moduli (GPa) = 69.70004 27.74671 42.48581
#
# Poissons Ratio (x) = 0.28636 0.22593
# Poissons Ratio (y) = 0.71935 0.45377
# Poissons Ratio (z) = 0.37065 0.29635
#
# Static dielectric constant tensor:
#      x y z
#    x 3.725970 0.000000 0.000000 
#    y 0.000000 3.203670 0.000000 
#    z 0.000000 0.000000 3.378610 
# 
# 
# High freq. dielectric constant tensor:
#      x y z
#    x 1.748620 0.000000 0.000000 
#    y 0.000000 1.702610 0.000000 
#    z 0.000000 0.000000 1.724970 
# 
# From -- ./inp_files/6187.got.cif
#   From: 2010.03.12/outbox.cif.g09.slc.cpg/sg55_4_cif.got.tgz:6187.got - 2010.04.16 15:19:21.
