data_PCOD8225819
_publ_section_title
;
Structure prediction by ZEFSAII (Michael W. Deem and Ramdas Pophale) SiO2 
 PCOD8225819
Probable space group: P B A M
;
_chemical_formula_sum "Si O2"
_cell_formula_units_Z 48
_cell_length_a 18.510788
_cell_length_b 16.333932
_cell_length_c 9.249978
_cell_angle_alpha 90.000000
_cell_angle_beta 90.000000
_cell_angle_gamma 90.000000
_cell_volume 2796.767408
_symmetry_space_group_name_H-M "P B A M"
_symmetry_group_IT_number 55
_symmetry_cell_setting 'orthorhombic'
loop_
_space_group_symop_operation_xyz
x,y,z
-x,-y,z
1/2+x,1/2-y,-z
1/2-x,1/2+y,-z
-x,-y,-z
x,y,-z
1/2-x,1/2+y,z
1/2+x,1/2-y,z
loop_
_atom_site_type_symbol
_atom_site_label
_atom_site_fract_x
_atom_site_fract_y
_atom_site_fract_z
Si Si1 0.283375 0.940618 0.161926
Si Si2 0.702410 0.428070 0.333171
Si Si3 0.337739 0.328276 0.837000
Si Si4 0.160452 0.667115 0.331117
Si Si5 0.922709 0.474081 0.166029
Si Si6 0.918747 0.002894 0.168331
O O1 0.250174 0.994653 0.288345
O O2 0.248220 0.850372 0.178182
O O3 0.370170 0.945812 0.177896
O O4 0.261484 0.973814 0.000000
O O5 0.681835 0.434448 0.500000
O O6 0.754004 0.349774 0.301670
O O7 0.627646 0.430123 0.243695
O O8 0.358564 0.256685 0.727824
O O9 0.384653 0.408449 0.797639
O O10 0.354852 0.299101 0.000000
O O11 0.142847 0.663337 0.500000
O O12 0.109308 0.601731 0.253487
O O13 0.000000 0.500000 0.231367
O O14 0.931339 0.446035 0.000000
O O15 0.918456 0.982799 0.000000
O O16 0.000000 0.000000 0.230175
#
# Coordination Sequence:
#
# PCOD8225819 Si02
#       6
#     8   8   8   8   8   8
#     4   8  15  29  48  69  91 118 155 194 231 274
#     4   9  17  29  46  68  92 121 157 191 226 274
#     4   9  17  30  49  70  92 121 158 198 238 280
#     4  10  20  32  47  69  97 127 159 196 237 280
#     4   9  17  31  52  74  96 124 158 196 238 285
#     4   9  18  33  52  73  96 123 157 197 240 285
#
# _framework density 17.162669999999999
#
# number of rings (size 3 to 8) (size 9 to 14) (size 15 to 20)
#    0.000    3.000    0.000    2.000    0.000    5.333 
#    0.000    1.667    0.000    8.000    0.000    0.000 
#    0.000    0.000    0.000    0.000    0.000    0.000 
#
# Total GULP energy -594689.807993 kJ/mol
# GULP energy per Si atom -12389.371000 kJ/mol
# Density = 1.712361 g / cm^3
# Si number density = 17.162670 Si / 1000 Ang^3
#
#
#
# Elastic Constant Matrix: (Units=GPa)
#
#
# Indices 1 2 3 4 5 6 
#
# 1 131.4155 37.3172 38.8385 0.0000 0.0000 0.0000
# 2 37.3172 69.2739 37.1641 0.0000 0.0000 0.0000
# 3 38.8385 37.1641 65.4599 0.0000 0.0000 0.0000
# 4 0.0000 0.0000 0.0000 11.1582 0.0000 0.0000
# 5 0.0000 0.0000 0.0000 0.0000 21.8033 0.0000
# 6 0.0000 0.0000 0.0000 0.0000 0.0000 16.4400
#
#
#
# Elastic Compliance Matrix: (Units=1/GPa)
#
#
# Indices 1 2 3 4 5 6 
#
# 1 0.009659 -0.003061 -0.003993 0.000000 0.000000 0.000000
# 2 -0.003061 0.021728 -0.010520 0.000000 0.000000 0.000000
# 3 -0.003993 -0.010520 0.023618 0.000000 0.000000 0.000000
# 4 0.000000 0.000000 0.000000 0.089620 0.000000 0.000000
# 5 0.000000 0.000000 0.000000 0.000000 0.045865 0.000000
# 6 0.000000 0.000000 0.000000 0.000000 0.000000 0.060827
#
#
# Mechanical properties :
#
#
# Convention : Reuss Voigt Hill
#
# Bulk Modulus (GPa) = 50.35836 54.75430 52.55633
# Shear Modulus (GPa) = 17.06001 20.06892 18.56446
#
# Velocity S-wave (km/s) = 3.15623 3.42326 3.29245
# Velocity P-wave (km/s) = 6.53359 6.89909 6.71883
#
# Compressibility (1/GPa) = 0.01985768
#
# Stress axis : x y z
#
# Youngs Moduli (GPa) = 103.53359 46.02362 42.34062
#
# Poissons Ratio (x) = 0.14088 0.16906
# Poissons Ratio (y) = 0.31691 0.44541
# Poissons Ratio (z) = 0.41339 0.48415
#
# Static dielectric constant tensor:
#      x y z
#    x 3.454120 0.000000 0.000000 
#    y 0.000000 2.944900 0.000000 
#    z 0.000000 0.000000 3.165100 
# 
# 
# High freq. dielectric constant tensor:
#      x y z
#    x 1.661310 0.000000 0.000000 
#    y 0.000000 1.627140 0.000000 
#    z 0.000000 0.000000 1.663240 
# 
# From -- ./inp_files/7406.got.cif
#   From: 2010.03.12/outbox.cif.g09.slc.cpg/sg55_4_cif.got.tgz:7406.got - 2010.04.16 15:19:21.
