data_PCOD8225286
_publ_section_title
;
Structure prediction by ZEFSAII (Michael W. Deem and Ramdas Pophale) SiO2 
 PCOD8225286
Probable space group: P B A M
;
_chemical_formula_sum "Si O2"
_cell_formula_units_Z 64
_cell_length_a 15.331276
_cell_length_b 24.556952
_cell_length_c 9.109664
_cell_angle_alpha 90.000000
_cell_angle_beta 90.000000
_cell_angle_gamma 90.000000
_cell_volume 3429.692014
_symmetry_space_group_name_H-M "P B A M"
_symmetry_group_IT_number 55
_symmetry_cell_setting 'orthorhombic'
loop_
_space_group_symop_operation_xyz
x,y,z
-x,-y,z
1/2+x,1/2-y,-z
1/2-x,1/2+y,-z
-x,-y,-z
x,y,-z
1/2-x,1/2+y,z
1/2+x,1/2-y,z
loop_
_atom_site_type_symbol
_atom_site_label
_atom_site_fract_x
_atom_site_fract_y
_atom_site_fract_z
Si Si1 0.828828 0.067153 0.674118
Si Si2 0.311901 0.846389 0.672234
Si Si3 0.987085 0.892202 0.329266
Si Si4 0.822325 0.365930 0.172977
Si Si5 0.810361 0.943731 0.674473
Si Si6 0.452356 0.277385 0.333434
Si Si7 0.781434 0.244183 0.172262
Si Si8 0.505524 0.843731 0.667306
O O1 0.831666 0.071797 0.500000
O O2 0.754853 0.108257 0.734335
O O3 0.923791 0.083103 0.739549
O O4 0.804379 0.006415 0.723061
O O5 0.299969 0.836445 0.500000
O O6 0.297080 0.788342 0.751361
O O7 0.410088 0.867340 0.706092
O O8 0.986771 0.906646 0.500000
O O9 0.900960 0.919568 0.260628
O O10 0.982405 0.827351 0.299669
O O11 0.770037 0.413474 0.251454
O O12 0.780391 0.307798 0.218209
O O13 0.922568 0.369375 0.225980
O O14 0.820675 0.374813 0.000000
O O15 0.803766 0.936195 0.500000
O O16 0.416290 0.282724 0.500000
O O17 0.371240 0.282890 0.224873
O O18 0.503026 0.221271 0.309912
O O19 0.772963 0.237378 0.000000
O O20 0.532212 0.857412 0.500000
#
# Coordination Sequence:
#
# PCOD8225286 Si02
#       8
#     8   8   8   8   8   8   8   8
#     4   9  17  32  53  81 111 139 174 220 271 316
#     4  10  19  33  56  82 110 140 175 223 272 315
#     4   9  16  28  51  82 110 137 171 216 266 314
#     4  10  22  39  54  73 108 146 178 222 274 317
#     4  10  20  33  56  81 104 140 186 225 261 318
#     4   9  16  30  50  75 105 134 169 214 262 309
#     4  10  20  33  50  75 106 141 176 210 260 321
#     4   9  19  33  54  81 105 135 178 223 268 319
#
# _framework density 18.660567
#
# number of rings (size 3 to 8) (size 9 to 14) (size 15 to 20)
#    0.000    2.500    1.250    1.125    1.750    3.500 
#    0.000    1.875    0.000    4.500    0.000    0.000 
#    0.000    0.000    0.000    0.000    0.000    0.000 
#
# Total GULP energy -793497.082108 kJ/mol
# GULP energy per Si atom -12398.391908 kJ/mol
# Density = 1.861809 g / cm^3
# Si number density = 18.660567 Si / 1000 Ang^3
#
#
#
# Elastic Constant Matrix: (Units=GPa)
#
#
# Indices 1 2 3 4 5 6 
#
# 1 111.5718 46.4605 25.6505 0.0000 0.0000 0.0000
# 2 46.4605 80.6328 19.6725 0.0000 0.0000 0.0000
# 3 25.6505 19.6725 36.5153 0.0000 0.0000 0.0000
# 4 0.0000 0.0000 0.0000 15.7943 0.0000 0.0000
# 5 0.0000 0.0000 0.0000 0.0000 12.1171 0.0000
# 6 0.0000 0.0000 0.0000 0.0000 0.0000 26.9185
#
#
#
# Elastic Compliance Matrix: (Units=1/GPa)
#
#
# Indices 1 2 3 4 5 6 
#
# 1 0.012765 -0.005949 -0.005762 0.000000 0.000000 0.000000
# 2 -0.005949 0.017052 -0.005007 0.000000 0.000000 0.000000
# 3 -0.005762 -0.005007 0.034131 0.000000 0.000000 0.000000
# 4 0.000000 0.000000 0.000000 0.063314 0.000000 0.000000
# 5 0.000000 0.000000 0.000000 0.000000 0.082528 0.000000
# 6 0.000000 0.000000 0.000000 0.000000 0.000000 0.037149
#
#
# Mechanical properties :
#
#
# Convention : Reuss Voigt Hill
#
# Bulk Modulus (GPa) = 32.77546 45.80966 39.29256
# Shear Modulus (GPa) = 17.20904 20.09508 18.65206
#
# Velocity S-wave (km/s) = 3.04009 3.28514 3.16499
# Velocity P-wave (km/s) = 5.47038 6.24433 5.87012
#
# Compressibility (1/GPa) = 0.03051063
#
# Stress axis : x y z
#
# Youngs Moduli (GPa) = 78.33996 58.64554 29.29918
#
# Poissons Ratio (x) = 0.34891 0.16881
# Poissons Ratio (y) = 0.46608 0.14671
# Poissons Ratio (z) = 0.45136 0.29365
#
# Static dielectric constant tensor:
#      x y z
#    x 3.465020 0.000000 0.000000 
#    y 0.000000 3.473480 0.000000 
#    z 0.000000 0.000000 3.091320 
# 
# 
# High freq. dielectric constant tensor:
#      x y z
#    x 1.725230 0.000000 0.000000 
#    y 0.000000 1.719170 0.000000 
#    z 0.000000 0.000000 1.686820 
# 
# From -- ./inp_files/6699.got.cif
#   From: 2010.03.12/outbox.cif.g09.slc.cpg/sg55_4_cif.got.tgz:6699.got - 2010.04.16 15:19:21.
