data_PCOD8225468
_publ_section_title
;
Structure prediction by ZEFSAII (Michael W. Deem and Ramdas Pophale) SiO2 
 PCOD8225468
Probable space group: P B A M
;
_chemical_formula_sum "Si O2"
_cell_formula_units_Z 64
_cell_length_a 19.798018
_cell_length_b 19.298101
_cell_length_c 8.884749
_cell_angle_alpha 90.000000
_cell_angle_beta 90.000000
_cell_angle_gamma 90.000000
_cell_volume 3394.544083
_symmetry_space_group_name_H-M "P B A M"
_symmetry_group_IT_number 55
_symmetry_cell_setting 'orthorhombic'
loop_
_space_group_symop_operation_xyz
x,y,z
-x,-y,z
1/2+x,1/2-y,-z
1/2-x,1/2+y,-z
-x,-y,-z
x,y,-z
1/2-x,1/2+y,z
1/2+x,1/2-y,z
loop_
_atom_site_type_symbol
_atom_site_label
_atom_site_fract_x
_atom_site_fract_y
_atom_site_fract_z
Si Si1 0.070671 0.467830 0.324319
Si Si2 0.274232 0.750330 0.824199
Si Si3 0.015720 0.785649 0.826552
Si Si4 0.316696 0.601857 0.823590
Si Si5 0.038954 0.066260 0.178832
Si Si6 0.094625 0.328500 0.828865
Si Si7 0.141787 0.717304 0.677192
Si Si8 0.169476 0.571267 0.176638
O O1 0.082517 0.478492 0.500000
O O2 0.069349 0.386941 0.284819
O O3 0.131040 0.504279 0.235848
O O4 0.000000 0.500000 0.271818
O O5 0.306891 0.679454 0.760865
O O6 0.326753 0.812271 0.794939
O O7 0.204620 0.763558 0.735678
O O8 0.256548 0.742758 0.000000
O O9 0.073915 0.756642 0.720866
O O10 0.999660 0.863720 0.774236
O O11 0.948209 0.740847 0.803590
O O12 0.039483 0.783345 0.000000
O O13 0.384278 0.567189 0.754172
O O14 0.248820 0.558665 0.785726
O O15 0.328769 0.607691 0.000000
O O16 0.041262 0.060113 0.000000
O O17 0.000000 0.000000 0.248296
O O18 0.086297 0.355123 0.000000
O O19 0.145730 0.709081 0.500000
O O20 0.141190 0.640785 0.747990
O O21 0.157767 0.579577 0.000000
#
# Coordination Sequence:
#
# PCOD8225468 Si02
#       8
#     8   8   8   8   8   8   8   8
#     4  11  24  39  54  78 116 153 187 230 284 345
#     4   9  17  34  57  79 104 139 187 236 277 325
#     4  10  19  34  57  85 113 145 184 229 281 335
#     4   8  14  29  53  79 107 137 176 226 272 318
#     4   9  16  29  53  84 113 139 174 225 280 328
#     4  10  20  35  59  83 107 143 192 243 285 331
#     4  11  22  35  54  82 116 150 185 227 280 338
#     4  10  20  36  59  82 110 147 192 238 277 326
#
# _framework density 18.853784000000001
#
# number of rings (size 3 to 8) (size 9 to 14) (size 15 to 20)
#    0.000    2.250    1.250    3.375    0.000    4.000 
#    2.250    0.000    0.000    0.375    0.000    0.000 
#    0.000    0.000    0.000    0.000    0.000    0.000 
#
# Total GULP energy -793555.210589 kJ/mol
# GULP energy per Si atom -12399.300165 kJ/mol
# Density = 1.881087 g / cm^3
# Si number density = 18.853784 Si / 1000 Ang^3
#
#
#
# Elastic Constant Matrix: (Units=GPa)
#
#
# Indices 1 2 3 4 5 6 
#
# 1 105.6406 35.7994 38.5311 0.0000 0.0000 0.0000
# 2 35.7994 91.7025 29.3128 0.0000 0.0000 0.0000
# 3 38.5311 29.3128 66.0953 0.0000 0.0000 0.0000
# 4 0.0000 0.0000 0.0000 13.7381 0.0000 0.0000
# 5 0.0000 0.0000 0.0000 0.0000 12.6202 0.0000
# 6 0.0000 0.0000 0.0000 0.0000 0.0000 30.2782
#
#
#
# Elastic Compliance Matrix: (Units=1/GPa)
#
#
# Indices 1 2 3 4 5 6 
#
# 1 0.012702 -0.003020 -0.006065 0.000000 0.000000 0.000000
# 2 -0.003020 0.013424 -0.004193 0.000000 0.000000 0.000000
# 3 -0.006065 -0.004193 0.020525 0.000000 0.000000 0.000000
# 4 0.000000 0.000000 0.000000 0.072790 0.000000 0.000000
# 5 0.000000 0.000000 0.000000 0.000000 0.079238 0.000000
# 6 0.000000 0.000000 0.000000 0.000000 0.000000 0.033027
#
#
# Mechanical properties :
#
#
# Convention : Reuss Voigt Hill
#
# Bulk Modulus (GPa) = 49.76490 52.30278 51.03384
# Shear Modulus (GPa) = 18.87071 21.98029 20.42550
#
# Velocity S-wave (km/s) = 3.16713 3.41813 3.29502
# Velocity P-wave (km/s) = 6.31084 6.58632 6.45005
#
# Compressibility (1/GPa) = 0.02009448
#
# Stress axis : x y z
#
# Youngs Moduli (GPa) = 78.72990 74.49338 48.72080
#
# Poissons Ratio (x) = 0.22495 0.29551
# Poissons Ratio (y) = 0.23775 0.20429
# Poissons Ratio (z) = 0.47752 0.31235
#
# Static dielectric constant tensor:
#      x y z
#    x 3.769330 0.000000 0.000000 
#    y 0.000000 3.379990 0.000000 
#    z 0.000000 0.000000 3.140680 
# 
# 
# High freq. dielectric constant tensor:
#      x y z
#    x 1.747760 0.000000 0.000000 
#    y 0.000000 1.719390 0.000000 
#    z 0.000000 0.000000 1.700650 
# 
# From -- ./inp_files/7956.got.cif
#   From: 2010.03.12/outbox.cif.g09.slc.cpg/sg55_4_cif.got.tgz:7956.got - 2010.04.16 15:19:21.
