data_PCOD8225884
_publ_section_title
;
Structure prediction by ZEFSAII (Michael W. Deem and Ramdas Pophale) SiO2 
 PCOD8225884
Probable space group: P B A M
;
_chemical_formula_sum "Si O2"
_cell_formula_units_Z 64
_cell_length_a 9.086572
_cell_length_b 20.580694
_cell_length_c 16.350923
_cell_angle_alpha 90.000000
_cell_angle_beta 90.000000
_cell_angle_gamma 90.000000
_cell_volume 3057.752719
_symmetry_space_group_name_H-M "P B A M"
_symmetry_group_IT_number 55
_symmetry_cell_setting 'orthorhombic'
loop_
_space_group_symop_operation_xyz
x,y,z
-x,-y,z
1/2+x,1/2-y,-z
1/2-x,1/2+y,-z
-x,-y,-z
x,y,-z
1/2-x,1/2+y,z
1/2+x,1/2-y,z
loop_
_atom_site_type_symbol
_atom_site_label
_atom_site_fract_x
_atom_site_fract_y
_atom_site_fract_z
Si Si1 0.371281 0.450261 0.266014
Si Si2 0.381353 0.282061 0.408968
Si Si3 0.409733 0.657352 0.295323
Si Si4 0.327242 0.900187 0.593929
Si Si5 0.596105 0.850376 0.680522
Si Si6 0.932491 0.720766 0.186570
Si Si7 0.149792 0.805913 0.090234
Si Si8 0.867093 0.049197 0.087998
O O1 0.500000 0.500000 0.290633
O O2 0.458833 0.382480 0.252482
O O3 0.255728 0.447421 0.341407
O O4 0.290596 0.465056 0.177557
O O5 0.405838 0.257442 0.500000
O O6 0.528023 0.321813 0.384142
O O7 0.237965 0.327648 0.400207
O O8 0.356961 0.219861 0.353467
O O9 0.256441 0.616216 0.303716
O O10 0.375005 0.721341 0.243373
O O11 0.314257 0.926577 0.500000
O O12 0.499350 0.894504 0.619097
O O13 0.506754 0.838562 0.763827
O O14 0.794148 0.687209 0.145118
O O15 0.043249 0.749329 0.120307
O O16 0.073212 0.876777 0.088853
O O17 0.198903 0.784486 0.000000
O O18 0.776903 0.039830 0.000000
O O19 0.000000 0.000000 0.084217
#
# Coordination Sequence:
#
# PCOD8225884 Si02
#       8
#     8   8   8   8   8   8   8   8
#     4  10  20  38  61  79 103 143 192 243 289 336
#     4   9  18  31  49  75 106 140 178 218 266 333
#     4  10  20  33  51  78 108 143 181 227 284 337
#     4  10  21  35  53  80 110 145 188 230 280 343
#     4  11  20  30  51  74 110 147 174 224 274 340
#     4  11  20  34  50  81 115 149 185 223 285 348
#     4  11  21  34  54  80 116 151 185 232 287 343
#     4   9  18  33  56  84 109 142 193 240 274 325
#
# _framework density 20.930405
#
# number of rings (size 3 to 8) (size 9 to 14) (size 15 to 20)
#    0.000    1.875    2.500    3.000    1.750    2.250 
#    0.000    0.625    0.000    0.750    0.000    0.875 
#    0.000   14.000    0.000    0.000    0.000    0.000 
#
# Total GULP energy -792871.811758 kJ/mol
# GULP energy per Si atom -12388.622059 kJ/mol
# Density = 2.088277 g / cm^3
# Si number density = 20.930405 Si / 1000 Ang^3
#
#
#
# Elastic Constant Matrix: (Units=GPa)
#
#
# Indices 1 2 3 4 5 6 
#
# 1 95.4890 -8.0669 33.9502 0.0000 0.0000 0.0000
# 2 -8.0669 12.8841 4.3087 0.0000 0.0000 0.0000
# 3 33.9502 4.3087 135.5603 0.0000 0.0000 0.0000
# 4 0.0000 0.0000 0.0000 21.4642 0.0000 0.0000
# 5 0.0000 0.0000 0.0000 0.0000 46.2021 0.0000
# 6 0.0000 0.0000 0.0000 0.0000 0.0000 7.8547
#
#
#
# Elastic Compliance Matrix: (Units=1/GPa)
#
#
# Indices 1 2 3 4 5 6 
#
# 1 0.012434 0.008921 -0.003398 0.000000 0.000000 0.000000
# 2 0.008921 0.084850 -0.004931 0.000000 0.000000 0.000000
# 3 -0.003398 -0.004931 0.008384 0.000000 0.000000 0.000000
# 4 0.000000 0.000000 0.000000 0.046589 0.000000 0.000000
# 5 0.000000 0.000000 0.000000 0.000000 0.021644 0.000000
# 6 0.000000 0.000000 0.000000 0.000000 0.000000 0.127312
#
#
# Mechanical properties :
#
#
# Convention : Reuss Voigt Hill
#
# Bulk Modulus (GPa) = 9.35862 33.81305 21.58584
# Shear Modulus (GPa) = 14.89665 29.35362 22.12513
#
# Velocity S-wave (km/s) = 2.67071 3.74898 3.25481
# Velocity P-wave (km/s) = 3.74049 5.91015 4.94576
#
# Compressibility (1/GPa) = 0.10685334
#
# Stress axis : x y z
#
# Youngs Moduli (GPa) = 80.42424 11.78553 119.26862
#
# Poissons Ratio (x) = -0.10514 0.40523
# Poissons Ratio (y) = -0.71749 0.58814
# Poissons Ratio (z) = 0.27325 0.05812
#
# Static dielectric constant tensor:
#      x y z
#    x 3.605930 0.000000 0.000000 
#    y 0.000000 3.550600 0.000000 
#    z 0.000000 0.000000 4.341430 
# 
# 
# High freq. dielectric constant tensor:
#      x y z
#    x 1.794170 0.000000 0.000000 
#    y 0.000000 1.788930 0.000000 
#    z 0.000000 0.000000 1.840500 
# 
# From -- ./inp_files/21080.got.cif
#   From: 2010.03.12/outbox.cif.g09.slc.cpg/sg55_11_cif.got.tgz:21080.got - 2010.04.16 15:19:21.
