data_PCOD8225736
_publ_section_title
;
Structure prediction by ZEFSAII (Michael W. Deem and Ramdas Pophale) SiO2 
 PCOD8225736
Probable space group: P B A M
;
_chemical_formula_sum "Si O2"
_cell_formula_units_Z 64
_cell_length_a 15.300002
_cell_length_b 19.040574
_cell_length_c 11.227567
_cell_angle_alpha 90.000000
_cell_angle_beta 90.000000
_cell_angle_gamma 90.000000
_cell_volume 3270.824028
_symmetry_space_group_name_H-M "P B A M"
_symmetry_group_IT_number 55
_symmetry_cell_setting 'orthorhombic'
loop_
_space_group_symop_operation_xyz
x,y,z
-x,-y,z
1/2+x,1/2-y,-z
1/2-x,1/2+y,-z
-x,-y,-z
x,y,-z
1/2-x,1/2+y,z
1/2+x,1/2-y,z
loop_
_atom_site_type_symbol
_atom_site_label
_atom_site_fract_x
_atom_site_fract_y
_atom_site_fract_z
Si Si1 0.163990 0.670791 0.370912
Si Si2 0.705618 0.012618 0.866986
Si Si3 0.061879 0.791679 0.271900
Si Si4 0.537246 0.426392 0.639107
Si Si5 0.099210 0.519145 0.366719
Si Si6 0.895819 0.749037 0.132119
Si Si7 0.807371 0.880753 0.794105
Si Si8 0.767675 0.164583 0.134657
O O1 0.210416 0.671073 0.500000
O O2 0.101371 0.738439 0.367938
O O3 0.104327 0.602452 0.355429
O O4 0.237116 0.670054 0.269383
O O5 0.766682 0.080564 0.854442
O O6 0.645670 0.015171 0.748657
O O7 0.763556 0.942411 0.869707
O O8 0.658803 0.015345 0.000000
O O9 0.028324 0.862750 0.332420
O O10 0.140882 0.809512 0.184606
O O11 0.984248 0.748605 0.208215
O O12 0.500000 0.500000 0.689162
O O13 0.552117 0.431559 0.500000
O O14 0.632109 0.415982 0.694788
O O15 0.135228 0.495387 0.500000
O O16 0.000000 0.500000 0.355512
O O17 0.862589 0.829680 0.121390
O O18 0.820956 0.698982 0.192021
O O19 0.919393 0.721970 0.000000
O O20 0.766395 0.191506 0.000000
#
# Coordination Sequence:
#
# PCOD8225736 Si02
#       8
#     8   8   8   8   8   8   8   8
#     4  10  20  35  56  81 111 151 194 242 289 350
#     4  10  21  36  59  86 116 151 198 252 299 352
#     4  11  21  36  58  83 113 153 196 240 294 355
#     4  10  21  36  57  85 117 153 195 247 295 351
#     4   9  20  38  58  81 116 155 195 240 299 361
#     4  10  21  36  56  81 112 149 191 234 291 357
#     4  10  19  37  58  81 114 152 193 238 297 358
#     4  10  21  38  56  82 120 151 189 245 299 350
#
# _framework density 19.566935000000001
#
# number of rings (size 3 to 8) (size 9 to 14) (size 15 to 20)
#    0.000    2.000    1.250    2.250    1.750    0.750 
#    0.000    1.875    0.000    6.000    0.000    0.000 
#    0.000    0.000    0.000    0.000    0.000    0.000 
#
# Total GULP energy -793022.268062 kJ/mol
# GULP energy per Si atom -12390.972938 kJ/mol
# Density = 1.952240 g / cm^3
# Si number density = 19.566935 Si / 1000 Ang^3
#
#
#
# Elastic Constant Matrix: (Units=GPa)
#
#
# Indices 1 2 3 4 5 6 
#
# 1 77.4977 14.9715 33.6590 0.0000 0.0000 0.0000
# 2 14.9715 59.9689 16.8382 0.0000 0.0000 0.0000
# 3 33.6590 16.8382 97.2297 0.0000 0.0000 0.0000
# 4 0.0000 0.0000 0.0000 27.6961 0.0000 0.0000
# 5 0.0000 0.0000 0.0000 0.0000 39.7697 0.0000
# 6 0.0000 0.0000 0.0000 0.0000 0.0000 21.8404
#
#
#
# Elastic Compliance Matrix: (Units=1/GPa)
#
#
# Indices 1 2 3 4 5 6 
#
# 1 0.015533 -0.002489 -0.004946 0.000000 0.000000 0.000000
# 2 -0.002489 0.017926 -0.002243 0.000000 0.000000 0.000000
# 3 -0.004946 -0.002243 0.012386 0.000000 0.000000 0.000000
# 4 0.000000 0.000000 0.000000 0.036106 0.000000 0.000000
# 5 0.000000 0.000000 0.000000 0.000000 0.025145 0.000000
# 6 0.000000 0.000000 0.000000 0.000000 0.000000 0.045787
#
#
# Mechanical properties :
#
#
# Convention : Reuss Voigt Hill
#
# Bulk Modulus (GPa) = 37.75175 40.62594 39.18885
# Shear Modulus (GPa) = 27.61396 29.14306 28.37851
#
# Velocity S-wave (km/s) = 3.76074 3.86347 3.81245
# Velocity P-wave (km/s) = 6.18006 6.38040 6.28103
#
# Compressibility (1/GPa) = 0.02648884
#
# Stress axis : x y z
#
# Youngs Moduli (GPa) = 64.38054 55.78349 80.73913
#
# Poissons Ratio (x) = 0.13885 0.39934
# Poissons Ratio (y) = 0.16024 0.18108
# Poissons Ratio (z) = 0.31843 0.12511
#
# Static dielectric constant tensor:
#      x y z
#    x 3.499330 0.000000 0.000000 
#    y 0.000000 3.805730 0.000000 
#    z 0.000000 0.000000 3.660950 
# 
# 
# High freq. dielectric constant tensor:
#      x y z
#    x 1.753180 0.000000 0.000000 
#    y 0.000000 1.771170 0.000000 
#    z 0.000000 0.000000 1.762770 
# 
# From -- ./inp_files/14384.got.cif
#   From: 2010.03.12/outbox.cif.g09.slc.cpg/sg55_8_cif.got.tgz:14384.got - 2010.04.16 15:19:21.
