data_PCOD8225951
_publ_section_title
;
Structure prediction by ZEFSAII (Michael W. Deem and Ramdas Pophale) SiO2 
 PCOD8225951
Probable space group: P B A M
;
_chemical_formula_sum "Si O2"
_cell_formula_units_Z 64
_cell_length_a 20.642462
_cell_length_b 18.503257
_cell_length_c 9.099489
_cell_angle_alpha 90.000000
_cell_angle_beta 90.000000
_cell_angle_gamma 90.000000
_cell_volume 3475.575116
_symmetry_space_group_name_H-M "P B A M"
_symmetry_group_IT_number 55
_symmetry_cell_setting 'orthorhombic'
loop_
_space_group_symop_operation_xyz
x,y,z
-x,-y,z
1/2+x,1/2-y,-z
1/2-x,1/2+y,-z
-x,-y,-z
x,y,-z
1/2-x,1/2+y,z
1/2+x,1/2-y,z
loop_
_atom_site_type_symbol
_atom_site_label
_atom_site_fract_x
_atom_site_fract_y
_atom_site_fract_z
Si Si1 0.756394 0.082126 0.328882
Si Si2 0.631225 0.319283 0.672039
Si Si3 0.136346 0.825871 0.828017
Si Si4 0.989291 0.181715 0.328312
Si Si5 0.377611 0.844178 0.671640
Si Si6 0.141772 0.657381 0.833725
Si Si7 0.244886 0.081809 0.325869
Si Si8 0.000715 0.331472 0.169589
O O1 0.773361 0.091727 0.500000
O O2 0.802901 0.132450 0.235692
O O3 0.682894 0.104751 0.296372
O O4 0.765414 0.000274 0.274182
O O5 0.643872 0.316708 0.500000
O O6 0.559979 0.353835 0.704695
O O7 0.637850 0.237071 0.730710
O O8 0.686527 0.370151 0.743018
O O9 0.069599 0.857063 0.757270
O O10 0.144129 0.741612 0.788408
O O11 0.131726 0.838987 0.000000
O O12 0.973009 0.179683 0.500000
O O13 0.995791 0.263157 0.275155
O O14 0.396090 0.843146 0.500000
O O15 0.438312 0.876628 0.765813
O O16 0.186472 0.611021 0.728094
O O17 0.068061 0.626995 0.818514
O O18 0.166641 0.648343 0.000000
O O19 0.246074 0.085247 0.500000
O O20 0.012761 0.308805 0.000000
#
# Coordination Sequence:
#
# PCOD8225951 Si02
#       8
#     8   8   8   8   8   8   8   8
#     4  10  21  35  51  74 103 135 172 211 252 301
#     4   8  15  29  50  74  97 124 161 203 247 294
#     4  10  20  34  53  77 103 132 169 210 252 303
#     4   9  16  29  51  76 101 129 162 206 256 300
#     4   9  17  31  51  74  99 128 166 209 251 300
#     4   9  19  34  51  74 101 128 163 205 249 301
#     4  10  20  34  52  74 101 134 171 210 252 299
#     4   9  17  30  49  75 103 128 162 208 253 302
#
# _framework density 18.414218999999999
#
# number of rings (size 3 to 8) (size 9 to 14) (size 15 to 20)
#    0.000    2.750    0.000    3.375    0.000    5.000 
#    0.000    5.625    0.000    7.500    0.000    0.000 
#    0.000    0.000    0.000    0.000    0.000    0.000 
#
# Total GULP energy -793222.089426 kJ/mol
# GULP energy per Si atom -12394.095147 kJ/mol
# Density = 1.837231 g / cm^3
# Si number density = 18.414219 Si / 1000 Ang^3
#
#
#
# Elastic Constant Matrix: (Units=GPa)
#
#
# Indices 1 2 3 4 5 6 
#
# 1 97.5440 17.3964 48.4994 0.0000 0.0000 0.0000
# 2 17.3964 41.3329 24.2868 0.0000 0.0000 0.0000
# 3 48.4994 24.2868 60.0352 0.0000 0.0000 0.0000
# 4 0.0000 0.0000 0.0000 15.7427 0.0000 0.0000
# 5 0.0000 0.0000 0.0000 0.0000 24.5186 0.0000
# 6 0.0000 0.0000 0.0000 0.0000 0.0000 3.9587
#
#
#
# Elastic Compliance Matrix: (Units=1/GPa)
#
#
# Indices 1 2 3 4 5 6 
#
# 1 0.017180 0.001212 -0.014369 0.000000 0.000000 0.000000
# 2 0.001212 0.031824 -0.013854 0.000000 0.000000 0.000000
# 3 -0.014369 -0.013854 0.033870 0.000000 0.000000 0.000000
# 4 0.000000 0.000000 0.000000 0.063521 0.000000 0.000000
# 5 0.000000 0.000000 0.000000 0.000000 0.040785 0.000000
# 6 0.000000 0.000000 0.000000 0.000000 0.000000 0.252610
#
#
# Mechanical properties :
#
#
# Convention : Reuss Voigt Hill
#
# Bulk Modulus (GPa) = 34.65916 42.14190 38.40053
# Shear Modulus (GPa) = 9.93189 16.09264 13.01227
#
# Velocity S-wave (km/s) = 2.32493 2.95943 2.66116
# Velocity P-wave (km/s) = 5.10587 5.88327 5.50830
#
# Compressibility (1/GPa) = 0.02885240
#
# Stress axis : x y z
#
# Youngs Moduli (GPa) = 58.20688 31.42315 29.52500
#
# Poissons Ratio (x) = -0.03810 0.42426
# Poissons Ratio (y) = -0.07058 0.40903
# Poissons Ratio (z) = 0.83640 0.43532
#
# Static dielectric constant tensor:
#      x y z
#    x 3.890030 0.000000 0.000000 
#    y 0.000000 3.163150 0.000000 
#    z 0.000000 0.000000 3.300300 
# 
# 
# High freq. dielectric constant tensor:
#      x y z
#    x 1.735670 0.000000 0.000000 
#    y 0.000000 1.670920 0.000000 
#    z 0.000000 0.000000 1.703910 
# 
# From -- ./inp_files/9143.got.cif
#   From: 2010.03.12/outbox.cif.g09.slc.cpg/sg55_5_cif.got.tgz:9143.got - 2010.04.16 15:19:21.
