data_PCOD8225421
_publ_section_title
;
Structure prediction by ZEFSAII (Michael W. Deem and Ramdas Pophale) SiO2 
 PCOD8225421
Probable space group: P B A M
;
_chemical_formula_sum "Si O2"
_cell_formula_units_Z 40
_cell_length_a 10.517751
_cell_length_b 8.739670
_cell_length_c 18.030431
_cell_angle_alpha 90.000000
_cell_angle_beta 90.000000
_cell_angle_gamma 90.000000
_cell_volume 1657.387380
_symmetry_space_group_name_H-M "P B A M"
_symmetry_group_IT_number 55
_symmetry_cell_setting 'orthorhombic'
loop_
_space_group_symop_operation_xyz
x,y,z
-x,-y,z
1/2+x,1/2-y,-z
1/2-x,1/2+y,-z
-x,-y,-z
x,y,-z
1/2-x,1/2+y,z
1/2+x,1/2-y,z
loop_
_atom_site_type_symbol
_atom_site_label
_atom_site_fract_x
_atom_site_fract_y
_atom_site_fract_z
Si Si1 0.258152 0.061185 0.918171
Si Si2 0.350220 0.841882 0.355970
Si Si3 0.907307 0.632125 0.195617
Si Si4 0.440157 0.330143 0.083025
Si Si5 0.614666 0.829096 0.414111
O O1 0.309901 0.952858 0.855941
O O2 0.104357 0.014921 0.912543
O O3 0.303817 0.235626 0.905974
O O4 0.302474 0.006835 0.000000
O O5 0.341167 0.796920 0.268714
O O6 0.475717 0.762472 0.391673
O O7 0.222789 0.793727 0.397863
O O8 0.357084 0.023517 0.364714
O O9 0.000000 0.500000 0.225140
O O10 0.968294 0.769857 0.148068
O O11 0.492180 0.290002 0.000000
O O12 0.613901 0.874549 0.500000
#
# Coordination Sequence:
#
# PCOD8225421 Si02
#       5
#     8   8   8   8   8
#     4   9  18  31  53  78 110 156 203 247 300 357
#     4  11  24  40  69  97 130 167 213 260 324 380
#     4  10  19  34  56  82 119 155 204 254 307 364
#     4   9  18  33  54  80 113 158 205 252 304 364
#     4  11  23  45  68  97 128 167 209 261 320 396
#
# _framework density 24.134367999999998
#
# number of rings (size 3 to 8) (size 9 to 14) (size 15 to 20)
#    0.000    2.000    2.000    3.000    2.800    3.200 
#    0.000    3.000    4.400    4.800    0.000    0.000 
#    0.000    0.000    0.000    0.000    0.000    0.000 
#
# Total GULP energy -495631.006653 kJ/mol
# GULP energy per Si atom -12390.775166 kJ/mol
# Density = 2.407944 g / cm^3
# Si number density = 24.134368 Si / 1000 Ang^3
#
#
#
# Elastic Constant Matrix: (Units=GPa)
#
#
# Indices 1 2 3 4 5 6 
#
# 1 80.5209 15.5754 17.9943 0.0000 0.0000 0.0000
# 2 15.5754 76.0415 42.2411 0.0000 0.0000 0.0000
# 3 17.9943 42.2411 162.0503 0.0000 0.0000 0.0000
# 4 0.0000 0.0000 0.0000 29.8582 0.0000 0.0000
# 5 0.0000 0.0000 0.0000 0.0000 22.1753 0.0000
# 6 0.0000 0.0000 0.0000 0.0000 0.0000 38.7757
#
#
#
# Elastic Compliance Matrix: (Units=1/GPa)
#
#
# Indices 1 2 3 4 5 6 
#
# 1 0.013038 -0.002182 -0.000879 0.000000 0.000000 0.000000
# 2 -0.002182 0.015743 -0.003861 0.000000 0.000000 0.000000
# 3 -0.000879 -0.003861 0.007275 0.000000 0.000000 0.000000
# 4 0.000000 0.000000 0.000000 0.033492 0.000000 0.000000
# 5 0.000000 0.000000 0.000000 0.000000 0.045095 0.000000
# 6 0.000000 0.000000 0.000000 0.000000 0.000000 0.025789
#
#
# Mechanical properties :
#
#
# Convention : Reuss Voigt Hill
#
# Bulk Modulus (GPa) = 45.02369 52.24825 48.63597
# Shear Modulus (GPa) = 30.92531 34.34863 32.63697
#
# Velocity S-wave (km/s) = 3.58352 3.77666 3.68136
# Velocity P-wave (km/s) = 5.98482 6.38071 6.18593
#
# Compressibility (1/GPa) = 0.02221053
#
# Stress axis : x y z
#
# Youngs Moduli (GPa) = 76.70086 63.52180 137.45679
#
# Poissons Ratio (x) = 0.13862 0.12081
# Poissons Ratio (y) = 0.16738 0.53076
# Poissons Ratio (z) = 0.06741 0.24527
#
# Static dielectric constant tensor:
#      x y z
#    x 5.052980 0.000000 0.000000 
#    y 0.000000 7.388370 0.000000 
#    z 0.000000 0.000000 4.269760 
# 
# 
# High freq. dielectric constant tensor:
#      x y z
#    x 1.983110 0.000000 0.000000 
#    y 0.000000 1.955330 0.000000 
#    z 0.000000 0.000000 1.961230 
# 
# From -- ./inp_files/20604.got.cif
#   From: 2010.03.12/outbox.cif.g09.slc.cpg/sg55_11_cif.got.tgz:20604.got - 2010.04.16 15:19:21.
