data_PCOD8225628
_publ_section_title
;
Structure prediction by ZEFSAII (Michael W. Deem and Ramdas Pophale) SiO2 
 PCOD8225628
Probable space group: P B A M
;
_chemical_formula_sum "Si O2"
_cell_formula_units_Z 64
_cell_length_a 23.874642
_cell_length_b 15.173398
_cell_length_c 9.402295
_cell_angle_alpha 90.000000
_cell_angle_beta 90.000000
_cell_angle_gamma 90.000000
_cell_volume 3406.070170
_symmetry_space_group_name_H-M "P B A M"
_symmetry_group_IT_number 55
_symmetry_cell_setting 'orthorhombic'
loop_
_space_group_symop_operation_xyz
x,y,z
-x,-y,z
1/2+x,1/2-y,-z
1/2-x,1/2+y,-z
-x,-y,-z
x,y,-z
1/2-x,1/2+y,z
1/2+x,1/2-y,z
loop_
_atom_site_type_symbol
_atom_site_label
_atom_site_fract_x
_atom_site_fract_y
_atom_site_fract_z
Si Si1 0.624235 0.830305 0.660296
Si Si2 0.503878 0.898185 0.668014
Si Si3 0.124861 0.832999 0.159641
Si Si4 0.568409 0.242403 0.167475
Si Si5 0.239843 0.914736 0.159619
Si Si6 0.239230 0.583880 0.662771
Si Si7 0.301843 0.735357 0.833881
Si Si8 0.991229 0.097214 0.168851
O O1 0.616649 0.796996 0.500000
O O2 0.565519 0.867732 0.717241
O O3 0.646056 0.749863 0.752965
O O4 0.672671 0.902358 0.672362
O O5 0.494092 0.886713 0.500000
O O6 0.457476 0.840837 0.749860
O O7 0.500000 0.000000 0.713116
O O8 0.172768 0.906386 0.161831
O O9 0.068389 0.870804 0.229096
O O10 0.112797 0.800461 0.000000
O O11 0.633368 0.251631 0.207451
O O12 0.538612 0.333346 0.216989
O O13 0.559709 0.226094 0.000000
O O14 0.269140 0.824089 0.206682
O O15 0.254374 0.987798 0.272914
O O16 0.259711 0.940856 0.000000
O O17 0.259860 0.584934 0.500000
O O18 0.276085 0.654770 0.746730
O O19 0.294993 0.712749 0.000000
O O20 0.989577 0.089673 0.000000
O O21 0.000000 0.000000 0.235190
#
# Coordination Sequence:
#
# PCOD8225628 Si02
#       8
#     8   8   8   8   8   8   8   8
#     4  10  21  38  58  82 113 149 192 240 285 335
#     4  10  22  39  59  82 114 156 193 230 286 347
#     4  10  19  35  61  85 107 145 192 235 286 339
#     4  10  21  37  59  86 116 148 189 239 284 337
#     4  10  22  38  58  85 115 149 191 238 290 345
#     4  11  24  39  59  86 116 154 196 238 288 344
#     4  10  22  40  60  85 118 154 193 240 292 344
#     4   9  18  32  54  84 112 142 181 226 279 335
#
# _framework density 18.789981999999998
#
# number of rings (size 3 to 8) (size 9 to 14) (size 15 to 20)
#    0.000    2.000    2.500    0.375    3.500    2.250 
#    0.000    0.000    0.000    0.750    0.000    0.000 
#    0.000    0.000    0.000    0.000    0.000    0.000 
#
# Total GULP energy -793628.265449 kJ/mol
# GULP energy per Si atom -12400.441648 kJ/mol
# Density = 1.874722 g / cm^3
# Si number density = 18.789982 Si / 1000 Ang^3
#
#
#
# Elastic Constant Matrix: (Units=GPa)
#
#
# Indices 1 2 3 4 5 6 
#
# 1 112.7982 33.6169 30.9047 0.0000 0.0000 0.0000
# 2 33.6169 111.1720 45.7869 0.0000 0.0000 0.0000
# 3 30.9047 45.7869 62.3930 0.0000 0.0000 0.0000
# 4 0.0000 0.0000 0.0000 35.4858 0.0000 0.0000
# 5 0.0000 0.0000 0.0000 0.0000 21.0485 0.0000
# 6 0.0000 0.0000 0.0000 0.0000 0.0000 26.6914
#
#
#
# Elastic Compliance Matrix: (Units=1/GPa)
#
#
# Indices 1 2 3 4 5 6 
#
# 1 0.010422 -0.001470 -0.004084 0.000000 0.000000 0.000000
# 2 -0.001470 0.013099 -0.008884 0.000000 0.000000 0.000000
# 3 -0.004084 -0.008884 0.024570 0.000000 0.000000 0.000000
# 4 0.000000 0.000000 0.000000 0.028180 0.000000 0.000000
# 5 0.000000 0.000000 0.000000 0.000000 0.047509 0.000000
# 6 0.000000 0.000000 0.000000 0.000000 0.000000 0.037465
#
#
# Mechanical properties :
#
#
# Convention : Reuss Voigt Hill
#
# Bulk Modulus (GPa) = 52.04249 56.33112 54.18681
# Shear Modulus (GPa) = 25.44183 28.38212 26.91198
#
# Velocity S-wave (km/s) = 3.68368 3.89072 3.78862
# Velocity P-wave (km/s) = 6.77124 7.08717 6.93101
#
# Compressibility (1/GPa) = 0.01921507
#
# Stress axis : x y z
#
# Youngs Moduli (GPa) = 95.94810 76.34438 40.69981
#
# Poissons Ratio (x) = 0.11219 0.16622
# Poissons Ratio (y) = 0.14100 0.36159
# Poissons Ratio (z) = 0.39185 0.67828
#
# Static dielectric constant tensor:
#      x y z
#    x 3.620360 0.000000 0.000000 
#    y 0.000000 3.436420 0.000000 
#    z 0.000000 0.000000 3.300660 
# 
# 
# High freq. dielectric constant tensor:
#      x y z
#    x 1.745170 0.000000 0.000000 
#    y 0.000000 1.731030 0.000000 
#    z 0.000000 0.000000 1.710750 
# 
# From -- ./inp_files/6594.got.cif
#   From: 2010.03.12/outbox.cif.g09.slc.cpg/sg55_4_cif.got.tgz:6594.got - 2010.04.16 15:19:21.
