data_PCOD8225093
_publ_section_title
;
Structure prediction by ZEFSAII (Michael W. Deem and Ramdas Pophale) SiO2 
 PCOD8225093
Probable space group: P B A M
;
_chemical_formula_sum "Si O2"
_cell_formula_units_Z 56
_cell_length_a 14.441747
_cell_length_b 21.592779
_cell_length_c 9.208189
_cell_angle_alpha 90.000000
_cell_angle_beta 90.000000
_cell_angle_gamma 90.000000
_cell_volume 2871.458189
_symmetry_space_group_name_H-M "P B A M"
_symmetry_group_IT_number 55
_symmetry_cell_setting 'orthorhombic'
loop_
_space_group_symop_operation_xyz
x,y,z
-x,-y,z
1/2+x,1/2-y,-z
1/2-x,1/2+y,-z
-x,-y,-z
x,y,-z
1/2-x,1/2+y,z
1/2+x,1/2-y,z
loop_
_atom_site_type_symbol
_atom_site_label
_atom_site_fract_x
_atom_site_fract_y
_atom_site_fract_z
Si Si1 0.905589 0.527168 0.828290
Si Si2 0.881518 0.665589 0.170267
Si Si3 0.287548 0.087244 0.167117
Si Si4 0.298839 0.305826 0.327069
Si Si5 0.909355 0.075905 0.328088
Si Si6 0.587783 0.796802 0.832788
Si Si7 0.114005 0.062284 0.328581
O O1 0.884383 0.595468 0.767050
O O2 0.823370 0.480590 0.785815
O O3 0.000000 0.500000 0.759630
O O4 0.918948 0.532434 0.000000
O O5 0.802205 0.702767 0.256397
O O6 0.978807 0.699154 0.201085
O O7 0.857824 0.666479 0.000000
O O8 0.367742 0.136452 0.199827
O O9 0.195163 0.102931 0.257084
O O10 0.259456 0.088495 0.000000
O O11 0.290729 0.302967 0.500000
O O12 0.341337 0.370875 0.269950
O O13 0.367003 0.252266 0.274521
O O14 0.908995 0.074636 0.500000
O O15 0.014982 0.089491 0.277479
O O16 0.877242 0.008686 0.271749
O O17 0.605011 0.777539 0.000000
O O18 0.125323 0.066204 0.500000
#
# Coordination Sequence:
#
# PCOD8225093 Si02
#       7
#     8   8   8   8   8   8   8
#     4   9  15  29  56  85 110 142 178 219 278 339
#     4  10  20  37  61  85 111 145 185 229 281 338
#     4  10  19  32  53  83 113 138 174 224 274 326
#     4  11  23  38  57  80 110 147 189 233 276 326
#     4   8  17  35  55  76 104 142 182 219 264 323
#     4  10  22  39  56  77 109 147 186 225 268 324
#     4   9  17  33  57  79 105 141 178 216 268 328
#
# _framework density 19.502286999999999
#
# number of rings (size 3 to 8) (size 9 to 14) (size 15 to 20)
#    0.000    2.429    1.429    2.143    0.000    2.286 
#    0.000    6.429    0.000    0.857    0.000    0.000 
#    0.000    0.000    0.000    0.000    0.000    0.000 
#
# Total GULP energy -694336.035907 kJ/mol
# GULP energy per Si atom -12398.857784 kJ/mol
# Density = 1.945790 g / cm^3
# Si number density = 19.502287 Si / 1000 Ang^3
#
#
#
# Elastic Constant Matrix: (Units=GPa)
#
#
# Indices 1 2 3 4 5 6 
#
# 1 144.9245 39.0523 52.9811 0.0000 0.0000 0.0000
# 2 39.0523 67.1571 32.1117 0.0000 0.0000 0.0000
# 3 52.9811 32.1117 54.8102 0.0000 0.0000 0.0000
# 4 0.0000 0.0000 0.0000 22.3530 0.0000 0.0000
# 5 0.0000 0.0000 0.0000 0.0000 26.4219 0.0000
# 6 0.0000 0.0000 0.0000 0.0000 0.0000 25.4648
#
#
#
# Elastic Compliance Matrix: (Units=1/GPa)
#
#
# Indices 1 2 3 4 5 6 
#
# 1 0.010824 -0.001794 -0.009412 0.000000 0.000000 0.000000
# 2 -0.001794 0.020983 -0.010559 0.000000 0.000000 0.000000
# 3 -0.009412 -0.010559 0.033529 0.000000 0.000000 0.000000
# 4 0.000000 0.000000 0.000000 0.044737 0.000000 0.000000
# 5 0.000000 0.000000 0.000000 0.000000 0.037847 0.000000
# 6 0.000000 0.000000 0.000000 0.000000 0.000000 0.039270
#
#
# Mechanical properties :
#
#
# Convention : Reuss Voigt Hill
#
# Bulk Modulus (GPa) = 45.85934 57.24244 51.55089
# Shear Modulus (GPa) = 21.00941 24.36438 22.68689
#
# Velocity S-wave (km/s) = 3.28575 3.53839 3.41441
# Velocity P-wave (km/s) = 6.16123 6.79036 6.48343
#
# Compressibility (1/GPa) = 0.02180581
#
# Stress axis : x y z
#
# Youngs Moduli (GPa) = 92.38359 47.65874 29.82499
#
# Poissons Ratio (x) = 0.08550 0.28072
# Poissons Ratio (y) = 0.16574 0.31492
# Poissons Ratio (z) = 0.86953 0.50322
#
# Static dielectric constant tensor:
#      x y z
#    x 3.652640 0.000000 0.000000 
#    y 0.000000 3.663460 0.000000 
#    z 0.000000 0.000000 3.122950 
# 
# 
# High freq. dielectric constant tensor:
#      x y z
#    x 1.775180 0.000000 0.000000 
#    y 0.000000 1.752660 0.000000 
#    z 0.000000 0.000000 1.721450 
# 
# From -- ./inp_files/13377.got.cif
#   From: 2010.03.12/outbox.cif.g09.slc.cpg/sg55_7_cif.got.tgz:13377.got - 2010.04.16 15:19:21.
