data_PCOD8225045
_publ_section_title
;
Structure prediction by ZEFSAII (Michael W. Deem and Ramdas Pophale) SiO2 
 PCOD8225045
Probable space group: P B A M
;
_chemical_formula_sum "Si O2"
_cell_formula_units_Z 56
_cell_length_a 19.182893
_cell_length_b 19.169051
_cell_length_c 8.687602
_cell_angle_alpha 90.000000
_cell_angle_beta 90.000000
_cell_angle_gamma 90.000000
_cell_volume 3194.586366
_symmetry_space_group_name_H-M "P B A M"
_symmetry_group_IT_number 55
_symmetry_cell_setting 'orthorhombic'
loop_
_space_group_symop_operation_xyz
x,y,z
-x,-y,z
1/2+x,1/2-y,-z
1/2-x,1/2+y,-z
-x,-y,-z
x,y,-z
1/2-x,1/2+y,z
1/2+x,1/2-y,z
loop_
_atom_site_type_symbol
_atom_site_label
_atom_site_fract_x
_atom_site_fract_y
_atom_site_fract_z
Si Si1 0.635372 0.261200 0.818139
Si Si2 0.981326 0.206705 0.818999
Si Si3 0.443707 0.445038 0.183244
Si Si4 0.735833 0.153282 0.680465
Si Si5 0.735248 0.370907 0.319822
Si Si6 0.210791 0.982707 0.181342
Si Si7 0.148917 0.735148 0.322563
O O1 0.556109 0.267770 0.758785
O O2 0.666949 0.194532 0.731633
O O3 0.674540 0.332623 0.774743
O O4 0.640581 0.249724 0.000000
O O5 0.962477 0.130900 0.747930
O O6 0.922518 0.262670 0.772941
O O7 0.984269 0.199659 0.000000
O O8 0.500000 0.500000 0.247703
O O9 0.367425 0.467772 0.240752
O O10 0.445278 0.443308 0.000000
O O11 0.731802 0.137742 0.500000
O O12 0.739644 0.081590 0.774404
O O13 0.803031 0.199336 0.723908
O O14 0.718387 0.362970 0.500000
O O15 0.740312 0.450524 0.269535
O O16 0.809851 0.335680 0.282235
O O17 0.213387 0.995973 0.000000
O O18 0.128672 0.738391 0.500000
#
# Coordination Sequence:
#
# PCOD8225045 Si02
#       7
#     8   8   8   8   8   8   8
#     4  10  20  34  54  79 105 137 179 219 261 312
#     4  10  19  32  52  77 105 137 172 218 263 307
#     4   9  17  29  46  73 109 140 167 203 255 311
#     4  10  20  35  53  75 106 141 177 219 264 313
#     4  10  21  36  52  75 108 142 176 218 266 314
#     4  11  20  32  54  79 105 140 179 219 262 312
#     4   9  19  34  52  73 101 138 177 214 258 315
#
# _framework density 17.529655000000002
#
# number of rings (size 3 to 8) (size 9 to 14) (size 15 to 20)
#    0.000    2.143    1.429    3.429    0.000    6.286 
#    0.000    0.000    0.000    3.000    0.000    6.000 
#    0.000    0.000    0.000    0.000    0.000    0.000 
#
# Total GULP energy -694535.941022 kJ/mol
# GULP energy per Si atom -12402.427518 kJ/mol
# Density = 1.748976 g / cm^3
# Si number density = 17.529655 Si / 1000 Ang^3
#
#
#
# Elastic Constant Matrix: (Units=GPa)
#
#
# Indices 1 2 3 4 5 6 
#
# 1 113.5371 58.4096 20.1717 0.0000 0.0000 0.0000
# 2 58.4096 106.1737 10.7095 0.0000 0.0000 0.0000
# 3 20.1717 10.7095 27.6558 0.0000 0.0000 0.0000
# 4 0.0000 0.0000 0.0000 29.1005 0.0000 0.0000
# 5 0.0000 0.0000 0.0000 0.0000 21.3362 0.0000
# 6 0.0000 0.0000 0.0000 0.0000 0.0000 24.8862
#
#
#
# Elastic Compliance Matrix: (Units=1/GPa)
#
#
# Indices 1 2 3 4 5 6 
#
# 1 0.013563 -0.006726 -0.007288 0.000000 0.000000 0.000000
# 2 -0.006726 0.013137 -0.000181 0.000000 0.000000 0.000000
# 3 -0.007288 -0.000181 0.041545 0.000000 0.000000 0.000000
# 4 0.000000 0.000000 0.000000 0.034364 0.000000 0.000000
# 5 0.000000 0.000000 0.000000 0.000000 0.046869 0.000000
# 6 0.000000 0.000000 0.000000 0.000000 0.000000 0.040183
#
#
# Mechanical properties :
#
#
# Convention : Reuss Voigt Hill
#
# Bulk Modulus (GPa) = 25.09159 47.32757 36.20958
# Shear Modulus (GPa) = 21.61363 25.60294 23.60828
#
# Velocity S-wave (km/s) = 3.51518 3.82586 3.67381
# Velocity P-wave (km/s) = 5.55160 6.82448 6.22068
#
# Compressibility (1/GPa) = 0.03985399
#
# Stress axis : x y z
#
# Youngs Moduli (GPa) = 73.73076 76.11998 24.07048
#
# Poissons Ratio (x) = 0.51200 0.17542
# Poissons Ratio (y) = 0.49593 0.00436
# Poissons Ratio (z) = 0.53734 0.01379
#
# Static dielectric constant tensor:
#      x y z
#    x 3.279500 0.000000 0.000000 
#    y 0.000000 3.237840 0.000000 
#    z 0.000000 0.000000 3.085860 
# 
# 
# High freq. dielectric constant tensor:
#      x y z
#    x 1.669050 0.000000 0.000000 
#    y 0.000000 1.671260 0.000000 
#    z 0.000000 0.000000 1.671460 
# 
# From -- ./inp_files/7797.got.cif
#   From: 2010.03.12/outbox.cif.g09.slc.cpg/sg55_4_cif.got.tgz:7797.got - 2010.04.16 15:19:21.
