data_PCOD8225447
_publ_section_title
;
Structure prediction by ZEFSAII (Michael W. Deem and Ramdas Pophale) SiO2 
 PCOD8225447
Probable space group: P B A M
;
_chemical_formula_sum "Si O2"
_cell_formula_units_Z 64
_cell_length_a 23.296657
_cell_length_b 15.548686
_cell_length_c 9.167938
_cell_angle_alpha 90.000000
_cell_angle_beta 90.000000
_cell_angle_gamma 90.000000
_cell_volume 3320.924226
_symmetry_space_group_name_H-M "P B A M"
_symmetry_group_IT_number 55
_symmetry_cell_setting 'orthorhombic'
loop_
_space_group_symop_operation_xyz
x,y,z
-x,-y,z
1/2+x,1/2-y,-z
1/2-x,1/2+y,-z
-x,-y,-z
x,y,-z
1/2-x,1/2+y,z
1/2+x,1/2-y,z
loop_
_atom_site_type_symbol
_atom_site_label
_atom_site_fract_x
_atom_site_fract_y
_atom_site_fract_z
Si Si1 0.052443 0.939673 0.173205
Si Si2 0.305860 0.705264 0.665374
Si Si3 0.840025 0.983231 0.667735
Si Si4 0.620504 0.132920 0.664877
Si Si5 0.695136 0.816376 0.827323
Si Si6 0.927676 0.252591 0.827291
Si Si7 0.508666 0.096144 0.827458
Si Si8 0.712086 0.991862 0.667996
O O1 0.046818 0.839786 0.226594
O O2 0.112850 0.973875 0.230726
O O3 0.054429 0.943836 0.000000
O O4 0.000000 0.000000 0.231702
O O5 0.282822 0.699118 0.500000
O O6 0.334160 0.616006 0.713808
O O7 0.356783 0.771565 0.681584
O O8 0.251299 0.731058 0.764175
O O9 0.859166 0.994212 0.500000
O O10 0.777202 0.024282 0.697082
O O11 0.598554 0.115034 0.500000
O O12 0.571318 0.125239 0.782522
O O13 0.671649 0.070163 0.708664
O O14 0.638357 0.764179 0.777023
O O15 0.692651 0.913048 0.767638
O O16 0.699332 0.820364 0.000000
O O17 0.963903 0.333478 0.762748
O O18 0.931849 0.255893 0.000000
O O19 0.500000 0.000000 0.762483
O O20 0.503501 0.093463 0.000000
O O21 0.706301 0.962845 0.500000
#
# Coordination Sequence:
#
# PCOD8225447 Si02
#       8
#     8   8   8   8   8   8   8   8
#     4  10  22  38  56  77 105 145 186 228 276 325
#     4   9  20  37  56  80 114 146 175 223 284 335
#     4   9  19  36  56  79 108 141 178 222 272 327
#     4  10  21  36  57  83 112 146 185 227 274 336
#     4  10  19  34  57  82 109 143 186 227 271 328
#     4   9  20  37  55  80 115 146 181 231 278 326
#     4  10  21  38  59  82 112 151 186 227 284 332
#     4   9  19  36  56  81 115 148 175 220 282 333
#
# _framework density 19.271743000000001
#
# number of rings (size 3 to 8) (size 9 to 14) (size 15 to 20)
#    0.000    2.500    0.000    1.875    3.500    4.500 
#    0.000    2.500    0.000    0.000    0.000    0.000 
#    0.000    0.000    0.000    0.000    0.000    0.000 
#
# Total GULP energy -793387.729130 kJ/mol
# GULP energy per Si atom -12396.683268 kJ/mol
# Density = 1.922788 g / cm^3
# Si number density = 19.271743 Si / 1000 Ang^3
#
#
#
# Elastic Constant Matrix: (Units=GPa)
#
#
# Indices 1 2 3 4 5 6 
#
# 1 109.6059 59.5010 25.2038 0.0000 0.0000 0.0000
# 2 59.5010 110.8514 22.9921 0.0000 0.0000 0.0000
# 3 25.2038 22.9921 31.2054 0.0000 0.0000 0.0000
# 4 0.0000 0.0000 0.0000 13.4035 0.0000 0.0000
# 5 0.0000 0.0000 0.0000 0.0000 28.7551 0.0000
# 6 0.0000 0.0000 0.0000 0.0000 0.0000 30.1637
#
#
#
# Elastic Compliance Matrix: (Units=1/GPa)
#
#
# Indices 1 2 3 4 5 6 
#
# 1 0.014004 -0.006103 -0.006813 0.000000 0.000000 0.000000
# 2 -0.006103 0.013309 -0.004876 0.000000 0.000000 0.000000
# 3 -0.006813 -0.004876 0.041141 0.000000 0.000000 0.000000
# 4 0.000000 0.000000 0.000000 0.074607 0.000000 0.000000
# 5 0.000000 0.000000 0.000000 0.000000 0.034776 0.000000
# 6 0.000000 0.000000 0.000000 0.000000 0.000000 0.033152
#
#
# Mechanical properties :
#
#
# Convention : Reuss Voigt Hill
#
# Bulk Modulus (GPa) = 30.42499 51.89517 41.16008
# Shear Modulus (GPa) = 19.41507 24.06217 21.73862
#
# Velocity S-wave (km/s) = 3.17746 3.53735 3.36222
# Velocity P-wave (km/s) = 5.41140 6.60835 6.03960
#
# Compressibility (1/GPa) = 0.03286772
#
# Stress axis : x y z
#
# Youngs Moduli (GPa) = 71.40985 75.13952 24.30641
#
# Poissons Ratio (x) = 0.45861 0.16561
# Poissons Ratio (y) = 0.43585 0.11852
# Poissons Ratio (z) = 0.48654 0.36639
#
# Static dielectric constant tensor:
#      x y z
#    x 3.606160 0.000000 0.000000 
#    y 0.000000 4.258630 0.000000 
#    z 0.000000 0.000000 3.290980 
# 
# 
# High freq. dielectric constant tensor:
#      x y z
#    x 1.754170 0.000000 0.000000 
#    y 0.000000 1.759000 0.000000 
#    z 0.000000 0.000000 1.726560 
# 
# From -- ./inp_files/9636.got.cif
#   From: 2010.03.12/outbox.cif.g09.slc.cpg/sg55_5_cif.got.tgz:9636.got - 2010.04.16 15:19:21.
