data_PCOD8225583
_publ_section_title
;
Structure prediction by ZEFSAII (Michael W. Deem and Ramdas Pophale) SiO2 
 PCOD8225583
Probable space group: P B A M
;
_chemical_formula_sum "Si O2"
_cell_formula_units_Z 64
_cell_length_a 22.368256
_cell_length_b 15.669852
_cell_length_c 9.232658
_cell_angle_alpha 90.000000
_cell_angle_beta 90.000000
_cell_angle_gamma 90.000000
_cell_volume 3236.113667
_symmetry_space_group_name_H-M "P B A M"
_symmetry_group_IT_number 55
_symmetry_cell_setting 'orthorhombic'
loop_
_space_group_symop_operation_xyz
x,y,z
-x,-y,z
1/2+x,1/2-y,-z
1/2-x,1/2+y,-z
-x,-y,-z
x,y,-z
1/2-x,1/2+y,z
1/2+x,1/2-y,z
loop_
_atom_site_type_symbol
_atom_site_label
_atom_site_fract_x
_atom_site_fract_y
_atom_site_fract_z
Si Si1 0.227017 0.536955 0.340498
Si Si2 0.663899 0.833480 0.160929
Si Si3 0.351025 0.874257 0.341644
Si Si4 0.049396 0.927528 0.329734
Si Si5 0.172613 0.960129 0.170929
Si Si6 0.967634 0.587414 0.169660
Si Si7 0.243019 0.305070 0.840593
Si Si8 0.043633 0.754393 0.830429
O O1 0.243695 0.573111 0.500000
O O2 0.172067 0.589758 0.271896
O O3 0.200672 0.443483 0.356475
O O4 0.286160 0.535387 0.239247
O O5 0.727604 0.787261 0.160635
O O6 0.611653 0.769604 0.209644
O O7 0.648301 0.869121 0.000000
O O8 0.372856 0.843501 0.500000
O O9 0.405603 0.910473 0.251918
O O10 0.315933 0.798385 0.259792
O O11 0.062108 0.914571 0.500000
O O12 0.108879 0.958934 0.249136
O O13 0.025839 0.837701 0.262481
O O14 0.000000 0.000000 0.303448
O O15 0.205317 0.871265 0.204748
O O16 0.163547 0.976437 0.000000
O O17 0.000000 0.500000 0.218752
O O18 0.004236 0.672200 0.212856
O O19 0.954959 0.585030 0.000000
O O20 0.219869 0.330588 0.000000
O O21 0.036933 0.777071 0.000000
#
# Coordination Sequence:
#
# PCOD8225583 Si02
#       8
#     8   8   8   8   8   8   8   8
#     4  10  21  35  54  86 120 152 189 234 292 358
#     4  10  19  35  58  86 114 144 191 242 291 351
#     4  10  21  36  54  79 115 153 188 228 285 351
#     4  11  24  41  61  86 118 158 202 252 309 366
#     4  10  19  37  62  85 110 147 192 244 297 347
#     4  10  21  38  62  89 120 159 201 248 298 352
#     4   9  18  34  58  82 108 141 185 236 287 342
#     4  10  21  39  63  91 119 155 207 256 299 357
#
# _framework density 19.776807999999999
#
# number of rings (size 3 to 8) (size 9 to 14) (size 15 to 20)
#    0.000    2.000    1.250    2.250    0.000    5.750 
#    2.250    0.000    0.000    0.000    0.000    0.000 
#    0.000    0.000    0.000    0.000    0.000    0.000 
#
# Total GULP energy -793335.708962 kJ/mol
# GULP energy per Si atom -12395.870453 kJ/mol
# Density = 1.973180 g / cm^3
# Si number density = 19.776808 Si / 1000 Ang^3
#
#
#
# Elastic Constant Matrix: (Units=GPa)
#
#
# Indices 1 2 3 4 5 6 
#
# 1 99.5181 28.6586 57.9336 0.0000 0.0000 0.0000
# 2 28.6586 78.5221 43.6972 0.0000 0.0000 0.0000
# 3 57.9336 43.6972 111.4672 0.0000 0.0000 0.0000
# 4 0.0000 0.0000 0.0000 19.9850 0.0000 0.0000
# 5 0.0000 0.0000 0.0000 0.0000 30.8652 0.0000
# 6 0.0000 0.0000 0.0000 0.0000 0.0000 25.5954
#
#
#
# Elastic Compliance Matrix: (Units=1/GPa)
#
#
# Indices 1 2 3 4 5 6 
#
# 1 0.014528 -0.001407 -0.006999 0.000000 0.000000 0.000000
# 2 -0.001407 0.016425 -0.005707 0.000000 0.000000 0.000000
# 3 -0.006999 -0.005707 0.014846 0.000000 0.000000 0.000000
# 4 0.000000 0.000000 0.000000 0.050038 0.000000 0.000000
# 5 0.000000 0.000000 0.000000 0.000000 0.032399 0.000000
# 6 0.000000 0.000000 0.000000 0.000000 0.000000 0.039070
#
#
# Mechanical properties :
#
#
# Convention : Reuss Voigt Hill
#
# Bulk Modulus (GPa) = 56.90973 61.12069 59.01521
# Shear Modulus (GPa) = 24.82733 25.90364 25.36549
#
# Velocity S-wave (km/s) = 3.54697 3.62304 3.58521
# Velocity P-wave (km/s) = 6.75375 6.96234 6.85884
#
# Compressibility (1/GPa) = 0.01757169
#
# Stress axis : x y z
#
# Youngs Moduli (GPa) = 68.83167 60.88238 67.35663
#
# Poissons Ratio (x) = 0.08569 0.47143
# Poissons Ratio (y) = 0.09688 0.38443
# Poissons Ratio (z) = 0.48176 0.34748
#
# Static dielectric constant tensor:
#      x y z
#    x 3.521840 0.000000 0.000000 
#    y 0.000000 3.500070 0.000000 
#    z 0.000000 0.000000 3.860490 
# 
# 
# High freq. dielectric constant tensor:
#      x y z
#    x 1.768260 0.000000 0.000000 
#    y 0.000000 1.756430 0.000000 
#    z 0.000000 0.000000 1.774450 
# 
# From -- ./inp_files/9014.got.cif
#   From: 2010.03.12/outbox.cif.g09.slc.cpg/sg55_5_cif.got.tgz:9014.got - 2010.04.16 15:19:21.
