data_PCOD8225166
_publ_section_title
;
Structure prediction by ZEFSAII (Michael W. Deem and Ramdas Pophale) SiO2 
 PCOD8225166
Probable space group: P B A M
;
_chemical_formula_sum "Si O2"
_cell_formula_units_Z 56
_cell_length_a 21.422280
_cell_length_b 15.058038
_cell_length_c 9.174247
_cell_angle_alpha 90.000000
_cell_angle_beta 90.000000
_cell_angle_gamma 90.000000
_cell_volume 2959.405719
_symmetry_space_group_name_H-M "P B A M"
_symmetry_group_IT_number 55
_symmetry_cell_setting 'orthorhombic'
loop_
_space_group_symop_operation_xyz
x,y,z
-x,-y,z
1/2+x,1/2-y,-z
1/2-x,1/2+y,-z
-x,-y,-z
x,y,-z
1/2-x,1/2+y,z
1/2+x,1/2-y,z
loop_
_atom_site_type_symbol
_atom_site_label
_atom_site_fract_x
_atom_site_fract_y
_atom_site_fract_z
Si Si1 0.567542 0.523947 0.329591
Si Si2 0.407666 0.965561 0.172239
Si Si3 0.195395 0.050176 0.669906
Si Si4 0.225624 0.406742 0.826351
Si Si5 0.975107 0.360917 0.827892
Si Si6 0.098857 0.780937 0.670744
Si Si7 0.261663 0.233277 0.328993
O O1 0.500000 0.500000 0.256999
O O2 0.556557 0.534013 0.500000
O O3 0.620389 0.448225 0.298390
O O4 0.594212 0.618015 0.271152
O O5 0.339241 0.946711 0.232388
O O6 0.454373 0.886220 0.218397
O O7 0.430404 0.060463 0.231873
O O8 0.408368 0.971398 0.000000
O O9 0.207923 0.030662 0.500000
O O10 0.220380 0.967642 0.761940
O O11 0.229657 0.140549 0.718304
O O12 0.227788 0.307706 0.765116
O O13 0.230380 0.404455 0.000000
O O14 0.956895 0.270734 0.748799
O O15 0.968353 0.347568 0.000000
O O16 0.087535 0.775605 0.500000
O O17 0.165150 0.736190 0.712086
O O18 0.251640 0.251835 0.500000
#
# Coordination Sequence:
#
# PCOD8225166 Si02
#       7
#     8   8   8   8   8   8   8
#     4   9  18  34  55  75 102 142 180 217 269 329
#     4   8  17  33  51  75 106 141 175 215 262 322
#     4  10  20  37  58  79 108 144 185 230 279 330
#     4  11  21  34  55  81 111 142 179 225 274 326
#     4   9  17  33  55  74 101 141 180 210 261 328
#     4  10  19  33  52  78 108 133 175 230 271 316
#     4  10  21  36  56  81 108 143 184 229 280 329
#
# _framework density 18.922719000000001
#
# number of rings (size 3 to 8) (size 9 to 14) (size 15 to 20)
#    0.000    2.429    1.429    2.143    0.000    2.286 
#    0.000    5.000    0.000    1.714    0.000    0.000 
#    0.000    0.000    0.000    0.000    0.000    0.000 
#
# Total GULP energy -694178.106535 kJ/mol
# GULP energy per Si atom -12396.037617 kJ/mol
# Density = 1.887965 g / cm^3
# Si number density = 18.922719 Si / 1000 Ang^3
#
#
#
# Elastic Constant Matrix: (Units=GPa)
#
#
# Indices 1 2 3 4 5 6 
#
# 1 123.5646 51.4970 18.9094 0.0000 0.0000 0.0000
# 2 51.4970 111.2628 25.6509 0.0000 0.0000 0.0000
# 3 18.9094 25.6509 29.1385 0.0000 0.0000 0.0000
# 4 0.0000 0.0000 0.0000 27.0643 0.0000 0.0000
# 5 0.0000 0.0000 0.0000 0.0000 21.8692 0.0000
# 6 0.0000 0.0000 0.0000 0.0000 0.0000 35.2691
#
#
#
# Elastic Compliance Matrix: (Units=1/GPa)
#
#
# Indices 1 2 3 4 5 6 
#
# 1 0.010246 -0.004027 -0.003105 0.000000 0.000000 0.000000
# 2 -0.004027 0.012859 -0.008707 0.000000 0.000000 0.000000
# 3 -0.003105 -0.008707 0.043998 0.000000 0.000000 0.000000
# 4 0.000000 0.000000 0.000000 0.036949 0.000000 0.000000
# 5 0.000000 0.000000 0.000000 0.000000 0.045726 0.000000
# 6 0.000000 0.000000 0.000000 0.000000 0.000000 0.028353
#
#
# Mechanical properties :
#
#
# Convention : Reuss Voigt Hill
#
# Bulk Modulus (GPa) = 28.22672 50.67561 39.45116
# Shear Modulus (GPa) = 22.56151 28.03442 25.29797
#
# Velocity S-wave (km/s) = 3.45671 3.85323 3.66034
# Velocity P-wave (km/s) = 5.55707 6.82898 6.22559
#
# Compressibility (1/GPa) = 0.03542743
#
# Stress axis : x y z
#
# Youngs Moduli (GPa) = 97.59748 77.76879 22.72826
#
# Poissons Ratio (x) = 0.31314 0.07056
# Poissons Ratio (y) = 0.39299 0.19788
# Poissons Ratio (z) = 0.30300 0.67710
#
# Static dielectric constant tensor:
#      x y z
#    x 3.835880 0.000000 0.000000 
#    y 0.000000 3.524880 0.000000 
#    z 0.000000 0.000000 3.074770 
# 
# 
# High freq. dielectric constant tensor:
#      x y z
#    x 1.746850 0.000000 0.000000 
#    y 0.000000 1.735060 0.000000 
#    z 0.000000 0.000000 1.699620 
# 
# From -- ./inp_files/8781.got.cif
#   From: 2010.03.12/outbox.cif.g09.slc.cpg/sg55_5_cif.got.tgz:8781.got - 2010.04.16 15:19:21.
