data_PCOD8225344
_publ_section_title
;
Structure prediction by ZEFSAII (Michael W. Deem and Ramdas Pophale) SiO2 
 PCOD8225344
Probable space group: P B A M
;
_chemical_formula_sum "Si O2"
_cell_formula_units_Z 40
_cell_length_a 20.984871
_cell_length_b 10.358261
_cell_length_c 8.484000
_cell_angle_alpha 90.000000
_cell_angle_beta 90.000000
_cell_angle_gamma 90.000000
_cell_volume 1844.139684
_symmetry_space_group_name_H-M "P B A M"
_symmetry_group_IT_number 55
_symmetry_cell_setting 'orthorhombic'
loop_
_space_group_symop_operation_xyz
x,y,z
-x,-y,z
1/2+x,1/2-y,-z
1/2-x,1/2+y,-z
-x,-y,-z
x,y,-z
1/2-x,1/2+y,z
1/2+x,1/2-y,z
loop_
_atom_site_type_symbol
_atom_site_label
_atom_site_fract_x
_atom_site_fract_y
_atom_site_fract_z
Si Si1 0.700449 0.040037 0.684849
Si Si2 0.581745 0.401394 0.817689
Si Si3 0.720137 0.308835 0.816346
Si Si4 0.566021 0.947214 0.313021
Si Si5 0.450438 0.337892 0.683122
O O1 0.703323 0.065832 0.500000
O O2 0.734675 0.160051 0.771475
O O3 0.735076 0.905625 0.721126
O O4 0.627003 0.029139 0.744880
O O5 0.647548 0.336509 0.767190
O O6 0.526526 0.339867 0.711034
O O7 0.585679 0.554804 0.785826
O O8 0.565871 0.377516 0.000000
O O9 0.732173 0.331602 0.000000
O O10 0.560726 0.952914 0.500000
O O11 0.576502 0.799425 0.260347
O O12 0.500000 0.000000 0.237589
O O13 0.436990 0.364025 0.500000
#
# Coordination Sequence:
#
# PCOD8225344 Si02
#       5
#     8   8   8   8   8
#     4  11  24  42  67  96 124 164 215 263 312 378
#     4  10  21  37  57  84 122 163 203 249 307 373
#     4  11  25  44  63  89 128 170 209 258 318 379
#     4   9  19  36  59  89 123 153 195 256 315 365
#     4  10  19  33  59  91 120 155 202 255 311 368
#
# _framework density 21.690332000000001
#
# number of rings (size 3 to 8) (size 9 to 14) (size 15 to 20)
#    0.000    1.800    0.000    4.800    2.800    4.800 
#    0.000    3.000    0.000    7.200    0.000    0.000 
#    0.000    0.000    0.000    0.000    0.000    0.000 
#
# Total GULP energy -496093.800861 kJ/mol
# GULP energy per Si atom -12402.345022 kJ/mol
# Density = 2.164096 g / cm^3
# Si number density = 21.690332 Si / 1000 Ang^3
#
#
#
# Elastic Constant Matrix: (Units=GPa)
#
#
# Indices 1 2 3 4 5 6 
#
# 1 57.6941 40.8636 16.0535 0.0000 0.0000 0.0000
# 2 40.8636 112.3796 6.0458 0.0000 0.0000 0.0000
# 3 16.0535 6.0458 38.9695 0.0000 0.0000 0.0000
# 4 0.0000 0.0000 0.0000 26.8269 0.0000 0.0000
# 5 0.0000 0.0000 0.0000 0.0000 24.9186 0.0000
# 6 0.0000 0.0000 0.0000 0.0000 0.0000 32.6890
#
#
#
# Elastic Compliance Matrix: (Units=1/GPa)
#
#
# Indices 1 2 3 4 5 6 
#
# 1 0.026408 -0.009093 -0.009468 0.000000 0.000000 0.000000
# 2 -0.009093 0.012104 0.001868 0.000000 0.000000 0.000000
# 3 -0.009468 0.001868 0.029272 0.000000 0.000000 0.000000
# 4 0.000000 0.000000 0.000000 0.037276 0.000000 0.000000
# 5 0.000000 0.000000 0.000000 0.000000 0.040131 0.000000
# 6 0.000000 0.000000 0.000000 0.000000 0.000000 0.030591
#
#
# Mechanical properties :
#
#
# Convention : Reuss Voigt Hill
#
# Bulk Modulus (GPa) = 29.07175 37.21879 33.14527
# Shear Modulus (GPa) = 22.66202 26.62559 24.64380
#
# Velocity S-wave (km/s) = 3.23584 3.50742 3.37436
# Velocity P-wave (km/s) = 5.23384 5.79647 5.52232
#
# Compressibility (1/GPa) = 0.03439766
#
# Stress axis : x y z
#
# Youngs Moduli (GPa) = 37.86778 82.61510 34.16275
#
# Poissons Ratio (x) = 0.75122 0.32345
# Poissons Ratio (y) = 0.34433 -0.06382
# Poissons Ratio (z) = 0.35853 -0.15432
#
# Static dielectric constant tensor:
#      x y z
#    x 3.971620 0.000000 0.000000 
#    y 0.000000 4.028670 0.000000 
#    z 0.000000 0.000000 3.589660 
# 
# 
# High freq. dielectric constant tensor:
#      x y z
#    x 1.849580 0.000000 0.000000 
#    y 0.000000 1.865270 0.000000 
#    z 0.000000 0.000000 1.833420 
# 
# From -- ./inp_files/8485.got.cif
#   From: 2010.03.12/outbox.cif.g09.slc.cpg/sg55_5_cif.got.tgz:8485.got - 2010.04.16 15:19:21.
