data_PCOD8225676
_publ_section_title
;
Structure prediction by ZEFSAII (Michael W. Deem and Ramdas Pophale) SiO2 
 PCOD8225676
Probable space group: P B A M
;
_chemical_formula_sum "Si O2"
_cell_formula_units_Z 48
_cell_length_a 31.025796
_cell_length_b 10.379074
_cell_length_c 7.754803
_cell_angle_alpha 90.000000
_cell_angle_beta 90.000000
_cell_angle_gamma 90.000000
_cell_volume 2497.194160
_symmetry_space_group_name_H-M "P B A M"
_symmetry_group_IT_number 55
_symmetry_cell_setting 'orthorhombic'
loop_
_space_group_symop_operation_xyz
x,y,z
-x,-y,z
1/2+x,1/2-y,-z
1/2-x,1/2+y,-z
-x,-y,-z
x,y,-z
1/2-x,1/2+y,z
1/2+x,1/2-y,z
loop_
_atom_site_type_symbol
_atom_site_label
_atom_site_fract_x
_atom_site_fract_y
_atom_site_fract_z
Si Si1 0.781588 0.593370 0.695807
Si Si2 0.216647 0.120300 0.799438
Si Si3 0.374059 0.950053 0.196332
Si Si4 0.030422 0.118143 0.801123
Si Si5 0.376600 0.663197 0.199542
Si Si6 0.427373 0.042016 0.500000
Si Si7 0.508406 0.195049 0.500000
O O1 0.795956 0.613666 0.500000
O O2 0.766635 0.733081 0.768647
O O3 0.743916 0.487880 0.702188
O O4 0.822260 0.536342 0.800092
O O5 0.167648 0.106157 0.721887
O O6 0.219554 0.087292 0.000000
O O7 0.386281 0.807466 0.266155
O O8 0.397710 0.046641 0.328114
O O9 0.389842 0.977067 0.000000
O O10 0.080642 0.078046 0.764250
O O11 0.017158 0.231434 0.676709
O O12 0.025621 0.163504 0.000000
O O13 0.000000 0.000000 0.757836
O O14 0.365937 0.678452 0.000000
O O15 0.457305 0.167655 0.500000
O O16 0.460747 0.925950 0.500000
#
# Coordination Sequence:
#
# PCOD8225676 Si02
#       7
#     8   8   8   8   8   4   4
#     4  11  21  36  58  88 118 150 195 244 293 347
#     4  10  20  36  58  84 116 156 195 236 292 352
#     4  10  19  36  59  82 113 152 191 234 279 341
#     4  10  20  37  60  83 111 149 195 244 290 341
#     4   8  16  32  56  82 107 143 193 235 276 336
#     4  11  22  36  56  85 113 151 188 231 282 347
#     4  11  23  36  56  83 118 148 182 237 297 334
#
# _framework density 19.221571999999998
#
# number of rings (size 3 to 8) (size 9 to 14) (size 15 to 20)
#    0.000    2.000    2.500    3.250    0.000    0.667 
#    1.500    3.333    0.000    4.000    0.000    0.000 
#    0.000    0.000    0.000    0.000    0.000    0.000 
#
# Total GULP energy -594897.201879 kJ/mol
# GULP energy per Si atom -12393.691706 kJ/mol
# Density = 1.917782 g / cm^3
# Si number density = 19.221572 Si / 1000 Ang^3
#
#
#
# Elastic Constant Matrix: (Units=GPa)
#
#
# Indices 1 2 3 4 5 6 
#
# 1 129.4812 52.6879 22.2357 0.0000 0.0000 0.0000
# 2 52.6879 59.6241 11.8409 0.0000 0.0000 0.0000
# 3 22.2357 11.8409 82.8504 0.0000 0.0000 0.0000
# 4 0.0000 0.0000 0.0000 19.6755 0.0000 0.0000
# 5 0.0000 0.0000 0.0000 0.0000 25.3391 0.0000
# 6 0.0000 0.0000 0.0000 0.0000 0.0000 39.2708
#
#
#
# Elastic Compliance Matrix: (Units=1/GPa)
#
#
# Indices 1 2 3 4 5 6 
#
# 1 0.012315 -0.010525 -0.001801 0.000000 0.000000 0.000000
# 2 -0.010525 0.026256 -0.000928 0.000000 0.000000 0.000000
# 3 -0.001801 -0.000928 0.012686 0.000000 0.000000 0.000000
# 4 0.000000 0.000000 0.000000 0.050825 0.000000 0.000000
# 5 0.000000 0.000000 0.000000 0.000000 0.039465 0.000000
# 6 0.000000 0.000000 0.000000 0.000000 0.000000 0.025464
#
#
# Mechanical properties :
#
#
# Convention : Reuss Voigt Hill
#
# Bulk Modulus (GPa) = 40.40376 49.49831 44.95103
# Shear Modulus (GPa) = 24.78089 29.20317 26.99203
#
# Velocity S-wave (km/s) = 3.59447 3.90204 3.75141
# Velocity P-wave (km/s) = 6.18810 6.79033 6.49620
#
# Compressibility (1/GPa) = 0.02475017
#
# Stress axis : x y z
#
# Youngs Moduli (GPa) = 81.20094 38.08585 78.82762
#
# Poissons Ratio (x) = 0.40085 0.14197
# Poissons Ratio (y) = 0.85463 0.07314
# Poissons Ratio (z) = 0.14624 0.03534
#
# Static dielectric constant tensor:
#      x y z
#    x 3.747610 0.000000 0.000000 
#    y 0.000000 3.211060 0.000000 
#    z 0.000000 0.000000 3.482950 
# 
# 
# High freq. dielectric constant tensor:
#      x y z
#    x 1.757880 0.000000 0.000000 
#    y 0.000000 1.704850 0.000000 
#    z 0.000000 0.000000 1.757380 
# 
# From -- ./inp_files/10563.got.cif
#   From: 2010.03.12/outbox.cif.g09.slc.cpg/sg55_6_cif.got.tgz:10563.got - 2010.04.16 15:19:21.
