data_PCOD8225534
_publ_section_title
;
Structure prediction by ZEFSAII (Michael W. Deem and Ramdas Pophale) SiO2 
 PCOD8225534
Probable space group: P B A M
;
_chemical_formula_sum "Si O2"
_cell_formula_units_Z 56
_cell_length_a 13.476364
_cell_length_b 24.263172
_cell_length_c 9.035381
_cell_angle_alpha 90.000000
_cell_angle_beta 90.000000
_cell_angle_gamma 90.000000
_cell_volume 2954.382895
_symmetry_space_group_name_H-M "P B A M"
_symmetry_group_IT_number 55
_symmetry_cell_setting 'orthorhombic'
loop_
_space_group_symop_operation_xyz
x,y,z
-x,-y,z
1/2+x,1/2-y,-z
1/2-x,1/2+y,-z
-x,-y,-z
x,y,-z
1/2-x,1/2+y,z
1/2+x,1/2-y,z
loop_
_atom_site_type_symbol
_atom_site_label
_atom_site_fract_x
_atom_site_fract_y
_atom_site_fract_z
Si Si1 0.378451 0.873101 0.332723
Si Si2 0.308545 0.444548 0.327315
Si Si3 0.733777 0.444618 0.175506
Si Si4 0.089327 0.846063 0.174795
Si Si5 0.133867 0.166867 0.175190
Si Si6 0.939403 0.446503 0.670070
Si Si7 0.277078 0.778625 0.825575
O O1 0.359950 0.853332 0.500000
O O2 0.302912 0.922999 0.296452
O O3 0.490408 0.893476 0.309725
O O4 0.360635 0.821388 0.227294
O O5 0.331393 0.450719 0.500000
O O6 0.320040 0.503582 0.250303
O O7 0.388004 0.403204 0.256517
O O8 0.677800 0.390288 0.235579
O O9 0.847657 0.439072 0.221900
O O10 0.726647 0.450939 0.000000
O O11 0.167909 0.798966 0.225635
O O12 0.980586 0.826187 0.224061
O O13 0.096516 0.856796 0.000000
O O14 0.197654 0.218195 0.240244
O O15 0.141852 0.166841 0.000000
O O16 0.903016 0.452867 0.500000
O O17 0.000000 0.500000 0.719146
O O18 0.284132 0.776650 0.000000
#
# Coordination Sequence:
#
# PCOD8225534 Si02
#       7
#     8   8   8   8   8   8   8
#     4   9  18  33  54  77 105 142 177 216 270 323
#     4  10  19  35  55  77 107 142 179 222 272 322
#     4  11  22  34  52  80 111 143 184 228 269 323
#     4   9  18  35  58  79 103 140 180 218 264 323
#     4   9  20  37  54  78 113 144 171 221 283 320
#     4  10  19  35  54  76 110 149 176 211 276 332
#     4   9  18  34  57  80 102 137 184 222 260 318
#
# _framework density 18.954889999999999
#
# number of rings (size 3 to 8) (size 9 to 14) (size 15 to 20)
#    0.000    2.429    1.429    0.857    0.000    3.143 
#    0.000    9.286    0.000    3.429    0.000    0.000 
#    0.000    0.000    0.000    0.000    0.000    0.000 
#
# Total GULP energy -694425.571493 kJ/mol
# GULP energy per Si atom -12400.456634 kJ/mol
# Density = 1.891175 g / cm^3
# Si number density = 18.954890 Si / 1000 Ang^3
#
#
#
# Elastic Constant Matrix: (Units=GPa)
#
#
# Indices 1 2 3 4 5 6 
#
# 1 104.5235 73.2441 31.6021 0.0000 0.0000 0.0000
# 2 73.2441 166.7885 41.7746 0.0000 0.0000 0.0000
# 3 31.6021 41.7746 44.7591 0.0000 0.0000 0.0000
# 4 0.0000 0.0000 0.0000 16.5265 0.0000 0.0000
# 5 0.0000 0.0000 0.0000 0.0000 18.5862 0.0000
# 6 0.0000 0.0000 0.0000 0.0000 0.0000 25.1934
#
#
#
# Elastic Compliance Matrix: (Units=1/GPa)
#
#
# Indices 1 2 3 4 5 6 
#
# 1 0.014873 -0.005092 -0.005749 0.000000 0.000000 0.000000
# 2 -0.005092 0.009568 -0.005335 0.000000 0.000000 0.000000
# 3 -0.005749 -0.005335 0.031380 0.000000 0.000000 0.000000
# 4 0.000000 0.000000 0.000000 0.060509 0.000000 0.000000
# 5 0.000000 0.000000 0.000000 0.000000 0.053803 0.000000
# 6 0.000000 0.000000 0.000000 0.000000 0.000000 0.039693
#
#
# Mechanical properties :
#
#
# Convention : Reuss Voigt Hill
#
# Bulk Modulus (GPa) = 42.60774 67.70144 55.15459
# Shear Modulus (GPa) = 19.99989 23.35790 21.67890
#
# Velocity S-wave (km/s) = 3.25180 3.51421 3.38555
# Velocity P-wave (km/s) = 6.05196 7.22917 6.66660
#
# Compressibility (1/GPa) = 0.02346992
#
# Stress axis : x y z
#
# Youngs Moduli (GPa) = 67.23437 104.51794 31.86722
#
# Poissons Ratio (x) = 0.53216 0.18321
# Poissons Ratio (y) = 0.34233 0.17001
# Poissons Ratio (z) = 0.38655 0.55759
#
# Static dielectric constant tensor:
#      x y z
#    x 3.485390 0.000000 0.000000 
#    y 0.000000 3.668810 0.000000 
#    z 0.000000 0.000000 3.271290 
# 
# 
# High freq. dielectric constant tensor:
#      x y z
#    x 1.732720 0.000000 0.000000 
#    y 0.000000 1.739580 0.000000 
#    z 0.000000 0.000000 1.718120 
# 
# From -- ./inp_files/6087.got.cif
#   From: 2010.03.12/outbox.cif.g09.slc.cpg/sg55_4_cif.got.tgz:6087.got - 2010.04.16 15:19:21.
