data_PCOD8225954
_publ_section_title
;
Structure prediction by ZEFSAII (Michael W. Deem and Ramdas Pophale) SiO2 
 PCOD8225954
Probable space group: P B A M
;
_chemical_formula_sum "Si O2"
_cell_formula_units_Z 64
_cell_length_a 12.620806
_cell_length_b 8.714958
_cell_length_c 29.437803
_cell_angle_alpha 90.000000
_cell_angle_beta 90.000000
_cell_angle_gamma 90.000000
_cell_volume 3237.857894
_symmetry_space_group_name_H-M "P B A M"
_symmetry_group_IT_number 55
_symmetry_cell_setting 'orthorhombic'
loop_
_space_group_symop_operation_xyz
x,y,z
-x,-y,z
1/2+x,1/2-y,-z
1/2-x,1/2+y,-z
-x,-y,-z
x,y,-z
1/2-x,1/2+y,z
1/2+x,1/2-y,z
loop_
_atom_site_type_symbol
_atom_site_label
_atom_site_fract_x
_atom_site_fract_y
_atom_site_fract_z
Si Si1 0.378642 0.022970 0.553237
Si Si2 0.249672 0.273975 0.395902
Si Si3 0.377998 0.512943 0.761283
Si Si4 0.610870 0.451397 0.052271
Si Si5 0.621610 0.476811 0.344844
Si Si6 0.680260 0.119158 0.052680
Si Si7 0.381995 0.019819 0.139039
Si Si8 0.754477 0.233120 0.188033
O O1 0.366964 0.049964 0.500000
O O2 0.310791 0.874865 0.566821
O O3 0.500000 0.000000 0.567763
O O4 0.336567 0.172615 0.578662
O O5 0.310269 0.376303 0.359109
O O6 0.162591 0.174220 0.369948
O O7 0.500000 0.500000 0.775609
O O8 0.365255 0.548353 0.708460
O O9 0.319745 0.353556 0.772687
O O10 0.327248 0.651441 0.789071
O O11 0.500000 0.500000 0.076473
O O12 0.655603 0.290232 0.071440
O O13 0.694309 0.588272 0.059257
O O14 0.587539 0.419527 0.000000
O O15 0.500000 0.500000 0.358911
O O16 0.617657 0.996355 0.083960
O O17 0.647970 0.092366 0.000000
O O18 0.337501 0.182656 0.154984
O O19 0.500000 0.000000 0.158304
O O20 0.308398 0.885582 0.157580
#
# Coordination Sequence:
#
# PCOD8225954 Si02
#       8
#     8   8   8   8   8   8   8   8
#     4  10  20  34  52  74 105 149 194 231 272 321
#     4  10  20  34  52  78 111 142 180 233 278 320
#     4  10  20  37  60  83 109 142 176 216 270 328
#     4   9  19  36  56  78 107 140 173 214 260 304
#     4  10  20  34  55  82 109 139 176 221 278 333
#     4  10  21  37  57  82 110 142 182 221 261 314
#     4  11  23  39  58  82 110 142 178 218 264 311
#     4  10  22  39  58  82 110 140 178 219 259 320
#
# _framework density 19.766154
#
# number of rings (size 3 to 8) (size 9 to 14) (size 15 to 20)
#    0.000    2.000    0.000    3.375    0.000    2.250 
#    0.000    5.625    0.000   18.000    0.000    0.000 
#    0.000    0.500    0.000    0.000    0.000    0.000 
#
# Total GULP energy -793690.098603 kJ/mol
# GULP energy per Si atom -12401.407791 kJ/mol
# Density = 1.972117 g / cm^3
# Si number density = 19.766154 Si / 1000 Ang^3
#
#
#
# Elastic Constant Matrix: (Units=GPa)
#
#
# Indices 1 2 3 4 5 6 
#
# 1 95.9034 10.7109 14.4731 0.0000 0.0000 0.0000
# 2 10.7109 65.7409 5.8656 0.0000 0.0000 0.0000
# 3 14.4731 5.8656 53.4180 0.0000 0.0000 0.0000
# 4 0.0000 0.0000 0.0000 17.4869 0.0000 0.0000
# 5 0.0000 0.0000 0.0000 0.0000 26.9324 0.0000
# 6 0.0000 0.0000 0.0000 0.0000 0.0000 27.4538
#
#
#
# Elastic Compliance Matrix: (Units=1/GPa)
#
#
# Indices 1 2 3 4 5 6 
#
# 1 0.011025 -0.001545 -0.002817 0.000000 0.000000 0.000000
# 2 -0.001545 0.015578 -0.001292 0.000000 0.000000 0.000000
# 3 -0.002817 -0.001292 0.019626 0.000000 0.000000 0.000000
# 4 0.000000 0.000000 0.000000 0.057186 0.000000 0.000000
# 5 0.000000 0.000000 0.000000 0.000000 0.037130 0.000000
# 6 0.000000 0.000000 0.000000 0.000000 0.000000 0.036425
#
#
# Mechanical properties :
#
#
# Convention : Reuss Voigt Hill
#
# Bulk Modulus (GPa) = 28.63693 30.79574 29.71634
# Shear Modulus (GPa) = 25.01029 26.64214 25.82621
#
# Velocity S-wave (km/s) = 3.56098 3.67531 3.61860
# Velocity P-wave (km/s) = 5.60595 5.79866 5.70312
#
# Compressibility (1/GPa) = 0.03491995
#
# Stress axis : x y z
#
# Youngs Moduli (GPa) = 90.70391 64.19229 50.95405
#
# Poissons Ratio (x) = 0.09917 0.14356
# Poissons Ratio (y) = 0.14013 0.06583
# Poissons Ratio (z) = 0.25555 0.08294
#
# Static dielectric constant tensor:
#      x y z
#    x 3.783360 0.000000 0.000000 
#    y 0.000000 3.676780 0.000000 
#    z 0.000000 0.000000 3.499670 
# 
# 
# High freq. dielectric constant tensor:
#      x y z
#    x 1.782320 0.000000 0.000000 
#    y 0.000000 1.777560 0.000000 
#    z 0.000000 0.000000 1.765500 
# 
# From -- ./inp_files/24162.got.cif
#   From: 2010.03.12/outbox.cif.g09.slc.cpg/sg55_13_cif.got.tgz:24162.got - 2010.04.16 15:19:21.
