data_PCOD8225239
_publ_section_title
;
Structure prediction by ZEFSAII (Michael W. Deem and Ramdas Pophale) SiO2 
 PCOD8225239
Probable space group: P B A M
;
_chemical_formula_sum "Si O2"
_cell_formula_units_Z 48
_cell_length_a 17.973270
_cell_length_b 15.652424
_cell_length_c 8.397052
_cell_angle_alpha 90.000000
_cell_angle_beta 90.000000
_cell_angle_gamma 90.000000
_cell_volume 2362.302692
_symmetry_space_group_name_H-M "P B A M"
_symmetry_group_IT_number 55
_symmetry_cell_setting 'orthorhombic'
loop_
_space_group_symop_operation_xyz
x,y,z
-x,-y,z
1/2+x,1/2-y,-z
1/2-x,1/2+y,-z
-x,-y,-z
x,y,-z
1/2-x,1/2+y,z
1/2+x,1/2-y,z
loop_
_atom_site_type_symbol
_atom_site_label
_atom_site_fract_x
_atom_site_fract_y
_atom_site_fract_z
Si Si1 0.291601 0.251201 0.810845
Si Si2 0.711952 0.417532 0.190272
Si Si3 0.461953 0.246483 0.188648
Si Si4 0.707333 0.084697 0.813227
Si Si5 0.956321 0.917912 0.810676
Si Si6 0.544205 0.083456 0.685342
O O1 0.252981 0.166212 0.741706
O O2 0.376856 0.255108 0.756876
O O3 0.248322 0.332776 0.738681
O O4 0.285771 0.251156 0.000000
O O5 0.755822 0.499346 0.259568
O O6 0.627692 0.419261 0.254973
O O7 0.712637 0.417099 0.000000
O O8 0.504089 0.331401 0.247004
O O9 0.495547 0.166191 0.279218
O O10 0.469860 0.232652 0.000000
O O11 0.620317 0.088654 0.781302
O O12 0.721192 0.084516 0.000000
O O13 0.956697 0.921798 0.000000
O O14 0.000000 0.000000 0.741365
O O15 0.562815 0.077253 0.500000
O O16 0.500000 0.000000 0.744529
#
# Coordination Sequence:
#
# PCOD8225239 Si02
#       6
#     8   8   8   8   8   8
#     4   9  17  29  48  78 107 129 164 213 258 303
#     4   9  16  26  43  70 102 130 160 205 254 300
#     4  10  19  33  56  82 108 140 176 214 261 320
#     4  10  19  33  55  79 103 134 173 215 260 315
#     4   9  16  27  47  78 111 137 164 206 260 311
#     4  11  24  39  53  73 105 142 181 227 273 313
#
# _framework density 20.319156
#
# number of rings (size 3 to 8) (size 9 to 14) (size 15 to 20)
#    0.000    2.333    0.000    3.500    0.000    9.333 
#    0.000    0.833    0.000    6.500    0.000    0.000 
#    0.000    0.000    0.000    0.000    0.000    0.000 
#
# Total GULP energy -595276.201536 kJ/mol
# GULP energy per Si atom -12401.587532 kJ/mol
# Density = 2.027291 g / cm^3
# Si number density = 20.319156 Si / 1000 Ang^3
#
#
#
# Elastic Constant Matrix: (Units=GPa)
#
#
# Indices 1 2 3 4 5 6 
#
# 1 164.6620 90.6979 -0.9998 0.0000 0.0000 0.0000
# 2 90.6979 207.6999 8.0005 0.0000 0.0000 0.0000
# 3 -0.9998 8.0005 7.3233 0.0000 0.0000 0.0000
# 4 0.0000 0.0000 0.0000 9.5088 0.0000 0.0000
# 5 0.0000 0.0000 0.0000 0.0000 2.3659 0.0000
# 6 0.0000 0.0000 0.0000 0.0000 0.0000 50.4294
#
#
#
# Elastic Compliance Matrix: (Units=1/GPa)
#
#
# Indices 1 2 3 4 5 6 
#
# 1 0.008185 -0.003776 0.005243 0.000000 0.000000 0.000000
# 2 -0.003776 0.006768 -0.007910 0.000000 0.000000 0.000000
# 3 0.005243 -0.007910 0.145908 0.000000 0.000000 0.000000
# 4 0.000000 0.000000 0.000000 0.105166 0.000000 0.000000
# 5 0.000000 0.000000 0.000000 0.000000 0.422680 0.000000
# 6 0.000000 0.000000 0.000000 0.000000 0.000000 0.019830
#
#
# Mechanical properties :
#
#
# Convention : Reuss Voigt Hill
#
# Bulk Modulus (GPa) = 6.75792 63.89805 35.32798
# Shear Modulus (GPa) = 6.48721 31.25991 18.87356
#
# Velocity S-wave (km/s) = 1.78874 3.92656 3.05102
# Velocity P-wave (km/s) = 2.75667 7.21613 5.46223
#
# Compressibility (1/GPa) = 0.14797456
#
# Stress axis : x y z
#
# Youngs Moduli (GPa) = 122.17805 147.74905 6.85365
#
# Poissons Ratio (x) = 0.55791 -0.03593
# Poissons Ratio (y) = 0.46135 0.05421
# Poissons Ratio (z) = -0.64053 1.16864
#
# Static dielectric constant tensor:
#      x y z
#    x 3.865770 0.000000 0.000000 
#    y 0.000000 4.056820 0.000000 
#    z 0.000000 0.000000 2.970380 
# 
# 
# High freq. dielectric constant tensor:
#      x y z
#    x 1.811650 0.000000 0.000000 
#    y 0.000000 1.816950 0.000000 
#    z 0.000000 0.000000 1.727310 
# 
# From -- ./inp_files/5582.got.cif
#   From: 2010.03.12/outbox.cif.g09.slc.cpg/sg55_3_cif.got.tgz:5582.got - 2010.04.16 15:19:21.
