data_PCOD8225644
_publ_section_title
;
Structure prediction by ZEFSAII (Michael W. Deem and Ramdas Pophale) SiO2 
 PCOD8225644
Probable space group: P B A M
;
_chemical_formula_sum "Si O2"
_cell_formula_units_Z 56
_cell_length_a 13.823478
_cell_length_b 14.477272
_cell_length_c 13.485115
_cell_angle_alpha 90.000000
_cell_angle_beta 90.000000
_cell_angle_gamma 90.000000
_cell_volume 2698.725509
_symmetry_space_group_name_H-M "P B A M"
_symmetry_group_IT_number 55
_symmetry_cell_setting 'orthorhombic'
loop_
_space_group_symop_operation_xyz
x,y,z
-x,-y,z
1/2+x,1/2-y,-z
1/2-x,1/2+y,-z
-x,-y,-z
x,y,-z
1/2-x,1/2+y,z
1/2+x,1/2-y,z
loop_
_atom_site_type_symbol
_atom_site_label
_atom_site_fract_x
_atom_site_fract_y
_atom_site_fract_z
Si Si1 0.390990 0.016424 0.616830
Si Si2 0.099513 0.134518 0.792077
Si Si3 0.306326 0.178862 0.740384
Si Si4 0.544256 0.742145 0.890123
Si Si5 0.355052 0.453123 0.111802
Si Si6 0.529069 0.601325 0.607202
Si Si7 0.264918 0.384472 0.703467
O O1 0.388825 0.024248 0.500000
O O2 0.350782 0.114114 0.655930
O O3 0.500000 0.000000 0.656023
O O4 0.326648 0.928634 0.648705
O O5 0.215232 0.128168 0.787916
O O6 0.066022 0.227802 0.851190
O O7 0.045511 0.144819 0.685969
O O8 0.078947 0.038150 0.849064
O O9 0.389917 0.193687 0.821681
O O10 0.261113 0.273496 0.698137
O O11 0.577641 0.636467 0.886815
O O12 0.545769 0.785205 0.000000
O O13 0.265819 0.427108 0.184969
O O14 0.316660 0.472679 0.000000
O O15 0.500000 0.500000 0.580788
O O16 0.527697 0.655835 0.500000
O O17 0.635625 0.590362 0.650464
#
# Coordination Sequence:
#
# PCOD8225644 Si02
#       7
#     8   8   8   8   8   8   8
#     4  11  26  47  70  96 134 185 229 275 340 416
#     4  12  20  38  61  95 125 168 216 281 330 397
#     4  11  25  41  67  95 134 175 227 277 330 410
#     4  10  22  39  61  95 133 169 218 276 336 398
#     4  10  19  35  63  93 123 160 206 268 340 396
#     4  11  20  34  60  91 120 152 200 265 338 388
#     4  11  22  43  64  93 130 171 217 281 331 393
#
# _framework density 20.750536
#
# number of rings (size 3 to 8) (size 9 to 14) (size 15 to 20)
#    0.000    1.143    5.714    1.286    2.000    5.143 
#    0.000    0.000    0.000    0.857    0.000    0.000 
#    0.000    0.000    0.000    0.000    0.000    0.000 
#
# Total GULP energy -693904.880534 kJ/mol
# GULP energy per Si atom -12391.158581 kJ/mol
# Density = 2.070331 g / cm^3
# Si number density = 20.750536 Si / 1000 Ang^3
#
#
#
# Elastic Constant Matrix: (Units=GPa)
#
#
# Indices 1 2 3 4 5 6 
#
# 1 99.9202 32.5515 31.4212 0.0000 0.0000 0.0000
# 2 32.5515 81.3016 39.2987 0.0000 0.0000 0.0000
# 3 31.4212 39.2987 120.1778 0.0000 0.0000 0.0000
# 4 0.0000 0.0000 0.0000 20.2631 0.0000 0.0000
# 5 0.0000 0.0000 0.0000 0.0000 22.9701 0.0000
# 6 0.0000 0.0000 0.0000 0.0000 0.0000 31.5923
#
#
#
# Elastic Compliance Matrix: (Units=1/GPa)
#
#
# Indices 1 2 3 4 5 6 
#
# 1 0.011841 -0.003853 -0.001836 0.000000 0.000000 0.000000
# 2 -0.003853 0.015863 -0.004180 0.000000 0.000000 0.000000
# 3 -0.001836 -0.004180 0.010168 0.000000 0.000000 0.000000
# 4 0.000000 0.000000 0.000000 0.049351 0.000000 0.000000
# 5 0.000000 0.000000 0.000000 0.000000 0.043535 0.000000
# 6 0.000000 0.000000 0.000000 0.000000 0.000000 0.031653
#
#
# Mechanical properties :
#
#
# Convention : Reuss Voigt Hill
#
# Bulk Modulus (GPa) = 55.14620 56.43804 55.79212
# Shear Modulus (GPa) = 26.56849 28.17365 27.37107
#
# Velocity S-wave (km/s) = 3.58212 3.68874 3.63582
# Velocity P-wave (km/s) = 6.61379 6.73794 6.67615
#
# Compressibility (1/GPa) = 0.01813362
#
# Stress axis : x y z
#
# Youngs Moduli (GPa) = 84.45525 63.03938 98.34998
#
# Poissons Ratio (x) = 0.24292 0.18054
# Poissons Ratio (y) = 0.32544 0.41108
# Poissons Ratio (z) = 0.15503 0.26349
#
# Static dielectric constant tensor:
#      x y z
#    x 3.763950 0.000000 0.000000 
#    y 0.000000 3.394410 0.000000 
#    z 0.000000 0.000000 4.200020 
# 
# 
# High freq. dielectric constant tensor:
#      x y z
#    x 1.806320 0.000000 0.000000 
#    y 0.000000 1.797400 0.000000 
#    z 0.000000 0.000000 1.819200 
# 
# From -- ./inp_files/18375.got.cif
#   From: 2010.03.12/outbox.cif.g09.slc.cpg/sg55_10_cif.got.tgz:18375.got - 2010.04.16 15:19:21.
