data_PCOD8225330
_publ_section_title
;
Structure prediction by ZEFSAII (Michael W. Deem and Ramdas Pophale) SiO2 
 PCOD8225330
Probable space group: P B A M
;
_chemical_formula_sum "Si O2"
_cell_formula_units_Z 40
_cell_length_a 10.737722
_cell_length_b 19.441435
_cell_length_c 9.015844
_cell_angle_alpha 90.000000
_cell_angle_beta 90.000000
_cell_angle_gamma 90.000000
_cell_volume 1882.118060
_symmetry_space_group_name_H-M "P B A M"
_symmetry_group_IT_number 55
_symmetry_cell_setting 'orthorhombic'
loop_
_space_group_symop_operation_xyz
x,y,z
-x,-y,z
1/2+x,1/2-y,-z
1/2-x,1/2+y,-z
-x,-y,-z
x,y,-z
1/2-x,1/2+y,z
1/2+x,1/2-y,z
loop_
_atom_site_type_symbol
_atom_site_label
_atom_site_fract_x
_atom_site_fract_y
_atom_site_fract_z
Si Si1 0.753490 0.568781 0.671304
Si Si2 0.870346 0.799406 0.322925
Si Si3 0.267288 0.574139 0.175252
Si Si4 0.643271 0.710886 0.672210
Si Si5 0.007083 0.418873 0.837935
O O1 0.760234 0.547422 0.500000
O O2 0.712614 0.503141 0.766118
O O3 0.655600 0.629388 0.702204
O O4 0.888266 0.600007 0.717963
O O5 0.867499 0.805621 0.500000
O O6 0.864431 0.875738 0.254637
O O7 0.757372 0.753685 0.254297
O O8 0.004673 0.767147 0.272450
O O9 0.129958 0.604276 0.216310
O O10 0.288880 0.572817 0.000000
O O11 0.656624 0.726369 0.500000
O O12 0.000000 0.500000 0.856562
O O13 0.039622 0.386841 0.000000
#
# Coordination Sequence:
#
# PCOD8225330 Si02
#       5
#     8   8   8   8   8
#     4  10  19  33  57  89 117 150 195 241 290 347
#     4  10  21  40  62  85 115 153 191 238 291 345
#     4  10  21  37  56  84 119 155 193 239 290 343
#     4   9  21  38  60  88 118 148 189 242 294 341
#     4   8  16  31  50  77 116 152 183 229 284 333
#
# _framework density 21.252652000000001
#
# number of rings (size 3 to 8) (size 9 to 14) (size 15 to 20)
#    0.000    2.600    0.000    2.400    2.800    5.200 
#    0.000    9.000    0.000    0.000    0.000    0.000 
#    0.000    0.000    0.000    0.000    0.000    0.000 
#
# Total GULP energy -495730.880711 kJ/mol
# GULP energy per Si atom -12393.272018 kJ/mol
# Density = 2.120428 g / cm^3
# Si number density = 21.252652 Si / 1000 Ang^3
#
#
#
# Elastic Constant Matrix: (Units=GPa)
#
#
# Indices 1 2 3 4 5 6 
#
# 1 148.2469 60.8747 34.1475 0.0000 0.0000 0.0000
# 2 60.8747 55.9356 22.5239 0.0000 0.0000 0.0000
# 3 34.1475 22.5239 61.0227 0.0000 0.0000 0.0000
# 4 0.0000 0.0000 0.0000 1.4396 0.0000 0.0000
# 5 0.0000 0.0000 0.0000 0.0000 16.3565 0.0000
# 6 0.0000 0.0000 0.0000 0.0000 0.0000 31.4708
#
#
#
# Elastic Compliance Matrix: (Units=1/GPa)
#
#
# Indices 1 2 3 4 5 6 
#
# 1 0.012467 -0.012637 -0.002312 0.000000 0.000000 0.000000
# 2 -0.012637 0.033808 -0.005407 0.000000 0.000000 0.000000
# 3 -0.002312 -0.005407 0.019677 0.000000 0.000000 0.000000
# 4 0.000000 0.000000 0.000000 0.694644 0.000000 0.000000
# 5 0.000000 0.000000 0.000000 0.000000 0.061138 0.000000
# 6 0.000000 0.000000 0.000000 0.000000 0.000000 0.031775
#
#
# Mechanical properties :
#
#
# Convention : Reuss Voigt Hill
#
# Bulk Modulus (GPa) = 39.62046 55.58858 47.60452
# Shear Modulus (GPa) = 5.53933 19.69732 12.61833
#
# Velocity S-wave (km/s) = 1.61619 3.04767 2.43930
# Velocity P-wave (km/s) = 4.70806 6.21267 5.51194
#
# Compressibility (1/GPa) = 0.02523949
#
# Stress axis : x y z
#
# Youngs Moduli (GPa) = 80.21030 29.57888 50.82077
#
# Poissons Ratio (x) = 0.37379 0.11750
# Poissons Ratio (y) = 1.01362 0.27480
# Poissons Ratio (z) = 0.18545 0.15994
#
# Static dielectric constant tensor:
#      x y z
#    x 4.358950 0.000000 0.000000 
#    y 0.000000 3.581480 0.000000 
#    z 0.000000 0.000000 3.563840 
# 
# 
# High freq. dielectric constant tensor:
#      x y z
#    x 1.837950 0.000000 0.000000 
#    y 0.000000 1.822240 0.000000 
#    z 0.000000 0.000000 1.807190 
# 
# From -- ./inp_files/3640.got.cif
#   From: 2010.03.12/outbox.cif.g09.slc.cpg/sg55_2_cif.got.tgz:3640.got - 2010.04.16 15:19:21.
