data_PCOD8225522
_publ_section_title
;
Structure prediction by ZEFSAII (Michael W. Deem and Ramdas Pophale) SiO2 
 PCOD8225522
Probable space group: P B A M
;
_chemical_formula_sum "Si O2"
_cell_formula_units_Z 64
_cell_length_a 12.432124
_cell_length_b 28.438396
_cell_length_c 8.810016
_cell_angle_alpha 90.000000
_cell_angle_beta 90.000000
_cell_angle_gamma 90.000000
_cell_volume 3114.778209
_symmetry_space_group_name_H-M "P B A M"
_symmetry_group_IT_number 55
_symmetry_cell_setting 'orthorhombic'
loop_
_space_group_symop_operation_xyz
x,y,z
-x,-y,z
1/2+x,1/2-y,-z
1/2-x,1/2+y,-z
-x,-y,-z
x,y,-z
1/2-x,1/2+y,z
1/2+x,1/2-y,z
loop_
_atom_site_type_symbol
_atom_site_label
_atom_site_fract_x
_atom_site_fract_y
_atom_site_fract_z
Si Si1 0.888151 0.862071 0.820038
Si Si2 0.616438 0.981180 0.676810
Si Si3 0.740029 0.062002 0.171718
Si Si4 0.149340 0.618716 0.178980
Si Si5 0.001575 0.694436 0.321345
Si Si6 0.436856 0.289355 0.179516
Si Si7 0.210387 0.332629 0.177041
Si Si8 0.986863 0.050698 0.173953
O O1 0.763552 0.857926 0.773201
O O2 0.958455 0.818054 0.760397
O O3 0.935747 0.910487 0.749037
O O4 0.902499 0.864355 0.000000
O O5 0.621600 0.968566 0.500000
O O6 0.646209 0.935469 0.772850
O O7 0.500000 0.000000 0.725551
O O8 0.700774 0.022332 0.713102
O O9 0.689896 0.112450 0.213446
O O10 0.866661 0.069237 0.187009
O O11 0.708872 0.047251 0.000000
O O12 0.054948 0.646715 0.260734
O O13 0.131860 0.621792 0.000000
O O14 0.007652 0.694658 0.500000
O O15 0.066082 0.738777 0.257331
O O16 0.877775 0.697002 0.268702
O O17 0.329037 0.316751 0.228653
O O18 0.441379 0.282116 0.000000
O O19 0.194484 0.322148 0.000000
O O20 0.023634 0.044686 0.000000
O O21 0.000000 0.000000 0.256147
#
# Coordination Sequence:
#
# PCOD8225522 Si02
#       8
#     8   8   8   8   8   8   8   8
#     4   9  18  35  61  93 123 152 195 256 315 363
#     4  11  24  40  58  84 124 171 210 253 311 370
#     4  10  19  34  60  92 119 152 200 255 304 362
#     4  11  23  41  66  95 123 162 213 262 312 366
#     4  12  27  43  61  89 128 167 206 253 317 386
#     4  10  21  41  67  94 121 156 206 263 318 368
#     4  10  21  40  67  95 123 156 208 265 309 364
#     4   9  15  27  52  88 122 149 185 240 305 360
#
# _framework density 20.547208999999999
#
# number of rings (size 3 to 8) (size 9 to 14) (size 15 to 20)
#    0.000    1.750    1.250    3.375    1.750    6.000 
#    0.000    0.625    0.000    4.125    0.000    0.000 
#    0.000    0.000    0.000    0.000    0.000    0.000 
#
# Total GULP energy -793733.275354 kJ/mol
# GULP energy per Si atom -12402.082427 kJ/mol
# Density = 2.050044 g / cm^3
# Si number density = 20.547209 Si / 1000 Ang^3
#
#
#
# Elastic Constant Matrix: (Units=GPa)
#
#
# Indices 1 2 3 4 5 6 
#
# 1 103.0593 37.2989 39.8271 0.0000 0.0000 0.0000
# 2 37.2989 102.9208 32.7290 0.0000 0.0000 0.0000
# 3 39.8271 32.7290 58.2347 0.0000 0.0000 0.0000
# 4 0.0000 0.0000 0.0000 17.7037 0.0000 0.0000
# 5 0.0000 0.0000 0.0000 0.0000 8.2559 0.0000
# 6 0.0000 0.0000 0.0000 0.0000 0.0000 36.8907
#
#
#
# Elastic Compliance Matrix: (Units=1/GPa)
#
#
# Indices 1 2 3 4 5 6 
#
# 1 0.013663 -0.002411 -0.007989 0.000000 0.000000 0.000000
# 2 -0.002411 0.012256 -0.005239 0.000000 0.000000 0.000000
# 3 -0.007989 -0.005239 0.025580 0.000000 0.000000 0.000000
# 4 0.000000 0.000000 0.000000 0.056485 0.000000 0.000000
# 5 0.000000 0.000000 0.000000 0.000000 0.121125 0.000000
# 6 0.000000 0.000000 0.000000 0.000000 0.000000 0.027107
#
#
# Mechanical properties :
#
#
# Convention : Reuss Voigt Hill
#
# Bulk Modulus (GPa) = 49.45466 53.76941 51.61203
# Shear Modulus (GPa) = 16.99315 22.86073 19.92694
#
# Velocity S-wave (km/s) = 2.87893 3.33918 3.11756
# Velocity P-wave (km/s) = 5.93060 6.41033 6.17513
#
# Compressibility (1/GPa) = 0.02022054
#
# Stress axis : x y z
#
# Youngs Moduli (GPa) = 73.18946 81.59240 39.09243
#
# Poissons Ratio (x) = 0.19672 0.31232
# Poissons Ratio (y) = 0.17646 0.20482
# Poissons Ratio (z) = 0.58473 0.42748
#
# Static dielectric constant tensor:
#      x y z
#    x 3.819870 0.000000 0.000000 
#    y 0.000000 3.842170 0.000000 
#    z 0.000000 0.000000 3.314090 
# 
# 
# High freq. dielectric constant tensor:
#      x y z
#    x 1.815110 0.000000 0.000000 
#    y 0.000000 1.817170 0.000000 
#    z 0.000000 0.000000 1.761020 
# 
# From -- ./inp_files/4675.got.cif
#   From: 2010.03.12/outbox.cif.g09.slc.cpg/sg55_3_cif.got.tgz:4675.got - 2010.04.16 15:19:21.
