data_PCOD8225281
_publ_section_title
;
Structure prediction by ZEFSAII (Michael W. Deem and Ramdas Pophale) SiO2 
 PCOD8225281
Probable space group: P B A M
;
_chemical_formula_sum "Si O2"
_cell_formula_units_Z 56
_cell_length_a 14.669901
_cell_length_b 22.112624
_cell_length_c 8.787580
_cell_angle_alpha 90.000000
_cell_angle_beta 90.000000
_cell_angle_gamma 90.000000
_cell_volume 2850.603120
_symmetry_space_group_name_H-M "P B A M"
_symmetry_group_IT_number 55
_symmetry_cell_setting 'orthorhombic'
loop_
_space_group_symop_operation_xyz
x,y,z
-x,-y,z
1/2+x,1/2-y,-z
1/2-x,1/2+y,-z
-x,-y,-z
x,y,-z
1/2-x,1/2+y,z
1/2+x,1/2-y,z
loop_
_atom_site_type_symbol
_atom_site_label
_atom_site_fract_x
_atom_site_fract_y
_atom_site_fract_z
Si Si1 0.494291 0.569491 0.680591
Si Si2 0.824434 0.284311 0.177739
Si Si3 0.650628 0.967324 0.324917
Si Si4 0.653773 0.648153 0.821970
Si Si5 0.802432 0.877742 0.319037
Si Si6 0.473013 0.138232 0.326733
Si Si7 0.668332 0.100553 0.321785
O O1 0.500000 0.500000 0.741897
O O2 0.495375 0.567983 0.500000
O O3 0.579392 0.608221 0.736158
O O4 0.402954 0.603659 0.739494
O O5 0.844452 0.216925 0.238133
O O6 0.734225 0.313266 0.256066
O O7 0.917345 0.319970 0.212662
O O8 0.804832 0.284130 0.000000
O O9 0.674266 0.975672 0.500000
O O10 0.733887 0.928773 0.253604
O O11 0.555862 0.931795 0.301250
O O12 0.644408 0.034083 0.256366
O O13 0.752745 0.623063 0.785943
O O14 0.633032 0.644554 0.000000
O O15 0.800031 0.873286 0.500000
O O16 0.448635 0.157264 0.500000
O O17 0.580515 0.143399 0.296159
O O18 0.696382 0.100946 0.500000
#
# Coordination Sequence:
#
# PCOD8225281 Si02
#       7
#     8   8   8   8   8   8   8
#     4  10  21  39  63  88 112 142 184 234 286 336
#     4  10  22  39  55  74 107 149 186 221 269 326
#     4   8  14  29  54  83 111 134 162 206 261 319
#     4  11  25  40  53  75 110 149 185 225 272 324
#     4   9  18  34  59  85 107 137 179 225 269 319
#     4   9  18  33  56  83 108 137 176 221 265 315
#     4  10  19  33  56  82 107 138 174 216 268 319
#
# _framework density 19.644964999999999
#
# number of rings (size 3 to 8) (size 9 to 14) (size 15 to 20)
#    0.000    2.429    0.000    3.000    0.000    8.857 
#    0.000   11.429    0.000    4.286    0.000    0.000 
#    0.000    0.000    0.000    0.000    0.000    0.000 
#
# Total GULP energy -694137.381467 kJ/mol
# GULP energy per Si atom -12395.310383 kJ/mol
# Density = 1.960025 g / cm^3
# Si number density = 19.644965 Si / 1000 Ang^3
#
#
#
# Elastic Constant Matrix: (Units=GPa)
#
#
# Indices 1 2 3 4 5 6 
#
# 1 124.0106 48.8367 15.0517 0.0000 0.0000 0.0000
# 2 48.8367 129.1236 21.7080 0.0000 0.0000 0.0000
# 3 15.0517 21.7080 21.4058 0.0000 0.0000 0.0000
# 4 0.0000 0.0000 0.0000 289.2147 0.0000 0.0000
# 5 0.0000 0.0000 0.0000 0.0000 19.7369 0.0000
# 6 0.0000 0.0000 0.0000 0.0000 0.0000 21.0685
#
#
#
# Elastic Compliance Matrix: (Units=1/GPa)
#
#
# Indices 1 2 3 4 5 6 
#
# 1 0.009718 -0.003046 -0.003744 0.000000 0.000000 0.000000
# 2 -0.003046 0.010291 -0.008294 0.000000 0.000000 0.000000
# 3 -0.003744 -0.008294 0.057761 0.000000 0.000000 0.000000
# 4 0.000000 0.000000 0.000000 0.003458 0.000000 0.000000
# 5 0.000000 0.000000 0.000000 0.000000 0.050667 0.000000
# 6 0.000000 0.000000 0.000000 0.000000 0.000000 0.047464
#
#
# Mechanical properties :
#
#
# Convention : Reuss Voigt Hill
#
# Bulk Modulus (GPa) = 21.00834 49.52588 35.26711
# Shear Modulus (GPa) = 22.18339 78.60027 50.39183
#
# Velocity S-wave (km/s) = 3.36402 6.33224 5.07020
# Velocity P-wave (km/s) = 5.07997 8.87289 7.22960
#
# Compressibility (1/GPa) = 0.04760015
#
# Stress axis : x y z
#
# Youngs Moduli (GPa) = 102.90382 97.17228 17.31282
#
# Poissons Ratio (x) = 0.29598 0.06482
# Poissons Ratio (y) = 0.31344 0.14360
# Poissons Ratio (z) = 0.38529 0.80599
#
# Static dielectric constant tensor:
#      x y z
#    x 3.648450 0.000000 0.000000 
#    y 0.000000 3.823740 0.000000 
#    z 0.000000 0.000000 3.229800 
# 
# 
# High freq. dielectric constant tensor:
#      x y z
#    x 1.772890 0.000000 0.000000 
#    y 0.000000 1.769570 0.000000 
#    z 0.000000 0.000000 1.732750 
# 
# From -- ./inp_files/6192.got.cif
#   From: 2010.03.12/outbox.cif.g09.slc.cpg/sg55_4_cif.got.tgz:6192.got - 2010.04.16 15:19:21.
