data_PCOD8225539
_publ_section_title
;
Structure prediction by ZEFSAII (Michael W. Deem and Ramdas Pophale) SiO2 
 PCOD8225539
Probable space group: P B A M
;
_chemical_formula_sum "Si O2"
_cell_formula_units_Z 56
_cell_length_a 19.620271
_cell_length_b 8.809322
_cell_length_c 17.822375
_cell_angle_alpha 90.000000
_cell_angle_beta 90.000000
_cell_angle_gamma 90.000000
_cell_volume 3080.442196
_symmetry_space_group_name_H-M "P B A M"
_symmetry_group_IT_number 55
_symmetry_cell_setting 'orthorhombic'
loop_
_space_group_symop_operation_xyz
x,y,z
-x,-y,z
1/2+x,1/2-y,-z
1/2-x,1/2+y,-z
-x,-y,-z
x,y,-z
1/2-x,1/2+y,z
1/2+x,1/2-y,z
loop_
_atom_site_type_symbol
_atom_site_label
_atom_site_fract_x
_atom_site_fract_y
_atom_site_fract_z
Si Si1 0.740035 0.150216 0.742931
Si Si2 0.653398 0.889410 0.695284
Si Si3 0.840135 0.905664 0.797398
Si Si4 0.962648 0.845970 0.294596
Si Si5 0.033251 0.663185 0.414859
Si Si6 0.572926 0.572302 0.082880
Si Si7 0.541429 0.854539 0.818581
O O1 0.787646 0.262272 0.694908
O O2 0.698582 0.245485 0.806189
O O3 0.689147 0.055042 0.688081
O O4 0.785627 0.037247 0.790152
O O5 0.606445 0.846600 0.624874
O O6 0.608825 0.895479 0.771227
O O7 0.883360 0.884399 0.719590
O O8 0.885179 0.950090 0.868465
O O9 0.981596 0.785549 0.377429
O O10 0.986029 0.720611 0.235539
O O11 0.000000 0.000000 0.275116
O O12 0.044678 0.715942 0.500000
O O13 0.000000 0.500000 0.409422
O O14 0.500000 0.500000 0.075405
O O15 0.567219 0.741145 0.117010
O O16 0.606167 0.587367 0.000000
O O17 0.500000 0.000000 0.851945
#
# Coordination Sequence:
#
# PCOD8225539 Si02
#       7
#     8   8   8   8   8   8   8
#     4  10  21  31  59  79 105 144 200 229 270 320
#     4  10  19  35  54  84 107 145 192 239 267 339
#     4  11  18  37  53  82 108 144 188 237 269 335
#     4  11  18  33  60  83 108 142 188 239 288 329
#     4  10  21  36  55  84 118 147 180 235 302 347
#     4  11  22  37  57  83 113 146 180 233 302 344
#     4  11  19  33  58  84 109 143 187 235 291 334
#
# _framework density 18.179207000000002
#
# number of rings (size 3 to 8) (size 9 to 14) (size 15 to 20)
#    0.000    1.429    4.286    4.286    0.000    0.571 
#    0.000    1.429    0.000    3.429    0.000    0.000 
#    0.000    0.000    0.000    0.000    0.000    0.000 
#
# Total GULP energy -694054.681891 kJ/mol
# GULP energy per Si atom -12393.833605 kJ/mol
# Density = 1.813783 g / cm^3
# Si number density = 18.179207 Si / 1000 Ang^3
#
#
#
# Elastic Constant Matrix: (Units=GPa)
#
#
# Indices 1 2 3 4 5 6 
#
# 1 99.7938 51.0894 51.9423 0.0000 0.0000 0.0000
# 2 51.0894 114.8776 42.4472 0.0000 0.0000 0.0000
# 3 51.9423 42.4472 116.7418 0.0000 0.0000 0.0000
# 4 0.0000 0.0000 0.0000 16.0690 0.0000 0.0000
# 5 0.0000 0.0000 0.0000 0.0000 -4.2820 0.0000
# 6 0.0000 0.0000 0.0000 0.0000 0.0000 35.4405
#
#
#
# Elastic Compliance Matrix: (Units=1/GPa)
#
#
# Indices 1 2 3 4 5 6 
#
# 1 0.015093 -0.004888 -0.004938 0.000000 0.000000 0.000000
# 2 -0.004888 0.011639 -0.002057 0.000000 0.000000 0.000000
# 3 -0.004938 -0.002057 0.011511 0.000000 0.000000 0.000000
# 4 0.000000 0.000000 0.000000 0.062232 0.000000 0.000000
# 5 0.000000 0.000000 0.000000 0.000000 -0.233535 0.000000
# 6 0.000000 0.000000 0.000000 0.000000 0.000000 0.028216
#
#
# Mechanical properties :
#
#
# Convention : Reuss Voigt Hill
#
# Bulk Modulus (GPa) = 69.07610 69.15232 69.11421
# Shear Modulus (GPa) = -65.57201 21.84112 -21.86544
#
# Velocity S-wave (km/s) = -6.01233 3.46993 -3.47186
# Velocity P-wave (km/s) = 3.18083 7.36042 4.69351
#
# Compressibility (1/GPa) = 0.01447679
#
# Stress axis : x y z
#
# Youngs Moduli (GPa) = 66.25446 85.92004 86.87253
#
# Poissons Ratio (x) = 0.41995 0.42901
# Poissons Ratio (y) = 0.32383 0.17871
# Poissons Ratio (z) = 0.32719 0.17675
#
# Static dielectric constant tensor:
#      x y z
#    x 5.585410 0.000000 0.000000 
#    y 0.000000 3.107600 0.000000 
#    z 0.000000 0.000000 3.330380 
# 
# 
# High freq. dielectric constant tensor:
#      x y z
#    x 1.715650 0.000000 0.000000 
#    y 0.000000 1.725270 0.000000 
#    z 0.000000 0.000000 1.659500 
# 
# From -- ./inp_files/21902.got.cif
#   From: 2010.03.12/outbox.cif.g09.slc.cpg/sg55_11_cif.got.tgz:21902.got - 2010.04.16 15:19:21.
