data_PCOD8225568
_publ_section_title
;
Structure prediction by ZEFSAII (Michael W. Deem and Ramdas Pophale) SiO2 
 PCOD8225568
Probable space group: P B A M
;
_chemical_formula_sum "Si O2"
_cell_formula_units_Z 64
_cell_length_a 12.641598
_cell_length_b 29.249378
_cell_length_c 9.129467
_cell_angle_alpha 90.000000
_cell_angle_beta 90.000000
_cell_angle_gamma 90.000000
_cell_volume 3375.701479
_symmetry_space_group_name_H-M "P B A M"
_symmetry_group_IT_number 55
_symmetry_cell_setting 'orthorhombic'
loop_
_space_group_symop_operation_xyz
x,y,z
-x,-y,z
1/2+x,1/2-y,-z
1/2-x,1/2+y,-z
-x,-y,-z
x,y,-z
1/2-x,1/2+y,z
1/2+x,1/2-y,z
loop_
_atom_site_type_symbol
_atom_site_label
_atom_site_fract_x
_atom_site_fract_y
_atom_site_fract_z
Si Si1 0.960332 0.214018 0.170473
Si Si2 0.618382 0.799341 0.336414
Si Si3 0.902784 0.914939 0.172756
Si Si4 0.867882 0.116207 0.831322
Si Si5 0.677546 0.069378 0.327383
Si Si6 0.355618 0.674610 0.336470
Si Si7 0.231841 0.533244 0.673046
Si Si8 0.950353 0.398595 0.673931
O O1 0.903035 0.259695 0.220929
O O2 0.889172 0.169451 0.203189
O O3 0.068060 0.211304 0.261597
O O4 0.988239 0.216836 0.000000
O O5 0.573465 0.788512 0.500000
O O6 0.743175 0.802227 0.346777
O O7 0.568958 0.846569 0.275304
O O8 0.846951 0.870407 0.238506
O O9 0.844376 0.958090 0.246683
O O10 0.028018 0.913788 0.209529
O O11 0.884576 0.915638 0.000000
O O12 0.769222 0.101029 0.735957
O O13 0.838796 0.108926 0.000000
O O14 0.680031 0.075633 0.500000
O O15 0.563761 0.085029 0.264359
O O16 0.694740 0.017087 0.282002
O O17 0.396010 0.661857 0.500000
O O18 0.249360 0.538335 0.500000
O O19 0.142687 0.568298 0.732732
O O20 0.948031 0.401910 0.500000
#
# Coordination Sequence:
#
# PCOD8225568 Si02
#       8
#     8   8   8   8   8   8   8   8
#     4  10  22  38  56  81 113 150 188 230 285 346
#     4  10  20  35  58  85 110 144 187 234 285 336
#     4  10  20  35  57  82 109 147 190 232 281 336
#     4   9  21  40  55  73 111 153 185 227 286 341
#     4  10  21  35  58  85 112 149 190 232 278 338
#     4  10  19  35  58  82 109 143 184 235 286 332
#     4  10  19  35  58  85 113 146 187 234 285 335
#     4   9  18  36  57  82 115 146 184 232 285 338
#
# _framework density 18.959022000000001
#
# number of rings (size 3 to 8) (size 9 to 14) (size 15 to 20)
#    0.000    2.250    1.250    2.250    0.000    7.500 
#    0.000    7.500    0.000    1.500    0.000    0.000 
#    0.000    0.000    0.000    0.000    0.000    0.000 
#
# Total GULP energy -793593.876547 kJ/mol
# GULP energy per Si atom -12399.904321 kJ/mol
# Density = 1.891587 g / cm^3
# Si number density = 18.959022 Si / 1000 Ang^3
#
#
#
# Elastic Constant Matrix: (Units=GPa)
#
#
# Indices 1 2 3 4 5 6 
#
# 1 79.3499 48.3738 22.0434 0.0000 0.0000 0.0000
# 2 48.3738 100.1966 33.6584 0.0000 0.0000 0.0000
# 3 22.0434 33.6584 48.7377 0.0000 0.0000 0.0000
# 4 0.0000 0.0000 0.0000 24.6289 0.0000 0.0000
# 5 0.0000 0.0000 0.0000 0.0000 9.6470 0.0000
# 6 0.0000 0.0000 0.0000 0.0000 0.0000 22.5102
#
#
#
# Elastic Compliance Matrix: (Units=1/GPa)
#
#
# Indices 1 2 3 4 5 6 
#
# 1 0.018149 -0.007819 -0.002809 0.000000 0.000000 0.000000
# 2 -0.007819 0.016363 -0.007764 0.000000 0.000000 0.000000
# 3 -0.002809 -0.007764 0.027151 0.000000 0.000000 0.000000
# 4 0.000000 0.000000 0.000000 0.040603 0.000000 0.000000
# 5 0.000000 0.000000 0.000000 0.000000 0.103659 0.000000
# 6 0.000000 0.000000 0.000000 0.000000 0.000000 0.044424
#
#
# Mechanical properties :
#
#
# Convention : Reuss Voigt Hill
#
# Bulk Modulus (GPa) = 40.19439 48.49283 44.34361
# Shear Modulus (GPa) = 16.92469 19.63778 18.28124
#
# Velocity S-wave (km/s) = 2.99105 3.22188 3.10861
# Velocity P-wave (km/s) = 5.75979 6.28283 6.02698
#
# Compressibility (1/GPa) = 0.02487910
#
# Stress axis : x y z
#
# Youngs Moduli (GPa) = 55.09881 61.11227 36.83160
#
# Poissons Ratio (x) = 0.47781 0.10346
# Poissons Ratio (y) = 0.43080 0.28597
# Poissons Ratio (z) = 0.15478 0.47450
#
# Static dielectric constant tensor:
#      x y z
#    x 3.585660 0.000000 0.000000 
#    y 0.000000 3.482250 0.000000 
#    z 0.000000 0.000000 3.376620 
# 
# 
# High freq. dielectric constant tensor:
#      x y z
#    x 1.740230 0.000000 0.000000 
#    y 0.000000 1.735440 0.000000 
#    z 0.000000 0.000000 1.723880 
# 
# From -- ./inp_files/4613.got.cif
#   From: 2010.03.12/outbox.cif.g09.slc.cpg/sg55_3_cif.got.tgz:4613.got - 2010.04.16 15:19:21.
