data_PCOD8225479
_publ_section_title
;
Structure prediction by ZEFSAII (Michael W. Deem and Ramdas Pophale) SiO2 
 PCOD8225479
Probable space group: P B A M
;
_chemical_formula_sum "Si O2"
_cell_formula_units_Z 64
_cell_length_a 19.387904
_cell_length_b 19.800368
_cell_length_c 9.006728
_cell_angle_alpha 90.000000
_cell_angle_beta 90.000000
_cell_angle_gamma 90.000000
_cell_volume 3457.571502
_symmetry_space_group_name_H-M "P B A M"
_symmetry_group_IT_number 55
_symmetry_cell_setting 'orthorhombic'
loop_
_space_group_symop_operation_xyz
x,y,z
-x,-y,z
1/2+x,1/2-y,-z
1/2-x,1/2+y,-z
-x,-y,-z
x,y,-z
1/2-x,1/2+y,z
1/2+x,1/2-y,z
loop_
_atom_site_type_symbol
_atom_site_label
_atom_site_fract_x
_atom_site_fract_y
_atom_site_fract_z
Si Si1 0.934055 0.955859 0.173578
Si Si2 0.031515 0.569378 0.675882
Si Si3 0.423822 0.824997 0.674460
Si Si4 0.729985 0.150139 0.323640
Si Si5 0.789041 0.019920 0.173356
Si Si6 0.172642 0.586374 0.832711
Si Si7 0.241700 0.214556 0.829835
Si Si8 0.895892 0.823671 0.324671
O O1 0.940292 0.885778 0.262775
O O2 0.865283 0.996024 0.219933
O O3 0.933023 0.938420 0.000000
O O4 0.000000 0.000000 0.218111
O O5 0.029730 0.571100 0.500000
O O6 0.109983 0.574303 0.723514
O O7 0.000000 0.500000 0.737403
O O8 0.985533 0.630533 0.744313
O O9 0.424493 0.834878 0.500000
O O10 0.349636 0.852141 0.731737
O O11 0.434775 0.746433 0.716184
O O12 0.735429 0.154953 0.500000
O O13 0.771460 0.085834 0.267448
O O14 0.763920 0.217253 0.254057
O O15 0.735935 0.961014 0.216083
O O16 0.785957 0.037970 0.000000
O O17 0.193732 0.664428 0.820777
O O18 0.149919 0.568714 0.000000
O O19 0.178419 0.176677 0.751706
O O20 0.221776 0.230254 0.000000
O O21 0.885482 0.830666 0.500000
#
# Coordination Sequence:
#
# PCOD8225479 Si02
#       8
#     8   8   8   8   8   8   8   8
#     4  10  21  39  60  80 107 146 191 235 283 344
#     4  10  20  35  55  79 111 151 187 224 278 332
#     4   8  17  34  53  78 113 146 181 226 271 325
#     4  10  20  35  57  86 113 143 187 231 275 330
#     4  10  20  37  57  81 112 145 181 228 283 333
#     4  10  21  36  56  81 111 145 186 232 273 324
#     4  10  19  36  58  80 111 147 184 227 277 330
#     4  10  19  34  58  83 111 144 185 234 281 332
#
# _framework density 18.510100999999999
#
# number of rings (size 3 to 8) (size 9 to 14) (size 15 to 20)
#    0.000    2.250    1.250    2.625    0.000    3.500 
#    2.250    3.750    0.000    0.000    0.000    0.000 
#    0.000    0.000    0.000    0.000    0.000    0.000 
#
# Total GULP energy -793640.919321 kJ/mol
# GULP energy per Si atom -12400.639364 kJ/mol
# Density = 1.846797 g / cm^3
# Si number density = 18.510101 Si / 1000 Ang^3
#
#
#
# Elastic Constant Matrix: (Units=GPa)
#
#
# Indices 1 2 3 4 5 6 
#
# 1 115.2145 72.0027 36.6402 0.0000 0.0000 0.0000
# 2 72.0027 148.6128 56.4145 0.0000 0.0000 0.0000
# 3 36.6402 56.4145 62.6296 0.0000 0.0000 0.0000
# 4 0.0000 0.0000 0.0000 32.5109 0.0000 0.0000
# 5 0.0000 0.0000 0.0000 0.0000 25.9991 0.0000
# 6 0.0000 0.0000 0.0000 0.0000 0.0000 29.9400
#
#
#
# Elastic Compliance Matrix: (Units=1/GPa)
#
#
# Indices 1 2 3 4 5 6 
#
# 1 0.012783 -0.005098 -0.002887 0.000000 0.000000 0.000000
# 2 -0.005098 0.012258 -0.008059 0.000000 0.000000 0.000000
# 3 -0.002887 -0.008059 0.024915 0.000000 0.000000 0.000000
# 4 0.000000 0.000000 0.000000 0.030759 0.000000 0.000000
# 5 0.000000 0.000000 0.000000 0.000000 0.038463 0.000000
# 6 0.000000 0.000000 0.000000 0.000000 0.000000 0.033400
#
#
# Mechanical properties :
#
#
# Convention : Reuss Voigt Hill
#
# Bulk Modulus (GPa) = 55.96269 72.95242 64.45756
# Shear Modulus (GPa) = 26.22982 28.44997 27.33990
#
# Velocity S-wave (km/s) = 3.76846 3.92471 3.84738
# Velocity P-wave (km/s) = 7.01672 7.74826 7.39155
#
# Compressibility (1/GPa) = 0.01786905
#
# Stress axis : x y z
#
# Youngs Moduli (GPa) = 78.22739 81.57889 40.13576
#
# Poissons Ratio (x) = 0.41586 0.11587
# Poissons Ratio (y) = 0.39877 0.32347
# Poissons Ratio (z) = 0.22583 0.65748
#
# Static dielectric constant tensor:
#      x y z
#    x 3.326450 0.000000 0.000000 
#    y 0.000000 3.722250 0.000000 
#    z 0.000000 0.000000 3.281020 
# 
# 
# High freq. dielectric constant tensor:
#      x y z
#    x 1.703770 0.000000 0.000000 
#    y 0.000000 1.732010 0.000000 
#    z 0.000000 0.000000 1.708440 
# 
# From -- ./inp_files/7958.got.cif
#   From: 2010.03.12/outbox.cif.g09.slc.cpg/sg55_4_cif.got.tgz:7958.got - 2010.04.16 15:19:21.
