data_PCOD8225451
_publ_section_title
;
Structure prediction by ZEFSAII (Michael W. Deem and Ramdas Pophale) SiO2 
 PCOD8225451
Probable space group: P B A M
;
_chemical_formula_sum "Si O2"
_cell_formula_units_Z 56
_cell_length_a 14.752535
_cell_length_b 21.518786
_cell_length_c 9.082646
_cell_angle_alpha 90.000000
_cell_angle_beta 90.000000
_cell_angle_gamma 90.000000
_cell_volume 2883.346314
_symmetry_space_group_name_H-M "P B A M"
_symmetry_group_IT_number 55
_symmetry_cell_setting 'orthorhombic'
loop_
_space_group_symop_operation_xyz
x,y,z
-x,-y,z
1/2+x,1/2-y,-z
1/2-x,1/2+y,-z
-x,-y,-z
x,y,-z
1/2-x,1/2+y,z
1/2+x,1/2-y,z
loop_
_atom_site_type_symbol
_atom_site_label
_atom_site_fract_x
_atom_site_fract_y
_atom_site_fract_z
Si Si1 0.825215 0.278369 0.335035
Si Si2 0.486706 0.571950 0.174730
Si Si3 0.519574 0.875316 0.333633
Si Si4 0.848756 0.460447 0.167908
Si Si5 0.196807 0.110115 0.674746
Si Si6 0.657939 0.651024 0.826401
Si Si7 0.150670 0.394998 0.833013
O O1 0.805952 0.254308 0.500000
O O2 0.919959 0.314156 0.329540
O O3 0.742551 0.323359 0.284127
O O4 0.838594 0.221298 0.227381
O O5 0.500000 0.500000 0.221471
O O6 0.401456 0.603643 0.253836
O O7 0.572893 0.611246 0.232722
O O8 0.472676 0.576737 0.000000
O O9 0.510838 0.900427 0.500000
O O10 0.562425 0.928144 0.231835
O O11 0.420855 0.858489 0.268995
O O12 0.759896 0.444418 0.262165
O O13 0.868580 0.532605 0.177266
O O14 0.832684 0.438858 0.000000
O O15 0.190805 0.102331 0.500000
O O16 0.749013 0.617513 0.771723
O O17 0.651725 0.652058 0.000000
O O18 0.140844 0.370533 0.000000
#
# Coordination Sequence:
#
# PCOD8225451 Si02
#       7
#     8   8   8   8   8   8   8
#     4   9  21  40  56  76 110 147 182 225 280 333
#     4  10  21  39  61  85 115 150 188 235 290 339
#     4  10  21  36  55  81 112 145 181 221 267 324
#     4  10  19  34  57  83 113 146 178 219 271 324
#     4  10  21  37  58  84 113 147 187 229 276 333
#     4  10  22  38  57  81 108 142 188 235 274 326
#     4  10  21  36  54  80 111 142 178 221 272 325
#
# _framework density 19.421878
#
# number of rings (size 3 to 8) (size 9 to 14) (size 15 to 20)
#    0.000    2.143    0.000    3.429    0.000   11.143 
#    0.000    7.143    0.000    0.000    0.000    0.000 
#    0.000    0.000    0.000    0.000    0.000    0.000 
#
# Total GULP energy -694441.779227 kJ/mol
# GULP energy per Si atom -12400.746058 kJ/mol
# Density = 1.937767 g / cm^3
# Si number density = 19.421878 Si / 1000 Ang^3
#
#
#
# Elastic Constant Matrix: (Units=GPa)
#
#
# Indices 1 2 3 4 5 6 
#
# 1 161.3157 47.0960 54.6978 0.0000 0.0000 0.0000
# 2 47.0960 80.6659 31.7711 0.0000 0.0000 0.0000
# 3 54.6978 31.7711 62.4056 0.0000 0.0000 0.0000
# 4 0.0000 0.0000 0.0000 -14.6540 0.0000 0.0000
# 5 0.0000 0.0000 0.0000 0.0000 32.7069 0.0000
# 6 0.0000 0.0000 0.0000 0.0000 0.0000 18.1611
#
#
#
# Elastic Compliance Matrix: (Units=1/GPa)
#
#
# Indices 1 2 3 4 5 6 
#
# 1 0.009291 -0.002773 -0.006732 0.000000 0.000000 0.000000
# 2 -0.002773 0.016334 -0.005885 0.000000 0.000000 0.000000
# 3 -0.006732 -0.005885 0.024921 0.000000 0.000000 0.000000
# 4 0.000000 0.000000 0.000000 -0.068241 0.000000 0.000000
# 5 0.000000 0.000000 0.000000 0.000000 0.030575 0.000000
# 6 0.000000 0.000000 0.000000 0.000000 0.000000 0.055063
#
#
# Mechanical properties :
#
#
# Convention : Reuss Voigt Hill
#
# Bulk Modulus (GPa) = 50.59265 63.50186 57.04725
# Shear Modulus (GPa) = 47.47854 18.63096 33.05475
#
# Velocity S-wave (km/s) = 4.94964 3.10058 4.12993
# Velocity P-wave (km/s) = 7.66624 6.75168 7.22344
#
# Compressibility (1/GPa) = 0.01976572
#
# Stress axis : x y z
#
# Youngs Moduli (GPa) = 107.62836 61.22294 40.12743
#
# Poissons Ratio (x) = 0.16978 0.27013
# Poissons Ratio (y) = 0.29848 0.23615
# Poissons Ratio (z) = 0.72453 0.36029
#
# Static dielectric constant tensor:
#      x y z
#    x 3.750860 0.000000 0.000000 
#    y 0.000000 3.371700 0.000000 
#    z 0.000000 0.000000 3.619580 
# 
# 
# High freq. dielectric constant tensor:
#      x y z
#    x 1.769950 0.000000 0.000000 
#    y 0.000000 1.745330 0.000000 
#    z 0.000000 0.000000 1.755570 
# 
# From -- ./inp_files/6049.got.cif
#   From: 2010.03.12/outbox.cif.g09.slc.cpg/sg55_4_cif.got.tgz:6049.got - 2010.04.16 15:19:21.
