data_PCOD8225080
_publ_section_title
;
Structure prediction by ZEFSAII (Michael W. Deem and Ramdas Pophale) SiO2 
 PCOD8225080
Probable space group: P B A M
;
_chemical_formula_sum "Si O2"
_cell_formula_units_Z 56
_cell_length_a 5.226444
_cell_length_b 17.397836
_cell_length_c 28.736112
_cell_angle_alpha 90.000000
_cell_angle_beta 90.000000
_cell_angle_gamma 90.000000
_cell_volume 2612.940628
_symmetry_space_group_name_H-M "P B A M"
_symmetry_group_IT_number 55
_symmetry_cell_setting 'orthorhombic'
loop_
_space_group_symop_operation_xyz
x,y,z
-x,-y,z
1/2+x,1/2-y,-z
1/2-x,1/2+y,-z
-x,-y,-z
x,y,-z
1/2-x,1/2+y,z
1/2+x,1/2-y,z
loop_
_atom_site_type_symbol
_atom_site_label
_atom_site_fract_x
_atom_site_fract_y
_atom_site_fract_z
Si Si1 0.749871 0.032394 0.920626
Si Si2 0.268525 0.796770 0.054640
Si Si3 0.252045 0.034386 0.182869
Si Si4 0.857492 0.295765 0.682800
Si Si5 0.839167 0.296186 0.208427
Si Si6 0.491668 0.408705 0.447885
Si Si7 0.510356 0.909010 0.394216
O O1 0.750256 0.124100 0.917472
O O2 0.500000 0.000000 0.947537
O O3 0.750085 0.996697 0.869420
O O4 0.000000 0.000000 0.947433
O O5 0.530288 0.755707 0.069572
O O6 0.262050 0.815026 0.000000
O O7 0.267233 0.126206 0.181526
O O8 0.500000 0.000000 0.209331
O O9 0.000000 0.000000 0.208573
O O10 0.574726 0.266537 0.669198
O O11 0.850413 0.315162 0.737126
O O12 0.932553 0.373581 0.656230
O O13 0.618096 0.235547 0.194054
O O14 0.500000 0.500000 0.449190
O O15 0.455894 0.375905 0.500000
O O16 0.256588 0.379181 0.416051
O O17 0.762165 0.380086 0.427878
O O18 0.500000 0.000000 0.387851
#
# Coordination Sequence:
#
# PCOD8225080 Si02
#       7
#     8   8   8   8   8   8   8
#     4  10  21  38  57  85 119 152 191 237 293 342
#     4  10  21  38  60  86 117 156 201 244 286 341
#     4  10  21  39  58  85 119 148 186 236 290 340
#     4  10  21  37  56  78 108 143 174 217 278 331
#     4  10  21  39  61  83 109 148 192 228 277 349
#     4   9  17  30  50  76 106 138 176 222 265 312
#     4  10  19  32  53  80 103 133 180 223 265 316
#
# _framework density 21.431792000000002
#
# number of rings (size 3 to 8) (size 9 to 14) (size 15 to 20)
#    0.000    2.143    0.000    3.000    0.000    2.857 
#    0.000   19.286    0.000    8.571    0.000    0.000 
#    0.000    0.000    0.000    0.000    0.000    0.000 
#
# Total GULP energy -694231.339004 kJ/mol
# GULP energy per Si atom -12396.988196 kJ/mol
# Density = 2.138301 g / cm^3
# Si number density = 21.431792 Si / 1000 Ang^3
#
#
#
# Elastic Constant Matrix: (Units=GPa)
#
#
# Indices 1 2 3 4 5 6 
#
# 1 195.0626 48.2933 19.7866 0.0000 0.0000 0.0000
# 2 48.2933 119.8750 41.5708 0.0000 0.0000 0.0000
# 3 19.7866 41.5708 49.1921 0.0000 0.0000 0.0000
# 4 0.0000 0.0000 0.0000 21.1443 0.0000 0.0000
# 5 0.0000 0.0000 0.0000 0.0000 12.5969 0.0000
# 6 0.0000 0.0000 0.0000 0.0000 0.0000 35.0579
#
#
#
# Elastic Compliance Matrix: (Units=1/GPa)
#
#
# Indices 1 2 3 4 5 6 
#
# 1 0.005703 -0.002125 -0.000498 0.000000 0.000000 0.000000
# 2 -0.002125 0.012592 -0.009786 0.000000 0.000000 0.000000
# 3 -0.000498 -0.009786 0.028799 0.000000 0.000000 0.000000
# 4 0.000000 0.000000 0.000000 0.047294 0.000000 0.000000
# 5 0.000000 0.000000 0.000000 0.000000 0.079385 0.000000
# 6 0.000000 0.000000 0.000000 0.000000 0.000000 0.028524
#
#
# Mechanical properties :
#
#
# Convention : Reuss Voigt Hill
#
# Bulk Modulus (GPa) = 44.89329 64.82568 54.85949
# Shear Modulus (GPa) = 21.31824 30.72508 26.02166
#
# Velocity S-wave (km/s) = 3.15731 3.79043 3.48826
# Velocity P-wave (km/s) = 5.85526 7.03346 6.47123
#
# Compressibility (1/GPa) = 0.02227504
#
# Stress axis : x y z
#
# Youngs Moduli (GPa) = 175.34140 79.41717 34.72340
#
# Poissons Ratio (x) = 0.16874 0.01731
# Poissons Ratio (y) = 0.37256 0.33981
# Poissons Ratio (z) = 0.08739 0.77720
#
# Static dielectric constant tensor:
#      x y z
#    x -1.209460 0.000000 0.000000 
#    y 0.000000 3.578090 0.000000 
#    z 0.000000 0.000000 3.594890 
# 
# 
# High freq. dielectric constant tensor:
#      x y z
#    x 1.875350 0.000000 0.000000 
#    y 0.000000 1.824350 0.000000 
#    z 0.000000 0.000000 1.815900 
# 
# From -- ./inp_files/24066.got.cif
#   From: 2010.03.12/outbox.cif.g09.slc.cpg/sg55_13_cif.got.tgz:24066.got - 2010.04.16 15:19:21.
