data_PCOD8225955
_publ_section_title
;
Structure prediction by ZEFSAII (Michael W. Deem and Ramdas Pophale) SiO2 
 PCOD8225955
Probable space group: P B A M
;
_chemical_formula_sum "Si O2"
_cell_formula_units_Z 56
_cell_length_a 18.287199
_cell_length_b 18.801274
_cell_length_c 9.126877
_cell_angle_alpha 90.000000
_cell_angle_beta 90.000000
_cell_angle_gamma 90.000000
_cell_volume 3138.026937
_symmetry_space_group_name_H-M "P B A M"
_symmetry_group_IT_number 55
_symmetry_cell_setting 'orthorhombic'
loop_
_space_group_symop_operation_xyz
x,y,z
-x,-y,z
1/2+x,1/2-y,-z
1/2-x,1/2+y,-z
-x,-y,-z
x,y,-z
1/2-x,1/2+y,z
1/2+x,1/2-y,z
loop_
_atom_site_type_symbol
_atom_site_label
_atom_site_fract_x
_atom_site_fract_y
_atom_site_fract_z
Si Si1 0.486988 0.780023 0.334841
Si Si2 0.622625 0.398067 0.668834
Si Si3 0.650794 0.263386 0.831027
Si Si4 0.956366 0.566432 0.668310
Si Si5 0.953075 0.137536 0.664164
Si Si6 0.341203 0.457025 0.827381
Si Si7 0.189394 0.389409 0.829282
O O1 0.453177 0.768299 0.500000
O O2 0.430302 0.762502 0.207543
O O3 0.508179 0.863086 0.316644
O O4 0.553878 0.723889 0.317687
O O5 0.642931 0.406649 0.500000
O O6 0.670314 0.332446 0.733894
O O7 0.536824 0.384558 0.693390
O O8 0.645095 0.468540 0.751832
O O9 0.701868 0.194970 0.796335
O O10 0.654784 0.285977 0.000000
O O11 0.938816 0.549471 0.500000
O O12 0.878788 0.577157 0.744877
O O13 0.000000 0.500000 0.739165
O O14 0.929926 0.114082 0.500000
O O15 0.901922 0.100015 0.780929
O O16 0.262132 0.429277 0.777417
O O17 0.346510 0.466757 0.000000
O O18 0.173686 0.400534 0.000000
#
# Coordination Sequence:
#
# PCOD8225955 Si02
#       7
#     8   8   8   8   8   8   8
#     4   8  15  29  48  71  99 126 155 197 246 293
#     4  10  20  34  52  75 101 129 165 207 250 296
#     4   9  16  30  52  72  92 122 161 201 240 288
#     4   9  17  31  54  80 102 128 167 213 254 295
#     4   9  18  32  49  70  99 133 167 206 252 299
#     4  11  22  34  49  72 103 135 168 206 247 295
#     4   9  20  36  51  71 101 135 168 204 250 300
#
# _framework density 17.845607999999999
#
# number of rings (size 3 to 8) (size 9 to 14) (size 15 to 20)
#    0.000    2.714    0.000    2.571    0.000    6.571 
#    0.000    1.429    0.000    3.429    0.000    0.000 
#    0.000    0.000    0.000    0.000    0.000    0.000 
#
# Total GULP energy -693979.337504 kJ/mol
# GULP energy per Si atom -12392.488170 kJ/mol
# Density = 1.780499 g / cm^3
# Si number density = 17.845608 Si / 1000 Ang^3
#
#
#
# Elastic Constant Matrix: (Units=GPa)
#
#
# Indices 1 2 3 4 5 6 
#
# 1 65.0975 62.1202 41.5466 0.0000 0.0000 0.0000
# 2 62.1202 166.7093 59.7324 0.0000 0.0000 0.0000
# 3 41.5466 59.7324 78.2283 0.0000 0.0000 0.0000
# 4 0.0000 0.0000 0.0000 29.4228 0.0000 0.0000
# 5 0.0000 0.0000 0.0000 0.0000 21.5258 0.0000
# 6 0.0000 0.0000 0.0000 0.0000 0.0000 9.6936
#
#
#
# Elastic Compliance Matrix: (Units=1/GPa)
#
#
# Indices 1 2 3 4 5 6 
#
# 1 0.028246 -0.007090 -0.009588 0.000000 0.000000 0.000000
# 2 -0.007090 0.010037 -0.003899 0.000000 0.000000 0.000000
# 3 -0.009588 -0.003899 0.020852 0.000000 0.000000 0.000000
# 4 0.000000 0.000000 0.000000 0.033987 0.000000 0.000000
# 5 0.000000 0.000000 0.000000 0.000000 0.046456 0.000000
# 6 0.000000 0.000000 0.000000 0.000000 0.000000 0.103161
#
#
# Mechanical properties :
#
#
# Convention : Reuss Voigt Hill
#
# Bulk Modulus (GPa) = 55.60889 70.75929 63.18409
# Shear Modulus (GPa) = 17.24810 21.90417 19.57613
#
# Velocity S-wave (km/s) = 3.11226 3.50727 3.31565
# Velocity P-wave (km/s) = 6.64407 7.49254 7.08102
#
# Compressibility (1/GPa) = 0.01798274
#
# Stress axis : x y z
#
# Youngs Moduli (GPa) = 35.40262 99.62854 47.95692
#
# Poissons Ratio (x) = 0.70637 0.45981
# Poissons Ratio (y) = 0.25100 0.18697
# Poissons Ratio (z) = 0.33944 0.38842
#
# Static dielectric constant tensor:
#      x y z
#    x 2.958890 0.000000 0.000000 
#    y 0.000000 3.753810 0.000000 
#    z 0.000000 0.000000 3.338610 
# 
# 
# High freq. dielectric constant tensor:
#      x y z
#    x 1.641370 0.000000 0.000000 
#    y 0.000000 1.712440 0.000000 
#    z 0.000000 0.000000 1.696580 
# 
# From -- ./inp_files/7806.got.cif
#   From: 2010.03.12/outbox.cif.g09.slc.cpg/sg55_4_cif.got.tgz:7806.got - 2010.04.16 15:19:21.
