data_PCOD8225012
_publ_section_title
;
Structure prediction by ZEFSAII (Michael W. Deem and Ramdas Pophale) SiO2 
 PCOD8225012
Probable space group: P B A M
;
_chemical_formula_sum "Si O2"
_cell_formula_units_Z 64
_cell_length_a 25.278276
_cell_length_b 14.689562
_cell_length_c 9.181461
_cell_angle_alpha 90.000000
_cell_angle_beta 90.000000
_cell_angle_gamma 90.000000
_cell_volume 3409.322556
_symmetry_space_group_name_H-M "P B A M"
_symmetry_group_IT_number 55
_symmetry_cell_setting 'orthorhombic'
loop_
_space_group_symop_operation_xyz
x,y,z
-x,-y,z
1/2+x,1/2-y,-z
1/2-x,1/2+y,-z
-x,-y,-z
x,y,-z
1/2-x,1/2+y,z
1/2+x,1/2-y,z
loop_
_atom_site_type_symbol
_atom_site_label
_atom_site_fract_x
_atom_site_fract_y
_atom_site_fract_z
Si Si1 0.232377 0.880184 0.162345
Si Si2 0.586646 0.866668 0.331460
Si Si3 0.201146 0.082565 0.166127
Si Si4 0.979258 0.706135 0.331915
Si Si5 0.692720 0.816575 0.833331
Si Si6 0.665926 0.123698 0.337731
Si Si7 0.924188 0.543904 0.827279
Si Si8 0.614022 0.319751 0.661131
O O1 0.194829 0.792710 0.177137
O O2 0.274099 0.870715 0.289702
O O3 0.201416 0.974143 0.187510
O O4 0.258165 0.880455 0.000000
O O5 0.595904 0.890759 0.500000
O O6 0.543097 0.784562 0.315782
O O7 0.642656 0.843753 0.261894
O O8 0.558128 0.950379 0.248817
O O9 0.254032 0.133144 0.228866
O O10 0.145787 0.112468 0.236290
O O11 0.197550 0.112879 0.000000
O O12 0.964328 0.681292 0.500000
O O13 0.960047 0.626041 0.227098
O O14 0.947470 0.799803 0.290808
O O15 0.683368 0.848238 0.000000
O O16 0.662711 0.081881 0.500000
O O17 0.636438 0.058736 0.222988
O O18 0.642448 0.223376 0.334465
O O19 0.928532 0.534712 0.000000
O O20 0.615464 0.362556 0.500000
#
# Coordination Sequence:
#
# PCOD8225012 Si02
#       8
#     8   8   8   8   8   8   8   8
#     4  10  20  34  53  78 109 144 180 223 273 324
#     4  11  22  36  54  75 106 144 183 224 272 327
#     4  10  20  34  54  79 106 139 177 217 268 322
#     4   9  20  37  54  76 106 141 180 228 275 317
#     4  10  21  36  53  78 114 146 178 223 271 324
#     4  10  19  32  51  76 106 141 180 221 264 315
#     4  11  21  32  51  79 110 143 181 221 268 327
#     4   9  18  33  53  76 103 133 171 218 266 314
#
# _framework density 18.772057
#
# number of rings (size 3 to 8) (size 9 to 14) (size 15 to 20)
#    0.000    2.000    1.250    3.750    0.000    7.000 
#    0.000    0.000    0.000    0.750    0.000    5.250 
#    0.000    0.000    0.000    0.000    0.000    0.000 
#
# Total GULP energy -793125.409579 kJ/mol
# GULP energy per Si atom -12392.584525 kJ/mol
# Density = 1.872933 g / cm^3
# Si number density = 18.772057 Si / 1000 Ang^3
#
#
#
# Elastic Constant Matrix: (Units=GPa)
#
#
# Indices 1 2 3 4 5 6 
#
# 1 47.3452 13.9730 18.8576 0.0000 0.0000 0.0000
# 2 13.9730 64.3395 23.2696 0.0000 0.0000 0.0000
# 3 18.8576 23.2696 83.3542 0.0000 0.0000 0.0000
# 4 0.0000 0.0000 0.0000 22.3487 0.0000 0.0000
# 5 0.0000 0.0000 0.0000 0.0000 20.0577 0.0000
# 6 0.0000 0.0000 0.0000 0.0000 0.0000 15.7293
#
#
#
# Elastic Compliance Matrix: (Units=1/GPa)
#
#
# Indices 1 2 3 4 5 6 
#
# 1 0.023942 -0.003605 -0.004410 0.000000 0.000000 0.000000
# 2 -0.003605 0.017831 -0.004162 0.000000 0.000000 0.000000
# 3 -0.004410 -0.004162 0.014157 0.000000 0.000000 0.000000
# 4 0.000000 0.000000 0.000000 0.044745 0.000000 0.000000
# 5 0.000000 0.000000 0.000000 0.000000 0.049856 0.000000
# 6 0.000000 0.000000 0.000000 0.000000 0.000000 0.063575
#
#
# Mechanical properties :
#
#
# Convention : Reuss Voigt Hill
#
# Bulk Modulus (GPa) = 31.67039 34.13772 32.90405
# Shear Modulus (GPa) = 20.08150 20.88973 20.48561
#
# Velocity S-wave (km/s) = 3.27426 3.33950 3.30704
# Velocity P-wave (km/s) = 5.58588 5.75279 5.66995
#
# Compressibility (1/GPa) = 0.03157524
#
# Stress axis : x y z
#
# Youngs Moduli (GPa) = 41.76782 56.08297 70.63802
#
# Poissons Ratio (x) = 0.20216 0.31153
# Poissons Ratio (y) = 0.15056 0.29401
# Poissons Ratio (z) = 0.18420 0.23343
#
# Static dielectric constant tensor:
#      x y z
#    x 3.699030 0.000000 0.000000 
#    y 0.000000 3.342760 0.000000 
#    z 0.000000 0.000000 3.505770 
# 
# 
# High freq. dielectric constant tensor:
#      x y z
#    x 1.723780 0.000000 0.000000 
#    y 0.000000 1.702190 0.000000 
#    z 0.000000 0.000000 1.730470 
# 
# From -- ./inp_files/6564.got.cif
#   From: 2010.03.12/outbox.cif.g09.slc.cpg/sg55_4_cif.got.tgz:6564.got - 2010.04.16 15:19:21.
