data_PCOD8225234
_publ_section_title
;
Structure prediction by ZEFSAII (Michael W. Deem and Ramdas Pophale) SiO2 
 PCOD8225234
Probable space group: P B A M
;
_chemical_formula_sum "Si O2"
_cell_formula_units_Z 56
_cell_length_a 18.885025
_cell_length_b 19.357106
_cell_length_c 8.762225
_cell_angle_alpha 90.000000
_cell_angle_beta 90.000000
_cell_angle_gamma 90.000000
_cell_volume 3203.113983
_symmetry_space_group_name_H-M "P B A M"
_symmetry_group_IT_number 55
_symmetry_cell_setting 'orthorhombic'
loop_
_space_group_symop_operation_xyz
x,y,z
-x,-y,z
1/2+x,1/2-y,-z
1/2-x,1/2+y,-z
-x,-y,-z
x,y,-z
1/2-x,1/2+y,z
1/2+x,1/2-y,z
loop_
_atom_site_type_symbol
_atom_site_label
_atom_site_fract_x
_atom_site_fract_y
_atom_site_fract_z
Si Si1 0.482894 0.688887 0.822175
Si Si2 0.257815 0.882418 0.679529
Si Si3 0.241536 0.667900 0.178922
Si Si4 0.065283 0.048452 0.321265
Si Si5 0.285684 0.521388 0.818816
Si Si6 0.858253 0.215151 0.179699
Si Si7 0.646109 0.222300 0.822844
O O1 0.452281 0.626459 0.724564
O O2 0.561333 0.707610 0.765255
O O3 0.435581 0.757546 0.794533
O O4 0.481051 0.667780 0.000000
O O5 0.254453 0.887054 0.500000
O O6 0.189010 0.841689 0.737505
O O7 0.331164 0.845882 0.730384
O O8 0.257993 0.958799 0.747765
O O9 0.247653 0.590887 0.247181
O O10 0.168529 0.707312 0.222613
O O11 0.306874 0.713857 0.238657
O O12 0.249456 0.659607 0.000000
O O13 0.081528 0.044962 0.500000
O O14 0.132682 0.019725 0.231165
O O15 0.000000 0.000000 0.275012
O O16 0.282471 0.515980 0.000000
O O17 0.850429 0.202401 0.000000
O O18 0.662199 0.207866 0.000000
#
# Coordination Sequence:
#
# PCOD8225234 Si02
#       7
#     8   8   8   8   8   8   8
#     4  10  19  33  55  78 101 134 174 213 258 309
#     4  11  22  34  49  75 106 137 172 213 260 312
#     4   8  15  30  52  75  99 125 166 215 255 296
#     4  11  23  34  46  72 112 145 169 206 256 314
#     4  11  20  34  54  74  99 137 177 216 258 305
#     4   9  18  34  55  78 103 133 169 215 260 308
#     4   9  17  34  54  75  99 130 174 217 254 306
#
# _framework density 17.482987000000001
#
# number of rings (size 3 to 8) (size 9 to 14) (size 15 to 20)
#    0.000    2.143    1.429    3.857    0.000    4.571 
#    0.000    0.714    0.000    0.857    0.000    6.000 
#    0.000    0.000    0.000    0.000    0.000    0.000 
#
# Total GULP energy -694313.656466 kJ/mol
# GULP energy per Si atom -12398.458151 kJ/mol
# Density = 1.744320 g / cm^3
# Si number density = 17.482987 Si / 1000 Ang^3
#
#
#
# Elastic Constant Matrix: (Units=GPa)
#
#
# Indices 1 2 3 4 5 6 
#
# 1 34.2471 13.3264 10.3858 0.0000 0.0000 0.0000
# 2 13.3264 110.1617 30.1077 0.0000 0.0000 0.0000
# 3 10.3858 30.1077 60.2264 0.0000 0.0000 0.0000
# 4 0.0000 0.0000 0.0000 12.2395 0.0000 0.0000
# 5 0.0000 0.0000 0.0000 0.0000 13.5647 0.0000
# 6 0.0000 0.0000 0.0000 0.0000 0.0000 27.9694
#
#
#
# Elastic Compliance Matrix: (Units=1/GPa)
#
#
# Indices 1 2 3 4 5 6 
#
# 1 0.031486 -0.002693 -0.004083 0.000000 0.000000 0.000000
# 2 -0.002693 0.010744 -0.004907 0.000000 0.000000 0.000000
# 3 -0.004083 -0.004907 0.019761 0.000000 0.000000 0.000000
# 4 0.000000 0.000000 0.000000 0.081703 0.000000 0.000000
# 5 0.000000 0.000000 0.000000 0.000000 0.073721 0.000000
# 6 0.000000 0.000000 0.000000 0.000000 0.000000 0.035753
#
#
# Mechanical properties :
#
#
# Convention : Reuss Voigt Hill
#
# Bulk Modulus (GPa) = 25.88993 34.69724 30.29358
# Shear Modulus (GPa) = 17.27659 20.80908 19.04283
#
# Velocity S-wave (km/s) = 3.14697 3.45374 3.30391
# Velocity P-wave (km/s) = 5.29578 5.98279 5.64974
#
# Compressibility (1/GPa) = 0.03862505
#
# Stress axis : x y z
#
# Youngs Moduli (GPa) = 31.76043 93.07185 50.60434
#
# Poissons Ratio (x) = 0.25063 0.20664
# Poissons Ratio (y) = 0.08553 0.24831
# Poissons Ratio (z) = 0.12969 0.45669
#
# Static dielectric constant tensor:
#      x y z
#    x 3.348940 0.000000 0.000000 
#    y 0.000000 3.442420 0.000000 
#    z 0.000000 0.000000 3.099310 
# 
# 
# High freq. dielectric constant tensor:
#      x y z
#    x 1.663070 0.000000 0.000000 
#    y 0.000000 1.674010 0.000000 
#    z 0.000000 0.000000 1.663440 
# 
# From -- ./inp_files/8888.got.cif
#   From: 2010.03.12/outbox.cif.g09.slc.cpg/sg55_5_cif.got.tgz:8888.got - 2010.04.16 15:19:21.
