data_PCOD8225670
_publ_section_title
;
Structure prediction by ZEFSAII (Michael W. Deem and Ramdas Pophale) SiO2 
 PCOD8225670
Probable space group: P B A M
;
_chemical_formula_sum "Si O2"
_cell_formula_units_Z 64
_cell_length_a 14.935224
_cell_length_b 23.880278
_cell_length_c 8.608707
_cell_angle_alpha 90.000000
_cell_angle_beta 90.000000
_cell_angle_gamma 90.000000
_cell_volume 3070.358205
_symmetry_space_group_name_H-M "P B A M"
_symmetry_group_IT_number 55
_symmetry_cell_setting 'orthorhombic'
loop_
_space_group_symop_operation_xyz
x,y,z
-x,-y,z
1/2+x,1/2-y,-z
1/2-x,1/2+y,-z
-x,-y,-z
x,y,-z
1/2-x,1/2+y,z
1/2+x,1/2-y,z
loop_
_atom_site_type_symbol
_atom_site_label
_atom_site_fract_x
_atom_site_fract_y
_atom_site_fract_z
Si Si1 0.508498 0.364117 0.320599
Si Si2 0.765656 0.252761 0.180977
Si Si3 0.308360 0.361454 0.321940
Si Si4 0.569870 0.247739 0.683201
Si Si5 0.426927 0.167255 0.184191
Si Si6 0.744833 0.031575 0.179717
Si Si7 0.095749 0.027949 0.675504
Si Si8 0.578861 0.960215 0.184595
O O1 0.531186 0.357091 0.500000
O O2 0.407646 0.386785 0.299926
O O3 0.522048 0.303059 0.245479
O O4 0.579531 0.409353 0.256287
O O5 0.805343 0.191462 0.209414
O O6 0.673904 0.254165 0.276364
O O7 0.838174 0.298813 0.241937
O O8 0.745625 0.261849 0.000000
O O9 0.289238 0.343822 0.500000
O O10 0.238667 0.409566 0.271496
O O11 0.558704 0.241216 0.500000
O O12 0.519844 0.194789 0.758777
O O13 0.424995 0.103453 0.249695
O O14 0.428104 0.167630 0.000000
O O15 0.839762 0.002368 0.204789
O O16 0.670044 0.989080 0.242554
O O17 0.730461 0.045486 0.000000
O O18 0.136417 0.027429 0.500000
O O19 0.000000 0.000000 0.670281
O O20 0.500000 0.000000 0.249764
O O21 0.574218 0.957430 0.000000
#
# Coordination Sequence:
#
# PCOD8225670 Si02
#       8
#     8   8   8   8   8   8   8   8
#     4   9  19  36  58  84 118 160 203 242 298 369
#     4  11  24  40  61  93 127 161 204 257 315 374
#     4  11  21  40  64  87 122 161 203 255 309 373
#     4  11  23  40  63  91 122 162 206 253 315 377
#     4  10  22  42  66  92 124 163 209 261 312 367
#     4  11  23  37  59  93 123 157 206 256 305 365
#     4  10  19  36  58  82 118 165 202 237 297 366
#     4   9  21  42  64  85 119 166 209 252 310 367
#
# _framework density 20.844473000000001
#
# number of rings (size 3 to 8) (size 9 to 14) (size 15 to 20)
#    0.000    1.750    2.500    1.500    3.500    0.750 
#    0.000    1.875    0.000    1.875    0.000    0.000 
#    0.000    0.000    0.000    0.000    0.000    0.000 
#
# Total GULP energy -793359.026206 kJ/mol
# GULP energy per Si atom -12396.234784 kJ/mol
# Density = 2.079703 g / cm^3
# Si number density = 20.844473 Si / 1000 Ang^3
#
#
#
# Elastic Constant Matrix: (Units=GPa)
#
#
# Indices 1 2 3 4 5 6 
#
# 1 106.0736 54.1503 17.3582 0.0000 0.0000 0.0000
# 2 54.1503 166.8506 18.2270 0.0000 0.0000 0.0000
# 3 17.3582 18.2270 33.3044 0.0000 0.0000 0.0000
# 4 0.0000 0.0000 0.0000 23.4372 0.0000 0.0000
# 5 0.0000 0.0000 0.0000 0.0000 19.7996 0.0000
# 6 0.0000 0.0000 0.0000 0.0000 0.0000 35.6170
#
#
#
# Elastic Compliance Matrix: (Units=1/GPa)
#
#
# Indices 1 2 3 4 5 6 
#
# 1 0.011860 -0.003376 -0.004334 0.000000 0.000000 0.000000
# 2 -0.003376 0.007335 -0.002255 0.000000 0.000000 0.000000
# 3 -0.004334 -0.002255 0.033519 0.000000 0.000000 0.000000
# 4 0.000000 0.000000 0.000000 0.042667 0.000000 0.000000
# 5 0.000000 0.000000 0.000000 0.000000 0.050506 0.000000
# 6 0.000000 0.000000 0.000000 0.000000 0.000000 0.028076
#
#
# Mechanical properties :
#
#
# Convention : Reuss Voigt Hill
#
# Bulk Modulus (GPa) = 30.50183 53.96662 42.23422
# Shear Modulus (GPa) = 24.41149 30.20364 27.30757
#
# Velocity S-wave (km/s) = 3.42588 3.81070 3.62341
# Velocity P-wave (km/s) = 5.50579 6.73114 6.14907
#
# Compressibility (1/GPa) = 0.03278492
#
# Stress axis : x y z
#
# Youngs Moduli (GPa) = 84.31802 136.32777 29.83375
#
# Poissons Ratio (x) = 0.46019 0.12930
# Poissons Ratio (y) = 0.28462 0.06728
# Poissons Ratio (z) = 0.36543 0.30743
#
# Static dielectric constant tensor:
#      x y z
#    x 3.761900 0.000000 0.000000 
#    y 0.000000 4.337980 0.000000 
#    z 0.000000 0.000000 3.422480 
# 
# 
# High freq. dielectric constant tensor:
#      x y z
#    x 1.814880 0.000000 0.000000 
#    y 0.000000 1.834920 0.000000 
#    z 0.000000 0.000000 1.784180 
# 
# From -- ./inp_files/6484.got.cif
#   From: 2010.03.12/outbox.cif.g09.slc.cpg/sg55_4_cif.got.tgz:6484.got - 2010.04.16 15:19:21.
