data_PCOD8225693
_publ_section_title
;
Structure prediction by ZEFSAII (Michael W. Deem and Ramdas Pophale) SiO2 
 PCOD8225693
Probable space group: P B A M
;
_chemical_formula_sum "Si O2"
_cell_formula_units_Z 40
_cell_length_a 8.920268
_cell_length_b 25.750384
_cell_length_c 8.506599
_cell_angle_alpha 90.000000
_cell_angle_beta 90.000000
_cell_angle_gamma 90.000000
_cell_volume 1953.968567
_symmetry_space_group_name_H-M "P B A M"
_symmetry_group_IT_number 55
_symmetry_cell_setting 'orthorhombic'
loop_
_space_group_symop_operation_xyz
x,y,z
-x,-y,z
1/2+x,1/2-y,-z
1/2-x,1/2+y,-z
-x,-y,-z
x,y,-z
1/2-x,1/2+y,z
1/2+x,1/2-y,z
loop_
_atom_site_type_symbol
_atom_site_label
_atom_site_fract_x
_atom_site_fract_y
_atom_site_fract_z
Si Si1 0.324968 0.000317 0.817888
Si Si2 0.822850 0.702694 0.684655
Si Si3 0.659353 0.403951 0.316952
Si Si4 0.663671 0.604838 0.817917
Si Si5 0.842224 0.304270 0.312780
O O1 0.250272 0.043469 0.709167
O O2 0.500000 0.000000 0.782712
O O3 0.259437 0.944987 0.766465
O O4 0.289668 0.012351 0.000000
O O5 0.836610 0.709617 0.500000
O O6 0.719348 0.653676 0.719402
O O7 0.745996 0.754398 0.755321
O O8 0.989068 0.695796 0.757400
O O9 0.619714 0.397701 0.500000
O O10 0.508938 0.406153 0.216659
O O11 0.758770 0.355994 0.254617
O O12 0.687007 0.617197 0.000000
O O13 0.848383 0.302827 0.500000
#
# Coordination Sequence:
#
# PCOD8225693 Si02
#       5
#     8   8   8   8   8
#     4  10  22  40  59  80 112 151 186 229 286 338
#     4  10  19  36  60  83 110 144 183 225 274 330
#     4  11  22  37  59  86 114 147 189 233 278 331
#     4  11  23  38  56  81 113 148 186 228 279 333
#     4   9  19  35  58  86 113 143 180 228 281 328
#
# _framework density 20.471157999999999
#
# number of rings (size 3 to 8) (size 9 to 14) (size 15 to 20)
#    0.000    1.800    0.000    4.200    0.000    7.600 
#    0.000    6.000    0.000    0.000    0.000    0.000 
#    0.000    0.000    0.000    0.000    0.000    0.000 
#
# Total GULP energy -496210.921857 kJ/mol
# GULP energy per Si atom -12405.273046 kJ/mol
# Density = 2.042457 g / cm^3
# Si number density = 20.471158 Si / 1000 Ang^3
#
#
#
# Elastic Constant Matrix: (Units=GPa)
#
#
# Indices 1 2 3 4 5 6 
#
# 1 121.3978 29.6969 10.7171 0.0000 0.0000 0.0000
# 2 29.6969 105.1047 17.4859 0.0000 0.0000 0.0000
# 3 10.7171 17.4859 16.5931 0.0000 0.0000 0.0000
# 4 0.0000 0.0000 0.0000 16.9045 0.0000 0.0000
# 5 0.0000 0.0000 0.0000 0.0000 23.5665 0.0000
# 6 0.0000 0.0000 0.0000 0.0000 0.0000 44.5822
#
#
#
# Elastic Compliance Matrix: (Units=1/GPa)
#
#
# Indices 1 2 3 4 5 6 
#
# 1 0.009044 -0.001920 -0.003818 0.000000 0.000000 0.000000
# 2 -0.001920 0.011945 -0.011347 0.000000 0.000000 0.000000
# 3 -0.003818 -0.011347 0.074690 0.000000 0.000000 0.000000
# 4 0.000000 0.000000 0.000000 0.059156 0.000000 0.000000
# 5 0.000000 0.000000 0.000000 0.000000 0.042433 0.000000
# 6 0.000000 0.000000 0.000000 0.000000 0.000000 0.022430
#
#
# Mechanical properties :
#
#
# Convention : Reuss Voigt Hill
#
# Bulk Modulus (GPa) = 16.25804 39.87725 28.06765
# Shear Modulus (GPa) = 18.22349 29.35702 23.79025
#
# Velocity S-wave (km/s) = 2.98686 3.79102 3.41271
# Velocity P-wave (km/s) = 4.45582 6.21968 5.41012
#
# Compressibility (1/GPa) = 0.06150804
#
# Stress axis : x y z
#
# Youngs Moduli (GPa) = 110.56851 83.71950 13.38872
#
# Poissons Ratio (x) = 0.16076 0.05112
# Poissons Ratio (y) = 0.21232 0.15192
# Poissons Ratio (z) = 0.42214 0.94998
#
# Static dielectric constant tensor:
#      x y z
#    x 3.929080 0.000000 0.000000 
#    y 0.000000 3.821770 0.000000 
#    z 0.000000 0.000000 3.328770 
# 
# 
# High freq. dielectric constant tensor:
#      x y z
#    x 1.819530 0.000000 0.000000 
#    y 0.000000 1.816290 0.000000 
#    z 0.000000 0.000000 1.770010 
# 
# From -- ./inp_files/2287.got.cif
#   From: 2010.03.12/outbox.cif.g09.slc.cpg/sg55_2_cif.got.tgz:2287.got - 2010.04.16 15:19:21.
