data_PCOD8225897
_publ_section_title
;
Structure prediction by ZEFSAII (Michael W. Deem and Ramdas Pophale) SiO2 
 PCOD8225897
Probable space group: P B A M
;
_chemical_formula_sum "Si O2"
_cell_formula_units_Z 64
_cell_length_a 12.109126
_cell_length_b 18.300802
_cell_length_c 14.716181
_cell_angle_alpha 90.000000
_cell_angle_beta 90.000000
_cell_angle_gamma 90.000000
_cell_volume 3261.204563
_symmetry_space_group_name_H-M "P B A M"
_symmetry_group_IT_number 55
_symmetry_cell_setting 'orthorhombic'
loop_
_space_group_symop_operation_xyz
x,y,z
-x,-y,z
1/2+x,1/2-y,-z
1/2-x,1/2+y,-z
-x,-y,-z
x,y,-z
1/2-x,1/2+y,z
1/2+x,1/2-y,z
loop_
_atom_site_type_symbol
_atom_site_label
_atom_site_fract_x
_atom_site_fract_y
_atom_site_fract_z
Si Si1 0.693420 0.730143 0.396280
Si Si2 0.181236 0.854511 0.104092
Si Si3 0.882551 0.464422 0.732410
Si Si4 0.493787 0.172720 0.664619
Si Si5 0.741640 0.481979 0.100550
Si Si6 0.070999 0.134819 0.896860
Si Si7 0.170786 0.253699 0.772690
Si Si8 0.805156 0.585777 0.399877
O O1 0.730012 0.747701 0.500000
O O2 0.567772 0.758033 0.381548
O O3 0.776313 0.769276 0.324639
O O4 0.703831 0.641922 0.378618
O O5 0.238797 0.932047 0.115796
O O6 0.239757 0.799306 0.171476
O O7 0.054900 0.863091 0.134757
O O8 0.190699 0.827011 0.000000
O O9 0.824670 0.447499 0.827394
O O10 0.808205 0.518977 0.670981
O O11 0.000000 0.500000 0.752067
O O12 0.898265 0.385958 0.686072
O O13 0.558962 0.199491 0.755176
O O14 0.582601 0.134147 0.599060
O O15 0.619107 0.447330 0.110365
O O16 0.787924 0.463938 0.000000
O O17 0.144522 0.182722 0.829985
O O18 0.081589 0.164530 0.000000
O O19 0.791915 0.551254 0.500000
#
# Coordination Sequence:
#
# PCOD8225897 Si02
#       8
#     8   8   8   8   8   8   8   8
#     4  10  20  34  52  76 107 142 179 220 267 320
#     4  10  20  36  57  79 106 141 180 224 273 324
#     4  10  20  34  52  78 109 142 181 226 278 330
#     4  10  20  33  53  78 109 141 177 222 274 331
#     4  10  20  35  54  76 105 141 183 225 264 319
#     4  10  21  36  56  81 108 143 185 225 270 326
#     4  11  21  36  55  80 111 141 177 224 276 327
#     4   9  19  34  53  78 107 140 180 226 274 325
#
# _framework density 19.624651
#
# number of rings (size 3 to 8) (size 9 to 14) (size 15 to 20)
#    0.000    2.000    0.000    4.875    0.000    5.000 
#    0.000    2.500    0.000    0.000    0.000    0.000 
#    0.000   25.000    0.000    0.000    0.000    0.000 
#
# Total GULP energy -793347.850595 kJ/mol
# GULP energy per Si atom -12396.060166 kJ/mol
# Density = 1.957998 g / cm^3
# Si number density = 19.624651 Si / 1000 Ang^3
#
#
#
# Elastic Constant Matrix: (Units=GPa)
#
#
# Indices 1 2 3 4 5 6 
#
# 1 65.5369 25.6949 37.3127 0.0000 0.0000 0.0000
# 2 25.6949 52.0541 24.8285 0.0000 0.0000 0.0000
# 3 37.3127 24.8285 104.7875 0.0000 0.0000 0.0000
# 4 0.0000 0.0000 0.0000 15.4179 0.0000 0.0000
# 5 0.0000 0.0000 0.0000 0.0000 28.4920 0.0000
# 6 0.0000 0.0000 0.0000 0.0000 0.0000 34.2090
#
#
#
# Elastic Compliance Matrix: (Units=1/GPa)
#
#
# Indices 1 2 3 4 5 6 
#
# 1 0.021693 -0.007919 -0.005848 0.000000 0.000000 0.000000
# 2 -0.007919 0.024549 -0.002997 0.000000 0.000000 0.000000
# 3 -0.005848 -0.002997 0.012336 0.000000 0.000000 0.000000
# 4 0.000000 0.000000 0.000000 0.064860 0.000000 0.000000
# 5 0.000000 0.000000 0.000000 0.000000 0.035098 0.000000
# 6 0.000000 0.000000 0.000000 0.000000 0.000000 0.029232
#
#
# Mechanical properties :
#
#
# Convention : Reuss Voigt Hill
#
# Bulk Modulus (GPa) = 39.92015 44.22786 42.07400
# Shear Modulus (GPa) = 21.77282 24.59328 23.18305
#
# Velocity S-wave (km/s) = 3.33447 3.54387 3.44077
# Velocity P-wave (km/s) = 5.93388 6.27146 6.10500
#
# Compressibility (1/GPa) = 0.02505000
#
# Stress axis : x y z
#
# Youngs Moduli (GPa) = 46.09837 40.73482 81.06583
#
# Poissons Ratio (x) = 0.32256 0.47408
# Poissons Ratio (y) = 0.36503 0.24296
# Poissons Ratio (z) = 0.26959 0.12208
#
# Static dielectric constant tensor:
#      x y z
#    x 3.479230 0.000000 0.000000 
#    y 0.000000 3.565870 0.000000 
#    z 0.000000 0.000000 3.663240 
# 
# 
# High freq. dielectric constant tensor:
#      x y z
#    x 1.751350 0.000000 0.000000 
#    y 0.000000 1.755470 0.000000 
#    z 0.000000 0.000000 1.771350 
# 
# From -- ./inp_files/18551.got.cif
#   From: 2010.03.12/outbox.cif.g09.slc.cpg/sg55_10_cif.got.tgz:18551.got - 2010.04.16 15:19:21.
