data_PCOD8225373
_publ_section_title
;
Structure prediction by ZEFSAII (Michael W. Deem and Ramdas Pophale) SiO2 
 PCOD8225373
Probable space group: P B A M
;
_chemical_formula_sum "Si O2"
_cell_formula_units_Z 48
_cell_length_a 23.651593
_cell_length_b 7.667144
_cell_length_c 12.717778
_cell_angle_alpha 90.000000
_cell_angle_beta 90.000000
_cell_angle_gamma 90.000000
_cell_volume 2306.244016
_symmetry_space_group_name_H-M "P B A M"
_symmetry_group_IT_number 55
_symmetry_cell_setting 'orthorhombic'
loop_
_space_group_symop_operation_xyz
x,y,z
-x,-y,z
1/2+x,1/2-y,-z
1/2-x,1/2+y,-z
-x,-y,-z
x,y,-z
1/2-x,1/2+y,z
1/2+x,1/2-y,z
loop_
_atom_site_type_symbol
_atom_site_label
_atom_site_fract_x
_atom_site_fract_y
_atom_site_fract_z
Si Si1 0.448945 0.229301 0.117757
Si Si2 0.937335 0.979787 0.709434
Si Si3 0.428380 0.843054 0.837165
Si Si4 0.677646 0.585680 0.380204
Si Si5 0.763986 0.380789 0.256575
Si Si6 0.693500 0.165587 0.114380
O O1 0.432879 0.400783 0.184691
O O2 0.516271 0.216513 0.099216
O O3 0.428367 0.053828 0.179202
O O4 0.421542 0.239646 0.000000
O O5 0.888357 0.037017 0.629565
O O6 0.928538 0.772890 0.730622
O O7 0.000000 0.000000 0.658474
O O8 0.372295 0.787172 0.899800
O O9 0.689602 0.638382 0.500000
O O10 0.719072 0.427471 0.347871
O O11 0.692010 0.741971 0.301181
O O12 0.730533 0.329946 0.150228
O O13 0.802061 0.537963 0.214809
O O14 0.715523 0.100524 0.000000
#
# Coordination Sequence:
#
# PCOD8225373 Si02
#       6
#     8   8   8   8   8   8
#     4  10  20  33  54  85 121 159 199 232 283 353
#     4  10  22  38  58  89 120 153 197 253 299 361
#     4  10  19  34  54  81 118 158 196 234 281 346
#     4  11  22  42  63  84 111 153 203 258 306 344
#     4  10  23  38  58  88 115 147 201 244 291 361
#     4  11  20  35  57  83 122 155 183 228 295 359
#
# _framework density 20.813061000000001
#
# number of rings (size 3 to 8) (size 9 to 14) (size 15 to 20)
#    0.000    1.667    1.667    4.000    0.000    4.667 
#    0.000    0.833    0.000    0.000    0.000    7.000 
#    0.000    0.000    0.000    0.000    0.000    0.000 
#
# Total GULP energy -594690.322219 kJ/mol
# GULP energy per Si atom -12389.381713 kJ/mol
# Density = 2.076569 g / cm^3
# Si number density = 20.813061 Si / 1000 Ang^3
#
#
#
# Elastic Constant Matrix: (Units=GPa)
#
#
# Indices 1 2 3 4 5 6 
#
# 1 98.2233 13.3549 31.8089 0.0000 0.0000 0.0000
# 2 13.3549 70.9321 14.0347 0.0000 0.0000 0.0000
# 3 31.8089 14.0347 84.1317 0.0000 0.0000 0.0000
# 4 0.0000 0.0000 0.0000 27.7143 0.0000 0.0000
# 5 0.0000 0.0000 0.0000 0.0000 -12.3622 0.0000
# 6 0.0000 0.0000 0.0000 0.0000 0.0000 19.1560
#
#
#
# Elastic Compliance Matrix: (Units=1/GPa)
#
#
# Indices 1 2 3 4 5 6 
#
# 1 0.011730 -0.001376 -0.004205 0.000000 0.000000 0.000000
# 2 -0.001376 0.014741 -0.001939 0.000000 0.000000 0.000000
# 3 -0.004205 -0.001939 0.013799 0.000000 0.000000 0.000000
# 4 0.000000 0.000000 0.000000 0.036082 0.000000 0.000000
# 5 0.000000 0.000000 0.000000 0.000000 -0.080892 0.000000
# 6 0.000000 0.000000 0.000000 0.000000 0.000000 0.052203
#
#
# Mechanical properties :
#
#
# Convention : Reuss Voigt Hill
#
# Bulk Modulus (GPa) = 39.63620 41.29822 40.46721
# Shear Modulus (GPa) = 70.30963 19.84087 45.07525
#
# Velocity S-wave (km/s) = 5.81849 3.09089 4.65878
# Velocity P-wave (km/s) = 8.01405 5.71171 6.95876
#
# Compressibility (1/GPa) = 0.02522946
#
# Stress axis : x y z
#
# Youngs Moduli (GPa) = 85.25240 67.83930 72.46651
#
# Poissons Ratio (x) = 0.09337 0.30474
# Poissons Ratio (y) = 0.11734 0.14049
# Poissons Ratio (z) = 0.35851 0.13152
#
# Static dielectric constant tensor:
#      x y z
#    x 3.902900 0.000000 0.000000 
#    y 0.000000 3.865230 0.000000 
#    z 0.000000 0.000000 3.297030 
# 
# 
# High freq. dielectric constant tensor:
#      x y z
#    x 1.827130 0.000000 0.000000 
#    y 0.000000 1.814120 0.000000 
#    z 0.000000 0.000000 1.775340 
# 
# From -- ./inp_files/15626.got.cif
#   From: 2010.03.12/outbox.cif.g09.slc.cpg/sg55_8_cif.got.tgz:15626.got - 2010.04.16 15:19:21.
