data_PCOD8225362
_publ_section_title
;
Structure prediction by ZEFSAII (Michael W. Deem and Ramdas Pophale) SiO2 
 PCOD8225362
Probable space group: P B A M
;
_chemical_formula_sum "Si O2"
_cell_formula_units_Z 64
_cell_length_a 14.101059
_cell_length_b 8.689161
_cell_length_c 28.565572
_cell_angle_alpha 90.000000
_cell_angle_beta 90.000000
_cell_angle_gamma 90.000000
_cell_volume 3500.035899
_symmetry_space_group_name_H-M "P B A M"
_symmetry_group_IT_number 55
_symmetry_cell_setting 'orthorhombic'
loop_
_space_group_symop_operation_xyz
x,y,z
-x,-y,z
1/2+x,1/2-y,-z
1/2-x,1/2+y,-z
-x,-y,-z
x,y,-z
1/2-x,1/2+y,z
1/2+x,1/2-y,z
loop_
_atom_site_type_symbol
_atom_site_label
_atom_site_fract_x
_atom_site_fract_y
_atom_site_fract_z
Si Si1 0.138116 0.686010 0.870762
Si Si2 0.022468 0.179126 0.447876
Si Si3 0.844072 0.677804 0.873783
Si Si4 0.978495 0.820886 0.698377
Si Si5 0.511330 0.317776 0.804070
Si Si6 0.328246 0.629833 0.374040
Si Si7 0.627457 0.727060 0.374908
Si Si8 0.992307 0.681041 0.051659
O O1 0.149719 0.504142 0.866614
O O2 0.236501 0.772063 0.875013
O O3 0.083131 0.739523 0.824432
O O4 0.079520 0.738911 0.916648
O O5 0.032733 0.249352 0.500000
O O6 0.120735 0.202744 0.419727
O O7 0.935510 0.261955 0.421078
O O8 0.000000 0.000000 0.450109
O O9 0.895478 0.764679 0.831537
O O10 0.893853 0.725077 0.922765
O O11 0.974693 0.758153 0.751118
O O12 0.877735 0.796562 0.672164
O O13 0.062898 0.735289 0.670485
O O14 0.000000 0.000000 0.698098
O O15 0.500000 0.500000 0.807303
O O16 0.338309 0.447539 0.374070
O O17 0.217152 0.662130 0.374644
O O18 0.000000 0.500000 0.046227
O O19 0.995297 0.758658 0.000000
#
# Coordination Sequence:
#
# PCOD8225362 Si02
#       8
#     8   8   8   8   8   8   8   8
#     4  10  20  34  52  75 103 132 164 201 243 290
#     4   8  15  29  48  67  91 126 159 186 227 285
#     4  10  20  34  52  75 103 132 164 201 243 290
#     4   8  17  33  50  68  93 127 159 191 235 289
#     4  10  19  34  54  73  97 128 165 206 248 291
#     4   9  17  31  49  69  94 122 156 194 233 279
#     4   9  17  31  49  69  94 122 156 194 233 279
#     4   8  16  32  52  73  99 130 163 201 242 285
#
# _framework density 18.285526999999998
#
# number of rings (size 3 to 8) (size 9 to 14) (size 15 to 20)
#    0.000    3.000    0.000    3.375    0.000    2.000 
#    0.000    7.500    0.000   13.500    0.000    0.000 
#    0.000    0.000    0.000    0.000    0.000    0.000 
#
# Total GULP energy -793338.745412 kJ/mol
# GULP energy per Si atom -12395.917897 kJ/mol
# Density = 1.824391 g / cm^3
# Si number density = 18.285527 Si / 1000 Ang^3
#
#
#
# Elastic Constant Matrix: (Units=GPa)
#
#
# Indices 1 2 3 4 5 6 
#
# 1 75.8729 5.5725 28.6247 0.0000 0.0000 0.0000
# 2 5.5725 36.4074 15.8269 0.0000 0.0000 0.0000
# 3 28.6247 15.8269 152.7793 0.0000 0.0000 0.0000
# 4 0.0000 0.0000 0.0000 16.3610 0.0000 0.0000
# 5 0.0000 0.0000 0.0000 0.0000 14.2714 0.0000
# 6 0.0000 0.0000 0.0000 0.0000 0.0000 30.5398
#
#
#
# Elastic Compliance Matrix: (Units=1/GPa)
#
#
# Indices 1 2 3 4 5 6 
#
# 1 0.014222 -0.001066 -0.002554 0.000000 0.000000 0.000000
# 2 -0.001066 0.028842 -0.002788 0.000000 0.000000 0.000000
# 3 -0.002554 -0.002788 0.007313 0.000000 0.000000 0.000000
# 4 0.000000 0.000000 0.000000 0.061121 0.000000 0.000000
# 5 0.000000 0.000000 0.000000 0.000000 0.070070 0.000000
# 6 0.000000 0.000000 0.000000 0.000000 0.000000 0.032744
#
#
# Mechanical properties :
#
#
# Convention : Reuss Voigt Hill
#
# Bulk Modulus (GPa) = 26.62440 40.56753 33.59597
# Shear Modulus (GPa) = 20.86385 26.57016 23.71701
#
# Velocity S-wave (km/s) = 3.38154 3.81605 3.60535
# Velocity P-wave (km/s) = 5.46245 6.45369 5.97865
#
# Compressibility (1/GPa) = 0.03755953
#
# Stress axis : x y z
#
# Youngs Moduli (GPa) = 70.31428 34.67142 136.74748
#
# Poissons Ratio (x) = 0.03698 0.34927
# Poissons Ratio (y) = 0.07499 0.38126
# Poissons Ratio (z) = 0.17959 0.09666
#
# Static dielectric constant tensor:
#      x y z
#    x 3.377940 0.000000 0.000000 
#    y 0.000000 3.025740 0.000000 
#    z 0.000000 0.000000 3.900750 
# 
# 
# High freq. dielectric constant tensor:
#      x y z
#    x 1.711500 0.000000 0.000000 
#    y 0.000000 1.679630 0.000000 
#    z 0.000000 0.000000 1.715510 
# 
# From -- ./inp_files/24160.got.cif
#   From: 2010.03.12/outbox.cif.g09.slc.cpg/sg55_13_cif.got.tgz:24160.got - 2010.04.16 15:19:21.
