data_PCOD8225100
_publ_section_title
;
Structure prediction by ZEFSAII (Michael W. Deem and Ramdas Pophale) SiO2 
 PCOD8225100
Probable space group: P B A M
;
_chemical_formula_sum "Si O2"
_cell_formula_units_Z 56
_cell_length_a 14.347784
_cell_length_b 24.996018
_cell_length_c 9.113457
_cell_angle_alpha 90.000000
_cell_angle_beta 90.000000
_cell_angle_gamma 90.000000
_cell_volume 3268.427135
_symmetry_space_group_name_H-M "P B A M"
_symmetry_group_IT_number 55
_symmetry_cell_setting 'orthorhombic'
loop_
_space_group_symop_operation_xyz
x,y,z
-x,-y,z
1/2+x,1/2-y,-z
1/2-x,1/2+y,-z
-x,-y,-z
x,y,-z
1/2-x,1/2+y,z
1/2+x,1/2-y,z
loop_
_atom_site_type_symbol
_atom_site_label
_atom_site_fract_x
_atom_site_fract_y
_atom_site_fract_z
Si Si1 0.891687 0.004328 0.174185
Si Si2 0.315520 0.607135 0.826893
Si Si3 0.671444 0.811081 0.170031
Si Si4 0.023440 0.272572 0.168165
Si Si5 0.661618 0.608845 0.666332
Si Si6 0.765958 0.702444 0.828353
Si Si7 0.029367 0.168001 0.664636
O O1 0.837015 0.052922 0.248458
O O2 0.835684 0.952167 0.234058
O O3 0.885534 0.011345 0.000000
O O4 0.000000 0.000000 0.223230
O O5 0.218461 0.633858 0.769251
O O6 0.393993 0.647885 0.776364
O O7 0.320424 0.603311 0.000000
O O8 0.560318 0.815031 0.196720
O O9 0.718439 0.756753 0.236053
O O10 0.697048 0.808373 0.000000
O O11 0.123422 0.297639 0.203150
O O12 0.997252 0.225342 0.278046
O O13 0.019520 0.252040 0.000000
O O14 0.696753 0.600545 0.500000
O O15 0.728373 0.651024 0.744493
O O16 0.556295 0.628223 0.668539
O O17 0.743578 0.695593 0.000000
O O18 0.069614 0.172711 0.500000
#
# Coordination Sequence:
#
# PCOD8225100 Si02
#       7
#     8   8   8   8   8   8   8
#     4  10  20  33  54  78 101 133 173 217 258 306
#     4  10  19  34  53  76 104 135 171 208 255 306
#     4   9  17  30  52  78 102 129 164 209 254 301
#     4  10  19  33  52  75 103 136 169 205 251 303
#     4  11  23  35  49  73 109 142 171 209 255 306
#     4  10  19  32  54  77 100 134 172 209 251 301
#     4  11  21  30  46  75 107 138 167 204 248 300
#
# _framework density 17.133624000000001
#
# number of rings (size 3 to 8) (size 9 to 14) (size 15 to 20)
#    0.000    1.857    4.286    0.857    0.000    2.571 
#    0.000    0.714    0.000    0.857    0.000    6.000 
#    0.000    0.000    0.000    0.000    0.000    0.000 
#
# Total GULP energy -694134.681611 kJ/mol
# GULP energy per Si atom -12395.262172 kJ/mol
# Density = 1.709463 g / cm^3
# Si number density = 17.133624 Si / 1000 Ang^3
#
#
#
# Elastic Constant Matrix: (Units=GPa)
#
#
# Indices 1 2 3 4 5 6 
#
# 1 86.9584 31.2987 17.0931 0.0000 0.0000 0.0000
# 2 31.2987 96.3237 31.2904 0.0000 0.0000 0.0000
# 3 17.0931 31.2904 26.0058 0.0000 0.0000 0.0000
# 4 0.0000 0.0000 0.0000 2.9694 0.0000 0.0000
# 5 0.0000 0.0000 0.0000 0.0000 10.5258 0.0000
# 6 0.0000 0.0000 0.0000 0.0000 0.0000 29.9418
#
#
#
# Elastic Compliance Matrix: (Units=1/GPa)
#
#
# Indices 1 2 3 4 5 6 
#
# 1 0.013557 -0.002480 -0.005927 0.000000 0.000000 0.000000
# 2 -0.002480 0.017497 -0.019422 0.000000 0.000000 0.000000
# 3 -0.005927 -0.019422 0.065718 0.000000 0.000000 0.000000
# 4 0.000000 0.000000 0.000000 0.336770 0.000000 0.000000
# 5 0.000000 0.000000 0.000000 0.000000 0.095005 0.000000
# 6 0.000000 0.000000 0.000000 0.000000 0.000000 0.033398
#
#
# Mechanical properties :
#
#
# Convention : Reuss Voigt Hill
#
# Bulk Modulus (GPa) = 24.32308 40.96135 32.64221
# Shear Modulus (GPa) = 7.92007 17.32777 12.62392
#
# Velocity S-wave (km/s) = 2.15234 3.18359 2.71734
# Velocity P-wave (km/s) = 4.51704 6.12149 5.37942
#
# Compressibility (1/GPa) = 0.04111322
#
# Stress axis : x y z
#
# Youngs Moduli (GPa) = 73.76042 57.15386 15.21659
#
# Poissons Ratio (x) = 0.14173 0.09019
# Poissons Ratio (y) = 0.18291 0.29554
# Poissons Ratio (z) = 0.43721 1.11005
#
# Static dielectric constant tensor:
#      x y z
#    x 3.224800 0.000000 0.000000 
#    y 0.000000 3.280470 0.000000 
#    z 0.000000 0.000000 3.105980 
# 
# 
# High freq. dielectric constant tensor:
#      x y z
#    x 1.652320 0.000000 0.000000 
#    y 0.000000 1.651770 0.000000 
#    z 0.000000 0.000000 1.645540 
# 
# From -- ./inp_files/6133.got.cif
#   From: 2010.03.12/outbox.cif.g09.slc.cpg/sg55_4_cif.got.tgz:6133.got - 2010.04.16 15:19:21.
