data_PCOD8225723
_publ_section_title
;
Structure prediction by ZEFSAII (Michael W. Deem and Ramdas Pophale) SiO2 
 PCOD8225723
Probable space group: P B A M
;
_chemical_formula_sum "Si O2"
_cell_formula_units_Z 48
_cell_length_a 10.295772
_cell_length_b 30.462416
_cell_length_c 7.781780
_cell_angle_alpha 90.000000
_cell_angle_beta 90.000000
_cell_angle_gamma 90.000000
_cell_volume 2440.631487
_symmetry_space_group_name_H-M "P B A M"
_symmetry_group_IT_number 55
_symmetry_cell_setting 'orthorhombic'
loop_
_space_group_symop_operation_xyz
x,y,z
-x,-y,z
1/2+x,1/2-y,-z
1/2-x,1/2+y,-z
-x,-y,-z
x,y,-z
1/2-x,1/2+y,z
1/2+x,1/2-y,z
loop_
_atom_site_type_symbol
_atom_site_label
_atom_site_fract_x
_atom_site_fract_y
_atom_site_fract_z
Si Si1 0.392926 0.035903 0.804235
Si Si2 0.938332 0.069747 0.500000
Si Si3 0.446772 0.882568 0.704049
Si Si4 0.162659 0.875470 0.802712
Si Si5 0.297408 0.517842 0.500000
Si Si6 0.211204 0.778165 0.193765
Si Si7 0.511209 0.216666 0.305725
O O1 0.448607 0.084631 0.782137
O O2 0.275513 0.029942 0.674361
O O3 0.500000 0.000000 0.755299
O O4 0.343885 0.029637 0.000000
O O5 0.930745 0.098483 0.673539
O O6 0.074561 0.046318 0.500000
O O7 0.823523 0.034024 0.500000
O O8 0.435809 0.887393 0.500000
O O9 0.308467 0.894087 0.787758
O O10 0.488954 0.833556 0.758240
O O11 0.159503 0.824967 0.737418
O O12 0.113655 0.880817 0.000000
O O13 0.342756 0.763307 0.291628
O O14 0.095862 0.743009 0.198855
O O15 0.256995 0.785010 0.000000
O O16 0.464157 0.220271 0.500000
#
# Coordination Sequence:
#
# PCOD8225723 Si02
#       7
#     8   4   8   8   4   8   8
#     4  11  23  39  63  92 121 154 196 248 302 357
#     4  11  24  42  64  83 119 162 197 242 297 350
#     4  10  19  36  62  89 118 152 195 247 301 352
#     4  10  21  38  63  90 116 155 204 244 288 358
#     4  11  25  42  60  89 122 157 193 246 300 355
#     4  10  21  38  59  86 121 157 201 250 299 357
#     4  10  21  36  59  87 117 157 200 246 298 358
#
# _framework density 19.66704
#
# number of rings (size 3 to 8) (size 9 to 14) (size 15 to 20)
#    0.000    1.667    1.667    2.750    2.333    4.667 
#    3.000    1.667    0.000    0.000    0.000    0.000 
#    0.000    0.000    0.000    0.000    0.000    0.000 
#
# Total GULP energy -595292.751645 kJ/mol
# GULP energy per Si atom -12401.932326 kJ/mol
# Density = 1.962228 g / cm^3
# Si number density = 19.667040 Si / 1000 Ang^3
#
#
#
# Elastic Constant Matrix: (Units=GPa)
#
#
# Indices 1 2 3 4 5 6 
#
# 1 79.2625 51.0954 28.4447 0.0000 0.0000 0.0000
# 2 51.0954 93.6789 28.9317 0.0000 0.0000 0.0000
# 3 28.4447 28.9317 92.9402 0.0000 0.0000 0.0000
# 4 0.0000 0.0000 0.0000 28.7283 0.0000 0.0000
# 5 0.0000 0.0000 0.0000 0.0000 18.8407 0.0000
# 6 0.0000 0.0000 0.0000 0.0000 0.0000 32.4704
#
#
#
# Elastic Compliance Matrix: (Units=1/GPa)
#
#
# Indices 1 2 3 4 5 6 
#
# 1 0.020208 -0.010081 -0.003047 0.000000 0.000000 0.000000
# 2 -0.010081 0.016840 -0.002157 0.000000 0.000000 0.000000
# 3 -0.003047 -0.002157 0.012363 0.000000 0.000000 0.000000
# 4 0.000000 0.000000 0.000000 0.034809 0.000000 0.000000
# 5 0.000000 0.000000 0.000000 0.000000 0.053077 0.000000
# 6 0.000000 0.000000 0.000000 0.000000 0.000000 0.030797
#
#
# Mechanical properties :
#
#
# Convention : Reuss Voigt Hill
#
# Bulk Modulus (GPa) = 53.07250 53.64725 53.35987
# Shear Modulus (GPa) = 24.39689 26.50186 25.44937
#
# Velocity S-wave (km/s) = 3.52589 3.67485 3.60114
# Velocity P-wave (km/s) = 6.60454 6.73372 6.66944
#
# Compressibility (1/GPa) = 0.01884215
#
# Stress axis : x y z
#
# Youngs Moduli (GPa) = 49.48416 59.38406 80.88412
#
# Poissons Ratio (x) = 0.59868 0.24642
# Poissons Ratio (y) = 0.49887 0.17443
# Poissons Ratio (z) = 0.15076 0.12807
#
# Static dielectric constant tensor:
#      x y z
#    x 3.304150 0.000000 0.000000 
#    y 0.000000 3.712540 0.000000 
#    z 0.000000 0.000000 3.632340 
# 
# 
# High freq. dielectric constant tensor:
#      x y z
#    x 1.745740 0.000000 0.000000 
#    y 0.000000 1.770980 0.000000 
#    z 0.000000 0.000000 1.781000 
# 
# From -- ./inp_files/3007.got.cif
#   From: 2010.03.12/outbox.cif.g09.slc.cpg/sg55_2_cif.got.tgz:3007.got - 2010.04.16 15:19:21.
