data_PCOD8225751
_publ_section_title
;
Structure prediction by ZEFSAII (Michael W. Deem and Ramdas Pophale) SiO2 
 PCOD8225751
Probable space group: P B A M
;
_chemical_formula_sum "Si O2"
_cell_formula_units_Z 64
_cell_length_a 32.535485
_cell_length_b 10.304475
_cell_length_c 8.845141
_cell_angle_alpha 90.000000
_cell_angle_beta 90.000000
_cell_angle_gamma 90.000000
_cell_volume 2965.431629
_symmetry_space_group_name_H-M "P B A M"
_symmetry_group_IT_number 55
_symmetry_cell_setting 'orthorhombic'
loop_
_space_group_symop_operation_xyz
x,y,z
-x,-y,z
1/2+x,1/2-y,-z
1/2-x,1/2+y,-z
-x,-y,-z
x,y,-z
1/2-x,1/2+y,z
1/2+x,1/2-y,z
loop_
_atom_site_type_symbol
_atom_site_label
_atom_site_fract_x
_atom_site_fract_y
_atom_site_fract_z
Si Si1 0.219692 0.890065 0.820620
Si Si2 0.785684 0.817088 0.179896
Si Si3 0.575280 0.470885 0.330822
Si Si4 0.629194 0.679540 0.821686
Si Si5 0.438115 0.175467 0.322844
Si Si6 0.131793 0.271948 0.333159
Si Si7 0.493037 0.672341 0.174214
Si Si8 0.434305 0.917737 0.172517
O O1 0.253991 0.791030 0.756608
O O2 0.175834 0.836443 0.764793
O O3 0.226930 0.038113 0.762288
O O4 0.220925 0.890866 0.000000
O O5 0.830546 0.782373 0.237908
O O6 0.786865 0.815412 0.000000
O O7 0.569475 0.533080 0.500000
O O8 0.604936 0.550591 0.222330
O O9 0.596328 0.333043 0.350637
O O10 0.531373 0.450281 0.246204
O O11 0.608610 0.800421 0.733612
O O12 0.626756 0.703286 0.000000
O O13 0.440710 0.162188 0.500000
O O14 0.464822 0.300238 0.266652
O O15 0.454901 0.043038 0.250462
O O16 0.146823 0.315627 0.500000
O O17 0.110246 0.391835 0.247853
O O18 0.465546 0.800159 0.190276
O O19 0.503446 0.642673 0.000000
O O20 0.425905 0.952038 0.000000
#
# Coordination Sequence:
#
# PCOD8225751 Si02
#       8
#     8   8   8   8   8   8   8   8
#     4   9  20  36  61  90 120 155 204 256 306 361
#     4  10  19  37  61  89 119 157 202 252 303 362
#     4  10  20  36  59  86 117 153 196 245 300 356
#     4  11  22  39  60  84 115 157 204 249 300 360
#     4  12  25  39  56  84 122 159 196 246 306 362
#     4  10  20  35  58  89 119 153 194 239 295 357
#     4  10  21  38  61  88 116 153 202 250 297 354
#     4  10  21  38  61  87 117 157 201 247 294 353
#
# _framework density 21.582018999999999
#
# number of rings (size 3 to 8) (size 9 to 14) (size 15 to 20)
#    0.000    1.750    1.250    3.375    0.000    5.500 
#    0.000    6.875    0.000    0.000    0.000    0.000 
#    0.000    0.000    0.000    0.000    0.000    0.000 
#
# Total GULP energy -793652.445007 kJ/mol
# GULP energy per Si atom -12400.819453 kJ/mol
# Density = 2.153290 g / cm^3
# Si number density = 21.582019 Si / 1000 Ang^3
#
#
#
# Elastic Constant Matrix: (Units=GPa)
#
#
# Indices 1 2 3 4 5 6 
#
# 1 96.1131 1.5564 20.6914 0.0000 0.0000 0.0000
# 2 1.5564 35.1715 5.5033 0.0000 0.0000 0.0000
# 3 20.6914 5.5033 82.4738 0.0000 0.0000 0.0000
# 4 0.0000 0.0000 0.0000 23.5942 0.0000 0.0000
# 5 0.0000 0.0000 0.0000 0.0000 20.3655 0.0000
# 6 0.0000 0.0000 0.0000 0.0000 0.0000 30.3726
#
#
#
# Elastic Compliance Matrix: (Units=1/GPa)
#
#
# Indices 1 2 3 4 5 6 
#
# 1 0.010999 -0.000056 -0.002756 0.000000 0.000000 0.000000
# 2 -0.000056 0.028732 -0.001903 0.000000 0.000000 0.000000
# 3 -0.002756 -0.001903 0.012943 0.000000 0.000000 0.000000
# 4 0.000000 0.000000 0.000000 0.042383 0.000000 0.000000
# 5 0.000000 0.000000 0.000000 0.000000 0.049103 0.000000
# 6 0.000000 0.000000 0.000000 0.000000 0.000000 0.032924
#
#
# Mechanical properties :
#
#
# Convention : Reuss Voigt Hill
#
# Bulk Modulus (GPa) = 23.12387 29.91784 26.52085
# Shear Modulus (GPa) = 24.88442 27.26693 26.07567
#
# Velocity S-wave (km/s) = 3.39929 3.55830 3.47971
# Velocity P-wave (km/s) = 5.11318 5.54748 5.33475
#
# Compressibility (1/GPa) = 0.04324536
#
# Stress axis : x y z
#
# Youngs Moduli (GPa) = 90.92106 34.80390 77.25931
#
# Poissons Ratio (x) = 0.00193 0.21290
# Poissons Ratio (y) = 0.00505 0.14705
# Poissons Ratio (z) = 0.25055 0.06624
#
# Static dielectric constant tensor:
#      x y z
#    x 3.985930 0.000000 0.000000 
#    y 0.000000 4.113050 0.000000 
#    z 0.000000 0.000000 3.847190 
# 
# 
# High freq. dielectric constant tensor:
#      x y z
#    x 1.846350 0.000000 0.000000 
#    y 0.000000 1.860560 0.000000 
#    z 0.000000 0.000000 1.837740 
# 
# From -- ./inp_files/4498.got.cif
#   From: 2010.03.12/outbox.cif.g09.slc.cpg/sg55_3_cif.got.tgz:4498.got - 2010.04.16 15:19:21.
