data_PCOD8225275
_publ_section_title
;
Structure prediction by ZEFSAII (Michael W. Deem and Ramdas Pophale) SiO2 
 PCOD8225275
Probable space group: P B A M
;
_chemical_formula_sum "Si O2"
_cell_formula_units_Z 64
_cell_length_a 17.325140
_cell_length_b 10.925722
_cell_length_c 18.305239
_cell_angle_alpha 90.000000
_cell_angle_beta 90.000000
_cell_angle_gamma 90.000000
_cell_volume 3464.992526
_symmetry_space_group_name_H-M "P B A M"
_symmetry_group_IT_number 55
_symmetry_cell_setting 'orthorhombic'
loop_
_space_group_symop_operation_xyz
x,y,z
-x,-y,z
1/2+x,1/2-y,-z
1/2-x,1/2+y,-z
-x,-y,-z
x,y,-z
1/2-x,1/2+y,z
1/2+x,1/2-y,z
loop_
_atom_site_type_symbol
_atom_site_label
_atom_site_fract_x
_atom_site_fract_y
_atom_site_fract_z
Si Si1 0.341999 0.113467 0.287235
Si Si2 0.339743 0.619538 0.290635
Si Si3 0.457865 0.129994 0.584615
Si Si4 0.687827 0.702594 0.831120
Si Si5 0.049899 0.121816 0.582457
Si Si6 0.909016 0.989412 0.148173
Si Si7 0.840247 0.629365 0.217799
Si Si8 0.170214 0.235371 0.916639
O O1 0.251022 0.097715 0.298454
O O2 0.382387 0.139556 0.364342
O O3 0.359508 0.216586 0.227006
O O4 0.378383 0.990425 0.251975
O O5 0.374798 0.597542 0.369767
O O6 0.381495 0.533999 0.231021
O O7 0.360487 0.757772 0.269437
O O8 0.431367 0.136010 0.500000
O O9 0.508269 0.250193 0.604236
O O10 0.500000 0.000000 0.599663
O O11 0.626806 0.620473 0.875470
O O12 0.746785 0.614368 0.786074
O O13 0.741325 0.784439 0.886483
O O14 0.079085 0.133442 0.500000
O O15 0.000000 0.000000 0.593127
O O16 0.876797 0.890179 0.091290
O O17 0.000000 0.000000 0.142480
O O18 0.869840 0.660066 0.134600
O O19 0.170478 0.279172 0.000000
#
# Coordination Sequence:
#
# PCOD8225275 Si02
#       8
#     8   8   8   8   8   8   8   8
#     4  11  19  35  59  81 112 146 202 242 282 350
#     4  10  19  33  56  78 112 149 188 241 294 341
#     4  10  23  40  56  82 118 156 195 241 303 361
#     4   9  19  35  53  86 114 150 192 239 284 354
#     4  10  22  37  53  80 115 150 191 237 299 362
#     4  11  21  35  57  90 122 148 194 244 300 349
#     4   8  17  34  53  81 108 141 193 240 276 346
#     4   9  19  37  60  82 116 160 190 234 294 353
#
# _framework density 18.470457
#
# number of rings (size 3 to 8) (size 9 to 14) (size 15 to 20)
#    0.750    1.500    2.500    1.125    3.500    1.250 
#    0.000    0.000    0.000    5.250    0.000    0.875 
#    0.000    0.000    0.000    0.000    0.000    0.000 
#
# Total GULP energy -792857.881162 kJ/mol
# GULP energy per Si atom -12388.404393 kJ/mol
# Density = 1.842842 g / cm^3
# Si number density = 18.470457 Si / 1000 Ang^3
#
#
#
# Elastic Constant Matrix: (Units=GPa)
#
#
# Indices 1 2 3 4 5 6 
#
# 1 73.9603 27.0677 34.2061 0.0000 0.0000 0.0000
# 2 27.0677 92.3562 21.8541 0.0000 0.0000 0.0000
# 3 34.2061 21.8541 111.1711 0.0000 0.0000 0.0000
# 4 0.0000 0.0000 0.0000 14.7753 0.0000 0.0000
# 5 0.0000 0.0000 0.0000 0.0000 19.3959 0.0000
# 6 0.0000 0.0000 0.0000 0.0000 0.0000 22.2787
#
#
#
# Elastic Compliance Matrix: (Units=1/GPa)
#
#
# Indices 1 2 3 4 5 6 
#
# 1 0.017025 -0.003933 -0.004465 0.000000 0.000000 0.000000
# 2 -0.003933 0.012265 -0.001201 0.000000 0.000000 0.000000
# 3 -0.004465 -0.001201 0.010605 0.000000 0.000000 0.000000
# 4 0.000000 0.000000 0.000000 0.067680 0.000000 0.000000
# 5 0.000000 0.000000 0.000000 0.000000 0.051557 0.000000
# 6 0.000000 0.000000 0.000000 0.000000 0.000000 0.044886
#
#
# Mechanical properties :
#
#
# Convention : Reuss Voigt Hill
#
# Bulk Modulus (GPa) = 48.31741 49.30482 48.81112
# Shear Modulus (GPa) = 21.72815 24.24729 22.98772
#
# Velocity S-wave (km/s) = 3.43355 3.62713 3.53167
# Velocity P-wave (km/s) = 6.47573 6.65532 6.56614
#
# Compressibility (1/GPa) = 0.02069647
#
# Stress axis : x y z
#
# Youngs Moduli (GPa) = 58.73580 81.53613 94.29398
#
# Poissons Ratio (x) = 0.32069 0.42105
# Poissons Ratio (y) = 0.23102 0.11323
# Poissons Ratio (z) = 0.26228 0.09791
#
# Static dielectric constant tensor:
#      x y z
#    x 3.074260 0.000000 0.000000 
#    y 0.000000 3.477780 0.000000 
#    z 0.000000 0.000000 3.269410 
# 
# 
# High freq. dielectric constant tensor:
#      x y z
#    x 1.690040 0.000000 0.000000 
#    y 0.000000 1.723810 0.000000 
#    z 0.000000 0.000000 1.707640 
# 
# From -- ./inp_files/21837.got.cif
#   From: 2010.03.12/outbox.cif.g09.slc.cpg/sg55_11_cif.got.tgz:21837.got - 2010.04.16 15:19:21.
