data_PCOD8225419
_publ_section_title
;
Structure prediction by ZEFSAII (Michael W. Deem and Ramdas Pophale) SiO2 
 PCOD8225419
Probable space group: P B A M
;
_chemical_formula_sum "Si O2"
_cell_formula_units_Z 64
_cell_length_a 14.961047
_cell_length_b 25.038989
_cell_length_c 9.085769
_cell_angle_alpha 90.000000
_cell_angle_beta 90.000000
_cell_angle_gamma 90.000000
_cell_volume 3403.615303
_symmetry_space_group_name_H-M "P B A M"
_symmetry_group_IT_number 55
_symmetry_cell_setting 'orthorhombic'
loop_
_space_group_symop_operation_xyz
x,y,z
-x,-y,z
1/2+x,1/2-y,-z
1/2-x,1/2+y,-z
-x,-y,-z
x,y,-z
1/2-x,1/2+y,z
1/2+x,1/2-y,z
loop_
_atom_site_type_symbol
_atom_site_label
_atom_site_fract_x
_atom_site_fract_y
_atom_site_fract_z
Si Si1 0.028947 0.721465 0.333123
Si Si2 0.503043 0.895667 0.674683
Si Si3 0.814189 0.562188 0.671111
Si Si4 0.184845 0.143271 0.829777
Si Si5 0.763796 0.257100 0.669212
Si Si6 0.202174 0.849818 0.174541
Si Si7 0.994525 0.175300 0.832580
Si Si8 0.190828 0.561226 0.671379
O O1 0.996748 0.726052 0.500000
O O2 0.135007 0.723745 0.319104
O O3 0.982118 0.769744 0.249487
O O4 0.997445 0.664953 0.264983
O O5 0.509611 0.895395 0.500000
O O6 0.415439 0.927477 0.726983
O O7 0.592653 0.924221 0.734792
O O8 0.804950 0.577956 0.500000
O O9 0.745203 0.596037 0.766495
O O10 0.790580 0.500802 0.697918
O O11 0.205793 0.198475 0.749345
O O12 0.233278 0.093149 0.757488
O O13 0.077525 0.134647 0.813149
O O14 0.213160 0.147534 0.000000
O O15 0.733318 0.250978 0.500000
O O16 0.749186 0.200658 0.750444
O O17 0.097670 0.851321 0.223790
O O18 0.214208 0.846322 0.000000
O O19 0.980771 0.192207 0.000000
O O20 0.197777 0.576635 0.500000
#
# Coordination Sequence:
#
# PCOD8225419 Si02
#       8
#     8   8   8   8   8   8   8   8
#     4   9  17  31  53  81 111 142 178 218 268 330
#     4   9  17  33  55  83 113 145 183 223 273 331
#     4  10  21  36  59  85 110 146 190 234 277 328
#     4  11  22  36  56  83 112 146 189 232 279 330
#     4  10  19  34  56  82 112 144 181 225 275 331
#     4  10  21  39  58  79 112 149 186 231 281 330
#     4   9  21  38  54  76 111 149 185 226 277 332
#     4  10  20  38  59  82 113 148 188 231 276 329
#
# _framework density 18.803535
#
# number of rings (size 3 to 8) (size 9 to 14) (size 15 to 20)
#    0.000    2.250    1.250    1.500    1.750    4.000 
#    0.000    1.250    0.000    5.250    0.000    0.000 
#    0.000    0.000    0.000    0.000    0.000    0.000 
#
# Total GULP energy -793597.798788 kJ/mol
# GULP energy per Si atom -12399.965606 kJ/mol
# Density = 1.876074 g / cm^3
# Si number density = 18.803535 Si / 1000 Ang^3
#
#
#
# Elastic Constant Matrix: (Units=GPa)
#
#
# Indices 1 2 3 4 5 6 
#
# 1 80.7392 65.9756 44.5588 0.0000 0.0000 0.0000
# 2 65.9756 113.6248 54.0896 0.0000 0.0000 0.0000
# 3 44.5588 54.0896 83.4255 0.0000 0.0000 0.0000
# 4 0.0000 0.0000 0.0000 16.6938 0.0000 0.0000
# 5 0.0000 0.0000 0.0000 0.0000 24.5410 0.0000
# 6 0.0000 0.0000 0.0000 0.0000 0.0000 28.8966
#
#
#
# Elastic Compliance Matrix: (Units=1/GPa)
#
#
# Indices 1 2 3 4 5 6 
#
# 1 0.025360 -0.011972 -0.005783 0.000000 0.000000 0.000000
# 2 -0.011972 0.018382 -0.005523 0.000000 0.000000 0.000000
# 3 -0.005783 -0.005523 0.018657 0.000000 0.000000 0.000000
# 4 0.000000 0.000000 0.000000 0.059903 0.000000 0.000000
# 5 0.000000 0.000000 0.000000 0.000000 0.040748 0.000000
# 6 0.000000 0.000000 0.000000 0.000000 0.000000 0.034606
#
#
# Mechanical properties :
#
#
# Convention : Reuss Voigt Hill
#
# Bulk Modulus (GPa) = 63.12585 67.44861 65.28723
# Shear Modulus (GPa) = 20.04057 21.57063 20.80560
#
# Velocity S-wave (km/s) = 3.26818 3.39065 3.32998
# Velocity P-wave (km/s) = 6.91993 7.16077 7.04138
#
# Compressibility (1/GPa) = 0.01584137
#
# Stress axis : x y z
#
# Youngs Moduli (GPa) = 39.43176 54.40097 53.60016
#
# Poissons Ratio (x) = 0.65131 0.30996
# Poissons Ratio (y) = 0.47209 0.29606
# Poissons Ratio (z) = 0.22803 0.30048
#
# Static dielectric constant tensor:
#      x y z
#    x 3.542810 0.000000 0.000000 
#    y 0.000000 3.372470 0.000000 
#    z 0.000000 0.000000 3.353410 
# 
# 
# High freq. dielectric constant tensor:
#      x y z
#    x 1.735250 0.000000 0.000000 
#    y 0.000000 1.723390 0.000000 
#    z 0.000000 0.000000 1.715940 
# 
# From -- ./inp_files/6557.got.cif
#   From: 2010.03.12/outbox.cif.g09.slc.cpg/sg55_4_cif.got.tgz:6557.got - 2010.04.16 15:19:21.
