data_PCOD8225195
_publ_section_title
;
Structure prediction by ZEFSAII (Michael W. Deem and Ramdas Pophale) SiO2 
 PCOD8225195
Probable space group: P B A M
;
_chemical_formula_sum "Si O2"
_cell_formula_units_Z 40
_cell_length_a 18.471045
_cell_length_b 13.271627
_cell_length_c 9.053308
_cell_angle_alpha 90.000000
_cell_angle_beta 90.000000
_cell_angle_gamma 90.000000
_cell_volume 2219.335343
_symmetry_space_group_name_H-M "P B A M"
_symmetry_group_IT_number 55
_symmetry_cell_setting 'orthorhombic'
loop_
_space_group_symop_operation_xyz
x,y,z
-x,-y,z
1/2+x,1/2-y,-z
1/2-x,1/2+y,-z
-x,-y,-z
x,y,-z
1/2-x,1/2+y,z
1/2+x,1/2-y,z
loop_
_atom_site_type_symbol
_atom_site_label
_atom_site_fract_x
_atom_site_fract_y
_atom_site_fract_z
Si Si1 0.218214 0.398384 0.328080
Si Si2 0.994098 0.883508 0.828574
Si Si3 0.348952 0.304581 0.169980
Si Si4 0.645554 0.309405 0.327323
Si Si5 0.221363 0.596407 0.171908
O O1 0.222898 0.421871 0.500000
O O2 0.298659 0.374049 0.270871
O O3 0.164348 0.306636 0.292441
O O4 0.187418 0.496602 0.245060
O O5 0.934743 0.829257 0.729085
O O6 0.068572 0.827526 0.790665
O O7 0.973087 0.871972 0.000000
O O8 0.000000 0.000000 0.784088
O O9 0.334210 0.187150 0.203130
O O10 0.331509 0.330812 0.000000
O O11 0.651573 0.332814 0.500000
O O12 0.700600 0.382435 0.243083
O O13 0.233546 0.577661 0.000000
#
# Coordination Sequence:
#
# PCOD8225195 Si02
#       5
#     8   8   8   8   8
#     4  10  20  34  53  77 104 134 170 212 255 301
#     4  10  20  34  53  77 104 133 167 210 258 306
#     4   9  19  34  52  77 105 133 170 212 255 304
#     4  10  21  35  52  77 106 135 169 209 255 306
#     4  10  19  33  54  76 101 136 173 210 253 301
#
# _framework density 18.023415
#
# number of rings (size 3 to 8) (size 9 to 14) (size 15 to 20)
#    0.000    2.200    0.000    3.000    0.000    6.000 
#    0.000    1.000    0.000    6.000    0.000    0.000 
#    0.000    0.000    0.000    0.000    0.000    0.000 
#
# Total GULP energy -496186.597116 kJ/mol
# GULP energy per Si atom -12404.664928 kJ/mol
# Density = 1.798239 g / cm^3
# Si number density = 18.023415 Si / 1000 Ang^3
#
#
#
# Elastic Constant Matrix: (Units=GPa)
#
#
# Indices 1 2 3 4 5 6 
#
# 1 107.9038 56.1943 47.4443 0.0000 0.0000 0.0000
# 2 56.1943 126.7231 63.4049 0.0000 0.0000 0.0000
# 3 47.4443 63.4049 94.0884 0.0000 0.0000 0.0000
# 4 0.0000 0.0000 0.0000 33.9925 0.0000 0.0000
# 5 0.0000 0.0000 0.0000 0.0000 26.7839 0.0000
# 6 0.0000 0.0000 0.0000 0.0000 0.0000 19.3552
#
#
#
# Elastic Compliance Matrix: (Units=1/GPa)
#
#
# Indices 1 2 3 4 5 6 
#
# 1 0.012988 -0.003745 -0.004025 0.000000 0.000000 0.000000
# 2 -0.003745 0.012985 -0.006862 0.000000 0.000000 0.000000
# 3 -0.004025 -0.006862 0.017282 0.000000 0.000000 0.000000
# 4 0.000000 0.000000 0.000000 0.029418 0.000000 0.000000
# 5 0.000000 0.000000 0.000000 0.000000 0.037336 0.000000
# 6 0.000000 0.000000 0.000000 0.000000 0.000000 0.051666
#
#
# Mechanical properties :
#
#
# Convention : Reuss Voigt Hill
#
# Bulk Modulus (GPa) = 71.47835 73.64471 72.56153
# Shear Modulus (GPa) = 25.56182 26.80445 26.18314
#
# Velocity S-wave (km/s) = 3.77006 3.86061 3.81560
# Velocity P-wave (km/s) = 7.66132 7.79883 7.73038
#
# Compressibility (1/GPa) = 0.01399025
#
# Stress axis : x y z
#
# Youngs Moduli (GPa) = 76.99482 77.00900 57.86265
#
# Poissons Ratio (x) = 0.28843 0.23291
# Poissons Ratio (y) = 0.28838 0.39706
# Poissons Ratio (z) = 0.30992 0.52845
#
# Static dielectric constant tensor:
#      x y z
#    x 3.135290 0.000000 0.000000 
#    y 0.000000 3.483320 0.000000 
#    z 0.000000 0.000000 3.384710 
# 
# 
# High freq. dielectric constant tensor:
#      x y z
#    x 1.680080 0.000000 0.000000 
#    y 0.000000 1.708620 0.000000 
#    z 0.000000 0.000000 1.706550 
# 
# From -- ./inp_files/3613.got.cif
#   From: 2010.03.12/outbox.cif.g09.slc.cpg/sg55_2_cif.got.tgz:3613.got - 2010.04.16 15:19:21.
