data_PCOD8225169
_publ_section_title
;
Structure prediction by ZEFSAII (Michael W. Deem and Ramdas Pophale) SiO2 
 PCOD8225169
Probable space group: P B A M
;
_chemical_formula_sum "Si O2"
_cell_formula_units_Z 64
_cell_length_a 8.652274
_cell_length_b 30.833445
_cell_length_c 12.646687
_cell_angle_alpha 90.000000
_cell_angle_beta 90.000000
_cell_angle_gamma 90.000000
_cell_volume 3373.875753
_symmetry_space_group_name_H-M "P B A M"
_symmetry_group_IT_number 55
_symmetry_cell_setting 'orthorhombic'
loop_
_space_group_symop_operation_xyz
x,y,z
-x,-y,z
1/2+x,1/2-y,-z
1/2-x,1/2+y,-z
-x,-y,-z
x,y,-z
1/2-x,1/2+y,z
1/2+x,1/2-y,z
loop_
_atom_site_type_symbol
_atom_site_label
_atom_site_fract_x
_atom_site_fract_y
_atom_site_fract_z
Si Si1 0.478763 0.804067 0.623639
Si Si2 0.495417 0.311518 0.801486
Si Si3 0.245465 0.744171 0.730510
Si Si4 0.582446 0.453925 0.717305
Si Si5 0.148356 0.387924 0.293664
Si Si6 0.096836 0.898526 0.881350
Si Si7 0.589467 0.955796 0.620602
Si Si8 0.957629 0.126121 0.387832
O O1 0.479216 0.817675 0.500000
O O2 0.352907 0.767169 0.644209
O O3 0.644718 0.787087 0.658155
O O4 0.445566 0.843164 0.705375
O O5 0.652917 0.283974 0.814615
O O6 0.350804 0.278588 0.800242
O O7 0.471920 0.349297 0.888496
O O8 0.509756 0.336982 0.691482
O O9 0.500000 0.500000 0.703428
O O10 0.528169 0.431452 0.828208
O O11 0.765186 0.460859 0.700400
O O12 0.536812 0.420490 0.626109
O O13 0.241887 0.397504 0.184228
O O14 0.274717 0.383043 0.385730
O O15 0.027040 0.424649 0.318962
O O16 0.129805 0.914881 0.000000
O O17 0.632868 0.940257 0.500000
O O18 0.500000 0.000000 0.610192
O O19 0.005535 0.145193 0.500000
#
# Coordination Sequence:
#
# PCOD8225169 Si02
#       8
#     8   8   8   8   8   8   8   8
#     4  11  20  31  51  81 118 157 191 227 281 345
#     4   9  20  36  55  80 112 150 194 250 289 345
#     4  10  20  34  52  77 117 154 194 240 284 339
#     4  10  22  39  61  89 117 154 197 244 283 347
#     4  10  21  36  55  82 115 152 192 241 286 343
#     4  10  22  44  66  82 110 155 201 255 310 347
#     4  11  22  36  59  91 128 160 184 220 281 354
#     4  10  19  33  52  78 118 161 196 230 282 348
#
# _framework density 18.969280999999999
#
# number of rings (size 3 to 8) (size 9 to 14) (size 15 to 20)
#    0.000    2.125    2.500    3.375    3.500    4.750 
#    0.000    1.250    0.000    1.500    0.000    0.000 
#    0.000    0.000    0.000    0.000    0.000    0.000 
#
# Total GULP energy -792890.995418 kJ/mol
# GULP energy per Si atom -12388.921803 kJ/mol
# Density = 1.892611 g / cm^3
# Si number density = 18.969281 Si / 1000 Ang^3
#
#
#
# Elastic Constant Matrix: (Units=GPa)
#
#
# Indices 1 2 3 4 5 6 
#
# 1 85.6442 61.4316 27.6082 0.0000 0.0000 0.0000
# 2 61.4316 94.1562 18.5367 0.0000 0.0000 0.0000
# 3 27.6082 18.5367 102.8994 0.0000 0.0000 0.0000
# 4 0.0000 0.0000 0.0000 5.9012 0.0000 0.0000
# 5 0.0000 0.0000 0.0000 0.0000 12.7522 0.0000
# 6 0.0000 0.0000 0.0000 0.0000 0.0000 28.3704
#
#
#
# Elastic Compliance Matrix: (Units=1/GPa)
#
#
# Indices 1 2 3 4 5 6 
#
# 1 0.023181 -0.014411 -0.003624 0.000000 0.000000 0.000000
# 2 -0.014411 0.019970 0.000269 0.000000 0.000000 0.000000
# 3 -0.003624 0.000269 0.010642 0.000000 0.000000 0.000000
# 4 0.000000 0.000000 0.000000 0.169458 0.000000 0.000000
# 5 0.000000 0.000000 0.000000 0.000000 0.078418 0.000000
# 6 0.000000 0.000000 0.000000 0.000000 0.000000 0.035248
#
#
# Mechanical properties :
#
#
# Convention : Reuss Voigt Hill
#
# Bulk Modulus (GPa) = 54.75799 55.31698 55.03748
# Shear Modulus (GPa) = 13.20880 21.07963 17.14422
#
# Velocity S-wave (km/s) = 2.64166 3.33716 3.00957
# Velocity P-wave (km/s) = 6.18335 6.63879 6.41511
#
# Compressibility (1/GPa) = 0.01826218
#
# Stress axis : x y z
#
# Youngs Moduli (GPa) = 43.13841 50.07487 93.96759
#
# Poissons Ratio (x) = 0.72163 0.34049
# Poissons Ratio (y) = 0.62167 -0.02528
# Poissons Ratio (z) = 0.15631 -0.01347
#
# Static dielectric constant tensor:
#      x y z
#    x 3.593300 0.000000 0.000000 
#    y 0.000000 3.581740 0.000000 
#    z 0.000000 0.000000 3.196750 
# 
# 
# High freq. dielectric constant tensor:
#      x y z
#    x 1.742470 0.000000 0.000000 
#    y 0.000000 1.753800 0.000000 
#    z 0.000000 0.000000 1.695830 
# 
# From -- ./inp_files/17932.got.cif
#   From: 2010.03.12/outbox.cif.g09.slc.cpg/sg55_9_cif.got.tgz:17932.got - 2010.04.16 15:19:21.
