data_PCOD8225088
_publ_section_title
;
Structure prediction by ZEFSAII (Michael W. Deem and Ramdas Pophale) SiO2 
 PCOD8225088
Probable space group: P B A M
;
_chemical_formula_sum "Si O2"
_cell_formula_units_Z 28
_cell_length_a 21.989527
_cell_length_b 5.139826
_cell_length_c 13.950460
_cell_angle_alpha 90.000000
_cell_angle_beta 90.000000
_cell_angle_gamma 90.000000
_cell_volume 1576.713670
_symmetry_space_group_name_H-M "P B A M"
_symmetry_group_IT_number 55
_symmetry_cell_setting 'orthorhombic'
loop_
_space_group_symop_operation_xyz
x,y,z
-x,-y,z
1/2+x,1/2-y,-z
1/2-x,1/2+y,-z
-x,-y,-z
x,y,-z
1/2-x,1/2+y,z
1/2+x,1/2-y,z
loop_
_atom_site_type_symbol
_atom_site_label
_atom_site_fract_x
_atom_site_fract_y
_atom_site_fract_z
Si Si1 0.500000 0.500000 0.178938
Si Si2 0.880640 0.226293 0.224506
Si Si3 0.112628 0.253492 0.109236
Si Si4 0.710991 0.782554 0.390033
O O1 0.547202 0.670015 0.243360
O O2 0.460253 0.696295 0.112817
O O3 0.870212 0.484372 0.163479
O O4 0.849011 0.247438 0.326917
O O5 0.852798 0.986251 0.162311
O O6 0.134536 0.275919 0.000000
O O7 0.689731 0.764102 0.500000
O O8 0.759747 0.560130 0.366287
#
# Coordination Sequence:
#
# PCOD8225088 Si02
#       4
#     4   8   8   8
#     4   8  21  30  53  84 112 142 175 216 265 314
#     4  10  20  33  53  82 112 135 181 224 266 312
#     4  10  19  32  53  81 112 145 178 209 255 318
#     4  10  21  39  62  80  98 137 188 229 269 318
#
# _framework density 17.758458000000001
#
# number of rings (size 3 to 8) (size 9 to 14) (size 15 to 20)
#    1.714    0.571    0.000    3.857    0.000    1.143 
#    0.000    0.714    0.000   18.857    0.000    0.000 
#    0.000    0.000    0.000    0.000    0.000    0.000 
#
# Total GULP energy -346914.466591 kJ/mol
# GULP energy per Si atom -12389.802378 kJ/mol
# Density = 1.771804 g / cm^3
# Si number density = 17.758458 Si / 1000 Ang^3
#
#
#
# Elastic Constant Matrix: (Units=GPa)
#
#
# Indices 1 2 3 4 5 6 
#
# 1 29.7500 12.5016 44.2858 0.0000 0.0000 0.0000
# 2 12.5016 128.1928 44.5231 0.0000 0.0000 0.0000
# 3 44.2858 44.5231 114.6495 0.0000 0.0000 0.0000
# 4 0.0000 0.0000 0.0000 24.5235 0.0000 0.0000
# 5 0.0000 0.0000 0.0000 0.0000 28.0558 0.0000
# 6 0.0000 0.0000 0.0000 0.0000 0.0000 10.7450
#
#
#
# Elastic Compliance Matrix: (Units=1/GPa)
#
#
# Indices 1 2 3 4 5 6 
#
# 1 0.080355 0.003403 -0.032360 0.000000 0.000000 0.000000
# 2 0.003403 0.009161 -0.004872 0.000000 0.000000 0.000000
# 3 -0.032360 -0.004872 0.023114 0.000000 0.000000 0.000000
# 4 0.000000 0.000000 0.000000 0.040777 0.000000 0.000000
# 5 0.000000 0.000000 0.000000 0.000000 0.035643 0.000000
# 6 0.000000 0.000000 0.000000 0.000000 0.000000 0.093067
#
#
# Mechanical properties :
#
#
# Convention : Reuss Voigt Hill
#
# Bulk Modulus (GPa) = 22.23643 52.80147 37.51895
# Shear Modulus (GPa) = 13.70738 24.08365 18.89552
#
# Velocity S-wave (km/s) = 2.78128 3.68663 3.26548
# Velocity P-wave (km/s) = 4.78151 6.92238 5.94904
#
# Compressibility (1/GPa) = 0.04497124
#
# Stress axis : x y z
#
# Youngs Moduli (GPa) = 12.44473 109.15821 43.26360
#
# Poissons Ratio (x) = -0.37144 1.40003
# Poissons Ratio (y) = -0.04235 0.21078
# Poissons Ratio (z) = 0.40272 0.53182
#
# Static dielectric constant tensor:
#      x y z
#    x 2.929410 0.000000 0.000000 
#    y 0.000000 3.463430 0.000000 
#    z 0.000000 0.000000 3.103090 
# 
# 
# High freq. dielectric constant tensor:
#      x y z
#    x 1.653480 0.000000 0.000000 
#    y 0.000000 1.709270 0.000000 
#    z 0.000000 0.000000 1.669910 
# 
# From -- ./inp_files/11197.got.cif
#   From: 2010.03.12/outbox.cif.g09.slc.cpg/sg55_6_cif.got.tgz:11197.got - 2010.04.16 15:19:21.
