data_PCOD8225965
_publ_section_title
;
Structure prediction by ZEFSAII (Michael W. Deem and Ramdas Pophale) SiO2 
 PCOD8225965
Probable space group: P B A M
;
_chemical_formula_sum "Si O2"
_cell_formula_units_Z 64
_cell_length_a 14.215794
_cell_length_b 29.863808
_cell_length_c 8.425577
_cell_angle_alpha 90.000000
_cell_angle_beta 90.000000
_cell_angle_gamma 90.000000
_cell_volume 3576.975440
_symmetry_space_group_name_H-M "P B A M"
_symmetry_group_IT_number 55
_symmetry_cell_setting 'orthorhombic'
loop_
_space_group_symop_operation_xyz
x,y,z
-x,-y,z
1/2+x,1/2-y,-z
1/2-x,1/2+y,-z
-x,-y,-z
x,y,-z
1/2-x,1/2+y,z
1/2+x,1/2-y,z
loop_
_atom_site_type_symbol
_atom_site_label
_atom_site_fract_x
_atom_site_fract_y
_atom_site_fract_z
Si Si1 0.200127 0.864630 0.314905
Si Si2 0.402592 0.453669 0.316022
Si Si3 0.845087 0.862279 0.681945
Si Si4 0.767085 0.280999 0.815732
Si Si5 0.031611 0.730269 0.316580
Si Si6 0.852380 0.694167 0.187233
Si Si7 0.106738 0.047746 0.814554
Si Si8 0.979377 0.176089 0.180933
O O1 0.193469 0.853701 0.500000
O O2 0.176936 0.916574 0.279417
O O3 0.301865 0.851246 0.247402
O O4 0.128564 0.832878 0.220680
O O5 0.431604 0.453759 0.500000
O O6 0.496149 0.443231 0.215611
O O7 0.360306 0.501632 0.267429
O O8 0.814259 0.857646 0.500000
O O9 0.790024 0.826632 0.788563
O O10 0.828176 0.912849 0.742492
O O11 0.956346 0.853157 0.701907
O O12 0.706900 0.238109 0.757539
O O13 0.863217 0.286031 0.718235
O O14 0.791735 0.275815 0.000000
O O15 0.023657 0.743631 0.500000
O O16 0.954441 0.692858 0.271478
O O17 0.002054 0.771713 0.206242
O O18 0.865443 0.692856 0.000000
O O19 0.125256 0.044427 0.000000
O O20 0.003375 0.163402 0.000000
#
# Coordination Sequence:
#
# PCOD8225965 Si02
#       8
#     8   8   8   8   8   8   8   8
#     4  11  22  35  54  79 108 144 184 223 268 320
#     4  10  20  34  52  76 109 143 179 223 269 320
#     4  12  23  36  54  78 107 144 185 224 270 322
#     4  11  23  38  56  79 108 142 183 225 270 319
#     4  12  24  38  56  77 107 143 184 227 270 317
#     4  11  23  37  56  78 108 144 182 226 268 316
#     4  11  21  33  52  77 108 143 180 221 269 324
#     4  12  22  33  51  76 108 144 183 223 267 316
#
# _framework density 17.892209999999999
#
# number of rings (size 3 to 8) (size 9 to 14) (size 15 to 20)
#    0.000    0.750    3.750    6.750    0.000    2.500 
#    0.000    0.000    0.000    0.000    0.000    0.875 
#    0.000    7.000    0.000    0.000    0.000    0.000 
#
# Total GULP energy -793882.606250 kJ/mol
# GULP energy per Si atom -12404.415723 kJ/mol
# Density = 1.785149 g / cm^3
# Si number density = 17.892210 Si / 1000 Ang^3
#
#
#
# Elastic Constant Matrix: (Units=GPa)
#
#
# Indices 1 2 3 4 5 6 
#
# 1 58.1539 13.9700 16.1697 0.0000 0.0000 0.0000
# 2 13.9700 83.9398 15.6283 0.0000 0.0000 0.0000
# 3 16.1697 15.6283 86.8101 0.0000 0.0000 0.0000
# 4 0.0000 0.0000 0.0000 26.8151 0.0000 0.0000
# 5 0.0000 0.0000 0.0000 0.0000 26.9469 0.0000
# 6 0.0000 0.0000 0.0000 0.0000 0.0000 26.3313
#
#
#
# Elastic Compliance Matrix: (Units=1/GPa)
#
#
# Indices 1 2 3 4 5 6 
#
# 1 0.018645 -0.002542 -0.003015 0.000000 0.000000 0.000000
# 2 -0.002542 0.012673 -0.001808 0.000000 0.000000 0.000000
# 3 -0.003015 -0.001808 0.012407 0.000000 0.000000 0.000000
# 4 0.000000 0.000000 0.000000 0.037292 0.000000 0.000000
# 5 0.000000 0.000000 0.000000 0.000000 0.037110 0.000000
# 6 0.000000 0.000000 0.000000 0.000000 0.000000 0.037978
#
#
# Mechanical properties :
#
#
# Convention : Reuss Voigt Hill
#
# Bulk Modulus (GPa) = 34.48964 35.60443 35.04704
# Shear Modulus (GPa) = 27.70100 28.22773 27.96437
#
# Velocity S-wave (km/s) = 3.93901 3.97628 3.95769
# Velocity P-wave (km/s) = 6.32502 6.40497 6.36512
#
# Compressibility (1/GPa) = 0.02899421
#
# Stress axis : x y z
#
# Youngs Moduli (GPa) = 53.63448 78.90835 80.60261
#
# Poissons Ratio (x) = 0.20055 0.24304
# Poissons Ratio (y) = 0.13632 0.14574
# Poissons Ratio (z) = 0.16172 0.14267
#
# Static dielectric constant tensor:
#      x y z
#    x 3.105330 0.000000 0.000000 
#    y 0.000000 3.405600 0.000000 
#    z 0.000000 0.000000 3.326710 
# 
# 
# High freq. dielectric constant tensor:
#      x y z
#    x 1.658800 0.000000 0.000000 
#    y 0.000000 1.684100 0.000000 
#    z 0.000000 0.000000 1.710500 
# 
# From -- ./inp_files/6937.got.cif
#   From: 2010.03.12/outbox.cif.g09.slc.cpg/sg55_4_cif.got.tgz:6937.got - 2010.04.16 15:19:21.
