data_PCOD8225477
_publ_section_title
;
Structure prediction by ZEFSAII (Michael W. Deem and Ramdas Pophale) SiO2 
 PCOD8225477
Probable space group: P B A M
;
_chemical_formula_sum "Si O2"
_cell_formula_units_Z 64
_cell_length_a 12.922660
_cell_length_b 27.432463
_cell_length_c 9.158096
_cell_angle_alpha 90.000000
_cell_angle_beta 90.000000
_cell_angle_gamma 90.000000
_cell_volume 3246.548625
_symmetry_space_group_name_H-M "P B A M"
_symmetry_group_IT_number 55
_symmetry_cell_setting 'orthorhombic'
loop_
_space_group_symop_operation_xyz
x,y,z
-x,-y,z
1/2+x,1/2-y,-z
1/2-x,1/2+y,-z
-x,-y,-z
x,y,-z
1/2-x,1/2+y,z
1/2+x,1/2-y,z
loop_
_atom_site_type_symbol
_atom_site_label
_atom_site_fract_x
_atom_site_fract_y
_atom_site_fract_z
Si Si1 0.915605 0.171749 0.666292
Si Si2 0.380651 0.510016 0.838306
Si Si3 0.296838 0.423999 0.334012
Si Si4 0.773100 0.914408 0.333344
Si Si5 0.773772 0.715714 0.172099
Si Si6 0.349414 0.689968 0.668223
Si Si7 0.111689 0.380424 0.171383
Si Si8 0.541627 0.946939 0.669518
O O1 0.900204 0.189086 0.500000
O O2 0.888991 0.114754 0.682740
O O3 0.839072 0.203706 0.764365
O O4 0.033467 0.177923 0.717119
O O5 0.500000 0.500000 0.852252
O O6 0.336140 0.476391 0.711307
O O7 0.356713 0.564098 0.779794
O O8 0.331074 0.502413 0.000000
O O9 0.254606 0.425811 0.500000
O O10 0.205858 0.413547 0.222085
O O11 0.807708 0.924405 0.500000
O O12 0.773949 0.856246 0.306726
O O13 0.663186 0.940112 0.301153
O O14 0.809149 0.767387 0.230243
O O15 0.860345 0.675300 0.216816
O O16 0.761168 0.717852 0.000000
O O17 0.346454 0.706791 0.500000
O O18 0.009813 0.400973 0.248997
O O19 0.095806 0.385288 0.000000
O O20 0.514291 0.941956 0.500000
O O21 0.500000 0.000000 0.726360
#
# Coordination Sequence:
#
# PCOD8225477 Si02
#       8
#     8   8   8   8   8   8   8   8
#     4   9  19  36  58  82 108 143 187 233 282 334
#     4  11  23  36  53  81 115 148 181 220 272 333
#     4  10  19  34  58  83 108 141 183 229 274 323
#     4  10  22  39  58  83 114 148 192 240 281 333
#     4  10  22  38  57  84 115 148 189 237 290 349
#     4  10  21  38  59  83 112 147 190 239 288 336
#     4  10  21  37  57  82 112 146 187 233 282 338
#     4  10  21  37  58  85 117 154 194 236 286 343
#
# _framework density 19.713242999999999
#
# number of rings (size 3 to 8) (size 9 to 14) (size 15 to 20)
#    0.000    2.000    0.000    3.000    0.000    7.750 
#    0.000    3.750    0.000    0.000    0.000    0.000 
#    0.000    0.000    0.000    0.000    0.000    0.000 
#
# Total GULP energy -793526.813995 kJ/mol
# GULP energy per Si atom -12398.856469 kJ/mol
# Density = 1.966837 g / cm^3
# Si number density = 19.713243 Si / 1000 Ang^3
#
#
#
# Elastic Constant Matrix: (Units=GPa)
#
#
# Indices 1 2 3 4 5 6 
#
# 1 80.3497 42.0922 41.3958 0.0000 0.0000 0.0000
# 2 42.0922 104.0635 51.0789 0.0000 0.0000 0.0000
# 3 41.3958 51.0789 73.0644 0.0000 0.0000 0.0000
# 4 0.0000 0.0000 0.0000 29.6499 0.0000 0.0000
# 5 0.0000 0.0000 0.0000 0.0000 12.8491 0.0000
# 6 0.0000 0.0000 0.0000 0.0000 0.0000 29.7002
#
#
#
# Elastic Compliance Matrix: (Units=1/GPa)
#
#
# Indices 1 2 3 4 5 6 
#
# 1 0.018394 -0.003539 -0.007947 0.000000 0.000000 0.000000
# 2 -0.003539 0.015311 -0.008698 0.000000 0.000000 0.000000
# 3 -0.007947 -0.008698 0.024270 0.000000 0.000000 0.000000
# 4 0.000000 0.000000 0.000000 0.033727 0.000000 0.000000
# 5 0.000000 0.000000 0.000000 0.000000 0.077827 0.000000
# 6 0.000000 0.000000 0.000000 0.000000 0.000000 0.033670
#
#
# Mechanical properties :
#
#
# Convention : Reuss Voigt Hill
#
# Bulk Modulus (GPa) = 56.80133 58.51237 57.65685
# Shear Modulus (GPa) = 20.04522 22.63388 21.33955
#
# Velocity S-wave (km/s) = 3.19225 3.39212 3.29370
# Velocity P-wave (km/s) = 6.51641 6.71477 6.61634
#
# Compressibility (1/GPa) = 0.01760522
#
# Stress axis : x y z
#
# Youngs Moduli (GPa) = 54.36542 65.31407 41.20301
#
# Poissons Ratio (x) = 0.23117 0.32745
# Poissons Ratio (y) = 0.19242 0.35840
# Poissons Ratio (z) = 0.43205 0.56812
#
# Static dielectric constant tensor:
#      x y z
#    x 3.599580 0.000000 0.000000 
#    y 0.000000 3.656010 0.000000 
#    z 0.000000 0.000000 3.614240 
# 
# 
# High freq. dielectric constant tensor:
#      x y z
#    x 1.763670 0.000000 0.000000 
#    y 0.000000 1.770360 0.000000 
#    z 0.000000 0.000000 1.769760 
# 
# From -- ./inp_files/4700.got.cif
#   From: 2010.03.12/outbox.cif.g09.slc.cpg/sg55_3_cif.got.tgz:4700.got - 2010.04.16 15:19:21.
