data_PCOD8225711
_publ_section_title
;
Structure prediction by ZEFSAII (Michael W. Deem and Ramdas Pophale) SiO2 
 PCOD8225711
Probable space group: P B A M
;
_chemical_formula_sum "Si O2"
_cell_formula_units_Z 64
_cell_length_a 27.775437
_cell_length_b 12.853204
_cell_length_c 8.603336
_cell_angle_alpha 90.000000
_cell_angle_beta 90.000000
_cell_angle_gamma 90.000000
_cell_volume 3071.419842
_symmetry_space_group_name_H-M "P B A M"
_symmetry_group_IT_number 55
_symmetry_cell_setting 'orthorhombic'
loop_
_space_group_symop_operation_xyz
x,y,z
-x,-y,z
1/2+x,1/2-y,-z
1/2-x,1/2+y,-z
-x,-y,-z
x,y,-z
1/2-x,1/2+y,z
1/2+x,1/2-y,z
loop_
_atom_site_type_symbol
_atom_site_label
_atom_site_fract_x
_atom_site_fract_y
_atom_site_fract_z
Si Si1 0.799214 0.758986 0.315845
Si Si2 0.546541 0.770558 0.179668
Si Si3 0.862938 0.345642 0.320514
Si Si4 0.448659 0.448930 0.680559
Si Si5 0.298469 0.318859 0.179348
Si Si6 0.156307 0.024319 0.682150
Si Si7 0.970134 0.601107 0.683311
Si Si8 0.863631 0.575000 0.316281
O O1 0.802559 0.759806 0.500000
O O2 0.744655 0.738929 0.267920
O O3 0.829387 0.662907 0.244044
O O4 0.821542 0.867424 0.252400
O O5 0.579954 0.843781 0.288768
O O6 0.557295 0.650482 0.211543
O O7 0.492360 0.798337 0.230840
O O8 0.555651 0.794732 0.000000
O O9 0.851952 0.318058 0.500000
O O10 0.842724 0.258701 0.205216
O O11 0.842932 0.460177 0.276848
O O12 0.500000 0.500000 0.723625
O O13 0.448290 0.416208 0.500000
O O14 0.401425 0.520314 0.717458
O O15 0.312765 0.432052 0.241611
O O16 0.285387 0.329189 0.000000
O O17 0.165411 0.014902 0.500000
O O18 0.970255 0.620958 0.500000
O O19 0.916757 0.589688 0.752357
O O20 0.000000 0.500000 0.731254
O O21 0.866784 0.586555 0.500000
#
# Coordination Sequence:
#
# PCOD8225711 Si02
#       8
#     8   8   8   8   8   8   8   8
#     4  10  23  43  67  95 124 161 212 266 318 374
#     4  12  24  37  56  90 129 169 207 252 316 377
#     4  11  21  40  66  93 121 160 213 263 310 372
#     4  10  22  40  66  95 122 163 216 263 309 371
#     4  12  26  43  64  93 127 165 207 259 325 386
#     4  10  22  42  68  96 127 165 212 264 315 376
#     4  10  19  36  61  88 121 164 208 255 304 358
#     4   9  20  38  65  95 121 156 210 266 312 364
#
# _framework density 20.837268000000002
#
# number of rings (size 3 to 8) (size 9 to 14) (size 15 to 20)
#    0.000    1.500    2.500    2.625    3.500    1.000 
#    0.000    1.250    0.000    0.000    0.000    0.000 
#    0.000    0.000    0.000    0.000    0.000    0.000 
#
# Total GULP energy -793527.602406 kJ/mol
# GULP energy per Si atom -12398.868788 kJ/mol
# Density = 2.078984 g / cm^3
# Si number density = 20.837268 Si / 1000 Ang^3
#
#
#
# Elastic Constant Matrix: (Units=GPa)
#
#
# Indices 1 2 3 4 5 6 
#
# 1 93.6558 44.2228 16.1826 0.0000 0.0000 0.0000
# 2 44.2228 137.4757 33.8708 0.0000 0.0000 0.0000
# 3 16.1826 33.8708 41.8513 0.0000 0.0000 0.0000
# 4 0.0000 0.0000 0.0000 10.8473 0.0000 0.0000
# 5 0.0000 0.0000 0.0000 0.0000 11.0574 0.0000
# 6 0.0000 0.0000 0.0000 0.0000 0.0000 40.9835
#
#
#
# Elastic Compliance Matrix: (Units=1/GPa)
#
#
# Indices 1 2 3 4 5 6 
#
# 1 0.012723 -0.003598 -0.002008 0.000000 0.000000 0.000000
# 2 -0.003598 0.010103 -0.006785 0.000000 0.000000 0.000000
# 3 -0.002008 -0.006785 0.030162 0.000000 0.000000 0.000000
# 4 0.000000 0.000000 0.000000 0.092189 0.000000 0.000000
# 5 0.000000 0.000000 0.000000 0.000000 0.090437 0.000000
# 6 0.000000 0.000000 0.000000 0.000000 0.000000 0.024400
#
#
# Mechanical properties :
#
#
# Convention : Reuss Voigt Hill
#
# Bulk Modulus (GPa) = 35.45341 51.28170 43.36755
# Shear Modulus (GPa) = 16.99529 24.49141 20.74335
#
# Velocity S-wave (km/s) = 2.85900 3.43208 3.15857
# Velocity P-wave (km/s) = 5.28677 6.35370 5.84463
#
# Compressibility (1/GPa) = 0.02820603
#
# Stress axis : x y z
#
# Youngs Moduli (GPa) = 78.59606 98.97845 33.15437
#
# Poissons Ratio (x) = 0.35614 0.06656
# Poissons Ratio (y) = 0.28280 0.22496
# Poissons Ratio (z) = 0.15780 0.67161
#
# Static dielectric constant tensor:
#      x y z
#    x 3.960340 0.000000 0.000000 
#    y 0.000000 3.924480 0.000000 
#    z 0.000000 0.000000 3.358840 
# 
# 
# High freq. dielectric constant tensor:
#      x y z
#    x 1.825130 0.000000 0.000000 
#    y 0.000000 1.823160 0.000000 
#    z 0.000000 0.000000 1.784150 
# 
# From -- ./inp_files/10825.got.cif
#   From: 2010.03.12/outbox.cif.g09.slc.cpg/sg55_6_cif.got.tgz:10825.got - 2010.04.16 15:19:21.
