data_PCOD8225298
_publ_section_title
;
Structure prediction by ZEFSAII (Michael W. Deem and Ramdas Pophale) SiO2 
 PCOD8225298
Probable space group: P B A M
;
_chemical_formula_sum "Si O2"
_cell_formula_units_Z 64
_cell_length_a 28.259159
_cell_length_b 12.465159
_cell_length_c 9.196304
_cell_angle_alpha 90.000000
_cell_angle_beta 90.000000
_cell_angle_gamma 90.000000
_cell_volume 3239.443239
_symmetry_space_group_name_H-M "P B A M"
_symmetry_group_IT_number 55
_symmetry_cell_setting 'orthorhombic'
loop_
_space_group_symop_operation_xyz
x,y,z
-x,-y,z
1/2+x,1/2-y,-z
1/2-x,1/2+y,-z
-x,-y,-z
x,y,-z
1/2-x,1/2+y,z
1/2+x,1/2-y,z
loop_
_atom_site_type_symbol
_atom_site_label
_atom_site_fract_x
_atom_site_fract_y
_atom_site_fract_z
Si Si1 0.818973 0.355390 0.340344
Si Si2 0.920763 0.457462 0.660460
Si Si3 0.283190 0.957793 0.831247
Si Si4 0.313836 0.354605 0.834155
Si Si5 0.588048 0.550694 0.167941
Si Si6 0.035623 0.761959 0.331821
Si Si7 0.883215 0.646677 0.829789
Si Si8 0.429463 0.665949 0.331269
O O1 0.797418 0.335376 0.500000
O O2 0.868248 0.414490 0.351920
O O3 0.782938 0.428929 0.250709
O O4 0.828700 0.244296 0.263018
O O5 0.937462 0.497435 0.500000
O O6 0.954578 0.361360 0.716489
O O7 0.920468 0.557688 0.770848
O O8 0.236247 0.897991 0.777102
O O9 0.329127 0.885996 0.796259
O O10 0.280277 0.985551 0.000000
O O11 0.354942 0.443639 0.819063
O O12 0.309330 0.315577 0.000000
O O13 0.565237 0.658974 0.230169
O O14 0.569370 0.450951 0.259991
O O15 0.572630 0.537688 0.000000
O O16 0.051288 0.778485 0.500000
O O17 0.980518 0.781985 0.310491
O O18 0.891282 0.759376 0.749242
O O19 0.892448 0.661343 0.000000
O O20 0.415623 0.655057 0.500000
#
# Coordination Sequence:
#
# PCOD8225298 Si02
#       8
#     8   8   8   8   8   8   8   8
#     4  10  19  33  56  83 111 142 181 237 285 326
#     4   9  18  35  59  83 111 145 186 232 281 339
#     4   9  20  38  58  80 111 151 190 228 281 349
#     4  10  21  37  58  83 111 149 190 229 282 346
#     4  11  23  38  59  86 116 148 191 244 289 334
#     4  10  21  39  61  85 113 153 195 232 285 349
#     4  10  21  38  59  83 114 150 191 239 287 336
#     4  11  24  40  59  81 116 160 194 230 286 352
#
# _framework density 19.756482999999999
#
# number of rings (size 3 to 8) (size 9 to 14) (size 15 to 20)
#    0.000    2.000    1.250    1.875    0.000    6.500 
#    0.000    7.500    0.000    0.000    0.000    0.000 
#    0.000    0.000    0.000    0.000    0.000    0.000 
#
# Total GULP energy -793691.227596 kJ/mol
# GULP energy per Si atom -12401.425431 kJ/mol
# Density = 1.971152 g / cm^3
# Si number density = 19.756483 Si / 1000 Ang^3
#
#
#
# Elastic Constant Matrix: (Units=GPa)
#
#
# Indices 1 2 3 4 5 6 
#
# 1 54.0844 2.4890 22.8142 0.0000 0.0000 0.0000
# 2 2.4890 43.5169 26.8755 0.0000 0.0000 0.0000
# 3 22.8142 26.8755 94.7098 0.0000 0.0000 0.0000
# 4 0.0000 0.0000 0.0000 14.9551 0.0000 0.0000
# 5 0.0000 0.0000 0.0000 0.0000 18.8843 0.0000
# 6 0.0000 0.0000 0.0000 0.0000 0.0000 19.5538
#
#
#
# Elastic Compliance Matrix: (Units=1/GPa)
#
#
# Indices 1 2 3 4 5 6 
#
# 1 0.020770 0.002306 -0.005658 0.000000 0.000000 0.000000
# 2 0.002306 0.028119 -0.008535 0.000000 0.000000 0.000000
# 3 -0.005658 -0.008535 0.014343 0.000000 0.000000 0.000000
# 4 0.000000 0.000000 0.000000 0.066867 0.000000 0.000000
# 5 0.000000 0.000000 0.000000 0.000000 0.052954 0.000000
# 6 0.000000 0.000000 0.000000 0.000000 0.000000 0.051141
#
#
# Mechanical properties :
#
#
# Convention : Reuss Voigt Hill
#
# Bulk Modulus (GPa) = 25.34241 32.96319 29.15280
# Shear Modulus (GPa) = 18.44210 20.02081 19.23145
#
# Velocity S-wave (km/s) = 3.05859 3.18682 3.12336
# Velocity P-wave (km/s) = 5.03275 5.50109 5.27212
#
# Compressibility (1/GPa) = 0.03945954
#
# Stress axis : x y z
#
# Youngs Moduli (GPa) = 48.14636 35.56370 69.71927
#
# Poissons Ratio (x) = -0.08201 0.39444
# Poissons Ratio (y) = -0.11103 0.59503
# Poissons Ratio (z) = 0.27239 0.30352
#
# Static dielectric constant tensor:
#      x y z
#    x 3.594170 0.000000 0.000000 
#    y 0.000000 3.591200 0.000000 
#    z 0.000000 0.000000 3.803600 
# 
# 
# High freq. dielectric constant tensor:
#      x y z
#    x 1.765220 0.000000 0.000000 
#    y 0.000000 1.770480 0.000000 
#    z 0.000000 0.000000 1.774750 
# 
# From -- ./inp_files/4565.got.cif
#   From: 2010.03.12/outbox.cif.g09.slc.cpg/sg55_3_cif.got.tgz:4565.got - 2010.04.16 15:19:21.
