data_PCOD8225610
_publ_section_title
;
Structure prediction by ZEFSAII (Michael W. Deem and Ramdas Pophale) SiO2 
 PCOD8225610
Probable space group: P B A M
;
_chemical_formula_sum "Si O2"
_cell_formula_units_Z 64
_cell_length_a 14.204225
_cell_length_b 9.751048
_cell_length_c 21.551035
_cell_angle_alpha 90.000000
_cell_angle_beta 90.000000
_cell_angle_gamma 90.000000
_cell_volume 2984.949373
_symmetry_space_group_name_H-M "P B A M"
_symmetry_group_IT_number 55
_symmetry_cell_setting 'orthorhombic'
loop_
_space_group_symop_operation_xyz
x,y,z
-x,-y,z
1/2+x,1/2-y,-z
1/2-x,1/2+y,-z
-x,-y,-z
x,y,-z
1/2-x,1/2+y,z
1/2+x,1/2-y,z
loop_
_atom_site_type_symbol
_atom_site_label
_atom_site_fract_x
_atom_site_fract_y
_atom_site_fract_z
Si Si1 0.060106 0.368976 0.372943
Si Si2 0.723227 0.663146 0.341281
Si Si3 0.745968 0.936580 0.259272
Si Si4 0.950537 0.136728 0.571627
Si Si5 0.782806 0.936475 0.118183
Si Si6 0.844884 0.211381 0.071913
Si Si7 0.528728 0.352226 0.857025
Si Si8 0.436792 0.884095 0.763707
O O1 0.174962 0.375663 0.372376
O O2 0.022456 0.337838 0.303084
O O3 0.000000 0.500000 0.396531
O O4 0.030740 0.250274 0.419629
O O5 0.725053 0.797529 0.296905
O O6 0.686053 0.532304 0.300897
O O7 0.645627 0.682045 0.394249
O O8 0.784742 0.902451 0.191494
O O9 0.661337 0.042793 0.248118
O O10 0.923450 0.120170 0.500000
O O11 0.000000 0.000000 0.597604
O O12 0.700043 0.860463 0.082013
O O13 0.884867 0.881243 0.095252
O O14 0.775703 0.098007 0.102727
O O15 0.945156 0.216547 0.105013
O O16 0.858501 0.179442 0.000000
O O17 0.500000 0.500000 0.827609
O O18 0.566045 0.251512 0.804155
O O19 0.500000 0.000000 0.796807
#
# Coordination Sequence:
#
# PCOD8225610 Si02
#       8
#     8   8   8   8   8   8   8   8
#     4  10  22  40  63  92 122 163 214 261 320 389
#     4  11  22  41  65  94 132 169 207 268 332 385
#     4  11  22  38  65  97 127 161 208 259 326 396
#     4  11  25  42  61  90 127 169 218 264 314 385
#     4  11  22  40  62  89 123 157 201 260 314 372
#     4  11  24  41  62  87 119 164 210 252 309 376
#     4  10  23  38  59  89 120 159 206 253 309 377
#     4  10  19  35  59  89 124 155 196 258 319 377
#
# _framework density 21.440901
#
# number of rings (size 3 to 8) (size 9 to 14) (size 15 to 20)
#    0.000    1.375    0.000    7.125    0.000    7.000 
#    0.000    3.125    0.000    4.125    0.000    0.000 
#    0.000    0.000    0.000    0.000    0.000    0.000 
#
# Total GULP energy -793061.996505 kJ/mol
# GULP energy per Si atom -12391.593695 kJ/mol
# Density = 2.139210 g / cm^3
# Si number density = 21.440901 Si / 1000 Ang^3
#
#
#
# Elastic Constant Matrix: (Units=GPa)
#
#
# Indices 1 2 3 4 5 6 
#
# 1 92.8438 31.5423 22.0711 0.0000 0.0000 0.0000
# 2 31.5423 108.9750 34.9598 0.0000 0.0000 0.0000
# 3 22.0711 34.9598 68.3834 0.0000 0.0000 0.0000
# 4 0.0000 0.0000 0.0000 14.0660 0.0000 0.0000
# 5 0.0000 0.0000 0.0000 0.0000 10.3649 0.0000
# 6 0.0000 0.0000 0.0000 0.0000 0.0000 39.0215
#
#
#
# Elastic Compliance Matrix: (Units=1/GPa)
#
#
# Indices 1 2 3 4 5 6 
#
# 1 0.012313 -0.002738 -0.002574 0.000000 0.000000 0.000000
# 2 -0.002738 0.011586 -0.005039 0.000000 0.000000 0.000000
# 3 -0.002574 -0.005039 0.018030 0.000000 0.000000 0.000000
# 4 0.000000 0.000000 0.000000 0.071093 0.000000 0.000000
# 5 0.000000 0.000000 0.000000 0.000000 0.096479 0.000000
# 6 0.000000 0.000000 0.000000 0.000000 0.000000 0.025627
#
#
# Mechanical properties :
#
#
# Convention : Reuss Voigt Hill
#
# Bulk Modulus (GPa) = 47.11222 49.70540 48.40881
# Shear Modulus (GPa) = 19.01812 24.79908 21.90860
#
# Velocity S-wave (km/s) = 2.98149 3.40461 3.20005
# Velocity P-wave (km/s) = 5.82006 6.21997 6.02333
#
# Compressibility (1/GPa) = 0.02122592
#
# Stress axis : x y z
#
# Youngs Moduli (GPa) = 81.21519 86.31451 55.46162
#
# Poissons Ratio (x) = 0.23634 0.14277
# Poissons Ratio (y) = 0.22237 0.27948
# Poissons Ratio (z) = 0.20907 0.43495
#
# Static dielectric constant tensor:
#      x y z
#    x 3.993750 0.000000 0.000000 
#    y 0.000000 4.148070 0.000000 
#    z 0.000000 0.000000 3.764760 
# 
# 
# High freq. dielectric constant tensor:
#      x y z
#    x 1.846970 0.000000 0.000000 
#    y 0.000000 1.858000 0.000000 
#    z 0.000000 0.000000 1.818720 
# 
# From -- ./inp_files/23618.got.cif
#   From: 2010.03.12/outbox.cif.g09.slc.cpg/sg55_12_cif.got.tgz:23618.got - 2010.04.16 15:19:21.
