data_PCOD8225441
_publ_section_title
;
Structure prediction by ZEFSAII (Michael W. Deem and Ramdas Pophale) SiO2 
 PCOD8225441
Probable space group: P B A M
;
_chemical_formula_sum "Si O2"
_cell_formula_units_Z 64
_cell_length_a 19.978953
_cell_length_b 18.599227
_cell_length_c 9.238707
_cell_angle_alpha 90.000000
_cell_angle_beta 90.000000
_cell_angle_gamma 90.000000
_cell_volume 3433.039608
_symmetry_space_group_name_H-M "P B A M"
_symmetry_group_IT_number 55
_symmetry_cell_setting 'orthorhombic'
loop_
_space_group_symop_operation_xyz
x,y,z
-x,-y,z
1/2+x,1/2-y,-z
1/2-x,1/2+y,-z
-x,-y,-z
x,y,-z
1/2-x,1/2+y,z
1/2+x,1/2-y,z
loop_
_atom_site_type_symbol
_atom_site_label
_atom_site_fract_x
_atom_site_fract_y
_atom_site_fract_z
Si Si1 0.703760 0.050683 0.165871
Si Si2 0.154743 0.195701 0.667116
Si Si3 0.737795 0.684980 0.331800
Si Si4 0.409357 0.301430 0.666373
Si Si5 0.822931 0.951654 0.831034
Si Si6 0.948166 0.560620 0.831843
Si Si7 0.432126 0.463576 0.666238
Si Si8 0.529914 0.208852 0.327432
O O1 0.726213 0.117871 0.260084
O O2 0.626646 0.031786 0.199581
O O3 0.747521 0.979584 0.200148
O O4 0.713398 0.073913 0.000000
O O5 0.145892 0.174034 0.500000
O O6 0.220078 0.243457 0.692557
O O7 0.164065 0.124252 0.758200
O O8 0.090302 0.239460 0.722718
O O9 0.730874 0.664676 0.500000
O O10 0.664466 0.699547 0.261438
O O11 0.399988 0.281170 0.500000
O O12 0.442963 0.378998 0.685165
O O13 0.460536 0.243053 0.732880
O O14 0.871699 0.011654 0.766353
O O15 0.837257 0.943611 0.000000
O O16 0.961890 0.631309 0.740517
O O17 0.000000 0.500000 0.779943
O O18 0.958507 0.579078 0.000000
O O19 0.500000 0.500000 0.720326
O O20 0.416144 0.484215 0.500000
O O21 0.530921 0.201329 0.500000
#
# Coordination Sequence:
#
# PCOD8225441 Si02
#       8
#     8   8   8   8   8   8   8   8
#     4  10  21  38  58  81 114 151 190 237 287 337
#     4  10  21  36  56  82 112 148 191 236 283 340
#     4  10  19  35  59  83 107 145 192 233 280 339
#     4   9  18  32  54  83 114 143 178 229 283 333
#     4  11  23  36  54  83 116 150 189 235 284 338
#     4  10  22  40  61  84 114 154 196 236 286 345
#     4  10  19  34  57  81 110 151 188 225 280 336
#     4  10  20  37  59  85 116 148 188 237 285 337
#
# _framework density 18.642372000000002
#
# number of rings (size 3 to 8) (size 9 to 14) (size 15 to 20)
#    0.000    2.000    2.500    1.125    0.000    5.000 
#    0.000    1.250    0.000    0.000    0.000    0.000 
#    0.000    0.000    0.000    0.000    0.000    0.000 
#
# Total GULP energy -793640.984424 kJ/mol
# GULP energy per Si atom -12400.640382 kJ/mol
# Density = 1.859994 g / cm^3
# Si number density = 18.642372 Si / 1000 Ang^3
#
#
#
# Elastic Constant Matrix: (Units=GPa)
#
#
# Indices 1 2 3 4 5 6 
#
# 1 148.2498 55.7138 36.1349 0.0000 0.0000 0.0000
# 2 55.7138 106.1341 44.2520 0.0000 0.0000 0.0000
# 3 36.1349 44.2520 51.8627 0.0000 0.0000 0.0000
# 4 0.0000 0.0000 0.0000 11.2834 0.0000 0.0000
# 5 0.0000 0.0000 0.0000 0.0000 15.1407 0.0000
# 6 0.0000 0.0000 0.0000 0.0000 0.0000 34.1166
#
#
#
# Elastic Compliance Matrix: (Units=1/GPa)
#
#
# Indices 1 2 3 4 5 6 
#
# 1 0.008770 -0.003192 -0.003388 0.000000 0.000000 0.000000
# 2 -0.003192 0.015786 -0.011246 0.000000 0.000000 0.000000
# 3 -0.003388 -0.011246 0.031238 0.000000 0.000000 0.000000
# 4 0.000000 0.000000 0.000000 0.088626 0.000000 0.000000
# 5 0.000000 0.000000 0.000000 0.000000 0.066047 0.000000
# 6 0.000000 0.000000 0.000000 0.000000 0.000000 0.029311
#
#
# Mechanical properties :
#
#
# Convention : Reuss Voigt Hill
#
# Bulk Modulus (GPa) = 49.64216 64.27201 56.95708
# Shear Modulus (GPa) = 17.72144 23.45120 20.58632
#
# Velocity S-wave (km/s) = 3.08652 3.55061 3.32667
# Velocity P-wave (km/s) = 6.27604 7.16661 6.73606
#
# Compressibility (1/GPa) = 0.02014417
#
# Stress axis : x y z
#
# Youngs Moduli (GPa) = 114.01884 63.34563 32.01252
#
# Poissons Ratio (x) = 0.20217 0.10844
# Poissons Ratio (y) = 0.36389 0.36002
# Poissons Ratio (z) = 0.38625 0.71239
#
# Static dielectric constant tensor:
#      x y z
#    x 3.966670 0.000000 0.000000 
#    y 0.000000 3.319230 0.000000 
#    z 0.000000 0.000000 3.270360 
# 
# 
# High freq. dielectric constant tensor:
#      x y z
#    x 1.742750 0.000000 0.000000 
#    y 0.000000 1.723280 0.000000 
#    z 0.000000 0.000000 1.701660 
# 
# From -- ./inp_files/8952.got.cif
#   From: 2010.03.12/outbox.cif.g09.slc.cpg/sg55_5_cif.got.tgz:8952.got - 2010.04.16 15:19:21.
