data_PCOD8225689
_publ_section_title
;
Structure prediction by ZEFSAII (Michael W. Deem and Ramdas Pophale) SiO2 
 PCOD8225689
Probable space group: P B A M
;
_chemical_formula_sum "Si O2"
_cell_formula_units_Z 64
_cell_length_a 15.122091
_cell_length_b 24.640923
_cell_length_c 8.497903
_cell_angle_alpha 90.000000
_cell_angle_beta 90.000000
_cell_angle_gamma 90.000000
_cell_volume 3166.507990
_symmetry_space_group_name_H-M "P B A M"
_symmetry_group_IT_number 55
_symmetry_cell_setting 'orthorhombic'
loop_
_space_group_symop_operation_xyz
x,y,z
-x,-y,z
1/2+x,1/2-y,-z
1/2-x,1/2+y,-z
-x,-y,-z
x,y,-z
1/2-x,1/2+y,z
1/2+x,1/2-y,z
loop_
_atom_site_type_symbol
_atom_site_label
_atom_site_fract_x
_atom_site_fract_y
_atom_site_fract_z
Si Si1 0.798164 0.138465 0.815048
Si Si2 0.825851 0.433878 0.182655
Si Si3 0.835505 0.858855 0.186395
Si Si4 0.033246 0.726758 0.182752
Si Si5 0.768819 0.257447 0.815072
Si Si6 0.484728 0.340080 0.681937
Si Si7 0.501524 0.115289 0.682809
Si Si8 0.673381 0.049941 0.317008
O O1 0.758622 0.196012 0.750746
O O2 0.752465 0.091402 0.716490
O O3 0.903153 0.137661 0.784214
O O4 0.781144 0.130284 0.000000
O O5 0.737362 0.402906 0.236760
O O6 0.810280 0.497085 0.212736
O O7 0.908984 0.413108 0.280897
O O8 0.845276 0.422416 0.000000
O O9 0.804151 0.799299 0.249107
O O10 0.927428 0.873705 0.271250
O O11 0.849649 0.858715 0.000000
O O12 0.994884 0.777101 0.280420
O O13 0.983038 0.671364 0.224177
O O14 0.135580 0.718193 0.229029
O O15 0.020025 0.740543 0.000000
O O16 0.760665 0.253899 0.000000
O O17 0.462605 0.348386 0.500000
O O18 0.507064 0.128836 0.500000
O O19 0.579848 0.075249 0.734859
O O20 0.673241 0.034115 0.500000
#
# Coordination Sequence:
#
# PCOD8225689 Si02
#       8
#     8   8   8   8   8   8   8   8
#     4  10  21  40  64  89 117 158 207 253 301 357
#     4  11  23  41  65  90 119 159 211 256 295 356
#     4  10  20  38  61  89 120 156 203 251 297 353
#     4  10  19  36  59  86 120 160 202 245 291 351
#     4   8  16  33  57  85 115 149 192 244 295 343
#     4  11  23  38  58  90 127 161 196 244 308 369
#     4  11  23  38  58  89 127 163 197 244 307 365
#     4  11  25  42  60  86 124 163 201 253 311 363
#
# _framework density 20.211539999999999
#
# number of rings (size 3 to 8) (size 9 to 14) (size 15 to 20)
#    0.000    1.750    1.250    4.125    1.750    4.500 
#    0.000    1.250    0.000    3.750    0.000    0.000 
#    0.000    0.000    0.000    0.000    0.000    0.000 
#
# Total GULP energy -793737.878636 kJ/mol
# GULP energy per Si atom -12402.154354 kJ/mol
# Density = 2.016554 g / cm^3
# Si number density = 20.211540 Si / 1000 Ang^3
#
#
#
# Elastic Constant Matrix: (Units=GPa)
#
#
# Indices 1 2 3 4 5 6 
#
# 1 95.3130 46.3298 12.8411 0.0000 0.0000 0.0000
# 2 46.3298 83.9731 7.9648 0.0000 0.0000 0.0000
# 3 12.8411 7.9648 47.7691 0.0000 0.0000 0.0000
# 4 0.0000 0.0000 0.0000 28.7621 0.0000 0.0000
# 5 0.0000 0.0000 0.0000 0.0000 30.4300 0.0000
# 6 0.0000 0.0000 0.0000 0.0000 0.0000 17.5611
#
#
#
# Elastic Compliance Matrix: (Units=1/GPa)
#
#
# Indices 1 2 3 4 5 6 
#
# 1 0.014655 -0.007836 -0.002633 0.000000 0.000000 0.000000
# 2 -0.007836 0.016290 -0.000610 0.000000 0.000000 0.000000
# 3 -0.002633 -0.000610 0.021744 0.000000 0.000000 0.000000
# 4 0.000000 0.000000 0.000000 0.034768 0.000000 0.000000
# 5 0.000000 0.000000 0.000000 0.000000 0.032862 0.000000
# 6 0.000000 0.000000 0.000000 0.000000 0.000000 0.056944
#
#
# Mechanical properties :
#
#
# Convention : Reuss Voigt Hill
#
# Bulk Modulus (GPa) = 32.75335 40.14741 36.45038
# Shear Modulus (GPa) = 23.85528 26.01194 24.93361
#
# Velocity S-wave (km/s) = 3.43925 3.59135 3.51612
# Velocity P-wave (km/s) = 5.65789 6.09129 5.87858
#
# Compressibility (1/GPa) = 0.03053123
#
# Stress axis : x y z
#
# Youngs Moduli (GPa) = 68.23429 61.38862 45.99074
#
# Poissons Ratio (x) = 0.48104 0.12110
# Poissons Ratio (y) = 0.53468 0.02804
# Poissons Ratio (z) = 0.17966 0.03743
#
# Static dielectric constant tensor:
#      x y z
#    x 3.727950 0.000000 0.000000 
#    y 0.000000 3.791720 0.000000 
#    z 0.000000 0.000000 3.496850 
# 
# 
# High freq. dielectric constant tensor:
#      x y z
#    x 1.792880 0.000000 0.000000 
#    y 0.000000 1.782380 0.000000 
#    z 0.000000 0.000000 1.778510 
# 
# From -- ./inp_files/6660.got.cif
#   From: 2010.03.12/outbox.cif.g09.slc.cpg/sg55_4_cif.got.tgz:6660.got - 2010.04.16 15:19:21.
