data_PCOD8225393
_publ_section_title
;
Structure prediction by ZEFSAII (Michael W. Deem and Ramdas Pophale) SiO2 
 PCOD8225393
Probable space group: P B A M
;
_chemical_formula_sum "Si O2"
_cell_formula_units_Z 64
_cell_length_a 17.007003
_cell_length_b 22.064886
_cell_length_c 8.878702
_cell_angle_alpha 90.000000
_cell_angle_beta 90.000000
_cell_angle_gamma 90.000000
_cell_volume 3331.800247
_symmetry_space_group_name_H-M "P B A M"
_symmetry_group_IT_number 55
_symmetry_cell_setting 'orthorhombic'
loop_
_space_group_symop_operation_xyz
x,y,z
-x,-y,z
1/2+x,1/2-y,-z
1/2-x,1/2+y,-z
-x,-y,-z
x,y,-z
1/2-x,1/2+y,z
1/2+x,1/2-y,z
loop_
_atom_site_type_symbol
_atom_site_label
_atom_site_fract_x
_atom_site_fract_y
_atom_site_fract_z
Si Si1 0.693061 0.036154 0.820857
Si Si2 0.953495 0.188818 0.820304
Si Si3 0.272676 0.098303 0.178773
Si Si4 0.312343 0.373123 0.674440
Si Si5 0.126785 0.167275 0.175299
Si Si6 0.936640 0.612164 0.671369
Si Si7 0.182540 0.279126 0.665922
Si Si8 0.579527 0.826138 0.178117
O O1 0.767316 0.073228 0.758895
O O2 0.609657 0.058978 0.757699
O O3 0.703049 0.967563 0.761618
O O4 0.692162 0.041332 0.000000
O O5 0.896389 0.138592 0.749768
O O6 0.933684 0.257198 0.764327
O O7 0.039214 0.169076 0.755383
O O8 0.948455 0.185678 0.000000
O O9 0.185015 0.115245 0.240905
O O10 0.334794 0.149964 0.230102
O O11 0.270044 0.097422 0.000000
O O12 0.321280 0.391265 0.500000
O O13 0.265868 0.310436 0.693765
O O14 0.170303 0.230638 0.204131
O O15 0.116675 0.158305 0.000000
O O16 0.950935 0.591205 0.500000
O O17 0.885615 0.672181 0.678587
O O18 0.018701 0.626409 0.750438
O O19 0.180141 0.248674 0.500000
O O20 0.568134 0.829005 0.000000
#
# Coordination Sequence:
#
# PCOD8225393 Si02
#       8
#     8   8   8   8   8   8   8   8
#     4  10  20  37  58  77 103 145 190 229 271 320
#     4  10  20  33  55  87 113 140 179 222 272 331
#     4   9  20  36  55  79 109 142 181 232 277 319
#     4  10  21  36  55  79 108 143 180 227 274 322
#     4  10  19  34  56  81 109 139 177 224 274 324
#     4  10  20  34  53  80 113 146 179 223 272 323
#     4   9  18  32  50  75 106 139 174 212 269 328
#     4  10  19  34  55  84 115 144 183 225 273 331
#
# _framework density 19.208835000000001
#
# number of rings (size 3 to 8) (size 9 to 14) (size 15 to 20)
#    0.000    2.250    1.250    2.625    0.000    5.000 
#    0.000    6.250    0.000    3.750    0.000    0.000 
#    0.000    0.000    0.000    0.000    0.000    0.000 
#
# Total GULP energy -793388.089058 kJ/mol
# GULP energy per Si atom -12396.688892 kJ/mol
# Density = 1.916511 g / cm^3
# Si number density = 19.208835 Si / 1000 Ang^3
#
#
#
# Elastic Constant Matrix: (Units=GPa)
#
#
# Indices 1 2 3 4 5 6 
#
# 1 128.9387 40.5759 28.6050 0.0000 0.0000 0.0000
# 2 40.5759 55.1600 18.1328 0.0000 0.0000 0.0000
# 3 28.6050 18.1328 45.9653 0.0000 0.0000 0.0000
# 4 0.0000 0.0000 0.0000 10.1135 0.0000 0.0000
# 5 0.0000 0.0000 0.0000 0.0000 17.9277 0.0000
# 6 0.0000 0.0000 0.0000 0.0000 0.0000 19.5671
#
#
#
# Elastic Compliance Matrix: (Units=1/GPa)
#
#
# Indices 1 2 3 4 5 6 
#
# 1 0.010722 -0.006542 -0.004092 0.000000 0.000000 0.000000
# 2 -0.006542 0.024822 -0.005721 0.000000 0.000000 0.000000
# 3 -0.004092 -0.005721 0.026559 0.000000 0.000000 0.000000
# 4 0.000000 0.000000 0.000000 0.098878 0.000000 0.000000
# 5 0.000000 0.000000 0.000000 0.000000 0.055779 0.000000
# 6 0.000000 0.000000 0.000000 0.000000 0.000000 0.051106
#
#
# Mechanical properties :
#
#
# Convention : Reuss Voigt Hill
#
# Bulk Modulus (GPa) = 34.02104 44.96571 39.49338
# Shear Modulus (GPa) = 16.10960 19.03834 17.57397
#
# Velocity S-wave (km/s) = 2.89910 3.15163 3.02800
# Velocity P-wave (km/s) = 5.38107 6.05833 5.72972
#
# Compressibility (1/GPa) = 0.02939357
#
# Stress axis : x y z
#
# Youngs Moduli (GPa) = 93.26503 40.28669 37.65247
#
# Poissons Ratio (x) = 0.26356 0.15406
# Poissons Ratio (y) = 0.61015 0.21540
# Poissons Ratio (z) = 0.38162 0.23047
#
# Static dielectric constant tensor:
#      x y z
#    x 3.765980 0.000000 0.000000 
#    y 0.000000 3.466430 0.000000 
#    z 0.000000 0.000000 3.365070 
# 
# 
# High freq. dielectric constant tensor:
#      x y z
#    x 1.757780 0.000000 0.000000 
#    y 0.000000 1.729970 0.000000 
#    z 0.000000 0.000000 1.731550 
# 
# From -- ./inp_files/6691.got.cif
#   From: 2010.03.12/outbox.cif.g09.slc.cpg/sg55_4_cif.got.tgz:6691.got - 2010.04.16 15:19:21.
