data_PCOD8225659
_publ_section_title
;
Structure prediction by ZEFSAII (Michael W. Deem and Ramdas Pophale) SiO2 
 PCOD8225659
Probable space group: P B A M
;
_chemical_formula_sum "Si O2"
_cell_formula_units_Z 44
_cell_length_a 15.668382
_cell_length_b 5.025729
_cell_length_c 28.200509
_cell_angle_alpha 90.000000
_cell_angle_beta 90.000000
_cell_angle_gamma 90.000000
_cell_volume 2220.650260
_symmetry_space_group_name_H-M "P B A M"
_symmetry_group_IT_number 55
_symmetry_cell_setting 'orthorhombic'
loop_
_space_group_symop_operation_xyz
x,y,z
-x,-y,z
1/2+x,1/2-y,-z
1/2-x,1/2+y,-z
-x,-y,-z
x,y,-z
1/2-x,1/2+y,z
1/2+x,1/2-y,z
loop_
_atom_site_type_symbol
_atom_site_label
_atom_site_fract_x
_atom_site_fract_y
_atom_site_fract_z
Si Si1 0.691287 0.837235 0.286599
Si Si2 0.308157 0.194498 0.083254
Si Si3 0.560186 0.750785 0.000000
Si Si4 0.694494 0.635469 0.554893
Si Si5 0.557423 0.747389 0.631452
Si Si6 0.196193 0.781370 0.185884
O O1 0.767856 0.627268 0.292747
O O2 0.619245 0.809395 0.325351
O O3 0.646515 0.796460 0.234481
O O4 0.230723 0.401910 0.076023
O O5 0.350912 0.219542 0.135983
O O6 0.382117 0.250371 0.046449
O O7 0.500000 0.500000 0.000000
O O8 0.500000 0.000000 0.000000
O O9 0.668759 0.656920 0.500000
O O10 0.733750 0.351034 0.568202
O O11 0.608893 0.676028 0.584188
O O12 0.500000 0.500000 0.646724
O O13 0.500000 0.000000 0.619499
O O14 0.281029 0.593828 0.186675
#
# Coordination Sequence:
#
# PCOD8225659 Si02
#       6
#     8   8   4   8   8   8
#     4  10  19  36  58  78 104 141 180 217 257 309
#     4  10  19  36  58  78 100 136 181 219 257 309
#     4  12  24  36  50  78 112 140 170 212 268 318
#     4  10  21  39  61  81 103 139 184 222 260 312
#     4  12  24  36  53  82 115 143 173 215 266 315
#     4   8  16  30  54  80  98 126 177 225 255 295
#
# _framework density 19.814015000000001
#
# number of rings (size 3 to 8) (size 9 to 14) (size 15 to 20)
#    0.000    1.818    0.000    4.909    0.000    0.727 
#    0.000    1.818    0.000    0.000    0.000    0.000 
#    0.000    0.000    0.000    0.000    0.000    0.000 
#
# Total GULP energy -545490.468722 kJ/mol
# GULP energy per Si atom -12397.510653 kJ/mol
# Density = 1.976892 g / cm^3
# Si number density = 19.814015 Si / 1000 Ang^3
#
#
#
# Elastic Constant Matrix: (Units=GPa)
#
#
# Indices 1 2 3 4 5 6 
#
# 1 63.0216 6.5100 47.8828 0.0000 0.0000 0.0000
# 2 6.5100 80.1685 6.5661 0.0000 0.0000 0.0000
# 3 47.8828 6.5661 121.7633 0.0000 0.0000 0.0000
# 4 0.0000 0.0000 0.0000 26.3458 0.0000 0.0000
# 5 0.0000 0.0000 0.0000 0.0000 -9.4674 0.0000
# 6 0.0000 0.0000 0.0000 0.0000 0.0000 21.9769
#
#
#
# Elastic Compliance Matrix: (Units=1/GPa)
#
#
# Indices 1 2 3 4 5 6 
#
# 1 0.022728 -0.001119 -0.008877 0.000000 0.000000 0.000000
# 2 -0.001119 0.012584 -0.000239 0.000000 0.000000 0.000000
# 3 -0.008877 -0.000239 0.011716 0.000000 0.000000 0.000000
# 4 0.000000 0.000000 0.000000 0.037957 0.000000 0.000000
# 5 0.000000 0.000000 0.000000 0.000000 -0.105626 0.000000
# 6 0.000000 0.000000 0.000000 0.000000 0.000000 0.045502
#
#
# Mechanical properties :
#
#
# Convention : Reuss Voigt Hill
#
# Bulk Modulus (GPa) = 37.65150 42.98568 40.31859
# Shear Modulus (GPa) = 92.27768 21.37070 56.82419
#
# Velocity S-wave (km/s) = 6.83177 3.28771 5.36107
# Velocity P-wave (km/s) = 9.01523 6.01280 7.66251
#
# Compressibility (1/GPa) = 0.02655937
#
# Stress axis : x y z
#
# Youngs Moduli (GPa) = 43.99867 79.46534 85.34974
#
# Poissons Ratio (x) = 0.08888 0.75768
# Poissons Ratio (y) = 0.04921 0.02038
# Poissons Ratio (z) = 0.39059 0.01897
#
# Static dielectric constant tensor:
#      x y z
#    x 3.197360 0.000000 0.000000 
#    y 0.000000 3.889390 0.000000 
#    z 0.000000 0.000000 4.067180 
# 
# 
# High freq. dielectric constant tensor:
#      x y z
#    x 1.722770 0.000000 0.000000 
#    y 0.000000 1.799640 0.000000 
#    z 0.000000 0.000000 1.800440 
# 
# From -- ./inp_files/23788.got.cif
#   From: 2010.03.12/outbox.cif.g09.slc.cpg/sg55_12_cif.got.tgz:23788.got - 2010.04.16 15:19:21.
