data_PCOD8225060
_publ_section_title
;
Structure prediction by ZEFSAII (Michael W. Deem and Ramdas Pophale) SiO2 
 PCOD8225060
Probable space group: P B A M
;
_chemical_formula_sum "Si O2"
_cell_formula_units_Z 64
_cell_length_a 11.119009
_cell_length_b 22.666786
_cell_length_c 12.812503
_cell_angle_alpha 90.000000
_cell_angle_beta 90.000000
_cell_angle_gamma 90.000000
_cell_volume 3229.163287
_symmetry_space_group_name_H-M "P B A M"
_symmetry_group_IT_number 55
_symmetry_cell_setting 'orthorhombic'
loop_
_space_group_symop_operation_xyz
x,y,z
-x,-y,z
1/2+x,1/2-y,-z
1/2-x,1/2+y,-z
-x,-y,-z
x,y,-z
1/2-x,1/2+y,z
1/2+x,1/2-y,z
loop_
_atom_site_type_symbol
_atom_site_label
_atom_site_fract_x
_atom_site_fract_y
_atom_site_fract_z
Si Si1 0.458990 0.918210 0.124025
Si Si2 0.865177 0.009258 0.616654
Si Si3 0.173947 0.854560 0.613015
Si Si4 0.193728 0.520730 0.803573
Si Si5 0.656029 0.190748 0.218161
Si Si6 0.979221 0.796125 0.261068
Si Si7 0.340022 0.233717 0.884799
Si Si8 0.326697 0.627472 0.117371
O O1 0.566986 0.944118 0.195005
O O2 0.442507 0.850809 0.161773
O O3 0.336561 0.956633 0.145785
O O4 0.490314 0.921043 0.000000
O O5 0.852500 0.980345 0.500000
O O6 0.856453 0.078141 0.604560
O O7 0.756507 0.984825 0.689479
O O8 0.000000 0.000000 0.662994
O O9 0.218826 0.831329 0.500000
O O10 0.272130 0.849889 0.702257
O O11 0.052874 0.818331 0.640228
O O12 0.289869 0.558996 0.869928
O O13 0.621299 0.247878 0.290775
O O14 0.735783 0.216948 0.124712
O O15 0.053860 0.750595 0.190799
O O16 0.931762 0.853157 0.197312
O O17 0.289753 0.168229 0.860534
O O18 0.393291 0.235955 0.000000
O O19 0.374841 0.637318 0.000000
#
# Coordination Sequence:
#
# PCOD8225060 Si02
#       8
#     8   8   8   8   8   8   8   8
#     4  11  22  37  59  85 120 163 197 235 292 356
#     4  10  21  40  65  85 110 155 203 247 300 353
#     4  10  21  39  58  79 109 144 187 241 297 351
#     4  11  21  36  57  86 119 152 197 244 290 346
#     4  10  20  36  56  84 113 152 190 239 288 354
#     4  10  20  33  56  81 108 143 188 237 291 344
#     4   9  18  32  52  79 112 150 191 230 279 347
#     4  10  19  32  52  80 115 149 185 233 284 339
#
# _framework density 19.819375999999998
#
# number of rings (size 3 to 8) (size 9 to 14) (size 15 to 20)
#    0.000    1.875    1.250    3.750    0.000    3.000 
#    0.000    1.875    0.000   12.375    0.000    0.000 
#    0.000    0.000    0.000    0.000    0.000    0.000 
#
# Total GULP energy -792858.656257 kJ/mol
# GULP energy per Si atom -12388.416504 kJ/mol
# Density = 1.977427 g / cm^3
# Si number density = 19.819376 Si / 1000 Ang^3
#
#
#
# Elastic Constant Matrix: (Units=GPa)
#
#
# Indices 1 2 3 4 5 6 
#
# 1 58.0888 12.7897 32.3284 0.0000 0.0000 0.0000
# 2 12.7897 81.3726 27.1616 0.0000 0.0000 0.0000
# 3 32.3284 27.1616 94.4655 0.0000 0.0000 0.0000
# 4 0.0000 0.0000 0.0000 31.8303 0.0000 0.0000
# 5 0.0000 0.0000 0.0000 0.0000 20.2540 0.0000
# 6 0.0000 0.0000 0.0000 0.0000 0.0000 31.0419
#
#
#
# Elastic Compliance Matrix: (Units=1/GPa)
#
#
# Indices 1 2 3 4 5 6 
#
# 1 0.021340 -0.001014 -0.007012 0.000000 0.000000 0.000000
# 2 -0.001014 0.013642 -0.003576 0.000000 0.000000 0.000000
# 3 -0.007012 -0.003576 0.014014 0.000000 0.000000 0.000000
# 4 0.000000 0.000000 0.000000 0.031417 0.000000 0.000000
# 5 0.000000 0.000000 0.000000 0.000000 0.049373 0.000000
# 6 0.000000 0.000000 0.000000 0.000000 0.000000 0.032214
#
#
# Mechanical properties :
#
#
# Convention : Reuss Voigt Hill
#
# Bulk Modulus (GPa) = 38.76876 42.05403 40.41140
# Shear Modulus (GPa) = 25.79979 27.40173 26.60076
#
# Velocity S-wave (km/s) = 3.61189 3.72233 3.66752
# Velocity P-wave (km/s) = 6.08258 6.30389 6.19422
#
# Compressibility (1/GPa) = 0.02579396
#
# Stress axis : x y z
#
# Youngs Moduli (GPa) = 46.85931 73.30316 71.35958
#
# Poissons Ratio (x) = 0.07431 0.50036
# Poissons Ratio (y) = 0.04750 0.25515
# Poissons Ratio (z) = 0.32857 0.26210
#
# Static dielectric constant tensor:
#      x y z
#    x 3.767000 0.000000 0.000000 
#    y 0.000000 3.819440 0.000000 
#    z 0.000000 0.000000 3.566460 
# 
# 
# High freq. dielectric constant tensor:
#      x y z
#    x 1.768280 0.000000 0.000000 
#    y 0.000000 1.787580 0.000000 
#    z 0.000000 0.000000 1.751150 
# 
# From -- ./inp_files/13598.got.cif
#   From: 2010.03.12/outbox.cif.g09.slc.cpg/sg55_7_cif.got.tgz:13598.got - 2010.04.16 15:19:21.
