data_PCOD8225410
_publ_section_title
;
Structure prediction by ZEFSAII (Michael W. Deem and Ramdas Pophale) SiO2 
 PCOD8225410
Probable space group: P B A M
;
_chemical_formula_sum "Si O2"
_cell_formula_units_Z 48
_cell_length_a 20.591719
_cell_length_b 11.471898
_cell_length_c 9.954330
_cell_angle_alpha 90.000000
_cell_angle_beta 90.000000
_cell_angle_gamma 90.000000
_cell_volume 2351.472554
_symmetry_space_group_name_H-M "P B A M"
_symmetry_group_IT_number 55
_symmetry_cell_setting 'orthorhombic'
loop_
_space_group_symop_operation_xyz
x,y,z
-x,-y,z
1/2+x,1/2-y,-z
1/2-x,1/2+y,-z
-x,-y,-z
x,y,-z
1/2-x,1/2+y,z
1/2+x,1/2-y,z
loop_
_atom_site_type_symbol
_atom_site_label
_atom_site_fract_x
_atom_site_fract_y
_atom_site_fract_z
Si Si1 0.846283 0.099708 0.349563
Si Si2 0.557782 0.796158 0.653439
Si Si3 0.285263 0.789654 0.355125
Si Si4 0.538876 0.118435 0.856249
Si Si5 0.791585 0.910176 0.156012
Si Si6 0.844152 0.493110 0.753001
O O1 0.846922 0.042649 0.500000
O O2 0.913593 0.167296 0.322428
O O3 0.792348 0.201116 0.343963
O O4 0.834559 0.007331 0.231282
O O5 0.537345 0.815723 0.500000
O O6 0.491212 0.801361 0.739143
O O7 0.610124 0.894956 0.690660
O O8 0.303339 0.732527 0.500000
O O9 0.309326 0.710303 0.231569
O O10 0.312310 0.922173 0.357833
O O11 0.614115 0.084555 0.840515
O O12 0.500000 0.000000 0.856038
O O13 0.530453 0.182890 0.000000
O O14 0.714458 0.936276 0.161842
O O15 0.812581 0.902131 0.000000
#
# Coordination Sequence:
#
# PCOD8225410 Si02
#       6
#     8   8   8   8   8   8
#     4   9  19  35  53  74 104 140 175 217 263 313
#     4  10  19  34  56  81 107 137 177 219 261 311
#     4  10  20  34  54  77 105 141 177 219 266 312
#     4   9  19  33  50  75 109 144 173 211 263 312
#     4  11  22  34  52  78 108 142 179 217 260 318
#     4  10  20  35  53  80 109 141 177 217 260 317
#
# _framework density 20.412739999999999
#
# number of rings (size 3 to 8) (size 9 to 14) (size 15 to 20)
#    0.000    2.167    1.667    1.500    0.000    9.667 
#    0.000    0.000    0.000    1.000    0.000    5.833 
#    0.000    0.000    0.000    0.000    0.000    0.000 
#
# Total GULP energy -594713.205014 kJ/mol
# GULP energy per Si atom -12389.858438 kJ/mol
# Density = 2.036628 g / cm^3
# Si number density = 20.412740 Si / 1000 Ang^3
#
#
#
# Elastic Constant Matrix: (Units=GPa)
#
#
# Indices 1 2 3 4 5 6 
#
# 1 27.0836 -0.3839 -3.4372 0.0000 0.0000 0.0000
# 2 -0.3839 59.3043 33.7051 0.0000 0.0000 0.0000
# 3 -3.4372 33.7051 149.3397 0.0000 0.0000 0.0000
# 4 0.0000 0.0000 0.0000 12.4295 0.0000 0.0000
# 5 0.0000 0.0000 0.0000 0.0000 16.7663 0.0000
# 6 0.0000 0.0000 0.0000 0.0000 0.0000 19.0525
#
#
#
# Elastic Compliance Matrix: (Units=1/GPa)
#
#
# Indices 1 2 3 4 5 6 
#
# 1 0.037035 -0.000281 0.000916 0.000000 0.000000 0.000000
# 2 -0.000281 0.019346 -0.004373 0.000000 0.000000 0.000000
# 3 0.000916 -0.004373 0.007704 0.000000 0.000000 0.000000
# 4 0.000000 0.000000 0.000000 0.080454 0.000000 0.000000
# 5 0.000000 0.000000 0.000000 0.000000 0.059644 0.000000
# 6 0.000000 0.000000 0.000000 0.000000 0.000000 0.052487
#
#
# Mechanical properties :
#
#
# Convention : Reuss Voigt Hill
#
# Bulk Modulus (GPa) = 17.66493 32.83283 25.24888
# Shear Modulus (GPa) = 17.66700 23.37255 20.51977
#
# Velocity S-wave (km/s) = 2.94511 3.38745 3.17400
# Velocity P-wave (km/s) = 4.49862 5.60528 5.08216
#
# Compressibility (1/GPa) = 0.05660935
#
# Stress axis : x y z
#
# Youngs Moduli (GPa) = 27.00156 51.69154 129.80109
#
# Poissons Ratio (x) = 0.01451 -0.11886
# Poissons Ratio (y) = 0.00758 0.56757
# Poissons Ratio (z) = -0.02473 0.22603
#
# Static dielectric constant tensor:
#      x y z
#    x 3.858250 0.000000 0.000000 
#    y 0.000000 3.401360 0.000000 
#    z 0.000000 0.000000 3.821160 
# 
# 
# High freq. dielectric constant tensor:
#      x y z
#    x 1.781330 0.000000 0.000000 
#    y 0.000000 1.775760 0.000000 
#    z 0.000000 0.000000 1.799220 
# 
# From -- ./inp_files/4037.got.cif
#   From: 2010.03.12/outbox.cif.g09.slc.cpg/sg55_3_cif.got.tgz:4037.got - 2010.04.16 15:19:21.
