data_PCOD8225523
_publ_section_title
;
Structure prediction by ZEFSAII (Michael W. Deem and Ramdas Pophale) SiO2 
 PCOD8225523
Probable space group: P B A M
;
_chemical_formula_sum "Si O2"
_cell_formula_units_Z 48
_cell_length_a 18.332020
_cell_length_b 17.685124
_cell_length_c 7.734099
_cell_angle_alpha 90.000000
_cell_angle_beta 90.000000
_cell_angle_gamma 90.000000
_cell_volume 2507.426195
_symmetry_space_group_name_H-M "P B A M"
_symmetry_group_IT_number 55
_symmetry_cell_setting 'orthorhombic'
loop_
_space_group_symop_operation_xyz
x,y,z
-x,-y,z
1/2+x,1/2-y,-z
1/2-x,1/2+y,-z
-x,-y,-z
x,y,-z
1/2-x,1/2+y,z
1/2+x,1/2-y,z
loop_
_atom_site_type_symbol
_atom_site_label
_atom_site_fract_x
_atom_site_fract_y
_atom_site_fract_z
Si Si1 0.329497 0.839702 0.794305
Si Si2 0.162468 0.169572 0.699366
Si Si3 0.191389 0.918786 0.304460
Si Si4 0.073365 0.096416 0.000000
Si Si5 0.413167 0.418986 0.000000
Si Si6 0.215129 0.560961 0.699619
Si Si7 0.921940 0.520388 0.197137
O O1 0.352300 0.757020 0.734390
O O2 0.252549 0.854231 0.702966
O O3 0.387515 0.902319 0.723973
O O4 0.321250 0.844930 0.000000
O O5 0.144110 0.149455 0.500000
O O6 0.246422 0.142083 0.739568
O O7 0.109050 0.124894 0.823906
O O8 0.160638 0.925407 0.500000
O O9 0.127846 0.894407 0.174720
O O10 0.227187 0.997354 0.238595
O O11 0.989865 0.124724 0.000000
O O12 0.075510 0.007478 0.000000
O O13 0.197963 0.549707 0.500000
O O14 0.136726 0.548841 0.791381
O O15 0.000000 0.500000 0.287997
O O16 0.939432 0.537833 0.000000
#
# Coordination Sequence:
#
# PCOD8225523 Si02
#       7
#     8   8   8   4   4   8   8
#     4  10  19  34  61  85 113 153 195 237 290 346
#     4  11  22  38  58  85 116 152 195 241 291 346
#     4  10  19  35  58  85 113 143 187 240 285 339
#     4  11  24  37  58  84 115 153 196 237 291 346
#     4  11  22  37  58  86 110 149 196 241 292 340
#     4   9  19  33  55  82 107 144 187 228 281 340
#     4   9  19  34  56  87 116 148 188 234 286 345
#
# _framework density 19.143135999999998
#
# number of rings (size 3 to 8) (size 9 to 14) (size 15 to 20)
#    0.000    2.000    3.333    0.500    2.333    1.667 
#    0.000    3.333    0.000    2.000    0.000    0.000 
#    0.000    0.000    0.000    0.000    0.000    0.000 
#
# Total GULP energy -594935.896485 kJ/mol
# GULP energy per Si atom -12394.497843 kJ/mol
# Density = 1.909957 g / cm^3
# Si number density = 19.143136 Si / 1000 Ang^3
#
#
#
# Elastic Constant Matrix: (Units=GPa)
#
#
# Indices 1 2 3 4 5 6 
#
# 1 146.2357 42.0305 47.0267 0.0000 0.0000 0.0000
# 2 42.0305 80.9183 17.5413 0.0000 0.0000 0.0000
# 3 47.0267 17.5413 90.4264 0.0000 0.0000 0.0000
# 4 0.0000 0.0000 0.0000 25.8876 0.0000 0.0000
# 5 0.0000 0.0000 0.0000 0.0000 12.4394 0.0000
# 6 0.0000 0.0000 0.0000 0.0000 0.0000 19.0734
#
#
#
# Elastic Compliance Matrix: (Units=1/GPa)
#
#
# Indices 1 2 3 4 5 6 
#
# 1 0.009276 -0.003938 -0.004060 0.000000 0.000000 0.000000
# 2 -0.003938 0.014572 -0.000779 0.000000 0.000000 0.000000
# 3 -0.004060 -0.000779 0.013321 0.000000 0.000000 0.000000
# 4 0.000000 0.000000 0.000000 0.038629 0.000000 0.000000
# 5 0.000000 0.000000 0.000000 0.000000 0.080389 0.000000
# 6 0.000000 0.000000 0.000000 0.000000 0.000000 0.052429
#
#
# Mechanical properties :
#
#
# Convention : Reuss Voigt Hill
#
# Bulk Modulus (GPa) = 50.97933 58.97528 54.97730
# Shear Modulus (GPa) = 21.48612 25.54555 23.51583
#
# Velocity S-wave (km/s) = 3.35385 3.65697 3.50869
# Velocity P-wave (km/s) = 6.45648 6.97895 6.72279
#
# Compressibility (1/GPa) = 0.01961579
#
# Stress axis : x y z
#
# Youngs Moduli (GPa) = 107.80862 68.62295 75.06814
#
# Poissons Ratio (x) = 0.27023 0.30478
# Poissons Ratio (y) = 0.42453 0.05847
# Poissons Ratio (z) = 0.43770 0.05345
#
# Static dielectric constant tensor:
#      x y z
#    x 3.747540 0.000000 0.000000 
#    y 0.000000 3.467010 0.000000 
#    z 0.000000 0.000000 3.560600 
# 
# 
# High freq. dielectric constant tensor:
#      x y z
#    x 1.731080 0.000000 0.000000 
#    y 0.000000 1.724290 0.000000 
#    z 0.000000 0.000000 1.751060 
# 
# From -- ./inp_files/5724.got.cif
#   From: 2010.03.12/outbox.cif.g09.slc.cpg/sg55_3_cif.got.tgz:5724.got - 2010.04.16 15:19:21.
