data_PCOD8225147
_publ_section_title
;
Structure prediction by ZEFSAII (Michael W. Deem and Ramdas Pophale) SiO2 
 PCOD8225147
Probable space group: P B A M
;
_chemical_formula_sum "Si O2"
_cell_formula_units_Z 48
_cell_length_a 20.260326
_cell_length_b 13.980944
_cell_length_c 9.006218
_cell_angle_alpha 90.000000
_cell_angle_beta 90.000000
_cell_angle_gamma 90.000000
_cell_volume 2551.087650
_symmetry_space_group_name_H-M "P B A M"
_symmetry_group_IT_number 55
_symmetry_cell_setting 'orthorhombic'
loop_
_space_group_symop_operation_xyz
x,y,z
-x,-y,z
1/2+x,1/2-y,-z
1/2-x,1/2+y,-z
-x,-y,-z
x,y,-z
1/2-x,1/2+y,z
1/2+x,1/2-y,z
loop_
_atom_site_type_symbol
_atom_site_label
_atom_site_fract_x
_atom_site_fract_y
_atom_site_fract_z
Si Si1 0.440629 0.062283 0.676488
Si Si2 0.007394 0.761221 0.324740
Si Si3 0.563903 0.563799 0.835285
Si Si4 0.811181 0.544644 0.324893
Si Si5 0.857018 0.757632 0.675234
Si Si6 0.810924 0.944411 0.175978
O O1 0.442142 0.056312 0.500000
O O2 0.452380 0.169531 0.734240
O O3 0.500000 0.000000 0.743354
O O4 0.371508 0.020561 0.733066
O O5 0.002690 0.758989 0.500000
O O6 0.051356 0.849785 0.275510
O O7 0.932326 0.762509 0.262618
O O8 0.500000 0.500000 0.841111
O O9 0.623406 0.500062 0.773488
O O10 0.580242 0.603345 0.000000
O O11 0.799251 0.532277 0.500000
O O12 0.825716 0.654994 0.285132
O O13 0.748526 0.507977 0.235900
O O14 0.855667 0.775466 0.500000
O O15 0.812558 0.838700 0.752969
O O16 0.805846 0.933225 0.000000
#
# Coordination Sequence:
#
# PCOD8225147 Si02
#       6
#     8   8   8   8   8   8
#     4   9  16  32  58  87 115 143 179 228 284 336
#     4  10  19  32  59  92 114 141 187 238 284 336
#     4  10  21  38  56  77 109 151 192 233 283 332
#     4  10  21  38  61  87 118 151 188 236 288 344
#     4  10  20  36  60  87 113 147 189 237 291 342
#     4  11  24  40  58  81 116 158 195 235 284 342
#
# _framework density 18.815503
#
# number of rings (size 3 to 8) (size 9 to 14) (size 15 to 20)
#    0.000    2.000    3.333    0.500    0.000    3.667 
#    0.000    5.833    0.000    1.000    0.000    0.000 
#    0.000    0.000    0.000    0.000    0.000    0.000 
#
# Total GULP energy -595180.315944 kJ/mol
# GULP energy per Si atom -12399.589915 kJ/mol
# Density = 1.877268 g / cm^3
# Si number density = 18.815503 Si / 1000 Ang^3
#
#
#
# Elastic Constant Matrix: (Units=GPa)
#
#
# Indices 1 2 3 4 5 6 
#
# 1 127.4553 62.2929 34.0350 0.0000 0.0000 0.0000
# 2 62.2929 145.9897 41.6494 0.0000 0.0000 0.0000
# 3 34.0350 41.6494 37.1944 0.0000 0.0000 0.0000
# 4 0.0000 0.0000 0.0000 8.2572 0.0000 0.0000
# 5 0.0000 0.0000 0.0000 0.0000 -187.9556 0.0000
# 6 0.0000 0.0000 0.0000 0.0000 0.0000 34.6091
#
#
#
# Elastic Compliance Matrix: (Units=1/GPa)
#
#
# Indices 1 2 3 4 5 6 
#
# 1 0.011059 -0.002692 -0.007105 0.000000 0.000000 0.000000
# 2 -0.002692 0.010720 -0.009541 0.000000 0.000000 0.000000
# 3 -0.007105 -0.009541 0.044072 0.000000 0.000000 0.000000
# 4 0.000000 0.000000 0.000000 0.121106 0.000000 0.000000
# 5 0.000000 0.000000 0.000000 0.000000 -0.005320 0.000000
# 6 0.000000 0.000000 0.000000 0.000000 0.000000 0.028894
#
#
# Mechanical properties :
#
#
# Convention : Reuss Voigt Hill
#
# Bulk Modulus (GPa) = 36.79966 65.17711 50.98839
# Shear Modulus (GPa) = 19.35990 -17.50706 0.92642
#
# Velocity S-wave (km/s) = 3.21118 -3.05365 0.70245
# Velocity P-wave (km/s) = 5.77490 4.72041 5.27408
#
# Compressibility (1/GPa) = 0.02717416
#
# Stress axis : x y z
#
# Youngs Moduli (GPa) = 90.42568 93.28037 22.69014
#
# Poissons Ratio (x) = 0.25107 0.16122
# Poissons Ratio (y) = 0.24339 0.21650
# Poissons Ratio (z) = 0.64252 0.89003
#
# Static dielectric constant tensor:
#      x y z
#    x 3.445050 0.000000 0.000000 
#    y 0.000000 3.377060 0.000000 
#    z 0.000000 0.000000 3.180930 
# 
# 
# High freq. dielectric constant tensor:
#      x y z
#    x 1.734260 0.000000 0.000000 
#    y 0.000000 1.744180 0.000000 
#    z 0.000000 0.000000 1.702580 
# 
# From -- ./inp_files/7424.got.cif
#   From: 2010.03.12/outbox.cif.g09.slc.cpg/sg55_4_cif.got.tgz:7424.got - 2010.04.16 15:19:21.
