data_PCOD8225163
_publ_section_title
;
Structure prediction by ZEFSAII (Michael W. Deem and Ramdas Pophale) SiO2 
 PCOD8225163
Probable space group: P B A M
;
_chemical_formula_sum "Si O2"
_cell_formula_units_Z 64
_cell_length_a 22.948153
_cell_length_b 18.997489
_cell_length_c 8.655104
_cell_angle_alpha 90.000000
_cell_angle_beta 90.000000
_cell_angle_gamma 90.000000
_cell_volume 3773.255634
_symmetry_space_group_name_H-M "P B A M"
_symmetry_group_IT_number 55
_symmetry_cell_setting 'orthorhombic'
loop_
_space_group_symop_operation_xyz
x,y,z
-x,-y,z
1/2+x,1/2-y,-z
1/2-x,1/2+y,-z
-x,-y,-z
x,y,-z
1/2-x,1/2+y,z
1/2+x,1/2-y,z
loop_
_atom_site_type_symbol
_atom_site_label
_atom_site_fract_x
_atom_site_fract_y
_atom_site_fract_z
Si Si1 0.380258 0.987173 0.179957
Si Si2 0.277266 0.629212 0.180506
Si Si3 0.258689 0.338246 0.676050
Si Si4 0.059322 0.354109 0.679495
Si Si5 0.565559 0.864718 0.179690
Si Si6 0.744175 0.005850 0.677997
Si Si7 0.670636 0.793660 0.678235
Si Si8 0.846580 0.736180 0.179982
O O1 0.403565 0.923182 0.281791
O O2 0.313134 0.000729 0.217757
O O3 0.417162 0.055952 0.225342
O O4 0.387641 0.968461 0.000000
O O5 0.288466 0.555900 0.270063
O O6 0.213315 0.657837 0.221669
O O7 0.326469 0.685528 0.230801
O O8 0.279995 0.614728 0.000000
O O9 0.236609 0.327961 0.500000
O O10 0.276071 0.419317 0.706509
O O11 0.314635 0.288761 0.707966
O O12 0.205669 0.318306 0.787936
O O13 0.043667 0.353185 0.500000
O O14 0.096673 0.284930 0.722595
O O15 0.000946 0.352131 0.778104
O O16 0.604668 0.808115 0.271052
O O17 0.575262 0.851398 0.000000
O O18 0.726542 0.996501 0.500000
O O19 0.679261 0.813864 0.500000
O O20 0.861789 0.732563 0.000000
#
# Coordination Sequence:
#
# PCOD8225163 Si02
#       8
#     8   8   8   8   8   8   8   8
#     4  11  22  35  50  71 103 139 175 212 246 293
#     4  10  20  33  50  74 102 133 169 209 254 304
#     4   9  19  33  50  74 102 131 166 208 254 302
#     4  12  24  36  52  73 100 134 176 215 253 300
#     4  11  23  37  52  71 100 136 176 212 250 299
#     4  11  20  31  51  77 105 138 171 207 251 302
#     4  10  19  33  52  73  99 131 169 212 253 296
#     4  10  20  34  52  72  98 133 171 211 255 299
#
# _framework density 16.961480000000002
#
# number of rings (size 3 to 8) (size 9 to 14) (size 15 to 20)
#    0.000    1.500    2.500    3.750    0.000    5.500 
#    0.000    0.000    0.000    0.000    0.000    0.875 
#    0.000    7.000    0.000    0.000    0.000    0.000 
#
# Total GULP energy -793783.121938 kJ/mol
# GULP energy per Si atom -12402.861280 kJ/mol
# Density = 1.692287 g / cm^3
# Si number density = 16.961480 Si / 1000 Ang^3
#
#
#
# Elastic Constant Matrix: (Units=GPa)
#
#
# Indices 1 2 3 4 5 6 
#
# 1 48.4787 29.3853 8.9758 0.0000 0.0000 0.0000
# 2 29.3853 110.1270 27.1385 0.0000 0.0000 0.0000
# 3 8.9758 27.1385 46.8446 0.0000 0.0000 0.0000
# 4 0.0000 0.0000 0.0000 25.9481 0.0000 0.0000
# 5 0.0000 0.0000 0.0000 0.0000 24.9804 0.0000
# 6 0.0000 0.0000 0.0000 0.0000 0.0000 22.4763
#
#
#
# Elastic Compliance Matrix: (Units=1/GPa)
#
#
# Indices 1 2 3 4 5 6 
#
# 1 0.024653 -0.006316 -0.001065 0.000000 0.000000 0.000000
# 2 -0.006316 0.012211 -0.005864 0.000000 0.000000 0.000000
# 3 -0.001065 -0.005864 0.024948 0.000000 0.000000 0.000000
# 4 0.000000 0.000000 0.000000 0.038539 0.000000 0.000000
# 5 0.000000 0.000000 0.000000 0.000000 0.040031 0.000000
# 6 0.000000 0.000000 0.000000 0.000000 0.000000 0.044491
#
#
# Mechanical properties :
#
#
# Convention : Reuss Voigt Hill
#
# Bulk Modulus (GPa) = 28.31007 37.38328 32.84668
# Shear Modulus (GPa) = 22.40780 24.01100 23.20940
#
# Velocity S-wave (km/s) = 3.63864 3.76655 3.70315
# Velocity P-wave (km/s) = 5.86344 6.40343 6.13937
#
# Compressibility (1/GPa) = 0.03532312
#
# Stress axis : x y z
#
# Youngs Moduli (GPa) = 40.56292 81.89534 40.08290
#
# Poissons Ratio (x) = 0.51723 0.04268
# Poissons Ratio (y) = 0.25619 0.23504
# Poissons Ratio (z) = 0.04319 0.48022
#
# Static dielectric constant tensor:
#      x y z
#    x 2.956170 0.000000 0.000000 
#    y 0.000000 3.413450 0.000000 
#    z 0.000000 0.000000 3.245770 
# 
# 
# High freq. dielectric constant tensor:
#      x y z
#    x 1.618530 0.000000 0.000000 
#    y 0.000000 1.654100 0.000000 
#    z 0.000000 0.000000 1.669630 
# 
# From -- ./inp_files/7967.got.cif
#   From: 2010.03.12/outbox.cif.g09.slc.cpg/sg55_4_cif.got.tgz:7967.got - 2010.04.16 15:19:21.
