data_PCOD8225485
_publ_section_title
;
Structure prediction by ZEFSAII (Michael W. Deem and Ramdas Pophale) SiO2 
 PCOD8225485
Probable space group: P B A M
;
_chemical_formula_sum "Si O2"
_cell_formula_units_Z 36
_cell_length_a 14.810720
_cell_length_b 11.864028
_cell_length_c 10.919527
_cell_angle_alpha 90.000000
_cell_angle_beta 90.000000
_cell_angle_gamma 90.000000
_cell_volume 1918.722468
_symmetry_space_group_name_H-M "P B A M"
_symmetry_group_IT_number 55
_symmetry_cell_setting 'orthorhombic'
loop_
_space_group_symop_operation_xyz
x,y,z
-x,-y,z
1/2+x,1/2-y,-z
1/2-x,1/2+y,-z
-x,-y,-z
x,y,-z
1/2-x,1/2+y,z
1/2+x,1/2-y,z
loop_
_atom_site_type_symbol
_atom_site_label
_atom_site_fract_x
_atom_site_fract_y
_atom_site_fract_z
Si Si1 0.653507 0.589522 0.000000
Si Si2 0.335137 0.665194 0.000000
Si Si3 0.389255 0.896080 0.641976
Si Si4 0.982963 0.288071 0.000000
Si Si5 0.762043 0.219662 0.791575
Si Si6 0.924695 0.363584 0.743102
O O1 0.565424 0.667080 0.000000
O O2 0.711592 0.614105 0.122402
O O3 0.623588 0.459775 0.000000
O O4 0.274484 0.680425 0.878933
O O5 0.410946 0.762174 0.000000
O O6 0.371522 0.918256 0.500000
O O7 0.311659 0.814740 0.692032
O O8 0.487314 0.837704 0.659805
O O9 0.385262 0.013868 0.713527
O O10 0.955524 0.362528 0.884138
O O11 0.848857 0.268597 0.718718
#
# Coordination Sequence:
#
# PCOD8225485 Si02
#       6
#     4   4   8   4   8   8
#     4   9  20  33  54  87 114 143 173 222 289 344
#     4  11  18  34  55  85 115 140 178 226 275 348
#     4  11  23  38  58  81 110 154 196 231 272 318
#     4  10  19  34  58  85 112 145 175 221 293 341
#     4  10  21  36  57  84 114 145 185 227 283 330
#     4  10  21  38  57  85 113 143 185 233 279 337
#
# _framework density 18.762485000000002
#
# number of rings (size 3 to 8) (size 9 to 14) (size 15 to 20)
#    0.000    1.778    2.222    3.667    0.000    5.333 
#    0.000    0.000    0.000    0.000    0.000    6.222 
#    0.000    0.000    0.000    0.000    0.000    0.000 
#
# Total GULP energy -446449.239997 kJ/mol
# GULP energy per Si atom -12401.367778 kJ/mol
# Density = 1.871978 g / cm^3
# Si number density = 18.762485 Si / 1000 Ang^3
#
#
#
# Elastic Constant Matrix: (Units=GPa)
#
#
# Indices 1 2 3 4 5 6 
#
# 1 112.1718 44.6956 33.8856 0.0000 0.0000 0.0000
# 2 44.6956 92.5475 54.1236 0.0000 0.0000 0.0000
# 3 33.8856 54.1236 94.2520 0.0000 0.0000 0.0000
# 4 0.0000 0.0000 0.0000 16.4451 0.0000 0.0000
# 5 0.0000 0.0000 0.0000 0.0000 17.6158 0.0000
# 6 0.0000 0.0000 0.0000 0.0000 0.0000 31.3537
#
#
#
# Elastic Compliance Matrix: (Units=1/GPa)
#
#
# Indices 1 2 3 4 5 6 
#
# 1 0.011157 -0.004581 -0.001381 0.000000 0.000000 0.000000
# 2 -0.004581 0.018150 -0.008775 0.000000 0.000000 0.000000
# 3 -0.001381 -0.008775 0.016145 0.000000 0.000000 0.000000
# 4 0.000000 0.000000 0.000000 0.060808 0.000000 0.000000
# 5 0.000000 0.000000 0.000000 0.000000 0.056767 0.000000
# 6 0.000000 0.000000 0.000000 0.000000 0.000000 0.031894
#
#
# Mechanical properties :
#
#
# Convention : Reuss Voigt Hill
#
# Bulk Modulus (GPa) = 62.58466 62.70898 62.64682
# Shear Modulus (GPa) = 21.76542 24.16735 22.96638
#
# Velocity S-wave (km/s) = 3.40965 3.59286 3.50245
# Velocity P-wave (km/s) = 6.99497 7.12086 7.05819
#
# Compressibility (1/GPa) = 0.01597836
#
# Stress axis : x y z
#
# Youngs Moduli (GPa) = 89.62751 55.09759 61.93695
#
# Poissons Ratio (x) = 0.25240 0.08552
# Poissons Ratio (y) = 0.41058 0.54352
# Poissons Ratio (z) = 0.12375 0.48350
#
# Static dielectric constant tensor:
#      x y z
#    x 3.651530 0.000000 0.000000 
#    y 0.000000 3.141230 0.000000 
#    z 0.000000 0.000000 3.289720 
# 
# 
# High freq. dielectric constant tensor:
#      x y z
#    x 1.744510 0.000000 0.000000 
#    y 0.000000 1.711100 0.000000 
#    z 0.000000 0.000000 1.715200 
# 
# From -- ./inp_files/13909.got.cif
#   From: 2010.03.12/outbox.cif.g09.slc.cpg/sg55_7_cif.got.tgz:13909.got - 2010.04.16 15:19:21.
