data_PCOD8225449
_publ_section_title
;
Structure prediction by ZEFSAII (Michael W. Deem and Ramdas Pophale) SiO2 
 PCOD8225449
Probable space group: P B A M
;
_chemical_formula_sum "Si O2"
_cell_formula_units_Z 56
_cell_length_a 14.590491
_cell_length_b 22.098944
_cell_length_c 8.887407
_cell_angle_alpha 90.000000
_cell_angle_beta 90.000000
_cell_angle_gamma 90.000000
_cell_volume 2865.606131
_symmetry_space_group_name_H-M "P B A M"
_symmetry_group_IT_number 55
_symmetry_cell_setting 'orthorhombic'
loop_
_space_group_symop_operation_xyz
x,y,z
-x,-y,z
1/2+x,1/2-y,-z
1/2-x,1/2+y,-z
-x,-y,-z
x,y,-z
1/2-x,1/2+y,z
1/2+x,1/2-y,z
loop_
_atom_site_type_symbol
_atom_site_label
_atom_site_fract_x
_atom_site_fract_y
_atom_site_fract_z
Si Si1 0.535326 0.815974 0.826012
Si Si2 0.360443 0.740697 0.827619
Si Si3 0.870370 0.102243 0.821458
Si Si4 0.426434 0.609339 0.823505
Si Si5 0.677343 0.727316 0.676067
Si Si6 0.725329 0.480828 0.820868
Si Si7 0.427179 0.048346 0.178971
O O1 0.429964 0.796378 0.804700
O O2 0.599818 0.773163 0.729578
O O3 0.544452 0.884627 0.767659
O O4 0.565239 0.810162 0.000000
O O5 0.412555 0.679319 0.783555
O O6 0.275983 0.745875 0.715934
O O7 0.325210 0.738198 0.000000
O O8 0.829767 0.162899 0.754400
O O9 0.973695 0.090167 0.761477
O O10 0.806075 0.047266 0.768680
O O11 0.870943 0.109588 0.000000
O O12 0.346087 0.568107 0.752065
O O13 0.424708 0.598030 0.000000
O O14 0.667762 0.718515 0.500000
O O15 0.826465 0.467331 0.756204
O O16 0.727053 0.476310 0.000000
O O17 0.500000 0.000000 0.244546
O O18 0.426856 0.044819 0.000000
#
# Coordination Sequence:
#
# PCOD8225449 Si02
#       7
#     8   8   8   8   8   8   8
#     4  10  20  38  63  88 115 149 192 241 286 338
#     4  10  20  35  60  87 112 146 190 238 287 338
#     4  10  19  34  57  83 110 143 191 236 285 338
#     4   9  16  31  54  86 113 136 180 239 293 335
#     4  12  25  38  55  82 119 156 192 235 289 344
#     4   9  17  28  51  83 116 146 176 233 290 338
#     4   9  18  31  52  87 121 146 181 233 290 337
#
# _framework density 19.542113000000001
#
# number of rings (size 3 to 8) (size 9 to 14) (size 15 to 20)
#    0.000    2.143    1.429    2.571    2.000    4.571 
#    0.000    0.000    0.000    5.571    0.000    0.000 
#    0.000    0.000    0.000    0.000    0.000    0.000 
#
# Total GULP energy -694437.868914 kJ/mol
# GULP energy per Si atom -12400.676231 kJ/mol
# Density = 1.949763 g / cm^3
# Si number density = 19.542113 Si / 1000 Ang^3
#
#
#
# Elastic Constant Matrix: (Units=GPa)
#
#
# Indices 1 2 3 4 5 6 
#
# 1 70.6703 11.3448 16.6144 0.0000 0.0000 0.0000
# 2 11.3448 104.9815 19.7522 0.0000 0.0000 0.0000
# 3 16.6144 19.7522 22.6971 0.0000 0.0000 0.0000
# 4 0.0000 0.0000 0.0000 2.9130 0.0000 0.0000
# 5 0.0000 0.0000 0.0000 0.0000 4.1979 0.0000
# 6 0.0000 0.0000 0.0000 0.0000 0.0000 36.0239
#
#
#
# Elastic Compliance Matrix: (Units=1/GPa)
#
#
# Indices 1 2 3 4 5 6 
#
# 1 0.017124 0.000607 -0.013063 0.000000 0.000000 0.000000
# 2 0.000607 0.011412 -0.010376 0.000000 0.000000 0.000000
# 3 -0.013063 -0.010376 0.062650 0.000000 0.000000 0.000000
# 4 0.000000 0.000000 0.000000 0.343293 0.000000 0.000000
# 5 0.000000 0.000000 0.000000 0.000000 0.238214 0.000000
# 6 0.000000 0.000000 0.000000 0.000000 0.000000 0.027759
#
#
# Mechanical properties :
#
#
# Convention : Reuss Voigt Hill
#
# Bulk Modulus (GPa) = 21.96709 32.64130 27.30419
# Shear Modulus (GPa) = 6.56779 18.66945 12.61862
#
# Velocity S-wave (km/s) = 1.83525 3.09422 2.54385
# Velocity P-wave (km/s) = 3.96940 5.43184 4.75716
#
# Compressibility (1/GPa) = 0.04552264
#
# Stress axis : x y z
#
# Youngs Moduli (GPa) = 58.39815 87.62641 15.96160
#
# Poissons Ratio (x) = -0.05322 0.20851
# Poissons Ratio (y) = -0.03547 0.16562
# Poissons Ratio (z) = 0.76287 0.90921
#
# Static dielectric constant tensor:
#      x y z
#    x 3.801860 0.000000 0.000000 
#    y 0.000000 3.733640 0.000000 
#    z 0.000000 0.000000 2.967970 
# 
# 
# High freq. dielectric constant tensor:
#      x y z
#    x 1.777300 0.000000 0.000000 
#    y 0.000000 1.776550 0.000000 
#    z 0.000000 0.000000 1.693870 
# 
# From -- ./inp_files/6112.got.cif
#   From: 2010.03.12/outbox.cif.g09.slc.cpg/sg55_4_cif.got.tgz:6112.got - 2010.04.16 15:19:21.
