data_PCOD8225881
_publ_section_title
;
Structure prediction by ZEFSAII (Michael W. Deem and Ramdas Pophale) SiO2 
 PCOD8225881
Probable space group: P B A M
;
_chemical_formula_sum "Si O2"
_cell_formula_units_Z 56
_cell_length_a 14.523354
_cell_length_b 21.611326
_cell_length_c 9.356266
_cell_angle_alpha 90.000000
_cell_angle_beta 90.000000
_cell_angle_gamma 90.000000
_cell_volume 2936.641272
_symmetry_space_group_name_H-M "P B A M"
_symmetry_group_IT_number 55
_symmetry_cell_setting 'orthorhombic'
loop_
_space_group_symop_operation_xyz
x,y,z
-x,-y,z
1/2+x,1/2-y,-z
1/2-x,1/2+y,-z
-x,-y,-z
x,y,-z
1/2-x,1/2+y,z
1/2+x,1/2-y,z
loop_
_atom_site_type_symbol
_atom_site_label
_atom_site_fract_x
_atom_site_fract_y
_atom_site_fract_z
Si Si1 0.823277 0.284090 0.336675
Si Si2 0.490468 0.569855 0.169353
Si Si3 0.517547 0.883822 0.338725
Si Si4 0.861112 0.467109 0.837339
Si Si5 0.200163 0.127982 0.833873
Si Si6 0.649971 0.662876 0.832944
Si Si7 0.152895 0.391390 0.835962
O O1 0.795289 0.269310 0.500000
O O2 0.906598 0.331435 0.329922
O O3 0.734032 0.312190 0.255517
O O4 0.863831 0.224226 0.258772
O O5 0.500000 0.500000 0.233067
O O6 0.398400 0.604460 0.224709
O O7 0.577710 0.610671 0.217505
O O8 0.484466 0.564424 0.000000
O O9 0.493287 0.901742 0.500000
O O10 0.554271 0.944984 0.259484
O O11 0.425431 0.859851 0.260804
O O12 0.769191 0.428509 0.808872
O O13 0.836728 0.536782 0.797779
O O14 0.894376 0.459827 0.000000
O O15 0.195277 0.147705 0.000000
O O16 0.751240 0.639440 0.797873
O O17 0.636093 0.678019 0.000000
O O18 0.125969 0.380752 0.000000
#
# Coordination Sequence:
#
# PCOD8225881 Si02
#       7
#     8   8   8   8   8   8   8
#     4  10  22  39  54  72 103 140 178 219 264 310
#     4   9  17  32  57  87 113 137 171 219 272 321
#     4  10  21  35  52  75 103 138 176 212 253 304
#     4   9  17  31  52  79 109 136 165 206 255 307
#     4   9  17  32  57  83 106 137 175 213 257 313
#     4  10  21  36  55  79 106 136 174 218 260 311
#     4  10  20  33  51  77 106 135 167 207 257 307
#
# _framework density 19.069403999999999
#
# number of rings (size 3 to 8) (size 9 to 14) (size 15 to 20)
#    0.000    2.429    0.000    2.143    0.000    9.143 
#    0.000    5.000    0.000    3.429    0.000    0.000 
#    0.000    0.000    0.000    0.000    0.000    0.000 
#
# Total GULP energy -694471.158648 kJ/mol
# GULP energy per Si atom -12401.270690 kJ/mol
# Density = 1.902600 g / cm^3
# Si number density = 19.069404 Si / 1000 Ang^3
#
#
#
# Elastic Constant Matrix: (Units=GPa)
#
#
# Indices 1 2 3 4 5 6 
#
# 1 97.3475 15.4573 45.0134 0.0000 0.0000 0.0000
# 2 15.4573 79.2983 38.0337 0.0000 0.0000 0.0000
# 3 45.0134 38.0337 81.0247 0.0000 0.0000 0.0000
# 4 0.0000 0.0000 0.0000 12.5381 0.0000 0.0000
# 5 0.0000 0.0000 0.0000 0.0000 15.7137 0.0000
# 6 0.0000 0.0000 0.0000 0.0000 0.0000 24.4432
#
#
#
# Elastic Compliance Matrix: (Units=1/GPa)
#
#
# Indices 1 2 3 4 5 6 
#
# 1 0.013924 0.001285 -0.008339 0.000000 0.000000 0.000000
# 2 0.001285 0.016393 -0.008409 0.000000 0.000000 0.000000
# 3 -0.008339 -0.008409 0.020922 0.000000 0.000000 0.000000
# 4 0.000000 0.000000 0.000000 0.079757 0.000000 0.000000
# 5 0.000000 0.000000 0.000000 0.000000 0.063639 0.000000
# 6 0.000000 0.000000 0.000000 0.000000 0.000000 0.040911
#
#
# Mechanical properties :
#
#
# Convention : Reuss Voigt Hill
#
# Bulk Modulus (GPa) = 49.22735 50.51993 49.87364
# Shear Modulus (GPa) = 18.29865 21.15006 19.72436
#
# Velocity S-wave (km/s) = 3.10107 3.33394 3.21961
# Velocity P-wave (km/s) = 6.22038 6.43198 6.32706
#
# Compressibility (1/GPa) = 0.02031391
#
# Stress axis : x y z
#
# Youngs Moduli (GPa) = 71.81663 61.00014 47.79628
#
# Poissons Ratio (x) = -0.07841 0.39858
# Poissons Ratio (y) = -0.09232 0.40193
# Poissons Ratio (z) = 0.59889 0.51297
#
# Static dielectric constant tensor:
#      x y z
#    x 3.625300 0.000000 0.000000 
#    y 0.000000 3.489970 0.000000 
#    z 0.000000 0.000000 3.424900 
# 
# 
# High freq. dielectric constant tensor:
#      x y z
#    x 1.749510 0.000000 0.000000 
#    y 0.000000 1.740760 0.000000 
#    z 0.000000 0.000000 1.718000 
# 
# From -- ./inp_files/6128.got.cif
#   From: 2010.03.12/outbox.cif.g09.slc.cpg/sg55_4_cif.got.tgz:6128.got - 2010.04.16 15:19:21.
