data_PCOD8225828
_publ_section_title
;
Structure prediction by ZEFSAII (Michael W. Deem and Ramdas Pophale) SiO2 
 PCOD8225828
Probable space group: P B A M
;
_chemical_formula_sum "Si O2"
_cell_formula_units_Z 40
_cell_length_a 13.536018
_cell_length_b 18.245610
_cell_length_c 9.297506
_cell_angle_alpha 90.000000
_cell_angle_beta 90.000000
_cell_angle_gamma 90.000000
_cell_volume 2296.232070
_symmetry_space_group_name_H-M "P B A M"
_symmetry_group_IT_number 55
_symmetry_cell_setting 'orthorhombic'
loop_
_space_group_symop_operation_xyz
x,y,z
-x,-y,z
1/2+x,1/2-y,-z
1/2-x,1/2+y,-z
-x,-y,-z
x,y,-z
1/2-x,1/2+y,z
1/2+x,1/2-y,z
loop_
_atom_site_type_symbol
_atom_site_label
_atom_site_fract_x
_atom_site_fract_y
_atom_site_fract_z
Si Si1 0.885837 0.790335 0.666154
Si Si2 0.388515 0.997761 0.168835
Si Si3 0.707945 0.848687 0.830453
Si Si4 0.391940 0.279366 0.665581
Si Si5 0.299092 0.865177 0.336311
O O1 0.860330 0.806324 0.500000
O O2 0.817183 0.841832 0.763460
O O3 0.865774 0.705267 0.701468
O O4 0.999114 0.808637 0.703467
O O5 0.333525 0.072156 0.210756
O O6 0.500000 0.000000 0.230387
O O7 0.327990 0.931209 0.234779
O O8 0.390903 0.984597 0.000000
O O9 0.633535 0.789183 0.765473
O O10 0.714307 0.836479 0.000000
O O11 0.386304 0.252647 0.500000
O O12 0.315711 0.345593 0.692034
O O13 0.316226 0.889716 0.500000
#
# Coordination Sequence:
#
# PCOD8225828 Si02
#       5
#     8   8   8   8   8
#     4   9  18  34  54  74  99 130 164 204 246 291
#     4  10  21  35  49  69 100 133 162 197 243 292
#     4  10  20  32  49  75 102 129 165 204 244 293
#     4   9  18  34  54  75  99 128 164 205 247 291
#     4   9  18  31  50  76  98 122 162 203 242 290
#
# _framework density 17.419841999999999
#
# number of rings (size 3 to 8) (size 9 to 14) (size 15 to 20)
#    0.000    2.600    0.000    3.000    0.000    6.000 
#    0.000    1.000    0.000    6.000    0.000    0.000 
#    0.000    0.000    0.000    0.000    0.000    0.000 
#
# Total GULP energy -496062.008969 kJ/mol
# GULP energy per Si atom -12401.550224 kJ/mol
# Density = 1.738019 g / cm^3
# Si number density = 17.419842 Si / 1000 Ang^3
#
#
#
# Elastic Constant Matrix: (Units=GPa)
#
#
# Indices 1 2 3 4 5 6 
#
# 1 155.5230 66.7072 50.7357 0.0000 0.0000 0.0000
# 2 66.7072 109.2702 56.2476 0.0000 0.0000 0.0000
# 3 50.7357 56.2476 57.5391 0.0000 0.0000 0.0000
# 4 0.0000 0.0000 0.0000 32.3757 0.0000 0.0000
# 5 0.0000 0.0000 0.0000 0.0000 26.1704 0.0000
# 6 0.0000 0.0000 0.0000 0.0000 0.0000 18.0104
#
#
#
# Elastic Compliance Matrix: (Units=1/GPa)
#
#
# Indices 1 2 3 4 5 6 
#
# 1 0.009488 -0.002991 -0.005443 0.000000 0.000000 0.000000
# 2 -0.002991 0.019364 -0.016292 0.000000 0.000000 0.000000
# 3 -0.005443 -0.016292 0.038105 0.000000 0.000000 0.000000
# 4 0.000000 0.000000 0.000000 0.030887 0.000000 0.000000
# 5 0.000000 0.000000 0.000000 0.000000 0.038211 0.000000
# 6 0.000000 0.000000 0.000000 0.000000 0.000000 0.055524
#
#
# Mechanical properties :
#
#
# Convention : Reuss Voigt Hill
#
# Bulk Modulus (GPa) = 57.12321 74.41258 65.76789
# Shear Modulus (GPa) = 20.25386 25.22074 22.73730
#
# Velocity S-wave (km/s) = 3.41352 3.80915 3.61675
# Velocity P-wave (km/s) = 6.95697 7.88391 7.43490
#
# Compressibility (1/GPa) = 0.01750602
#
# Stress axis : x y z
#
# Youngs Moduli (GPa) = 105.39327 51.64248 26.24303
#
# Poissons Ratio (x) = 0.15444 0.14284
# Poissons Ratio (y) = 0.31519 0.42756
# Poissons Ratio (z) = 0.57364 0.84137
#
# Static dielectric constant tensor:
#      x y z
#    x 3.509170 0.000000 0.000000 
#    y 0.000000 3.015640 0.000000 
#    z 0.000000 0.000000 3.193610 
# 
# 
# High freq. dielectric constant tensor:
#      x y z
#    x 1.685970 0.000000 0.000000 
#    y 0.000000 1.654460 0.000000 
#    z 0.000000 0.000000 1.672050 
# 
# From -- ./inp_files/3633.got.cif
#   From: 2010.03.12/outbox.cif.g09.slc.cpg/sg55_2_cif.got.tgz:3633.got - 2010.04.16 15:19:21.
