data_PCOD8225094
_publ_section_title
;
Structure prediction by ZEFSAII (Michael W. Deem and Ramdas Pophale) SiO2 
 PCOD8225094
Probable space group: P B A M
;
_chemical_formula_sum "Si O2"
_cell_formula_units_Z 64
_cell_length_a 14.645314
_cell_length_b 24.674558
_cell_length_c 9.188227
_cell_angle_alpha 90.000000
_cell_angle_beta 90.000000
_cell_angle_gamma 90.000000
_cell_volume 3320.318808
_symmetry_space_group_name_H-M "P B A M"
_symmetry_group_IT_number 55
_symmetry_cell_setting 'orthorhombic'
loop_
_space_group_symop_operation_xyz
x,y,z
-x,-y,z
1/2+x,1/2-y,-z
1/2-x,1/2+y,-z
-x,-y,-z
x,y,-z
1/2-x,1/2+y,z
1/2+x,1/2-y,z
loop_
_atom_site_type_symbol
_atom_site_label
_atom_site_fract_x
_atom_site_fract_y
_atom_site_fract_z
Si Si1 0.409812 0.859219 0.162500
Si Si2 0.433863 0.351040 0.831900
Si Si3 0.244662 0.823854 0.329816
Si Si4 0.444387 0.551419 0.172505
Si Si5 0.250324 0.092103 0.826641
Si Si6 0.542442 0.768905 0.839272
Si Si7 0.286965 0.201477 0.328815
Si Si8 0.053185 0.551945 0.828423
O O1 0.327886 0.860858 0.275745
O O2 0.445530 0.797998 0.162184
O O3 0.492363 0.896845 0.216034
O O4 0.376876 0.876393 0.000000
O O5 0.341299 0.352470 0.742462
O O6 0.503490 0.395436 0.770024
O O7 0.481444 0.293223 0.806865
O O8 0.410068 0.362180 0.000000
O O9 0.234241 0.829776 0.500000
O O10 0.256355 0.760254 0.286384
O O11 0.500000 0.500000 0.238251
O O12 0.337593 0.555574 0.220510
O O13 0.447519 0.548490 0.000000
O O14 0.239246 0.151614 0.754661
O O15 0.342918 0.061579 0.770425
O O16 0.253272 0.100685 0.000000
O O17 0.607521 0.795393 0.718761
O O18 0.588849 0.775180 0.000000
O O19 0.280634 0.190483 0.500000
O O20 0.000000 0.500000 0.760529
O O21 0.060434 0.544629 0.000000
#
# Coordination Sequence:
#
# PCOD8225094 Si02
#       8
#     8   8   8   8   8   8   8   8
#     4  10  19  32  53  83 114 144 179 223 271 323
#     4   9  18  34  55  80 108 140 179 229 276 322
#     4  10  22  36  51  78 114 152 186 222 273 330
#     4   9  19  34  56  86 111 137 183 234 279 322
#     4  10  19  34  57  81 108 143 180 230 277 321
#     4   9  17  31  52  80 110 138 176 221 273 326
#     4  10  20  34  52  77 110 146 185 224 268 326
#     4   9  18  33  54  83 113 143 181 220 268 325
#
# _framework density 19.275257
#
# number of rings (size 3 to 8) (size 9 to 14) (size 15 to 20)
#    0.000    2.500    1.250    0.750    1.750    3.000 
#    0.000    4.375    0.000    4.500    0.000    0.000 
#    0.000    0.000    0.000    0.000    0.000    0.000 
#
# Total GULP energy -793158.619903 kJ/mol
# GULP energy per Si atom -12393.103436 kJ/mol
# Density = 1.923139 g / cm^3
# Si number density = 19.275257 Si / 1000 Ang^3
#
#
#
# Elastic Constant Matrix: (Units=GPa)
#
#
# Indices 1 2 3 4 5 6 
#
# 1 144.5695 73.6595 33.0440 0.0000 0.0000 0.0000
# 2 73.6595 105.8137 22.6980 0.0000 0.0000 0.0000
# 3 33.0440 22.6980 40.3048 0.0000 0.0000 0.0000
# 4 0.0000 0.0000 0.0000 15.7225 0.0000 0.0000
# 5 0.0000 0.0000 0.0000 0.0000 1.9957 0.0000
# 6 0.0000 0.0000 0.0000 0.0000 0.0000 28.9295
#
#
#
# Elastic Compliance Matrix: (Units=1/GPa)
#
#
# Indices 1 2 3 4 5 6 
#
# 1 0.011778 -0.006970 -0.005731 0.000000 0.000000 0.000000
# 2 -0.006970 0.014873 -0.002662 0.000000 0.000000 0.000000
# 3 -0.005731 -0.002662 0.031009 0.000000 0.000000 0.000000
# 4 0.000000 0.000000 0.000000 0.063603 0.000000 0.000000
# 5 0.000000 0.000000 0.000000 0.000000 0.501079 0.000000
# 6 0.000000 0.000000 0.000000 0.000000 0.000000 0.034567
#
#
# Mechanical properties :
#
#
# Convention : Reuss Voigt Hill
#
# Bulk Modulus (GPa) = 37.12709 61.05456 49.09083
# Shear Modulus (GPa) = 7.17758 20.08197 13.62978
#
# Velocity S-wave (km/s) = 1.93179 3.23128 2.66204
# Velocity P-wave (km/s) = 4.92738 6.75762 5.91373
#
# Compressibility (1/GPa) = 0.02693451
#
# Stress axis : x y z
#
# Youngs Moduli (GPa) = 84.90260 67.23437 32.24874
#
# Poissons Ratio (x) = 0.46860 0.18483
# Poissons Ratio (y) = 0.59174 0.08585
# Poissons Ratio (z) = 0.48661 0.17898
#
# Static dielectric constant tensor:
#      x y z
#    x 3.566810 0.000000 0.000000 
#    y 0.000000 3.676620 0.000000 
#    z 0.000000 0.000000 3.194890 
# 
# 
# High freq. dielectric constant tensor:
#      x y z
#    x 1.747920 0.000000 0.000000 
#    y 0.000000 1.749140 0.000000 
#    z 0.000000 0.000000 1.709780 
# 
# From -- ./inp_files/6669.got.cif
#   From: 2010.03.12/outbox.cif.g09.slc.cpg/sg55_4_cif.got.tgz:6669.got - 2010.04.16 15:19:21.
