data_PCOD8225755
_publ_section_title
;
Structure prediction by ZEFSAII (Michael W. Deem and Ramdas Pophale) SiO2 
 PCOD8225755
Probable space group: P B A M
;
_chemical_formula_sum "Si O2"
_cell_formula_units_Z 48
_cell_length_a 30.479760
_cell_length_b 9.050346
_cell_length_c 8.312083
_cell_angle_alpha 90.000000
_cell_angle_beta 90.000000
_cell_angle_gamma 90.000000
_cell_volume 2292.907828
_symmetry_space_group_name_H-M "P B A M"
_symmetry_group_IT_number 55
_symmetry_cell_setting 'orthorhombic'
loop_
_space_group_symop_operation_xyz
x,y,z
-x,-y,z
1/2+x,1/2-y,-z
1/2-x,1/2+y,-z
-x,-y,-z
x,y,-z
1/2-x,1/2+y,z
1/2+x,1/2-y,z
loop_
_atom_site_type_symbol
_atom_site_label
_atom_site_fract_x
_atom_site_fract_y
_atom_site_fract_z
Si Si1 0.786363 0.639146 0.686295
Si Si2 0.047720 0.343224 0.311658
Si Si3 0.954069 0.335162 0.812407
Si Si4 0.632268 0.329926 0.690974
Si Si5 0.708150 0.817691 0.184315
Si Si6 0.625060 0.662929 0.309783
O O1 0.793856 0.599363 0.500000
O O2 0.825255 0.742467 0.755040
O O3 0.785139 0.490558 0.788010
O O4 0.740546 0.723957 0.703667
O O5 0.040240 0.317062 0.500000
O O6 0.057714 0.514926 0.281262
O O7 0.088274 0.248041 0.244032
O O8 0.004490 0.290201 0.217415
O O9 0.923902 0.205321 0.743220
O O10 0.945762 0.359559 0.000000
O O11 0.632051 0.327510 0.500000
O O12 0.634508 0.497621 0.753861
O O13 0.658466 0.775663 0.226799
O O14 0.718436 0.780766 0.000000
O O15 0.630034 0.673760 0.500000
#
# Coordination Sequence:
#
# PCOD8225755 Si02
#       6
#     8   8   8   8   8   8
#     4  11  22  41  66  91 119 160 204 244 294 362
#     4  10  19  37  62  87 113 152 200 247 296 355
#     4  11  22  37  56  86 121 155 194 244 300 357
#     4   9  21  38  61  88 114 147 199 251 290 340
#     4  12  25  41  61  92 126 157 195 250 307 355
#     4  11  22  40  62  86 116 157 202 246 294 357
#
# _framework density 20.934117000000001
#
# number of rings (size 3 to 8) (size 9 to 14) (size 15 to 20)
#    0.000    1.333    0.000    7.500    0.000    3.333 
#    0.000   11.667    0.000    0.000    0.000    0.000 
#    0.000    0.000    0.000    0.000    0.000    0.000 
#
# Total GULP energy -595534.765992 kJ/mol
# GULP energy per Si atom -12406.974291 kJ/mol
# Density = 2.088647 g / cm^3
# Si number density = 20.934117 Si / 1000 Ang^3
#
#
#
# Elastic Constant Matrix: (Units=GPa)
#
#
# Indices 1 2 3 4 5 6 
#
# 1 110.0545 47.0748 16.4542 0.0000 0.0000 0.0000
# 2 47.0748 91.2586 19.5954 0.0000 0.0000 0.0000
# 3 16.4542 19.5954 63.0263 0.0000 0.0000 0.0000
# 4 0.0000 0.0000 0.0000 16.1412 0.0000 0.0000
# 5 0.0000 0.0000 0.0000 0.0000 20.6332 0.0000
# 6 0.0000 0.0000 0.0000 0.0000 0.0000 46.0780
#
#
#
# Elastic Compliance Matrix: (Units=1/GPa)
#
#
# Indices 1 2 3 4 5 6 
#
# 1 0.011753 -0.005790 -0.001268 0.000000 0.000000 0.000000
# 2 -0.005790 0.014594 -0.003026 0.000000 0.000000 0.000000
# 3 -0.001268 -0.003026 0.017138 0.000000 0.000000 0.000000
# 4 0.000000 0.000000 0.000000 0.061953 0.000000 0.000000
# 5 0.000000 0.000000 0.000000 0.000000 0.048466 0.000000
# 6 0.000000 0.000000 0.000000 0.000000 0.000000 0.021702
#
#
# Mechanical properties :
#
#
# Convention : Reuss Voigt Hill
#
# Bulk Modulus (GPa) = 42.88708 47.84313 45.36510
# Shear Modulus (GPa) = 24.56432 28.65148 26.60790
#
# Velocity S-wave (km/s) = 3.42922 3.70354 3.56902
# Velocity P-wave (km/s) = 6.01753 6.41810 6.22104
#
# Compressibility (1/GPa) = 0.02331705
#
# Stress axis : x y z
#
# Youngs Moduli (GPa) = 85.08676 68.51930 58.34920
#
# Poissons Ratio (x) = 0.39674 0.07399
# Poissons Ratio (y) = 0.49267 0.17656
# Poissons Ratio (z) = 0.10789 0.20733
#
# Static dielectric constant tensor:
#      x y z
#    x 3.965560 0.000000 0.000000 
#    y 0.000000 3.823880 0.000000 
#    z 0.000000 0.000000 3.575890 
# 
# 
# High freq. dielectric constant tensor:
#      x y z
#    x 1.833880 0.000000 0.000000 
#    y 0.000000 1.821080 0.000000 
#    z 0.000000 0.000000 1.811000 
# 
# From -- ./inp_files/10547.got.cif
#   From: 2010.03.12/outbox.cif.g09.slc.cpg/sg55_6_cif.got.tgz:10547.got - 2010.04.16 15:19:21.
