data_PCOD8225349
_publ_section_title
;
Structure prediction by ZEFSAII (Michael W. Deem and Ramdas Pophale) SiO2 
 PCOD8225349
Probable space group: P B A M
;
_chemical_formula_sum "Si O2"
_cell_formula_units_Z 56
_cell_length_a 21.045706
_cell_length_b 15.057789
_cell_length_c 9.016336
_cell_angle_alpha 90.000000
_cell_angle_beta 90.000000
_cell_angle_gamma 90.000000
_cell_volume 2857.293111
_symmetry_space_group_name_H-M "P B A M"
_symmetry_group_IT_number 55
_symmetry_cell_setting 'orthorhombic'
loop_
_space_group_symop_operation_xyz
x,y,z
-x,-y,z
1/2+x,1/2-y,-z
1/2-x,1/2+y,-z
-x,-y,-z
x,y,-z
1/2-x,1/2+y,z
1/2+x,1/2-y,z
loop_
_atom_site_type_symbol
_atom_site_label
_atom_site_fract_x
_atom_site_fract_y
_atom_site_fract_z
Si Si1 0.727147 0.811668 0.677412
Si Si2 0.235574 0.488358 0.326593
Si Si3 0.454951 0.579410 0.833514
Si Si4 0.400545 0.253426 0.829576
Si Si5 0.527704 0.244519 0.326064
Si Si6 0.646143 0.559250 0.837098
Si Si7 0.337651 0.821528 0.323991
O O1 0.723118 0.809312 0.500000
O O2 0.661797 0.775883 0.742937
O O3 0.786809 0.752206 0.735390
O O4 0.733005 0.912599 0.741052
O O5 0.232055 0.498245 0.500000
O O6 0.300069 0.436992 0.286664
O O7 0.179935 0.421647 0.271304
O O8 0.500000 0.500000 0.787327
O O9 0.459826 0.652846 0.707932
O O10 0.384896 0.537759 0.829766
O O11 0.470799 0.616333 0.000000
O O12 0.464191 0.210972 0.757730
O O13 0.404885 0.360955 0.813157
O O14 0.396522 0.222723 0.000000
O O15 0.517494 0.229981 0.500000
O O16 0.590667 0.194270 0.265591
O O17 0.677329 0.572558 0.000000
O O18 0.336946 0.813683 0.500000
#
# Coordination Sequence:
#
# PCOD8225349 Si02
#       7
#     8   8   8   8   8   8   8
#     4  10  20  37  61  87 112 146 191 234 282 339
#     4  10  20  36  60  84 112 145 183 238 291 332
#     4  10  19  34  51  74 113 149 179 222 279 341
#     4  11  22  38  57  81 115 153 189 232 284 336
#     4  11  22  36  56  83 115 151 193 238 284 342
#     4  10  20  34  54  79 111 148 185 226 280 343
#     4   9  19  36  56  84 118 145 181 237 289 336
#
# _framework density 19.598967999999999
#
# number of rings (size 3 to 8) (size 9 to 14) (size 15 to 20)
#    0.000    1.857    2.857    1.714    0.000    3.143 
#    0.000    3.571    0.000    4.286    0.000    0.000 
#    0.000    0.000    0.000    0.000    0.000    0.000 
#
# Total GULP energy -694061.252697 kJ/mol
# GULP energy per Si atom -12393.950941 kJ/mol
# Density = 1.955436 g / cm^3
# Si number density = 19.598968 Si / 1000 Ang^3
#
#
#
# Elastic Constant Matrix: (Units=GPa)
#
#
# Indices 1 2 3 4 5 6 
#
# 1 117.5411 21.3072 22.2157 0.0000 0.0000 0.0000
# 2 21.3072 66.8947 17.8727 0.0000 0.0000 0.0000
# 3 22.2157 17.8727 28.7653 0.0000 0.0000 0.0000
# 4 0.0000 0.0000 0.0000 15.4728 0.0000 0.0000
# 5 0.0000 0.0000 0.0000 0.0000 22.7201 0.0000
# 6 0.0000 0.0000 0.0000 0.0000 0.0000 25.8248
#
#
#
# Elastic Compliance Matrix: (Units=1/GPa)
#
#
# Indices 1 2 3 4 5 6 
#
# 1 0.010063 -0.001354 -0.006931 0.000000 0.000000 0.000000
# 2 -0.001354 0.018106 -0.010205 0.000000 0.000000 0.000000
# 3 -0.006931 -0.010205 0.046457 0.000000 0.000000 0.000000
# 4 0.000000 0.000000 0.000000 0.064629 0.000000 0.000000
# 5 0.000000 0.000000 0.000000 0.000000 0.044014 0.000000
# 6 0.000000 0.000000 0.000000 0.000000 0.000000 0.038722
#
#
# Mechanical properties :
#
#
# Convention : Reuss Voigt Hill
#
# Bulk Modulus (GPa) = 26.56135 37.33249 31.94692
# Shear Modulus (GPa) = 18.41486 22.92392 20.66939
#
# Velocity S-wave (km/s) = 3.06859 3.42372 3.25101
# Velocity P-wave (km/s) = 5.11242 5.89226 5.51614
#
# Compressibility (1/GPa) = 0.03764869
#
# Stress axis : x y z
#
# Youngs Moduli (GPa) = 99.37444 55.22900 21.52521
#
# Poissons Ratio (x) = 0.07475 0.14919
# Poissons Ratio (y) = 0.13450 0.21966
# Poissons Ratio (z) = 0.68874 0.56360
#
# Static dielectric constant tensor:
#      x y z
#    x 3.692810 0.000000 0.000000 
#    y 0.000000 3.797740 0.000000 
#    z 0.000000 0.000000 3.320500 
# 
# 
# High freq. dielectric constant tensor:
#      x y z
#    x 1.770330 0.000000 0.000000 
#    y 0.000000 1.750680 0.000000 
#    z 0.000000 0.000000 1.741170 
# 
# From -- ./inp_files/8698.got.cif
#   From: 2010.03.12/outbox.cif.g09.slc.cpg/sg55_5_cif.got.tgz:8698.got - 2010.04.16 15:19:21.
