data_PCOD8225652
_publ_section_title
;
Structure prediction by ZEFSAII (Michael W. Deem and Ramdas Pophale) SiO2 
 PCOD8225652
Probable space group: P B A M
;
_chemical_formula_sum "Si O2"
_cell_formula_units_Z 64
_cell_length_a 15.066750
_cell_length_b 12.446732
_cell_length_c 17.809025
_cell_angle_alpha 90.000000
_cell_angle_beta 90.000000
_cell_angle_gamma 90.000000
_cell_volume 3339.758503
_symmetry_space_group_name_H-M "P B A M"
_symmetry_group_IT_number 55
_symmetry_cell_setting 'orthorhombic'
loop_
_space_group_symop_operation_xyz
x,y,z
-x,-y,z
1/2+x,1/2-y,-z
1/2-x,1/2+y,-z
-x,-y,-z
x,y,-z
1/2-x,1/2+y,z
1/2+x,1/2-y,z
loop_
_atom_site_type_symbol
_atom_site_label
_atom_site_fract_x
_atom_site_fract_y
_atom_site_fract_z
Si Si1 0.671330 0.161551 0.787305
Si Si2 0.985871 0.247072 0.216039
Si Si3 0.736195 0.779224 0.335627
Si Si4 0.158690 0.586319 0.791548
Si Si5 0.890699 0.903303 0.586455
Si Si6 0.028438 0.114255 0.083766
Si Si7 0.579794 0.636573 0.642102
Si Si8 0.724378 0.309593 0.913778
O O1 0.588082 0.235011 0.763092
O O2 0.739561 0.179833 0.719403
O O3 0.710826 0.198250 0.867967
O O4 0.643656 0.039441 0.793324
O O5 0.937167 0.360637 0.217857
O O6 0.943164 0.158603 0.270856
O O7 0.978303 0.203962 0.131614
O O8 0.714922 0.880398 0.281894
O O9 0.814778 0.818088 0.390069
O O10 0.652673 0.728179 0.382513
O O11 0.202536 0.620728 0.870266
O O12 0.875441 0.932526 0.500000
O O13 0.988220 0.849590 0.595357
O O14 0.883800 0.015053 0.632870
O O15 0.134318 0.122206 0.087313
O O16 0.992038 0.129412 0.000000
O O17 0.000000 0.000000 0.116888
O O18 0.753379 0.285220 0.000000
#
# Coordination Sequence:
#
# PCOD8225652 Si02
#       8
#     8   8   8   8   8   8   8   8
#     4  10  19  36  56  79 111 146 193 232 288 344
#     4  10  20  34  56  81 112 149 188 238 285 340
#     4  10  21  38  59  87 117 152 189 240 291 345
#     4  10  21  34  55  83 109 147 194 233 282 350
#     4  11  23  39  62  90 119 153 192 240 293 352
#     4   9  19  33  51  76 107 144 186 234 286 336
#     4  10  21  37  60  90 117 151 198 239 289 350
#     4   9  20  35  50  75 110 144 186 240 287 332
#
# _framework density 19.163062
#
# number of rings (size 3 to 8) (size 9 to 14) (size 15 to 20)
#    0.000    2.125    1.250    1.875    1.750    5.000 
#    0.000    1.250    0.000    3.750    0.000    3.500 
#    0.000    0.000    0.000    0.000    0.000    0.000 
#
# Total GULP energy -793333.150998 kJ/mol
# GULP energy per Si atom -12395.830484 kJ/mol
# Density = 1.911945 g / cm^3
# Si number density = 19.163062 Si / 1000 Ang^3
#
#
#
# Elastic Constant Matrix: (Units=GPa)
#
#
# Indices 1 2 3 4 5 6 
#
# 1 78.3623 32.3868 34.8208 0.0000 0.0000 0.0000
# 2 32.3868 103.5218 43.8348 0.0000 0.0000 0.0000
# 3 34.8208 43.8348 83.9213 0.0000 0.0000 0.0000
# 4 0.0000 0.0000 0.0000 18.1390 0.0000 0.0000
# 5 0.0000 0.0000 0.0000 0.0000 21.7062 0.0000
# 6 0.0000 0.0000 0.0000 0.0000 0.0000 28.0480
#
#
#
# Elastic Compliance Matrix: (Units=1/GPa)
#
#
# Indices 1 2 3 4 5 6 
#
# 1 0.016283 -0.002868 -0.005258 0.000000 0.000000 0.000000
# 2 -0.002868 0.012908 -0.005552 0.000000 0.000000 0.000000
# 3 -0.005258 -0.005552 0.016998 0.000000 0.000000 0.000000
# 4 0.000000 0.000000 0.000000 0.055130 0.000000 0.000000
# 5 0.000000 0.000000 0.000000 0.000000 0.046070 0.000000
# 6 0.000000 0.000000 0.000000 0.000000 0.000000 0.035653
#
#
# Mechanical properties :
#
#
# Convention : Reuss Voigt Hill
#
# Bulk Modulus (GPa) = 53.10048 54.21002 53.65525
# Shear Modulus (GPa) = 23.07594 23.89617 23.48606
#
# Velocity S-wave (km/s) = 3.47391 3.53511 3.50464
# Velocity P-wave (km/s) = 6.62274 6.70916 6.66609
#
# Compressibility (1/GPa) = 0.01883222
#
# Stress axis : x y z
#
# Youngs Moduli (GPa) = 61.41388 77.47114 58.83059
#
# Poissons Ratio (x) = 0.22215 0.30935
# Poissons Ratio (y) = 0.17611 0.32665
# Poissons Ratio (z) = 0.32293 0.43016
#
# Static dielectric constant tensor:
#      x y z
#    x 3.638050 0.000000 0.000000 
#    y 0.000000 3.331310 0.000000 
#    z 0.000000 0.000000 3.429580 
# 
# 
# High freq. dielectric constant tensor:
#      x y z
#    x 1.753870 0.000000 0.000000 
#    y 0.000000 1.733200 0.000000 
#    z 0.000000 0.000000 1.734750 
# 
# From -- ./inp_files/21381.got.cif
#   From: 2010.03.12/outbox.cif.g09.slc.cpg/sg55_11_cif.got.tgz:21381.got - 2010.04.16 15:19:21.
