data_PCOD8225003
_publ_section_title
;
Structure prediction by ZEFSAII (Michael W. Deem and Ramdas Pophale) SiO2 
 PCOD8225003
Probable space group: P B A M
;
_chemical_formula_sum "Si O2"
_cell_formula_units_Z 56
_cell_length_a 18.855798
_cell_length_b 18.411025
_cell_length_c 8.955015
_cell_angle_alpha 90.000000
_cell_angle_beta 90.000000
_cell_angle_gamma 90.000000
_cell_volume 3108.774367
_symmetry_space_group_name_H-M "P B A M"
_symmetry_group_IT_number 55
_symmetry_cell_setting 'orthorhombic'
loop_
_space_group_symop_operation_xyz
x,y,z
-x,-y,z
1/2+x,1/2-y,-z
1/2-x,1/2+y,-z
-x,-y,-z
x,y,-z
1/2-x,1/2+y,z
1/2+x,1/2-y,z
loop_
_atom_site_type_symbol
_atom_site_label
_atom_site_fract_x
_atom_site_fract_y
_atom_site_fract_z
Si Si1 0.633614 0.038948 0.678696
Si Si2 0.390793 0.695914 0.323596
Si Si3 0.216785 0.990516 0.663082
Si Si4 0.261625 0.156193 0.336668
Si Si5 0.428237 0.535102 0.678699
Si Si6 0.452582 0.834144 0.827588
Si Si7 0.606866 0.889635 0.171506
O O1 0.634303 0.035520 0.500000
O O2 0.588695 0.106309 0.732648
O O3 0.715203 0.047532 0.742079
O O4 0.599696 0.964166 0.736687
O O5 0.401241 0.708265 0.500000
O O6 0.306979 0.701829 0.281456
O O7 0.423474 0.618816 0.272173
O O8 0.433121 0.755069 0.230517
O O9 0.208237 0.954565 0.500000
O O10 0.236061 0.074424 0.645777
O O11 0.139611 0.988768 0.744550
O O12 0.286261 0.184625 0.500000
O O13 0.327743 0.161268 0.223910
O O14 0.500000 0.500000 0.743471
O O15 0.425049 0.530269 0.500000
O O16 0.536183 0.843466 0.803479
O O17 0.431420 0.842906 0.000000
O O18 0.618370 0.910762 0.000000
#
# Coordination Sequence:
#
# PCOD8225003 Si02
#       7
#     8   8   8   8   8   8   8
#     4  10  19  32  51  72  97 131 170 213 255 296
#     4   9  18  33  52  74  99 129 168 209 250 300
#     4   7  12  24  43  69  96 117 145 190 239 284
#     4   8  15  30  51  71  91 120 161 205 243 287
#     4   8  13  25  49  77 100 122 153 199 250 293
#     4  11  23  35  47  69 104 138 166 204 255 309
#     4  10  20  33  50  73 100 131 168 208 251 302
#
# _framework density 18.013531
#
# number of rings (size 3 to 8) (size 9 to 14) (size 15 to 20)
#    0.000    3.000    0.000    4.286    0.000    4.571 
#    0.000    1.429    0.000    3.857    0.000    0.000 
#    0.000    0.000    0.000    0.000    0.000    0.000 
#
# Total GULP energy -693803.142557 kJ/mol
# GULP energy per Si atom -12389.341831 kJ/mol
# Density = 1.797253 g / cm^3
# Si number density = 18.013531 Si / 1000 Ang^3
#
#
#
# Elastic Constant Matrix: (Units=GPa)
#
#
# Indices 1 2 3 4 5 6 
#
# 1 148.6970 52.8883 52.4664 0.0000 0.0000 0.0000
# 2 52.8883 67.0945 32.2265 0.0000 0.0000 0.0000
# 3 52.4664 32.2265 64.4164 0.0000 0.0000 0.0000
# 4 0.0000 0.0000 0.0000 16.5207 0.0000 0.0000
# 5 0.0000 0.0000 0.0000 0.0000 19.5937 0.0000
# 6 0.0000 0.0000 0.0000 0.0000 0.0000 22.6397
#
#
#
# Elastic Compliance Matrix: (Units=1/GPa)
#
#
# Indices 1 2 3 4 5 6 
#
# 1 0.010865 -0.005678 -0.006008 0.000000 0.000000 0.000000
# 2 -0.005678 0.022586 -0.006675 0.000000 0.000000 0.000000
# 3 -0.006008 -0.006675 0.023757 0.000000 0.000000 0.000000
# 4 0.000000 0.000000 0.000000 0.060530 0.000000 0.000000
# 5 0.000000 0.000000 0.000000 0.000000 0.051037 0.000000
# 6 0.000000 0.000000 0.000000 0.000000 0.000000 0.044170
#
#
# Mechanical properties :
#
#
# Convention : Reuss Voigt Hill
#
# Bulk Modulus (GPa) = 48.81560 61.70784 55.26172
# Shear Modulus (GPa) = 19.49341 21.25924 20.37632
#
# Velocity S-wave (km/s) = 3.29318 3.43910 3.36693
# Velocity P-wave (km/s) = 6.45122 7.07818 6.77196
#
# Compressibility (1/GPa) = 0.02048525
#
# Stress axis : x y z
#
# Youngs Moduli (GPa) = 92.04037 44.27447 42.09288
#
# Poissons Ratio (x) = 0.25141 0.25291
# Poissons Ratio (y) = 0.52264 0.28095
# Poissons Ratio (z) = 0.55302 0.29551
#
# Static dielectric constant tensor:
#      x y z
#    x 3.914320 0.000000 0.000000 
#    y 0.000000 3.036000 0.000000 
#    z 0.000000 0.000000 3.090910 
# 
# 
# High freq. dielectric constant tensor:
#      x y z
#    x 1.717010 0.000000 0.000000 
#    y 0.000000 1.662890 0.000000 
#    z 0.000000 0.000000 1.668050 
# 
# From -- ./inp_files/7858.got.cif
#   From: 2010.03.12/outbox.cif.g09.slc.cpg/sg55_4_cif.got.tgz:7858.got - 2010.04.16 15:19:21.
