data_PCOD8225332
_publ_section_title
;
Structure prediction by ZEFSAII (Michael W. Deem and Ramdas Pophale) SiO2 
 PCOD8225332
Probable space group: P B A M
;
_chemical_formula_sum "Si O2"
_cell_formula_units_Z 56
_cell_length_a 14.760111
_cell_length_b 21.912860
_cell_length_c 8.765746
_cell_angle_alpha 90.000000
_cell_angle_beta 90.000000
_cell_angle_gamma 90.000000
_cell_volume 2835.159979
_symmetry_space_group_name_H-M "P B A M"
_symmetry_group_IT_number 55
_symmetry_cell_setting 'orthorhombic'
loop_
_space_group_symop_operation_xyz
x,y,z
-x,-y,z
1/2+x,1/2-y,-z
1/2-x,1/2+y,-z
-x,-y,-z
x,y,-z
1/2-x,1/2+y,z
1/2+x,1/2-y,z
loop_
_atom_site_type_symbol
_atom_site_label
_atom_site_fract_x
_atom_site_fract_y
_atom_site_fract_z
Si Si1 0.121317 0.756205 0.321829
Si Si2 0.318737 0.720342 0.318253
Si Si3 0.547349 0.178017 0.678153
Si Si4 0.396493 0.592755 0.680716
Si Si5 0.921835 0.543819 0.681312
Si Si6 0.416302 0.384331 0.179769
Si Si7 0.282016 0.476085 0.320247
O O1 0.123840 0.773806 0.500000
O O2 0.218056 0.734347 0.259695
O O3 0.085768 0.814396 0.231260
O O4 0.054787 0.699597 0.291015
O O5 0.321817 0.718649 0.500000
O O6 0.383238 0.772987 0.249953
O O7 0.352033 0.655054 0.255867
O O8 0.568488 0.174185 0.500000
O O9 0.562704 0.111437 0.751183
O O10 0.408539 0.594511 0.500000
O O11 0.494996 0.582569 0.753145
O O12 0.331331 0.537878 0.732210
O O13 0.930903 0.545905 0.500000
O O14 0.822975 0.519443 0.729995
O O15 0.000000 0.500000 0.749334
O O16 0.326767 0.418071 0.239317
O O17 0.419879 0.388168 0.000000
O O18 0.290341 0.465645 0.500000
#
# Coordination Sequence:
#
# PCOD8225332 Si02
#       7
#     8   8   8   8   8   8   8
#     4  10  19  33  58  83 110 144 184 230 278 334
#     4   9  17  30  53  84 111 140 183 230 279 332
#     4   9  16  28  49  78 111 143 172 217 275 328
#     4  10  20  36  58  85 112 144 189 238 287 338
#     4   9  18  31  52  87 122 145 178 229 283 335
#     4  12  24  38  56  81 114 152 192 235 285 337
#     4  10  21  36  58  84 115 152 189 233 283 338
#
# _framework density 19.751971999999999
#
# number of rings (size 3 to 8) (size 9 to 14) (size 15 to 20)
#    0.000    2.143    1.429    2.571    2.000    4.571 
#    0.000    0.714    0.000    0.429    0.000    0.000 
#    0.000    0.000    0.000    0.000    0.000    0.000 
#
# Total GULP energy -694485.309389 kJ/mol
# GULP energy per Si atom -12401.523382 kJ/mol
# Density = 1.970702 g / cm^3
# Si number density = 19.751972 Si / 1000 Ang^3
#
#
#
# Elastic Constant Matrix: (Units=GPa)
#
#
# Indices 1 2 3 4 5 6 
#
# 1 149.2354 50.2535 21.6205 0.0000 0.0000 0.0000
# 2 50.2535 121.7939 16.1405 0.0000 0.0000 0.0000
# 3 21.6205 16.1405 28.5518 0.0000 0.0000 0.0000
# 4 0.0000 0.0000 0.0000 5.3001 0.0000 0.0000
# 5 0.0000 0.0000 0.0000 0.0000 1.1188 0.0000
# 6 0.0000 0.0000 0.0000 0.0000 0.0000 39.8640
#
#
#
# Elastic Compliance Matrix: (Units=1/GPa)
#
#
# Indices 1 2 3 4 5 6 
#
# 1 0.008332 -0.002812 -0.004719 0.000000 0.000000 0.000000
# 2 -0.002812 0.009825 -0.003424 0.000000 0.000000 0.000000
# 3 -0.004719 -0.003424 0.040533 0.000000 0.000000 0.000000
# 4 0.000000 0.000000 0.000000 0.188677 0.000000 0.000000
# 5 0.000000 0.000000 0.000000 0.000000 0.893813 0.000000
# 6 0.000000 0.000000 0.000000 0.000000 0.000000 0.025085
#
#
# Mechanical properties :
#
#
# Convention : Reuss Voigt Hill
#
# Bulk Modulus (GPa) = 27.19020 52.84557 40.01788
# Shear Modulus (GPa) = 4.16515 23.36101 13.76308
#
# Velocity S-wave (km/s) = 1.45372 3.44280 2.64255
# Velocity P-wave (km/s) = 4.07596 6.52813 5.44196
#
# Compressibility (1/GPa) = 0.03677796
#
# Stress axis : x y z
#
# Youngs Moduli (GPa) = 120.02623 101.78336 24.67102
#
# Poissons Ratio (x) = 0.28624 0.11643
# Poissons Ratio (y) = 0.33755 0.08448
# Poissons Ratio (z) = 0.56642 0.34855
#
# Static dielectric constant tensor:
#      x y z
#    x 3.837150 0.000000 0.000000 
#    y 0.000000 3.825920 0.000000 
#    z 0.000000 0.000000 2.972410 
# 
# 
# High freq. dielectric constant tensor:
#      x y z
#    x 1.787230 0.000000 0.000000 
#    y 0.000000 1.782850 0.000000 
#    z 0.000000 0.000000 1.702980 
# 
# From -- ./inp_files/6066.got.cif
#   From: 2010.03.12/outbox.cif.g09.slc.cpg/sg55_4_cif.got.tgz:6066.got - 2010.04.16 15:19:21.
