data_PCOD8225949
_publ_section_title
;
Structure prediction by ZEFSAII (Michael W. Deem and Ramdas Pophale) SiO2 
 PCOD8225949
Probable space group: P B A M
;
_chemical_formula_sum "Si O2"
_cell_formula_units_Z 44
_cell_length_a 4.975214
_cell_length_b 30.844557
_cell_length_c 14.836776
_cell_angle_alpha 90.000000
_cell_angle_beta 90.000000
_cell_angle_gamma 90.000000
_cell_volume 2276.826004
_symmetry_space_group_name_H-M "P B A M"
_symmetry_group_IT_number 55
_symmetry_cell_setting 'orthorhombic'
loop_
_space_group_symop_operation_xyz
x,y,z
-x,-y,z
1/2+x,1/2-y,-z
1/2-x,1/2+y,-z
-x,-y,-z
x,y,-z
1/2-x,1/2+y,z
1/2+x,1/2-y,z
loop_
_atom_site_type_symbol
_atom_site_label
_atom_site_fract_x
_atom_site_fract_y
_atom_site_fract_z
Si Si1 0.589933 0.084667 0.329428
Si Si2 0.396240 0.953144 0.857578
Si Si3 0.802070 0.778876 0.398213
Si Si4 0.243521 0.468798 0.500000
Si Si5 0.890718 0.900065 0.098479
Si Si6 0.415451 0.637352 0.711886
O O1 0.593605 0.049127 0.250606
O O2 0.718878 0.062126 0.415061
O O3 0.287082 0.103278 0.337259
O O4 0.778833 0.125898 0.311134
O O5 0.589915 0.918194 0.902842
O O6 0.093821 0.940820 0.887229
O O7 0.500000 0.000000 0.889673
O O8 0.835808 0.797997 0.500000
O O9 0.502931 0.761203 0.383909
O O10 0.854787 0.814827 0.322875
O O11 0.500000 0.500000 0.500000
O O12 0.000000 0.500000 0.500000
O O13 0.900427 0.864673 0.178737
O O14 0.944664 0.878495 0.000000
#
# Coordination Sequence:
#
# PCOD8225949 Si02
#       6
#     8   8   8   4   8   8
#     4  10  22  35  53  77 104 149 186 223 266 322
#     4  10  20  34  51  74 106 140 182 233 280 316
#     4  10  21  36  58  87 112 138 170 216 270 325
#     4  12  24  36  52  76 108 146 192 232 264 306
#     4  10  21  35  53  78 104 140 185 225 274 322
#     4  10  21  38  57  79 110 143 178 219 271 327
#
# _framework density 19.325147000000001
#
# number of rings (size 3 to 8) (size 9 to 14) (size 15 to 20)
#    0.000    1.818    0.000    3.818    2.545    5.091 
#    0.000    0.000    0.000    1.091    0.000    0.000 
#    0.000    0.000    0.000    0.000    0.000    0.000 
#
# Total GULP energy -545404.752501 kJ/mol
# GULP energy per Si atom -12395.562557 kJ/mol
# Density = 1.928116 g / cm^3
# Si number density = 19.325147 Si / 1000 Ang^3
#
#
#
# Elastic Constant Matrix: (Units=GPa)
#
#
# Indices 1 2 3 4 5 6 
#
# 1 81.9639 4.4451 15.3709 0.0000 0.0000 0.0000
# 2 4.4451 66.5256 55.2144 0.0000 0.0000 0.0000
# 3 15.3709 55.2144 141.2097 0.0000 0.0000 0.0000
# 4 0.0000 0.0000 0.0000 10.5729 0.0000 0.0000
# 5 0.0000 0.0000 0.0000 0.0000 9.9136 0.0000
# 6 0.0000 0.0000 0.0000 0.0000 0.0000 21.8890
#
#
#
# Elastic Compliance Matrix: (Units=1/GPa)
#
#
# Indices 1 2 3 4 5 6 
#
# 1 0.012463 0.000434 -0.001526 0.000000 0.000000 0.000000
# 2 0.000434 0.022269 -0.008755 0.000000 0.000000 0.000000
# 3 -0.001526 -0.008755 0.010671 0.000000 0.000000 0.000000
# 4 0.000000 0.000000 0.000000 0.094582 0.000000 0.000000
# 5 0.000000 0.000000 0.000000 0.000000 0.100871 0.000000
# 6 0.000000 0.000000 0.000000 0.000000 0.000000 0.045685
#
#
# Mechanical properties :
#
#
# Convention : Reuss Voigt Hill
#
# Bulk Modulus (GPa) = 38.89651 48.86223 43.87937
# Shear Modulus (GPa) = 15.88288 22.78636 19.33462
#
# Velocity S-wave (km/s) = 2.86995 3.43753 3.16648
# Velocity P-wave (km/s) = 5.58151 6.41051 6.01032
#
# Compressibility (1/GPa) = 0.02570925
#
# Stress axis : x y z
#
# Youngs Moduli (GPa) = 80.23624 44.90572 93.71235
#
# Poissons Ratio (x) = -0.01949 0.14304
# Poissons Ratio (y) = -0.03483 0.82041
# Poissons Ratio (z) = 0.12247 0.39313
#
# Static dielectric constant tensor:
#      x y z
#    x 3.777830 0.000000 0.000000 
#    y 0.000000 3.054980 0.000000 
#    z 0.000000 0.000000 3.769020 
# 
# 
# High freq. dielectric constant tensor:
#      x y z
#    x 1.777950 0.000000 0.000000 
#    y 0.000000 1.708780 0.000000 
#    z 0.000000 0.000000 1.756170 
# 
# From -- ./inp_files/16617.got.cif
#   From: 2010.03.12/outbox.cif.g09.slc.cpg/sg55_9_cif.got.tgz:16617.got - 2010.04.16 15:19:21.
