data_PCOD8225982
_publ_section_title
;
Structure prediction by ZEFSAII (Michael W. Deem and Ramdas Pophale) SiO2 
 PCOD8225982
Probable space group: P B A M
;
_chemical_formula_sum "Si O2"
_cell_formula_units_Z 64
_cell_length_a 28.344248
_cell_length_b 14.211466
_cell_length_c 8.859891
_cell_angle_alpha 90.000000
_cell_angle_beta 90.000000
_cell_angle_gamma 90.000000
_cell_volume 3568.882080
_symmetry_space_group_name_H-M "P B A M"
_symmetry_group_IT_number 55
_symmetry_cell_setting 'orthorhombic'
loop_
_space_group_symop_operation_xyz
x,y,z
-x,-y,z
1/2+x,1/2-y,-z
1/2-x,1/2+y,-z
-x,-y,-z
x,y,-z
1/2-x,1/2+y,z
1/2+x,1/2-y,z
loop_
_atom_site_type_symbol
_atom_site_label
_atom_site_fract_x
_atom_site_fract_y
_atom_site_fract_z
Si Si1 0.821958 0.260299 0.323171
Si Si2 0.499266 0.603795 0.178892
Si Si3 0.077660 0.750293 0.176957
Si Si4 0.925212 0.749782 0.820139
Si Si5 0.252551 0.102548 0.176848
Si Si6 0.000007 0.603804 0.821126
Si Si7 0.250124 0.401424 0.677435
Si Si8 0.180502 0.265056 0.822538
O O1 0.818714 0.278748 0.500000
O O2 0.875427 0.246858 0.274173
O O3 0.800360 0.351725 0.241330
O O4 0.793680 0.166012 0.277174
O O5 0.500000 0.500000 0.251975
O O6 0.547019 0.658478 0.222393
O O7 0.452907 0.658039 0.240105
O O8 0.495715 0.597838 0.000000
O O9 0.048053 0.657610 0.222677
O O10 0.090204 0.750425 0.000000
O O11 0.872171 0.748470 0.757422
O O12 0.953867 0.658696 0.760750
O O13 0.924584 0.750955 0.000000
O O14 0.208898 0.170469 0.216734
O O15 0.241317 0.002587 0.249966
O O16 0.259102 0.088515 0.000000
O O17 0.000000 0.500000 0.748050
O O18 0.996629 0.598035 0.000000
O O19 0.245399 0.413800 0.500000
O O20 0.202224 0.355589 0.740353
O O21 0.180913 0.285733 0.000000
#
# Coordination Sequence:
#
# PCOD8225982 Si02
#       8
#     8   8   8   8   8   8   8   8
#     4  10  21  36  52  71 101 138 169 202 249 304
#     4   8  14  25  43  69 100 129 157 197 247 292
#     4   9  17  29  48  73  96 123 165 208 242 286
#     4   8  14  25  41  64  94 125 158 195 238 288
#     4  10  20  34  53  76 100 126 164 213 254 291
#     4   8  14  25  42  67  98 126 153 191 239 288
#     4  10  21  36  52  71  99 134 167 200 247 304
#     4   9  18  32  51  75 100 128 165 208 248 288
#
# _framework density 17.932786
#
# number of rings (size 3 to 8) (size 9 to 14) (size 15 to 20)
#    0.000    3.000    0.000    2.625    0.000    4.000 
#    0.000    5.000    0.000    3.750    0.000    0.000 
#    0.000    0.000    0.000    0.000    0.000    0.000 
#
# Total GULP energy -793444.319167 kJ/mol
# GULP energy per Si atom -12397.567487 kJ/mol
# Density = 1.789197 g / cm^3
# Si number density = 17.932786 Si / 1000 Ang^3
#
#
#
# Elastic Constant Matrix: (Units=GPa)
#
#
# Indices 1 2 3 4 5 6 
#
# 1 141.5249 63.5950 26.9994 0.0000 0.0000 0.0000
# 2 63.5950 155.8568 32.8640 0.0000 0.0000 0.0000
# 3 26.9994 32.8640 42.5912 0.0000 0.0000 0.0000
# 4 0.0000 0.0000 0.0000 20.5117 0.0000 0.0000
# 5 0.0000 0.0000 0.0000 0.0000 15.5983 0.0000
# 6 0.0000 0.0000 0.0000 0.0000 0.0000 14.8635
#
#
#
# Elastic Compliance Matrix: (Units=1/GPa)
#
#
# Indices 1 2 3 4 5 6 
#
# 1 0.009058 -0.002968 -0.003452 0.000000 0.000000 0.000000
# 2 -0.002968 0.008636 -0.004782 0.000000 0.000000 0.000000
# 3 -0.003452 -0.004782 0.029357 0.000000 0.000000 0.000000
# 4 0.000000 0.000000 0.000000 0.048753 0.000000 0.000000
# 5 0.000000 0.000000 0.000000 0.000000 0.064109 0.000000
# 6 0.000000 0.000000 0.000000 0.000000 0.000000 0.067279
#
#
# Mechanical properties :
#
#
# Convention : Reuss Voigt Hill
#
# Bulk Modulus (GPa) = 40.57277 65.20997 52.89137
# Shear Modulus (GPa) = 19.39406 24.62901 22.01153
#
# Velocity S-wave (km/s) = 3.29216 3.70997 3.50729
# Velocity P-wave (km/s) = 6.09304 7.40232 6.77936
#
# Compressibility (1/GPa) = 0.02464707
#
# Stress axis : x y z
#
# Youngs Moduli (GPa) = 110.39722 115.80046 34.06353
#
# Poissons Ratio (x) = 0.34372 0.11758
# Poissons Ratio (y) = 0.32768 0.16288
# Poissons Ratio (z) = 0.38108 0.55372
#
# Static dielectric constant tensor:
#      x y z
#    x 3.427960 0.000000 0.000000 
#    y 0.000000 3.725450 0.000000 
#    z 0.000000 0.000000 2.936540 
# 
# 
# High freq. dielectric constant tensor:
#      x y z
#    x 1.697640 0.000000 0.000000 
#    y 0.000000 1.701150 0.000000 
#    z 0.000000 0.000000 1.657210 
# 
# From -- ./inp_files/10777.got.cif
#   From: 2010.03.12/outbox.cif.g09.slc.cpg/sg55_6_cif.got.tgz:10777.got - 2010.04.16 15:19:21.
