data_PCOD8225294
_publ_section_title
;
Structure prediction by ZEFSAII (Michael W. Deem and Ramdas Pophale) SiO2 
 PCOD8225294
Probable space group: P B A M
;
_chemical_formula_sum "Si O2"
_cell_formula_units_Z 56
_cell_length_a 16.887438
_cell_length_b 18.652326
_cell_length_c 9.509871
_cell_angle_alpha 90.000000
_cell_angle_beta 90.000000
_cell_angle_gamma 90.000000
_cell_volume 2995.514256
_symmetry_space_group_name_H-M "P B A M"
_symmetry_group_IT_number 55
_symmetry_cell_setting 'orthorhombic'
loop_
_space_group_symop_operation_xyz
x,y,z
-x,-y,z
1/2+x,1/2-y,-z
1/2-x,1/2+y,-z
-x,-y,-z
x,y,-z
1/2-x,1/2+y,z
1/2+x,1/2-y,z
loop_
_atom_site_type_symbol
_atom_site_label
_atom_site_fract_x
_atom_site_fract_y
_atom_site_fract_z
Si Si1 0.670708 0.200967 0.662037
Si Si2 0.027640 0.919253 0.166935
Si Si3 0.751571 0.954047 0.341714
Si Si4 0.392219 0.644746 0.662046
Si Si5 0.439752 0.897659 0.162412
Si Si6 0.814443 0.106820 0.338160
Si Si7 0.391307 0.056164 0.161383
O O1 0.656219 0.181970 0.500000
O O2 0.660133 0.284891 0.693079
O O3 0.602435 0.162265 0.747897
O O4 0.759820 0.175425 0.703300
O O5 0.112695 0.900557 0.232264
O O6 0.967161 0.862057 0.235032
O O7 0.031437 0.907566 0.000000
O O8 0.000000 0.000000 0.204693
O O9 0.729493 0.933454 0.500000
O O10 0.836874 0.922546 0.302170
O O11 0.684060 0.917162 0.248234
O O12 0.756261 0.039118 0.318606
O O13 0.421502 0.643380 0.500000
O O14 0.534327 0.891460 0.187803
O O15 0.412652 0.976140 0.210500
O O16 0.419054 0.885018 0.000000
O O17 0.844991 0.111246 0.500000
O O18 0.366467 0.056551 0.000000
#
# Coordination Sequence:
#
# PCOD8225294 Si02
#       7
#     8   8   8   8   8   8   8
#     4  10  21  38  58  82 111 147 190 235 284 339
#     4  11  23  38  60  89 115 144 190 240 283 336
#     4  10  19  33  56  83 108 141 185 232 277 328
#     4  10  22  40  59  80 112 149 184 230 288 339
#     4   9  18  33  53  77 109 147 182 222 276 333
#     4  10  20  36  60  86 113 147 189 233 283 338
#     4   9  18  32  52  79 109 143 182 225 275 329
#
# _framework density 18.69462
#
# number of rings (size 3 to 8) (size 9 to 14) (size 15 to 20)
#    0.000    2.143    2.857    1.286    0.000    3.429 
#    2.571    1.429    0.000    0.000    0.000    0.000 
#    0.000    0.000    0.000    0.000    0.000    0.000 
#
# Total GULP energy -694352.511840 kJ/mol
# GULP energy per Si atom -12399.151997 kJ/mol
# Density = 1.865207 g / cm^3
# Si number density = 18.694620 Si / 1000 Ang^3
#
#
#
# Elastic Constant Matrix: (Units=GPa)
#
#
# Indices 1 2 3 4 5 6 
#
# 1 119.1496 31.7684 69.7631 0.0000 0.0000 0.0000
# 2 31.7684 67.8683 31.6726 0.0000 0.0000 0.0000
# 3 69.7631 31.6726 82.9191 0.0000 0.0000 0.0000
# 4 0.0000 0.0000 0.0000 23.8810 0.0000 0.0000
# 5 0.0000 0.0000 0.0000 0.0000 38.5907 0.0000
# 6 0.0000 0.0000 0.0000 0.0000 0.0000 26.7153
#
#
#
# Elastic Compliance Matrix: (Units=1/GPa)
#
#
# Indices 1 2 3 4 5 6 
#
# 1 0.016671 -0.001531 -0.013441 0.000000 0.000000 0.000000
# 2 -0.001531 0.018071 -0.005615 0.000000 0.000000 0.000000
# 3 -0.013441 -0.005615 0.025513 0.000000 0.000000 0.000000
# 4 0.000000 0.000000 0.000000 0.041874 0.000000 0.000000
# 5 0.000000 0.000000 0.000000 0.000000 0.025913 0.000000
# 6 0.000000 0.000000 0.000000 0.000000 0.000000 0.037432
#
#
# Mechanical properties :
#
#
# Convention : Reuss Voigt Hill
#
# Bulk Modulus (GPa) = 52.40565 59.59392 55.99979
# Shear Modulus (GPa) = 23.47327 26.95293 25.21310
#
# Velocity S-wave (km/s) = 3.54731 3.80115 3.67642
# Velocity P-wave (km/s) = 6.69860 7.15624 6.93120
#
# Compressibility (1/GPa) = 0.01908191
#
# Stress axis : x y z
#
# Youngs Moduli (GPa) = 59.98489 55.33658 39.19541
#
# Poissons Ratio (x) = 0.08471 0.52683
# Poissons Ratio (y) = 0.09182 0.22007
# Poissons Ratio (z) = 0.80627 0.31070
#
# Static dielectric constant tensor:
#      x y z
#    x 3.384800 0.000000 0.000000 
#    y 0.000000 3.344450 0.000000 
#    z 0.000000 0.000000 3.351650 
# 
# 
# High freq. dielectric constant tensor:
#      x y z
#    x 1.730290 0.000000 0.000000 
#    y 0.000000 1.706660 0.000000 
#    z 0.000000 0.000000 1.721970 
# 
# From -- ./inp_files/7846.got.cif
#   From: 2010.03.12/outbox.cif.g09.slc.cpg/sg55_4_cif.got.tgz:7846.got - 2010.04.16 15:19:21.
