data_PCOD8225133
_publ_section_title
;
Structure prediction by ZEFSAII (Michael W. Deem and Ramdas Pophale) SiO2 
 PCOD8225133
Probable space group: P B A M
;
_chemical_formula_sum "Si O2"
_cell_formula_units_Z 64
_cell_length_a 20.453299
_cell_length_b 18.916979
_cell_length_c 9.114565
_cell_angle_alpha 90.000000
_cell_angle_beta 90.000000
_cell_angle_gamma 90.000000
_cell_volume 3526.558523
_symmetry_space_group_name_H-M "P B A M"
_symmetry_group_IT_number 55
_symmetry_cell_setting 'orthorhombic'
loop_
_space_group_symop_operation_xyz
x,y,z
-x,-y,z
1/2+x,1/2-y,-z
1/2-x,1/2+y,-z
-x,-y,-z
x,y,-z
1/2-x,1/2+y,z
1/2+x,1/2-y,z
loop_
_atom_site_type_symbol
_atom_site_label
_atom_site_fract_x
_atom_site_fract_y
_atom_site_fract_z
Si Si1 0.810251 0.540750 0.172547
Si Si2 0.486781 0.177102 0.671545
Si Si3 0.126344 0.170626 0.668602
Si Si4 0.138187 0.328570 0.668937
Si Si5 0.687578 0.474884 0.330125
Si Si6 0.433403 0.462974 0.833068
Si Si7 0.995537 0.182696 0.832735
Si Si8 0.561855 0.954114 0.828616
O O1 0.816967 0.620100 0.234334
O O2 0.748707 0.500924 0.238297
O O3 0.873646 0.496080 0.217204
O O4 0.801090 0.546584 0.000000
O O5 0.473908 0.181234 0.500000
O O6 0.562130 0.159638 0.708636
O O7 0.467486 0.251945 0.741056
O O8 0.439247 0.118743 0.740034
O O9 0.101688 0.171702 0.500000
O O10 0.157472 0.247305 0.706010
O O11 0.064181 0.154395 0.769617
O O12 0.179830 0.109557 0.694601
O O13 0.151591 0.346634 0.500000
O O14 0.698680 0.492769 0.500000
O O15 0.623261 0.515160 0.277034
O O16 0.500000 0.500000 0.781510
O O17 0.441803 0.378716 0.822875
O O18 0.416192 0.485967 0.000000
O O19 0.007395 0.206260 0.000000
O O20 0.500000 0.000000 0.779660
O O21 0.559818 0.936532 0.000000
#
# Coordination Sequence:
#
# PCOD8225133 Si02
#       8
#     8   8   8   8   8   8   8   8
#     4  11  23  38  57  82 114 149 188 235 280 333
#     4  10  20  33  54  84 116 147 184 232 282 336
#     4   9  19  35  55  82 112 144 184 229 276 332
#     4   9  18  34  55  80 110 143 184 228 275 331
#     4  11  23  38  58  83 115 152 189 231 280 337
#     4  10  20  36  57  84 114 145 186 231 277 328
#     4  10  19  32  55  83 114 148 183 231 281 329
#     4  10  20  36  57  82 111 144 189 234 278 332
#
# _framework density 18.148005000000001
#
# number of rings (size 3 to 8) (size 9 to 14) (size 15 to 20)
#    0.000    2.000    2.500    2.250    0.000    5.000 
#    0.000    1.250    0.000    3.000    0.000    0.000 
#    0.000    0.000    0.000    0.000    0.000    0.000 
#
# Total GULP energy -793792.678252 kJ/mol
# GULP energy per Si atom -12403.010598 kJ/mol
# Density = 1.810670 g / cm^3
# Si number density = 18.148005 Si / 1000 Ang^3
#
#
#
# Elastic Constant Matrix: (Units=GPa)
#
#
# Indices 1 2 3 4 5 6 
#
# 1 89.1752 53.0370 42.7227 0.0000 0.0000 0.0000
# 2 53.0370 126.5387 56.0128 0.0000 0.0000 0.0000
# 3 42.7227 56.0128 77.0316 0.0000 0.0000 0.0000
# 4 0.0000 0.0000 0.0000 32.3896 0.0000 0.0000
# 5 0.0000 0.0000 0.0000 0.0000 28.2718 0.0000
# 6 0.0000 0.0000 0.0000 0.0000 0.0000 25.5315
#
#
#
# Elastic Compliance Matrix: (Units=1/GPa)
#
#
# Indices 1 2 3 4 5 6 
#
# 1 0.016707 -0.004278 -0.006155 0.000000 0.000000 0.000000
# 2 -0.004278 0.012749 -0.006898 0.000000 0.000000 0.000000
# 3 -0.006155 -0.006898 0.021411 0.000000 0.000000 0.000000
# 4 0.000000 0.000000 0.000000 0.030874 0.000000 0.000000
# 5 0.000000 0.000000 0.000000 0.000000 0.035371 0.000000
# 6 0.000000 0.000000 0.000000 0.000000 0.000000 0.039167
#
#
# Mechanical properties :
#
#
# Convention : Reuss Voigt Hill
#
# Bulk Modulus (GPa) = 61.70817 66.25448 63.98132
# Shear Modulus (GPa) = 25.46557 26.63678 26.05118
#
# Velocity S-wave (km/s) = 3.75002 3.83528 3.79289
# Velocity P-wave (km/s) = 7.26820 7.49664 7.38330
#
# Compressibility (1/GPa) = 0.01620531
#
# Stress axis : x y z
#
# Youngs Moduli (GPa) = 59.85489 78.43708 46.70455
#
# Poissons Ratio (x) = 0.33554 0.28748
# Poissons Ratio (y) = 0.25605 0.32216
# Poissons Ratio (z) = 0.36843 0.54104
#
# Static dielectric constant tensor:
#      x y z
#    x 3.124010 0.000000 0.000000 
#    y 0.000000 3.506870 0.000000 
#    z 0.000000 0.000000 3.387740 
# 
# 
# High freq. dielectric constant tensor:
#      x y z
#    x 1.669900 0.000000 0.000000 
#    y 0.000000 1.717400 0.000000 
#    z 0.000000 0.000000 1.712040 
# 
# From -- ./inp_files/8936.got.cif
#   From: 2010.03.12/outbox.cif.g09.slc.cpg/sg55_5_cif.got.tgz:8936.got - 2010.04.16 15:19:21.
