data_PCOD8225925
_publ_section_title
;
Structure prediction by ZEFSAII (Michael W. Deem and Ramdas Pophale) SiO2 
 PCOD8225925
Probable space group: P B A M
;
_chemical_formula_sum "Si O2"
_cell_formula_units_Z 40
_cell_length_a 12.632577
_cell_length_b 13.547358
_cell_length_c 12.911190
_cell_angle_alpha 90.000000
_cell_angle_beta 90.000000
_cell_angle_gamma 90.000000
_cell_volume 2209.595790
_symmetry_space_group_name_H-M "P B A M"
_symmetry_group_IT_number 55
_symmetry_cell_setting 'orthorhombic'
loop_
_space_group_symop_operation_xyz
x,y,z
-x,-y,z
1/2+x,1/2-y,-z
1/2-x,1/2+y,-z
-x,-y,-z
x,y,-z
1/2-x,1/2+y,z
1/2+x,1/2-y,z
loop_
_atom_site_type_symbol
_atom_site_label
_atom_site_fract_x
_atom_site_fract_y
_atom_site_fract_z
Si Si1 0.128585 0.926717 0.882574
Si Si2 0.273688 0.805266 0.246580
Si Si3 0.559407 0.096403 0.384158
Si Si4 0.925967 0.874858 0.783549
Si Si5 0.930604 0.206748 0.616242
O O1 0.227408 0.856908 0.855989
O O2 0.018656 0.864925 0.870532
O O3 0.128282 0.018530 0.801384
O O4 0.139802 0.964467 0.000000
O O5 0.347734 0.883127 0.304024
O O6 0.336564 0.708749 0.207998
O O7 0.180040 0.779941 0.325439
O O8 0.605593 0.079128 0.500000
O O9 0.476970 0.184594 0.386018
O O10 0.500000 0.000000 0.343113
O O11 0.986391 0.867086 0.672760
O O12 0.912408 0.166309 0.500000
#
# Coordination Sequence:
#
# PCOD8225925 Si02
#       5
#     8   8   8   8   8
#     4  10  21  37  57  78 102 138 185 229 273 317
#     4  10  20  33  56  80 106 138 177 219 266 313
#     4   9  18  32  51  77 110 144 171 204 257 316
#     4   9  19  36  54  76 107 142 172 222 263 316
#     4   9  18  33  52  79 111 141 173 211 256 312
#
# _framework density 18.102858999999999
#
# number of rings (size 3 to 8) (size 9 to 14) (size 15 to 20)
#    0.000    2.600    0.000    1.800    2.800    2.400 
#    0.000    9.000    0.000    0.600    0.000    0.000 
#    0.000    0.000    0.000    0.000    0.000    0.000 
#
# Total GULP energy -495758.424404 kJ/mol
# GULP energy per Si atom -12393.960610 kJ/mol
# Density = 1.806166 g / cm^3
# Si number density = 18.102859 Si / 1000 Ang^3
#
#
#
# Elastic Constant Matrix: (Units=GPa)
#
#
# Indices 1 2 3 4 5 6 
#
# 1 105.7583 57.7658 41.5926 0.0000 0.0000 0.0000
# 2 57.7658 93.5302 57.8915 0.0000 0.0000 0.0000
# 3 41.5926 57.8915 99.3128 0.0000 0.0000 0.0000
# 4 0.0000 0.0000 0.0000 20.6180 0.0000 0.0000
# 5 0.0000 0.0000 0.0000 0.0000 17.4328 0.0000
# 6 0.0000 0.0000 0.0000 0.0000 0.0000 30.7068
#
#
#
# Elastic Compliance Matrix: (Units=1/GPa)
#
#
# Indices 1 2 3 4 5 6 
#
# 1 0.014379 -0.008062 -0.001322 0.000000 0.000000 0.000000
# 2 -0.008062 0.021247 -0.009009 0.000000 0.000000 0.000000
# 3 -0.001322 -0.009009 0.015875 0.000000 0.000000 0.000000
# 4 0.000000 0.000000 0.000000 0.048501 0.000000 0.000000
# 5 0.000000 0.000000 0.000000 0.000000 0.057363 0.000000
# 6 0.000000 0.000000 0.000000 0.000000 0.000000 0.032566
#
#
# Mechanical properties :
#
#
# Convention : Reuss Voigt Hill
#
# Bulk Modulus (GPa) = 67.96371 68.12233 68.04302
# Shear Modulus (GPa) = 21.58671 23.17494 22.38083
#
# Velocity S-wave (km/s) = 3.45693 3.58184 3.51994
# Velocity P-wave (km/s) = 7.31836 7.40395 7.36128
#
# Compressibility (1/GPa) = 0.01471373
#
# Stress axis : x y z
#
# Youngs Moduli (GPa) = 69.54441 47.06462 62.99397
#
# Poissons Ratio (x) = 0.37945 0.08330
# Poissons Ratio (y) = 0.56069 0.56751
# Poissons Ratio (z) = 0.09196 0.42400
#
# Static dielectric constant tensor:
#      x y z
#    x 3.405130 0.000000 0.000000 
#    y 0.000000 3.248890 0.000000 
#    z 0.000000 0.000000 3.378860 
# 
# 
# High freq. dielectric constant tensor:
#      x y z
#    x 1.704700 0.000000 0.000000 
#    y 0.000000 1.694860 0.000000 
#    z 0.000000 0.000000 1.692150 
# 
# From -- ./inp_files/12992.got.cif
#   From: 2010.03.12/outbox.cif.g09.slc.cpg/sg55_7_cif.got.tgz:12992.got - 2010.04.16 15:19:21.
