data_PCOD8225880
_publ_section_title
;
Structure prediction by ZEFSAII (Michael W. Deem and Ramdas Pophale) SiO2 
 PCOD8225880
Probable space group: P B A M
;
_chemical_formula_sum "Si O2"
_cell_formula_units_Z 48
_cell_length_a 15.280662
_cell_length_b 19.018061
_cell_length_c 8.830824
_cell_angle_alpha 90.000000
_cell_angle_beta 90.000000
_cell_angle_gamma 90.000000
_cell_volume 2566.313064
_symmetry_space_group_name_H-M "P B A M"
_symmetry_group_IT_number 55
_symmetry_cell_setting 'orthorhombic'
loop_
_space_group_symop_operation_xyz
x,y,z
-x,-y,z
1/2+x,1/2-y,-z
1/2-x,1/2+y,-z
-x,-y,-z
x,y,-z
1/2-x,1/2+y,z
1/2+x,1/2-y,z
loop_
_atom_site_type_symbol
_atom_site_label
_atom_site_fract_x
_atom_site_fract_y
_atom_site_fract_z
Si Si1 0.161862 0.080457 0.323446
Si Si2 0.658413 0.579685 0.675689
Si Si3 0.490636 0.169806 0.321706
Si Si4 0.653626 0.923304 0.821585
Si Si5 0.500657 0.669719 0.679982
Si Si6 0.851866 0.570083 0.678863
O O1 0.181813 0.093547 0.500000
O O2 0.249453 0.096686 0.231761
O O3 0.086645 0.131578 0.259642
O O4 0.129997 0.000703 0.296112
O O5 0.661857 0.597680 0.500000
O O6 0.586475 0.631288 0.750902
O O7 0.756068 0.592837 0.742148
O O8 0.472353 0.163979 0.500000
O O9 0.409505 0.138551 0.232010
O O10 0.501243 0.249860 0.267861
O O11 0.579560 0.129882 0.276189
O O12 0.619429 0.996495 0.752056
O O13 0.651378 0.929750 0.000000
O O14 0.501983 0.662395 0.500000
O O15 0.847633 0.556999 0.500000
#
# Coordination Sequence:
#
# PCOD8225880 Si02
#       6
#     8   8   8   8   8   8
#     4   9  17  32  55  79 102 131 167 207 248 292
#     4   8  14  27  50  79 105 127 159 205 250 293
#     4  10  20  33  51  77 106 134 166 206 252 302
#     4  11  22  35  52  73  98 133 174 213 253 296
#     4   9  17  29  51  82 108 131 162 202 250 302
#     4   9  18  33  53  75  99 130 168 211 255 297
#
# _framework density 18.703875
#
# number of rings (size 3 to 8) (size 9 to 14) (size 15 to 20)
#    0.000    2.667    0.000    3.500    0.000    6.000 
#    0.000    5.833    0.000   16.000    0.000    0.000 
#    0.000    0.000    0.000    0.000    0.000    0.000 
#
# Total GULP energy -595151.150126 kJ/mol
# GULP energy per Si atom -12398.982294 kJ/mol
# Density = 1.866130 g / cm^3
# Si number density = 18.703875 Si / 1000 Ang^3
#
#
#
# Elastic Constant Matrix: (Units=GPa)
#
#
# Indices 1 2 3 4 5 6 
#
# 1 122.8573 83.0627 29.8294 0.0000 0.0000 0.0000
# 2 83.0627 133.2499 28.9580 0.0000 0.0000 0.0000
# 3 29.8294 28.9580 36.4566 0.0000 0.0000 0.0000
# 4 0.0000 0.0000 0.0000 2.2535 0.0000 0.0000
# 5 0.0000 0.0000 0.0000 0.0000 5.9218 0.0000
# 6 0.0000 0.0000 0.0000 0.0000 0.0000 21.5926
#
#
#
# Elastic Compliance Matrix: (Units=1/GPa)
#
#
# Indices 1 2 3 4 5 6 
#
# 1 0.015042 -0.008100 -0.005874 0.000000 0.000000 0.000000
# 2 -0.008100 0.013432 -0.004042 0.000000 0.000000 0.000000
# 3 -0.005874 -0.004042 0.035446 0.000000 0.000000 0.000000
# 4 0.000000 0.000000 0.000000 0.443750 0.000000 0.000000
# 5 0.000000 0.000000 0.000000 0.000000 0.168869 0.000000
# 6 0.000000 0.000000 0.000000 0.000000 0.000000 0.046312
#
#
# Mechanical properties :
#
#
# Convention : Reuss Voigt Hill
#
# Bulk Modulus (GPa) = 35.85577 64.02932 49.94255
# Shear Modulus (GPa) = 6.50890 16.00115 11.25503
#
# Velocity S-wave (km/s) = 1.86749 2.92807 2.45572
# Velocity P-wave (km/s) = 4.88486 6.76306 5.89919
#
# Compressibility (1/GPa) = 0.02788951
#
# Stress axis : x y z
#
# Youngs Moduli (GPa) = 66.48019 74.44679 28.21171
#
# Poissons Ratio (x) = 0.60303 0.16570
# Poissons Ratio (y) = 0.53850 0.11403
# Poissons Ratio (z) = 0.39048 0.30090
#
# Static dielectric constant tensor:
#      x y z
#    x 3.838810 0.000000 0.000000 
#    y 0.000000 3.474930 0.000000 
#    z 0.000000 0.000000 2.949110 
# 
# 
# High freq. dielectric constant tensor:
#      x y z
#    x 1.742940 0.000000 0.000000 
#    y 0.000000 1.724030 0.000000 
#    z 0.000000 0.000000 1.675640 
# 
# From -- ./inp_files/5588.got.cif
#   From: 2010.03.12/outbox.cif.g09.slc.cpg/sg55_3_cif.got.tgz:5588.got - 2010.04.16 15:19:21.
