data_PCOD8225826
_publ_section_title
;
Structure prediction by ZEFSAII (Michael W. Deem and Ramdas Pophale) SiO2 
 PCOD8225826
Probable space group: P B A M
;
_chemical_formula_sum "Si O2"
_cell_formula_units_Z 56
_cell_length_a 14.297434
_cell_length_b 22.430142
_cell_length_c 9.217919
_cell_angle_alpha 90.000000
_cell_angle_beta 90.000000
_cell_angle_gamma 90.000000
_cell_volume 2956.126475
_symmetry_space_group_name_H-M "P B A M"
_symmetry_group_IT_number 55
_symmetry_cell_setting 'orthorhombic'
loop_
_space_group_symop_operation_xyz
x,y,z
-x,-y,z
1/2+x,1/2-y,-z
1/2-x,1/2+y,-z
-x,-y,-z
x,y,-z
1/2-x,1/2+y,z
1/2+x,1/2-y,z
loop_
_atom_site_type_symbol
_atom_site_label
_atom_site_fract_x
_atom_site_fract_y
_atom_site_fract_z
Si Si1 0.717537 0.397088 0.830440
Si Si2 0.094778 0.211426 0.170154
Si Si3 0.883863 0.652251 0.832611
Si Si4 0.411127 0.274929 0.334173
Si Si5 0.392059 0.489221 0.828834
Si Si6 0.712413 0.612654 0.665716
Si Si7 0.905776 0.344063 0.831396
O O1 0.670624 0.336078 0.772527
O O2 0.669242 0.455802 0.764141
O O3 0.828675 0.394904 0.794678
O O4 0.699105 0.400104 0.000000
O O5 0.129281 0.278109 0.206161
O O6 0.999717 0.196680 0.253621
O O7 0.074074 0.205111 0.000000
O O8 0.815312 0.611787 0.736933
O O9 0.990320 0.632238 0.795433
O O10 0.860192 0.640074 0.000000
O O11 0.438475 0.262077 0.500000
O O12 0.325734 0.320485 0.322157
O O13 0.379196 0.213886 0.259991
O O14 0.500000 0.500000 0.790238
O O15 0.358240 0.430185 0.749339
O O16 0.377768 0.480577 0.000000
O O17 0.720837 0.591493 0.500000
O O18 0.900089 0.325256 0.000000
#
# Coordination Sequence:
#
# PCOD8225826 Si02
#       7
#     8   8   8   8   8   8   8
#     4   9  17  32  55  80 103 130 169 215 259 304
#     4   9  17  31  54  82 108 135 168 209 260 312
#     4   9  18  32  53  79 103 132 170 211 255 303
#     4  10  20  32  48  75 108 139 171 207 252 305
#     4  10  21  37  58  81 103 131 170 215 259 305
#     4  11  23  36  51  73 105 144 178 211 254 303
#     4   9  18  34  55  78 104 133 167 210 259 307
#
# _framework density 18.943708000000001
#
# number of rings (size 3 to 8) (size 9 to 14) (size 15 to 20)
#    0.000    2.429    0.000    3.429    0.000    7.143 
#    0.000    2.857    0.000    4.286    0.000    0.000 
#    0.000    0.000    0.000    0.000    0.000    0.000 
#
# Total GULP energy -694351.592120 kJ/mol
# GULP energy per Si atom -12399.135574 kJ/mol
# Density = 1.890059 g / cm^3
# Si number density = 18.943708 Si / 1000 Ang^3
#
#
#
# Elastic Constant Matrix: (Units=GPa)
#
#
# Indices 1 2 3 4 5 6 
#
# 1 129.1637 50.4318 54.6838 0.0000 0.0000 0.0000
# 2 50.4318 65.0001 36.2742 0.0000 0.0000 0.0000
# 3 54.6838 36.2742 69.9229 0.0000 0.0000 0.0000
# 4 0.0000 0.0000 0.0000 17.1917 0.0000 0.0000
# 5 0.0000 0.0000 0.0000 0.0000 15.9746 0.0000
# 6 0.0000 0.0000 0.0000 0.0000 0.0000 34.1515
#
#
#
# Elastic Compliance Matrix: (Units=1/GPa)
#
#
# Indices 1 2 3 4 5 6 
#
# 1 0.013183 -0.006298 -0.007042 0.000000 0.000000 0.000000
# 2 -0.006298 0.024662 -0.007869 0.000000 0.000000 0.000000
# 3 -0.007042 -0.007869 0.023891 0.000000 0.000000 0.000000
# 4 0.000000 0.000000 0.000000 0.058168 0.000000 0.000000
# 5 0.000000 0.000000 0.000000 0.000000 0.062599 0.000000
# 6 0.000000 0.000000 0.000000 0.000000 0.000000 0.029281
#
#
# Mechanical properties :
#
#
# Convention : Reuss Voigt Hill
#
# Bulk Modulus (GPa) = 51.76565 60.76291 56.26428
# Shear Modulus (GPa) = 19.18341 21.64335 20.41338
#
# Velocity S-wave (km/s) = 3.18567 3.38377 3.28621
# Velocity P-wave (km/s) = 6.39662 6.88561 6.64561
#
# Compressibility (1/GPa) = 0.01931783
#
# Stress axis : x y z
#
# Youngs Moduli (GPa) = 75.85710 40.54780 41.85648
#
# Poissons Ratio (x) = 0.25537 0.29477
# Poissons Ratio (y) = 0.47774 0.32936
# Poissons Ratio (z) = 0.53422 0.31906
#
# Static dielectric constant tensor:
#      x y z
#    x 3.590010 0.000000 0.000000 
#    y 0.000000 3.345560 0.000000 
#    z 0.000000 0.000000 3.295820 
# 
# 
# High freq. dielectric constant tensor:
#      x y z
#    x 1.747580 0.000000 0.000000 
#    y 0.000000 1.715670 0.000000 
#    z 0.000000 0.000000 1.715120 
# 
# From -- ./inp_files/6041.got.cif
#   From: 2010.03.12/outbox.cif.g09.slc.cpg/sg55_4_cif.got.tgz:6041.got - 2010.04.16 15:19:21.
