data_PCOD8225786
_publ_section_title
;
Structure prediction by ZEFSAII (Michael W. Deem and Ramdas Pophale) SiO2 
 PCOD8225786
Probable space group: P B A M
;
_chemical_formula_sum "Si O2"
_cell_formula_units_Z 56
_cell_length_a 21.678969
_cell_length_b 14.520101
_cell_length_c 8.872043
_cell_angle_alpha 90.000000
_cell_angle_beta 90.000000
_cell_angle_gamma 90.000000
_cell_volume 2792.748966
_symmetry_space_group_name_H-M "P B A M"
_symmetry_group_IT_number 55
_symmetry_cell_setting 'orthorhombic'
loop_
_space_group_symop_operation_xyz
x,y,z
-x,-y,z
1/2+x,1/2-y,-z
1/2-x,1/2+y,-z
-x,-y,-z
x,y,-z
1/2-x,1/2+y,z
1/2+x,1/2-y,z
loop_
_atom_site_type_symbol
_atom_site_label
_atom_site_fract_x
_atom_site_fract_y
_atom_site_fract_z
Si Si1 0.248996 0.131590 0.322840
Si Si2 0.479527 0.731399 0.177348
Si Si3 0.273866 0.322098 0.823377
Si Si4 0.406618 0.385766 0.177250
Si Si5 0.549251 0.078073 0.676462
Si Si6 0.323909 0.979499 0.823992
Si Si7 0.876140 0.914093 0.175162
O O1 0.256045 0.128022 0.500000
O O2 0.248927 0.235765 0.267368
O O3 0.184800 0.086253 0.274799
O O4 0.306353 0.076406 0.251754
O O5 0.536809 0.672807 0.244333
O O6 0.478273 0.825865 0.267347
O O7 0.417283 0.674778 0.209570
O O8 0.486446 0.751440 0.000000
O O9 0.341735 0.346984 0.762077
O O10 0.229317 0.406734 0.786994
O O11 0.273628 0.298677 0.000000
O O12 0.414007 0.493622 0.218498
O O13 0.408660 0.374105 0.000000
O O14 0.562613 0.083444 0.500000
O O15 0.612276 0.057475 0.760910
O O16 0.500000 0.000000 0.716803
O O17 0.331646 0.996480 0.000000
O O18 0.856079 0.917630 0.000000
#
# Coordination Sequence:
#
# PCOD8225786 Si02
#       7
#     8   8   8   8   8   8   8
#     4  12  25  38  59  91 128 164 200 247 311 376
#     4  10  21  37  64  95 121 160 208 256 305 360
#     4  10  21  39  63  91 122 160 207 257 306 360
#     4   9  18  36  62  93 123 154 200 256 305 356
#     4  11  26  45  62  86 126 168 205 253 312 370
#     4  11  23  43  69  93 119 158 210 262 306 358
#     4  10  19  38  63  92 126 160 204 253 305 363
#
# _framework density 20.051926999999999
#
# number of rings (size 3 to 8) (size 9 to 14) (size 15 to 20)
#    0.000    1.571    1.429    3.429    2.000    8.000 
#    0.000    0.714    0.000    1.714    0.000    0.000 
#    0.000    0.000    0.000    0.000    0.000    0.000 
#
# Total GULP energy -694633.168332 kJ/mol
# GULP energy per Si atom -12404.163720 kJ/mol
# Density = 2.000629 g / cm^3
# Si number density = 20.051927 Si / 1000 Ang^3
#
#
#
# Elastic Constant Matrix: (Units=GPa)
#
#
# Indices 1 2 3 4 5 6 
#
# 1 82.0710 31.9817 35.3159 0.0000 0.0000 0.0000
# 2 31.9817 115.0578 50.0386 0.0000 0.0000 0.0000
# 3 35.3159 50.0386 80.7639 0.0000 0.0000 0.0000
# 4 0.0000 0.0000 0.0000 -0.6170 0.0000 0.0000
# 5 0.0000 0.0000 0.0000 0.0000 20.4025 0.0000
# 6 0.0000 0.0000 0.0000 0.0000 0.0000 33.5238
#
#
#
# Elastic Compliance Matrix: (Units=1/GPa)
#
#
# Indices 1 2 3 4 5 6 
#
# 1 0.015287 -0.001837 -0.005546 0.000000 0.000000 0.000000
# 2 -0.001837 0.012118 -0.006704 0.000000 0.000000 0.000000
# 3 -0.005546 -0.006704 0.018961 0.000000 0.000000 0.000000
# 4 0.000000 0.000000 0.000000 -1.620804 0.000000 0.000000
# 5 0.000000 0.000000 0.000000 0.000000 0.049014 0.000000
# 6 0.000000 0.000000 0.000000 0.000000 0.000000 0.029830
#
#
# Mechanical properties :
#
#
# Convention : Reuss Voigt Hill
#
# Bulk Modulus (GPa) = 54.97575 56.95167 55.96371
# Shear Modulus (GPa) = -3.42148 21.36563 8.97208
#
# Velocity S-wave (km/s) = -1.30767 3.26776 2.11758
# Velocity P-wave (km/s) = 5.01958 6.53464 5.82656
#
# Compressibility (1/GPa) = 0.01818984
#
# Stress axis : x y z
#
# Youngs Moduli (GPa) = 65.41443 82.52415 52.74013
#
# Poissons Ratio (x) = 0.15160 0.29252
# Poissons Ratio (y) = 0.12017 0.35359
# Poissons Ratio (z) = 0.36282 0.55327
#
# Static dielectric constant tensor:
#      x y z
#    x 3.850510 0.000000 0.000000 
#    y 0.000000 3.791470 0.000000 
#    z 0.000000 0.000000 3.431600 
# 
# 
# High freq. dielectric constant tensor:
#      x y z
#    x 1.793770 0.000000 0.000000 
#    y 0.000000 1.799180 0.000000 
#    z 0.000000 0.000000 1.759000 
# 
# From -- ./inp_files/6179.got.cif
#   From: 2010.03.12/outbox.cif.g09.slc.cpg/sg55_4_cif.got.tgz:6179.got - 2010.04.16 15:19:21.
