data_PCOD8225223
_publ_section_title
;
Structure prediction by ZEFSAII (Michael W. Deem and Ramdas Pophale) SiO2 
 PCOD8225223
Probable space group: P B A M
;
_chemical_formula_sum "Si O2"
_cell_formula_units_Z 64
_cell_length_a 20.735993
_cell_length_b 16.620659
_cell_length_c 9.556891
_cell_angle_alpha 90.000000
_cell_angle_beta 90.000000
_cell_angle_gamma 90.000000
_cell_volume 3293.743001
_symmetry_space_group_name_H-M "P B A M"
_symmetry_group_IT_number 55
_symmetry_cell_setting 'orthorhombic'
loop_
_space_group_symop_operation_xyz
x,y,z
-x,-y,z
1/2+x,1/2-y,-z
1/2-x,1/2+y,-z
-x,-y,-z
x,y,-z
1/2-x,1/2+y,z
1/2+x,1/2-y,z
loop_
_atom_site_type_symbol
_atom_site_label
_atom_site_fract_x
_atom_site_fract_y
_atom_site_fract_z
Si Si1 0.510798 0.406323 0.340589
Si Si2 0.575456 0.008725 0.665770
Si Si3 0.654263 0.851567 0.658266
Si Si4 0.666835 0.117996 0.161713
Si Si5 0.768799 0.783405 0.154644
Si Si6 0.114555 0.819485 0.341745
Si Si7 0.195583 0.926630 0.838848
Si Si8 0.125787 0.083381 0.846679
O O1 0.500000 0.500000 0.320666
O O2 0.523448 0.381708 0.500000
O O3 0.449674 0.359249 0.279190
O O4 0.572073 0.379256 0.252798
O O5 0.581381 0.022860 0.500000
O O6 0.607381 0.085274 0.744899
O O7 0.500000 0.000000 0.708350
O O8 0.614835 0.928928 0.714121
O O9 0.678344 0.867917 0.500000
O O10 0.715091 0.823877 0.748272
O O11 0.605036 0.776365 0.661695
O O12 0.694075 0.204607 0.215008
O O13 0.727847 0.057535 0.178371
O O14 0.643776 0.123124 0.000000
O O15 0.820540 0.851387 0.134699
O O16 0.740026 0.761487 0.000000
O O17 0.126795 0.850384 0.500000
O O18 0.175197 0.846799 0.247116
O O19 0.156928 0.003071 0.778677
O O20 0.178521 0.911744 0.000000
O O21 0.096537 0.063130 0.000000
#
# Coordination Sequence:
#
# PCOD8225223 Si02
#       8
#     8   8   8   8   8   8   8   8
#     4  10  20  34  51  76 110 148 186 223 269 326
#     4  10  23  42  62  86 118 157 202 250 299 353
#     4  10  21  38  60  86 113 148 195 241 291 347
#     4  10  21  38  61  87 114 147 191 239 294 354
#     4  10  21  38  59  86 119 149 185 237 293 348
#     4  10  20  34  54  79 110 146 187 233 277 332
#     4  10  19  33  54  81 110 145 185 226 279 337
#     4  10  21  34  52  79 112 147 183 225 273 331
#
# _framework density 19.430781
#
# number of rings (size 3 to 8) (size 9 to 14) (size 15 to 20)
#    0.000    2.000    2.500    0.750    0.000    5.000 
#    0.000    1.250    0.000    0.000    0.000    0.000 
#    0.000    0.000    0.000    0.000    0.000    0.000 
#
# Total GULP energy -793314.464247 kJ/mol
# GULP energy per Si atom -12395.538504 kJ/mol
# Density = 1.938656 g / cm^3
# Si number density = 19.430781 Si / 1000 Ang^3
#
#
#
# Elastic Constant Matrix: (Units=GPa)
#
#
# Indices 1 2 3 4 5 6 
#
# 1 99.5985 41.7501 47.8067 0.0000 0.0000 0.0000
# 2 41.7501 85.2102 30.4028 0.0000 0.0000 0.0000
# 3 47.8067 30.4028 63.7495 0.0000 0.0000 0.0000
# 4 0.0000 0.0000 0.0000 19.4509 0.0000 0.0000
# 5 0.0000 0.0000 0.0000 0.0000 2.3680 0.0000
# 6 0.0000 0.0000 0.0000 0.0000 0.0000 31.2648
#
#
#
# Elastic Compliance Matrix: (Units=1/GPa)
#
#
# Indices 1 2 3 4 5 6 
#
# 1 0.017045 -0.004568 -0.010604 0.000000 0.000000 0.000000
# 2 -0.004568 0.015366 -0.003903 0.000000 0.000000 0.000000
# 3 -0.010604 -0.003903 0.025499 0.000000 0.000000 0.000000
# 4 0.000000 0.000000 0.000000 0.051411 0.000000 0.000000
# 5 0.000000 0.000000 0.000000 0.000000 0.422306 0.000000
# 6 0.000000 0.000000 0.000000 0.000000 0.000000 0.031985
#
#
# Mechanical properties :
#
#
# Convention : Reuss Voigt Hill
#
# Bulk Modulus (GPa) = 50.60254 54.27527 52.43890
# Shear Modulus (GPa) = 8.21896 19.18998 13.70447
#
# Velocity S-wave (km/s) = 2.05890 3.14603 2.65862
# Velocity P-wave (km/s) = 5.63481 6.41794 6.03908
#
# Compressibility (1/GPa) = 0.01976185
#
# Stress axis : x y z
#
# Youngs Moduli (GPa) = 58.66879 65.07723 39.21646
#
# Poissons Ratio (x) = 0.29727 0.41584
# Poissons Ratio (y) = 0.26800 0.15305
# Poissons Ratio (z) = 0.62210 0.25398
#
# Static dielectric constant tensor:
#      x y z
#    x 3.493410 0.000000 0.000000 
#    y 0.000000 3.632640 0.000000 
#    z 0.000000 0.000000 3.659940 
# 
# 
# High freq. dielectric constant tensor:
#      x y z
#    x 1.748830 0.000000 0.000000 
#    y 0.000000 1.761870 0.000000 
#    z 0.000000 0.000000 1.747430 
# 
# From -- ./inp_files/8984.got.cif
#   From: 2010.03.12/outbox.cif.g09.slc.cpg/sg55_5_cif.got.tgz:8984.got - 2010.04.16 15:19:21.
