data_PCOD8225544
_publ_section_title
;
Structure prediction by ZEFSAII (Michael W. Deem and Ramdas Pophale) SiO2 
 PCOD8225544
Probable space group: P B A M
;
_chemical_formula_sum "Si O2"
_cell_formula_units_Z 48
_cell_length_a 14.239643
_cell_length_b 12.821409
_cell_length_c 13.911625
_cell_angle_alpha 90.000000
_cell_angle_beta 90.000000
_cell_angle_gamma 90.000000
_cell_volume 2539.877191
_symmetry_space_group_name_H-M "P B A M"
_symmetry_group_IT_number 55
_symmetry_cell_setting 'orthorhombic'
loop_
_space_group_symop_operation_xyz
x,y,z
-x,-y,z
1/2+x,1/2-y,-z
1/2-x,1/2+y,-z
-x,-y,-z
x,y,-z
1/2-x,1/2+y,z
1/2+x,1/2-y,z
loop_
_atom_site_type_symbol
_atom_site_label
_atom_site_fract_x
_atom_site_fract_y
_atom_site_fract_z
Si Si1 0.709156 0.237545 0.388948
Si Si2 0.699897 0.285604 0.888731
Si Si3 0.236941 0.074359 0.727933
Si Si4 0.819603 0.146610 0.227314
Si Si5 0.004624 0.876838 0.889651
Si Si6 0.895167 0.528888 0.390098
O O1 0.736493 0.250597 0.500000
O O2 0.677421 0.348173 0.342899
O O3 0.803291 0.203601 0.329966
O O4 0.627169 0.151682 0.374188
O O5 0.762533 0.368268 0.828318
O O6 0.731002 0.173383 0.844441
O O7 0.591645 0.314852 0.869112
O O8 0.725996 0.292371 0.000000
O O9 0.173235 0.976040 0.752838
O O10 0.332623 0.042369 0.677409
O O11 0.917481 0.178360 0.177573
O O12 0.034880 0.861027 0.000000
O O13 0.000000 0.000000 0.867228
O O14 0.873986 0.498404 0.500000
O O15 0.000000 0.500000 0.361067
#
# Coordination Sequence:
#
# PCOD8225544 Si02
#       6
#     8   8   8   8   8   8
#     4   9  19  36  57  84 116 153 196 240 298 356
#     4  10  21  36  57  87 116 153 198 238 292 356
#     4  10  19  35  55  82 117 152 190 245 295 341
#     4  10  20  36  58  84 116 153 193 248 296 346
#     4  10  19  35  61  85 114 155 198 241 292 355
#     4   9  18  35  60  86 115 156 201 243 296 357
#
# _framework density 18.898551999999999
#
# number of rings (size 3 to 8) (size 9 to 14) (size 15 to 20)
#    0.000    2.333    1.667    1.000    0.000    1.333 
#   18.000    0.000    0.000    2.000    0.000    0.000 
#    0.000    0.000    0.000    0.000    0.000    0.000 
#
# Total GULP energy -594776.725528 kJ/mol
# GULP energy per Si atom -12391.181782 kJ/mol
# Density = 1.885554 g / cm^3
# Si number density = 18.898552 Si / 1000 Ang^3
#
#
#
# Elastic Constant Matrix: (Units=GPa)
#
#
# Indices 1 2 3 4 5 6 
#
# 1 106.5142 45.5852 58.5770 0.0000 0.0000 0.0000
# 2 45.5852 109.4681 55.8209 0.0000 0.0000 0.0000
# 3 58.5770 55.8209 148.0938 0.0000 0.0000 0.0000
# 4 0.0000 0.0000 0.0000 31.3902 0.0000 0.0000
# 5 0.0000 0.0000 0.0000 0.0000 34.0702 0.0000
# 6 0.0000 0.0000 0.0000 0.0000 0.0000 16.5184
#
#
#
# Elastic Compliance Matrix: (Units=1/GPa)
#
#
# Indices 1 2 3 4 5 6 
#
# 1 0.012971 -0.003448 -0.003831 0.000000 0.000000 0.000000
# 2 -0.003448 0.012225 -0.003244 0.000000 0.000000 0.000000
# 3 -0.003831 -0.003244 0.009491 0.000000 0.000000 0.000000
# 4 0.000000 0.000000 0.000000 0.031857 0.000000 0.000000
# 5 0.000000 0.000000 0.000000 0.000000 0.029351 0.000000
# 6 0.000000 0.000000 0.000000 0.000000 0.000000 0.060538
#
#
# Mechanical properties :
#
#
# Convention : Reuss Voigt Hill
#
# Bulk Modulus (GPa) = 73.31068 76.00469 74.65768
# Shear Modulus (GPa) = 27.46859 30.00197 28.73528
#
# Velocity S-wave (km/s) = 3.81658 3.98870 3.90359
# Velocity P-wave (km/s) = 7.63529 7.84331 7.74000
#
# Compressibility (1/GPa) = 0.01364058
#
# Stress axis : x y z
#
# Youngs Moduli (GPa) = 77.09630 81.79821 105.36755
#
# Poissons Ratio (x) = 0.28203 0.40365
# Poissons Ratio (y) = 0.26582 0.34184
# Poissons Ratio (z) = 0.29534 0.26537
#
# Static dielectric constant tensor:
#      x y z
#    x 3.195380 0.000000 0.000000 
#    y 0.000000 3.693510 0.000000 
#    z 0.000000 0.000000 3.690950 
# 
# 
# High freq. dielectric constant tensor:
#      x y z
#    x 1.702770 0.000000 0.000000 
#    y 0.000000 1.735940 0.000000 
#    z 0.000000 0.000000 1.749280 
# 
# From -- ./inp_files/18290.got.cif
#   From: 2010.03.12/outbox.cif.g09.slc.cpg/sg55_10_cif.got.tgz:18290.got - 2010.04.16 15:19:21.
