data_PCOD8225908
_publ_section_title
;
Structure prediction by ZEFSAII (Michael W. Deem and Ramdas Pophale) SiO2 
 PCOD8225908
Probable space group: P B A M
;
_chemical_formula_sum "Si O2"
_cell_formula_units_Z 64
_cell_length_a 20.618559
_cell_length_b 18.340648
_cell_length_c 8.699677
_cell_angle_alpha 90.000000
_cell_angle_beta 90.000000
_cell_angle_gamma 90.000000
_cell_volume 3289.850131
_symmetry_space_group_name_H-M "P B A M"
_symmetry_group_IT_number 55
_symmetry_cell_setting 'orthorhombic'
loop_
_space_group_symop_operation_xyz
x,y,z
-x,-y,z
1/2+x,1/2-y,-z
1/2-x,1/2+y,-z
-x,-y,-z
x,y,-z
1/2-x,1/2+y,z
1/2+x,1/2-y,z
loop_
_atom_site_type_symbol
_atom_site_label
_atom_site_fract_x
_atom_site_fract_y
_atom_site_fract_z
Si Si1 0.157005 0.089238 0.327069
Si Si2 0.368590 0.734035 0.818371
Si Si3 0.672600 0.117619 0.322793
Si Si4 0.971887 0.577184 0.323261
Si Si5 0.896826 0.174747 0.681455
Si Si6 0.298961 0.436809 0.819324
Si Si7 0.492142 0.576143 0.671839
Si Si8 0.487996 0.222433 0.821510
O O1 0.186326 0.092081 0.500000
O O2 0.173400 0.161749 0.229086
O O3 0.080691 0.100572 0.333396
O O4 0.175265 0.012638 0.251107
O O5 0.331376 0.799942 0.736832
O O6 0.445145 0.735691 0.767772
O O7 0.363751 0.743955 0.000000
O O8 0.694353 0.119286 0.500000
O O9 0.605307 0.075471 0.299866
O O10 0.724194 0.071664 0.224724
O O11 0.989257 0.594824 0.500000
O O12 0.000000 0.500000 0.270585
O O13 0.004282 0.637471 0.215941
O O14 0.885763 0.175906 0.500000
O O15 0.835054 0.135765 0.756938
O O16 0.919669 0.254414 0.738663
O O17 0.960292 0.133348 0.749752
O O18 0.308205 0.441692 0.000000
O O19 0.500000 0.500000 0.762820
O O20 0.521170 0.566032 0.500000
O O21 0.477356 0.233769 0.000000
#
# Coordination Sequence:
#
# PCOD8225908 Si02
#       8
#     8   8   8   8   8   8   8   8
#     4  11  20  34  56  83 112 149 197 238 278 336
#     4  10  20  35  56  84 115 144 181 235 289 337
#     4  10  21  40  63  84 109 149 193 232 286 354
#     4   9  19  38  65  92 113 138 184 244 295 342
#     4  11  20  34  55  80 113 154 196 233 276 334
#     4  12  25  39  54  80 119 158 194 238 293 346
#     4   9  16  28  48  77 109 143 185 233 273 314
#     4  10  20  33  53  86 121 149 181 227 289 346
#
# _framework density 19.453773000000002
#
# number of rings (size 3 to 8) (size 9 to 14) (size 15 to 20)
#    0.000    1.750    2.500    3.000    0.000    1.750 
#    0.000    1.875    0.000    1.500    0.000    0.000 
#    0.000    0.000    0.000    0.000    0.000    0.000 
#
# Total GULP energy -793036.313003 kJ/mol
# GULP energy per Si atom -12391.192391 kJ/mol
# Density = 1.940950 g / cm^3
# Si number density = 19.453773 Si / 1000 Ang^3
#
#
#
# Elastic Constant Matrix: (Units=GPa)
#
#
# Indices 1 2 3 4 5 6 
#
# 1 64.4904 39.3272 29.2007 0.0000 0.0000 0.0000
# 2 39.3272 94.8720 40.1750 0.0000 0.0000 0.0000
# 3 29.2007 40.1750 102.0670 0.0000 0.0000 0.0000
# 4 0.0000 0.0000 0.0000 29.5133 0.0000 0.0000
# 5 0.0000 0.0000 0.0000 0.0000 25.9960 0.0000
# 6 0.0000 0.0000 0.0000 0.0000 0.0000 23.3406
#
#
#
# Elastic Compliance Matrix: (Units=1/GPa)
#
#
# Indices 1 2 3 4 5 6 
#
# 1 0.021581 -0.007598 -0.003184 0.000000 0.000000 0.000000
# 2 -0.007598 0.015324 -0.003858 0.000000 0.000000 0.000000
# 3 -0.003184 -0.003858 0.012227 0.000000 0.000000 0.000000
# 4 0.000000 0.000000 0.000000 0.033883 0.000000 0.000000
# 5 0.000000 0.000000 0.000000 0.000000 0.038467 0.000000
# 6 0.000000 0.000000 0.000000 0.000000 0.000000 0.042844
#
#
# Mechanical properties :
#
#
# Convention : Reuss Voigt Hill
#
# Bulk Modulus (GPa) = 50.37057 53.20390 51.78724
# Shear Modulus (GPa) = 24.97227 25.95174 25.46200
#
# Velocity S-wave (km/s) = 3.58672 3.65639 3.62172
# Velocity P-wave (km/s) = 6.56517 6.72561 6.64587
#
# Compressibility (1/GPa) = 0.01985286
#
# Stress axis : x y z
#
# Youngs Moduli (GPa) = 46.33723 65.25821 81.78734
#
# Poissons Ratio (x) = 0.49582 0.26037
# Poissons Ratio (y) = 0.35206 0.31553
# Poissons Ratio (z) = 0.14752 0.25176
#
# Static dielectric constant tensor:
#      x y z
#    x 3.425090 0.000000 0.000000 
#    y 0.000000 3.674270 0.000000 
#    z 0.000000 0.000000 3.502450 
# 
# 
# High freq. dielectric constant tensor:
#      x y z
#    x 1.732700 0.000000 0.000000 
#    y 0.000000 1.762290 0.000000 
#    z 0.000000 0.000000 1.755110 
# 
# From -- ./inp_files/9016.got.cif
#   From: 2010.03.12/outbox.cif.g09.slc.cpg/sg55_5_cif.got.tgz:9016.got - 2010.04.16 15:19:21.
