data_PCOD8225085
_publ_section_title
;
Structure prediction by ZEFSAII (Michael W. Deem and Ramdas Pophale) SiO2 
 PCOD8225085
Probable space group: P B A M
;
_chemical_formula_sum "Si O2"
_cell_formula_units_Z 48
_cell_length_a 14.847206
_cell_length_b 19.899412
_cell_length_c 8.921406
_cell_angle_alpha 90.000000
_cell_angle_beta 90.000000
_cell_angle_gamma 90.000000
_cell_volume 2635.835373
_symmetry_space_group_name_H-M "P B A M"
_symmetry_group_IT_number 55
_symmetry_cell_setting 'orthorhombic'
loop_
_space_group_symop_operation_xyz
x,y,z
-x,-y,z
1/2+x,1/2-y,-z
1/2-x,1/2+y,-z
-x,-y,-z
x,y,-z
1/2-x,1/2+y,z
1/2+x,1/2-y,z
loop_
_atom_site_type_symbol
_atom_site_label
_atom_site_fract_x
_atom_site_fract_y
_atom_site_fract_z
Si Si1 0.380352 0.191700 0.822333
Si Si2 0.079128 0.544051 0.824797
Si Si3 0.998984 0.196165 0.673617
Si Si4 0.061591 0.936175 0.171456
Si Si5 0.699303 0.336331 0.674378
Si Si6 0.722379 0.474527 0.827468
O O1 0.417779 0.120091 0.761699
O O2 0.448283 0.248584 0.770515
O O3 0.279692 0.202877 0.758381
O O4 0.372649 0.192788 0.000000
O O5 0.174062 0.507745 0.790196
O O6 0.000000 0.500000 0.747124
O O7 0.059632 0.548606 0.000000
O O8 0.977800 0.208206 0.500000
O O9 0.962412 0.123050 0.716642
O O10 0.105531 0.201972 0.706679
O O11 0.164459 0.958709 0.203289
O O12 0.048862 0.911860 0.000000
O O13 0.000000 0.000000 0.205861
O O14 0.722167 0.337289 0.500000
O O15 0.687528 0.412713 0.728979
O O16 0.712427 0.451215 0.000000
#
# Coordination Sequence:
#
# PCOD8225085 Si02
#       6
#     8   8   8   8   8   8
#     4  10  21  37  58  81 107 144 188 231 276 332
#     4   8  15  31  55  80 105 133 172 221 273 322
#     4  11  23  37  55  79 113 149 183 229 282 340
#     4  10  19  32  53  81 111 141 182 230 273 326
#     4  10  20  35  56  78 106 146 184 222 277 335
#     4   9  17  31  53  79 107 139 179 226 271 323
#
# _framework density 18.210545
#
# number of rings (size 3 to 8) (size 9 to 14) (size 15 to 20)
#    0.000    2.333    1.667    2.500    0.000    3.000 
#    3.000    0.000    0.000   12.500    0.000    0.000 
#    0.000    0.000    0.000    0.000    0.000    0.000 
#
# Total GULP energy -595139.228072 kJ/mol
# GULP energy per Si atom -12398.733918 kJ/mol
# Density = 1.816910 g / cm^3
# Si number density = 18.210545 Si / 1000 Ang^3
#
#
#
# Elastic Constant Matrix: (Units=GPa)
#
#
# Indices 1 2 3 4 5 6 
#
# 1 133.5823 60.8538 50.5786 0.0000 0.0000 0.0000
# 2 60.8538 74.2129 32.5228 0.0000 0.0000 0.0000
# 3 50.5786 32.5228 72.9922 0.0000 0.0000 0.0000
# 4 0.0000 0.0000 0.0000 20.1028 0.0000 0.0000
# 5 0.0000 0.0000 0.0000 0.0000 25.6367 0.0000
# 6 0.0000 0.0000 0.0000 0.0000 0.0000 31.4232
#
#
#
# Elastic Compliance Matrix: (Units=1/GPa)
#
#
# Indices 1 2 3 4 5 6 
#
# 1 0.013523 -0.008676 -0.005504 0.000000 0.000000 0.000000
# 2 -0.008676 0.022311 -0.003929 0.000000 0.000000 0.000000
# 3 -0.005504 -0.003929 0.019265 0.000000 0.000000 0.000000
# 4 0.000000 0.000000 0.000000 0.049744 0.000000 0.000000
# 5 0.000000 0.000000 0.000000 0.000000 0.039007 0.000000
# 6 0.000000 0.000000 0.000000 0.000000 0.000000 0.031824
#
#
# Mechanical properties :
#
#
# Convention : Reuss Voigt Hill
#
# Bulk Modulus (GPa) = 52.96819 63.18864 58.07841
# Shear Modulus (GPa) = 22.91630 24.55469 23.73549
#
# Velocity S-wave (km/s) = 3.55125 3.67601 3.61417
# Velocity P-wave (km/s) = 6.77974 7.26579 7.02697
#
# Compressibility (1/GPa) = 0.01887926
#
# Stress axis : x y z
#
# Youngs Moduli (GPa) = 73.95009 44.82104 51.90782
#
# Poissons Ratio (x) = 0.38887 0.28572
# Poissons Ratio (y) = 0.64160 0.20395
# Poissons Ratio (z) = 0.40705 0.17610
#
# Static dielectric constant tensor:
#      x y z
#    x 3.722330 0.000000 0.000000 
#    y 0.000000 3.291310 0.000000 
#    z 0.000000 0.000000 3.227040 
# 
# 
# High freq. dielectric constant tensor:
#      x y z
#    x 1.720390 0.000000 0.000000 
#    y 0.000000 1.685200 0.000000 
#    z 0.000000 0.000000 1.693590 
# 
# From -- ./inp_files/5686.got.cif
#   From: 2010.03.12/outbox.cif.g09.slc.cpg/sg55_3_cif.got.tgz:5686.got - 2010.04.16 15:19:21.
