data_PCOD8225997
_publ_section_title
;
Structure prediction by ZEFSAII (Michael W. Deem and Ramdas Pophale) SiO2 
 PCOD8225997
Probable space group: P B A M
;
_chemical_formula_sum "Si O2"
_cell_formula_units_Z 56
_cell_length_a 22.132357
_cell_length_b 9.382555
_cell_length_c 13.612590
_cell_angle_alpha 90.000000
_cell_angle_beta 90.000000
_cell_angle_gamma 90.000000
_cell_volume 2826.763988
_symmetry_space_group_name_H-M "P B A M"
_symmetry_group_IT_number 55
_symmetry_cell_setting 'orthorhombic'
loop_
_space_group_symop_operation_xyz
x,y,z
-x,-y,z
1/2+x,1/2-y,-z
1/2-x,1/2+y,-z
-x,-y,-z
x,y,-z
1/2-x,1/2+y,z
1/2+x,1/2-y,z
loop_
_atom_site_type_symbol
_atom_site_label
_atom_site_fract_x
_atom_site_fract_y
_atom_site_fract_z
Si Si1 0.121296 0.698112 0.112687
Si Si2 0.655619 0.517951 0.794934
Si Si3 0.934714 0.527066 0.754967
Si Si4 0.796355 0.889822 0.387544
Si Si5 0.613317 0.240298 0.887561
Si Si6 0.779788 0.526279 0.108280
Si Si7 0.676954 0.064254 0.387710
O O1 0.073425 0.590956 0.160029
O O2 0.187575 0.626719 0.113193
O O3 0.121487 0.835959 0.182783
O O4 0.102656 0.734159 0.000000
O O5 0.653591 0.469918 0.680581
O O6 0.624492 0.404809 0.866768
O O7 0.726599 0.531392 0.814779
O O8 0.936518 0.679195 0.812013
O O9 0.881429 0.521265 0.675410
O O10 0.000000 0.500000 0.704373
O O11 0.815138 0.920413 0.500000
O O12 0.797696 0.721745 0.362550
O O13 0.728902 0.947947 0.367100
O O14 0.674094 0.151679 0.864621
O O15 0.592664 0.219161 0.000000
O O16 0.752349 0.551089 0.000000
O O17 0.655812 0.058531 0.500000
#
# Coordination Sequence:
#
# PCOD8225997 Si02
#       7
#     8   8   8   8   8   8   8
#     4  10  22  36  53  84 118 155 203 248 291 349
#     4  12  20  31  55  82 119 156 191 239 303 356
#     4  11  23  42  62  83 115 164 208 249 293 350
#     4  10  22  37  60  92 127 155 188 246 305 362
#     4  10  20  34  53  81 112 153 204 244 293 350
#     4   9  18  30  48  78 116 153 188 231 291 360
#     4  10  22  41  64  95 122 153 198 245 306 359
#
# _framework density 19.810637
#
# number of rings (size 3 to 8) (size 9 to 14) (size 15 to 20)
#    0.000    1.714    1.429    5.143    4.000    3.714 
#    0.000    0.714    0.000    1.714    0.000    2.000 
#    0.000    0.000    0.000    0.000    0.000    0.000 
#
# Total GULP energy -694279.116770 kJ/mol
# GULP energy per Si atom -12397.841371 kJ/mol
# Density = 1.976555 g / cm^3
# Si number density = 19.810637 Si / 1000 Ang^3
#
#
#
# Elastic Constant Matrix: (Units=GPa)
#
#
# Indices 1 2 3 4 5 6 
#
# 1 56.6372 24.4922 31.2177 0.0000 0.0000 0.0000
# 2 24.4922 97.5484 24.7152 0.0000 0.0000 0.0000
# 3 31.2177 24.7152 106.2018 0.0000 0.0000 0.0000
# 4 0.0000 0.0000 0.0000 32.1308 0.0000 0.0000
# 5 0.0000 0.0000 0.0000 0.0000 13.5794 0.0000
# 6 0.0000 0.0000 0.0000 0.0000 0.0000 31.8174
#
#
#
# Elastic Compliance Matrix: (Units=1/GPa)
#
#
# Indices 1 2 3 4 5 6 
#
# 1 0.022610 -0.004243 -0.005659 0.000000 0.000000 0.000000
# 2 -0.004243 0.011690 -0.001473 0.000000 0.000000 0.000000
# 3 -0.005659 -0.001473 0.011422 0.000000 0.000000 0.000000
# 4 0.000000 0.000000 0.000000 0.031123 0.000000 0.000000
# 5 0.000000 0.000000 0.000000 0.000000 0.073641 0.000000
# 6 0.000000 0.000000 0.000000 0.000000 0.000000 0.031429
#
#
# Mechanical properties :
#
#
# Convention : Reuss Voigt Hill
#
# Bulk Modulus (GPa) = 43.53102 46.80420 45.16761
# Shear Modulus (GPa) = 23.54905 27.50302 25.52604
#
# Velocity S-wave (km/s) = 3.45150 3.73003 3.59346
# Velocity P-wave (km/s) = 6.15671 6.49830 6.32981
#
# Compressibility (1/GPa) = 0.02297213
#
# Stress axis : x y z
#
# Youngs Moduli (GPa) = 44.22785 85.54361 87.54845
#
# Poissons Ratio (x) = 0.36298 0.49541
# Poissons Ratio (y) = 0.18767 0.12898
# Poissons Ratio (z) = 0.25027 0.12602
#
# Static dielectric constant tensor:
#      x y z
#    x 3.180250 0.000000 0.000000 
#    y 0.000000 3.716570 0.000000 
#    z 0.000000 0.000000 3.797070 
# 
# 
# High freq. dielectric constant tensor:
#      x y z
#    x 1.721280 0.000000 0.000000 
#    y 0.000000 1.778310 0.000000 
#    z 0.000000 0.000000 1.784740 
# 
# From -- ./inp_files/19739.got.cif
#   From: 2010.03.12/outbox.cif.g09.slc.cpg/sg55_10_cif.got.tgz:19739.got - 2010.04.16 15:19:21.
