data_PCOD8225197
_publ_section_title
;
Structure prediction by ZEFSAII (Michael W. Deem and Ramdas Pophale) SiO2 
 PCOD8225197
Probable space group: P B A M
;
_chemical_formula_sum "Si O2"
_cell_formula_units_Z 56
_cell_length_a 8.797502
_cell_length_b 15.677020
_cell_length_c 19.764443
_cell_angle_alpha 90.000000
_cell_angle_beta 90.000000
_cell_angle_gamma 90.000000
_cell_volume 2725.884601
_symmetry_space_group_name_H-M "P B A M"
_symmetry_group_IT_number 55
_symmetry_cell_setting 'orthorhombic'
loop_
_space_group_symop_operation_xyz
x,y,z
-x,-y,z
1/2+x,1/2-y,-z
1/2-x,1/2+y,-z
-x,-y,-z
x,y,-z
1/2-x,1/2+y,z
1/2+x,1/2-y,z
loop_
_atom_site_type_symbol
_atom_site_label
_atom_site_fract_x
_atom_site_fract_y
_atom_site_fract_z
Si Si1 0.216139 0.635127 0.925994
Si Si2 0.401852 0.310595 0.345647
Si Si3 0.750172 0.361443 0.347245
Si Si4 0.674597 0.525620 0.576762
Si Si5 0.379213 0.381869 0.206784
Si Si6 0.223979 0.059368 0.209358
Si Si7 0.550931 0.698277 0.926186
O O1 0.192750 0.572320 0.862793
O O2 0.372679 0.686084 0.914212
O O3 0.077477 0.700806 0.924929
O O4 0.219383 0.588170 0.000000
O O5 0.579803 0.326206 0.355333
O O6 0.359054 0.215738 0.372307
O O7 0.305438 0.384479 0.384047
O O8 0.357664 0.312475 0.265991
O O9 0.772296 0.447522 0.391536
O O10 0.796794 0.386489 0.270404
O O11 0.500000 0.500000 0.581521
O O12 0.728920 0.538906 0.500000
O O13 0.263025 0.458496 0.223463
O O14 0.548673 0.416894 0.206044
O O15 0.346263 0.343899 0.132549
O O16 0.599563 0.660681 0.000000
#
# Coordination Sequence:
#
# PCOD8225197 Si02
#       7
#     8   8   8   8   8   8   8
#     4   9  17  28  43  64  90 120 155 197 242 286
#     4  10  19  33  54  77 101 132 168 205 246 292
#     4  10  19  33  54  77 101 132 168 205 246 292
#     4   9  18  34  55  77 102 134 170 201 237 297
#     4   9  16  28  47  69  93 123 162 203 240 284
#     4   9  16  28  47  69  93 123 162 203 240 284
#     4   9  17  28  43  64  90 120 155 197 242 286
#
# _framework density 20.543790999999999
#
# number of rings (size 3 to 8) (size 9 to 14) (size 15 to 20)
#    0.000    2.714    1.429    0.857    0.000    1.143 
#    0.000    3.571    0.000    3.429    0.000    4.000 
#    0.000    0.000    0.000    0.000    0.000    0.000 
#
# Total GULP energy -693866.847058 kJ/mol
# GULP energy per Si atom -12390.479412 kJ/mol
# Density = 2.049703 g / cm^3
# Si number density = 20.543791 Si / 1000 Ang^3
#
#
#
# Elastic Constant Matrix: (Units=GPa)
#
#
# Indices 1 2 3 4 5 6 
#
# 1 9.5450 -4.1386 4.6642 0.0000 0.0000 0.0000
# 2 -4.1386 40.8074 14.4499 0.0000 0.0000 0.0000
# 3 4.6642 14.4499 123.4964 0.0000 0.0000 0.0000
# 4 0.0000 0.0000 0.0000 29.7450 0.0000 0.0000
# 5 0.0000 0.0000 0.0000 0.0000 10.9853 0.0000
# 6 0.0000 0.0000 0.0000 0.0000 0.0000 25.7265
#
#
#
# Elastic Compliance Matrix: (Units=1/GPa)
#
#
# Indices 1 2 3 4 5 6 
#
# 1 0.113534 0.013596 -0.005879 0.000000 0.000000 0.000000
# 2 0.013596 0.027193 -0.003695 0.000000 0.000000 0.000000
# 3 -0.005879 -0.003695 0.008752 0.000000 0.000000 0.000000
# 4 0.000000 0.000000 0.000000 0.033619 0.000000 0.000000
# 5 0.000000 0.000000 0.000000 0.000000 0.091031 0.000000
# 6 0.000000 0.000000 0.000000 0.000000 0.000000 0.038870
#
#
# Mechanical properties :
#
#
# Convention : Reuss Voigt Hill
#
# Bulk Modulus (GPa) = 6.34826 22.64443 14.49634
# Shear Modulus (GPa) = 13.98746 23.88291 18.93518
#
# Velocity S-wave (km/s) = 2.61216 3.41330 3.03924
# Velocity P-wave (km/s) = 3.49209 5.15564 4.40314
#
# Compressibility (1/GPa) = 0.15752340
#
# Stress axis : x y z
#
# Youngs Moduli (GPa) = 8.80790 36.77444 114.26208
#
# Poissons Ratio (x) = -0.49999 0.67173
# Poissons Ratio (y) = -0.11975 0.42223
# Poissons Ratio (z) = 0.05178 0.13589
#
# Static dielectric constant tensor:
#      x y z
#    x 3.160790 0.000000 0.000000 
#    y 0.000000 3.710800 0.000000 
#    z 0.000000 0.000000 4.095480 
# 
# 
# High freq. dielectric constant tensor:
#      x y z
#    x 1.747440 0.000000 0.000000 
#    y 0.000000 1.793460 0.000000 
#    z 0.000000 0.000000 1.813670 
# 
# From -- ./inp_files/22639.got.cif
#   From: 2010.03.12/outbox.cif.g09.slc.cpg/sg55_12_cif.got.tgz:22639.got - 2010.04.16 15:19:21.
