data_PCOD8225220
_publ_section_title
;
Structure prediction by ZEFSAII (Michael W. Deem and Ramdas Pophale) SiO2 
 PCOD8225220
Probable space group: P B A M
;
_chemical_formula_sum "Si O2"
_cell_formula_units_Z 64
_cell_length_a 16.452348
_cell_length_b 21.250410
_cell_length_c 9.371228
_cell_angle_alpha 90.000000
_cell_angle_beta 90.000000
_cell_angle_gamma 90.000000
_cell_volume 3276.360678
_symmetry_space_group_name_H-M "P B A M"
_symmetry_group_IT_number 55
_symmetry_cell_setting 'orthorhombic'
loop_
_space_group_symop_operation_xyz
x,y,z
-x,-y,z
1/2+x,1/2-y,-z
1/2-x,1/2+y,-z
-x,-y,-z
x,y,-z
1/2-x,1/2+y,z
1/2+x,1/2-y,z
loop_
_atom_site_type_symbol
_atom_site_label
_atom_site_fract_x
_atom_site_fract_y
_atom_site_fract_z
Si Si1 0.209068 0.631007 0.162369
Si Si2 0.963692 0.326095 0.164427
Si Si3 0.315496 0.713109 0.340814
Si Si4 0.451687 0.608120 0.337782
Si Si5 0.766577 0.107020 0.836450
Si Si6 0.580022 0.683824 0.834502
Si Si7 0.378782 0.846330 0.330664
Si Si8 0.164760 0.027154 0.834358
O O1 0.239651 0.691512 0.248188
O O2 0.254518 0.567080 0.209591
O O3 0.112400 0.626607 0.185759
O O4 0.229483 0.646904 0.000000
O O5 0.032855 0.356738 0.262549
O O6 0.938847 0.255332 0.213206
O O7 0.992251 0.325156 0.000000
O O8 0.282777 0.723332 0.500000
O O9 0.386273 0.662842 0.333772
O O10 0.351624 0.777371 0.280407
O O11 0.473998 0.589411 0.500000
O O12 0.530809 0.633379 0.258094
O O13 0.413635 0.547737 0.257532
O O14 0.824632 0.167542 0.809577
O O15 0.687849 0.106543 0.734628
O O16 0.818124 0.045017 0.799133
O O17 0.736380 0.104808 0.000000
O O18 0.557095 0.673790 0.000000
O O19 0.384514 0.855407 0.500000
O O20 0.143686 0.037802 0.000000
#
# Coordination Sequence:
#
# PCOD8225220 Si02
#       8
#     8   8   8   8   8   8   8   8
#     4   9  18  33  56  82 104 136 182 226 267 316
#     4  10  20  34  54  81 109 136 174 223 272 325
#     4   9  18  32  50  76 107 138 170 212 268 324
#     4  10  19  33  54  80 112 145 179 219 267 324
#     4  10  22  39  57  79 108 145 186 229 274 321
#     4  10  20  34  54  81 111 141 178 223 273 328
#     4  11  22  36  54  78 109 142 178 220 273 332
#     4   9  19  37  58  79 108 145 188 230 270 319
#
# _framework density 19.53387
#
# number of rings (size 3 to 8) (size 9 to 14) (size 15 to 20)
#    0.000    2.250    1.250    1.500    0.000    4.500 
#    0.000    3.125    0.000    3.750    0.000    0.000 
#    0.000    0.000    0.000    0.000    0.000    0.000 
#
# Total GULP energy -793596.234543 kJ/mol
# GULP energy per Si atom -12399.941165 kJ/mol
# Density = 1.948941 g / cm^3
# Si number density = 19.533870 Si / 1000 Ang^3
#
#
#
# Elastic Constant Matrix: (Units=GPa)
#
#
# Indices 1 2 3 4 5 6 
#
# 1 86.6156 6.2097 42.8911 0.0000 0.0000 0.0000
# 2 6.2097 34.8088 12.8590 0.0000 0.0000 0.0000
# 3 42.8911 12.8590 75.2224 0.0000 0.0000 0.0000
# 4 0.0000 0.0000 0.0000 22.5535 0.0000 0.0000
# 5 0.0000 0.0000 0.0000 0.0000 23.8120 0.0000
# 6 0.0000 0.0000 0.0000 0.0000 0.0000 21.7187
#
#
#
# Elastic Compliance Matrix: (Units=1/GPa)
#
#
# Indices 1 2 3 4 5 6 
#
# 1 0.016098 0.000554 -0.009273 0.000000 0.000000 0.000000
# 2 0.000554 0.030684 -0.005561 0.000000 0.000000 0.000000
# 3 -0.009273 -0.005561 0.019532 0.000000 0.000000 0.000000
# 4 0.000000 0.000000 0.000000 0.044339 0.000000 0.000000
# 5 0.000000 0.000000 0.000000 0.000000 0.041996 0.000000
# 6 0.000000 0.000000 0.000000 0.000000 0.000000 0.046043
#
#
# Mechanical properties :
#
#
# Convention : Reuss Voigt Hill
#
# Bulk Modulus (GPa) = 26.48823 35.61847 31.05335
# Shear Modulus (GPa) = 20.84747 22.59596 21.72172
#
# Velocity S-wave (km/s) = 3.27042 3.40480 3.33829
# Velocity P-wave (km/s) = 5.27735 5.80782 5.54893
#
# Compressibility (1/GPa) = 0.03775261
#
# Stress axis : x y z
#
# Youngs Moduli (GPa) = 62.12084 32.59032 51.19751
#
# Poissons Ratio (x) = -0.01806 0.47478
# Poissons Ratio (y) = -0.03442 0.28472
# Poissons Ratio (z) = 0.57607 0.18124
#
# Static dielectric constant tensor:
#      x y z
#    x 3.479150 0.000000 0.000000 
#    y 0.000000 3.419080 0.000000 
#    z 0.000000 0.000000 3.580650 
# 
# 
# High freq. dielectric constant tensor:
#      x y z
#    x 1.759540 0.000000 0.000000 
#    y 0.000000 1.744380 0.000000 
#    z 0.000000 0.000000 1.756160 
# 
# From -- ./inp_files/6501.got.cif
#   From: 2010.03.12/outbox.cif.g09.slc.cpg/sg55_4_cif.got.tgz:6501.got - 2010.04.16 15:19:21.
