data_PCOD8225882
_publ_section_title
;
Structure prediction by ZEFSAII (Michael W. Deem and Ramdas Pophale) SiO2 
 PCOD8225882
Probable space group: P B A M
;
_chemical_formula_sum "Si O2"
_cell_formula_units_Z 56
_cell_length_a 16.025168
_cell_length_b 22.373891
_cell_length_c 9.240069
_cell_angle_alpha 90.000000
_cell_angle_beta 90.000000
_cell_angle_gamma 90.000000
_cell_volume 3312.983885
_symmetry_space_group_name_H-M "P B A M"
_symmetry_group_IT_number 55
_symmetry_cell_setting 'orthorhombic'
loop_
_space_group_symop_operation_xyz
x,y,z
-x,-y,z
1/2+x,1/2-y,-z
1/2-x,1/2+y,-z
-x,-y,-z
x,y,-z
1/2-x,1/2+y,z
1/2+x,1/2-y,z
loop_
_atom_site_type_symbol
_atom_site_label
_atom_site_fract_x
_atom_site_fract_y
_atom_site_fract_z
Si Si1 0.639612 0.142400 0.829951
Si Si2 0.024815 0.857729 0.337643
Si Si3 0.844242 0.881935 0.663288
Si Si4 0.405591 0.742767 0.337425
Si Si5 0.409038 0.972911 0.332794
Si Si6 0.818260 0.098233 0.832942
Si Si7 0.258427 0.025212 0.171086
O O1 0.606650 0.206730 0.781779
O O2 0.590016 0.091497 0.743906
O O3 0.737821 0.138123 0.792986
O O4 0.623460 0.133333 0.000000
O O5 0.056764 0.867407 0.500000
O O6 0.099904 0.874958 0.236452
O O7 0.942195 0.898775 0.309380
O O8 0.996774 0.788232 0.315063
O O9 0.818573 0.900801 0.500000
O O10 0.835697 0.809744 0.681040
O O11 0.785404 0.913882 0.779098
O O12 0.399264 0.769752 0.500000
O O13 0.382373 0.965789 0.500000
O O14 0.500000 0.000000 0.318222
O O15 0.346202 0.018027 0.252260
O O16 0.801162 0.030081 0.784514
O O17 0.837024 0.100320 0.000000
O O18 0.275185 0.026848 0.000000
#
# Coordination Sequence:
#
# PCOD8225882 Si02
#       7
#     8   8   8   8   8   8   8
#     4  10  20  34  54  78 103 134 169 209 258 308
#     4   8  17  32  50  73 100 132 172 211 246 292
#     4   8  17  33  51  73 103 135 170 209 248 294
#     4   8  17  34  52  72  99 132 173 213 250 296
#     4  10  21  37  57  78 100 131 171 214 259 306
#     4   9  19  32  46  72 105 133 166 205 250 305
#     4  10  20  33  51  77 107 136 168 208 256 308
#
# _framework density 16.903191
#
# number of rings (size 3 to 8) (size 9 to 14) (size 15 to 20)
#    0.857    2.143    0.000    2.143    0.000    6.857 
#    0.000    4.286    0.000    1.714    0.000    0.000 
#    0.000    0.000    0.000    0.000    0.000    0.000 
#
# Total GULP energy -693917.280387 kJ/mol
# GULP energy per Si atom -12391.380007 kJ/mol
# Density = 1.686472 g / cm^3
# Si number density = 16.903191 Si / 1000 Ang^3
#
#
#
# Elastic Constant Matrix: (Units=GPa)
#
#
# Indices 1 2 3 4 5 6 
#
# 1 76.3317 42.3054 52.0582 0.0000 0.0000 0.0000
# 2 42.3054 72.9690 47.7170 0.0000 0.0000 0.0000
# 3 52.0582 47.7170 97.9424 0.0000 0.0000 0.0000
# 4 0.0000 0.0000 0.0000 31.7060 0.0000 0.0000
# 5 0.0000 0.0000 0.0000 0.0000 32.4317 0.0000
# 6 0.0000 0.0000 0.0000 0.0000 0.0000 16.1501
#
#
#
# Elastic Compliance Matrix: (Units=1/GPa)
#
#
# Indices 1 2 3 4 5 6 
#
# 1 0.023316 -0.007945 -0.008522 0.000000 0.000000 0.000000
# 2 -0.007945 0.022819 -0.006894 0.000000 0.000000 0.000000
# 3 -0.008522 -0.006894 0.018099 0.000000 0.000000 0.000000
# 4 0.000000 0.000000 0.000000 0.031540 0.000000 0.000000
# 5 0.000000 0.000000 0.000000 0.000000 0.030834 0.000000
# 6 0.000000 0.000000 0.000000 0.000000 0.000000 0.061919
#
#
# Mechanical properties :
#
#
# Convention : Reuss Voigt Hill
#
# Bulk Modulus (GPa) = 57.10784 59.04493 58.07639
# Shear Modulus (GPa) = 20.73931 23.06839 21.90385
#
# Velocity S-wave (km/s) = 3.50658 3.69824 3.60368
# Velocity P-wave (km/s) = 7.08896 7.29678 7.19362
#
# Compressibility (1/GPa) = 0.01751073
#
# Stress axis : x y z
#
# Youngs Moduli (GPa) = 42.88835 43.82237 55.25250
#
# Poissons Ratio (x) = 0.34818 0.47087
# Poissons Ratio (y) = 0.34076 0.38094
# Poissons Ratio (z) = 0.36550 0.30213
#
# Static dielectric constant tensor:
#      x y z
#    x 2.976750 0.000000 0.000000 
#    y 0.000000 3.047000 0.000000 
#    z 0.000000 0.000000 3.149190 
# 
# 
# High freq. dielectric constant tensor:
#      x y z
#    x 1.636770 0.000000 0.000000 
#    y 0.000000 1.638540 0.000000 
#    z 0.000000 0.000000 1.660320 
# 
# From -- ./inp_files/7845.got.cif
#   From: 2010.03.12/outbox.cif.g09.slc.cpg/sg55_4_cif.got.tgz:7845.got - 2010.04.16 15:19:21.
