data_PCOD8225895
_publ_section_title
;
Structure prediction by ZEFSAII (Michael W. Deem and Ramdas Pophale) SiO2 
 PCOD8225895
Probable space group: P B A M
;
_chemical_formula_sum "Si O2"
_cell_formula_units_Z 64
_cell_length_a 16.588351
_cell_length_b 21.749680
_cell_length_c 9.710649
_cell_angle_alpha 90.000000
_cell_angle_beta 90.000000
_cell_angle_gamma 90.000000
_cell_volume 3503.517929
_symmetry_space_group_name_H-M "P B A M"
_symmetry_group_IT_number 55
_symmetry_cell_setting 'orthorhombic'
loop_
_space_group_symop_operation_xyz
x,y,z
-x,-y,z
1/2+x,1/2-y,-z
1/2-x,1/2+y,-z
-x,-y,-z
x,y,-z
1/2-x,1/2+y,z
1/2+x,1/2-y,z
loop_
_atom_site_type_symbol
_atom_site_label
_atom_site_fract_x
_atom_site_fract_y
_atom_site_fract_z
Si Si1 0.463722 0.303653 0.661446
Si Si2 0.084393 0.686080 0.159334
Si Si3 0.183106 0.289518 0.652232
Si Si4 0.290393 0.963465 0.159363
Si Si5 0.182781 0.884084 0.657358
Si Si6 0.267894 0.102129 0.840170
Si Si7 0.641513 0.343300 0.344875
Si Si8 0.581856 0.134714 0.156413
O O1 0.461584 0.285138 0.500000
O O2 0.433094 0.245491 0.748305
O O3 0.408400 0.363682 0.689754
O O4 0.552514 0.325058 0.707279
O O5 0.166511 0.652713 0.205966
O O6 0.014523 0.633822 0.176228
O O7 0.089370 0.707281 0.000000
O O8 0.152787 0.308194 0.500000
O O9 0.266248 0.322606 0.688402
O O10 0.197750 0.217010 0.660793
O O11 0.113009 0.307915 0.756247
O O12 0.213591 0.938669 0.244961
O O13 0.373381 0.928381 0.203137
O O14 0.304168 0.034918 0.191109
O O15 0.269959 0.952343 0.000000
O O16 0.192262 0.906367 0.500000
O O17 0.184549 0.108227 0.755399
O O18 0.246343 0.109706 0.000000
O O19 0.637575 0.370352 0.500000
O O20 0.605441 0.148701 0.000000
#
# Coordination Sequence:
#
# PCOD8225895 Si02
#       8
#     8   8   8   8   8   8   8   8
#     4  10  20  35  55  80 108 136 169 213 265 318
#     4  10  20  33  52  81 111 137 170 212 261 315
#     4   9  16  29  49  74 102 131 163 203 255 311
#     4   9  19  36  54  73 102 140 180 216 254 303
#     4   9  18  32  53  77 100 130 171 216 259 305
#     4  10  22  37  52  74 105 141 178 216 257 306
#     4  10  20  34  53  76 103 137 174 213 263 315
#     4   9  17  30  51  77 103 134 169 208 252 301
#
# _framework density 18.267354000000001
#
# number of rings (size 3 to 8) (size 9 to 14) (size 15 to 20)
#    0.000    2.500    1.250    0.750    0.000    4.000 
#    0.000    5.625    0.000    3.750    0.000    5.250 
#    0.000    0.000    0.000    0.000    0.000    0.000 
#
# Total GULP energy -793332.786925 kJ/mol
# GULP energy per Si atom -12395.824796 kJ/mol
# Density = 1.822578 g / cm^3
# Si number density = 18.267354 Si / 1000 Ang^3
#
#
#
# Elastic Constant Matrix: (Units=GPa)
#
#
# Indices 1 2 3 4 5 6 
#
# 1 95.1376 35.8799 44.2234 0.0000 0.0000 0.0000
# 2 35.8799 57.8940 36.3227 0.0000 0.0000 0.0000
# 3 44.2234 36.3227 64.6428 0.0000 0.0000 0.0000
# 4 0.0000 0.0000 0.0000 26.0505 0.0000 0.0000
# 5 0.0000 0.0000 0.0000 0.0000 27.7742 0.0000
# 6 0.0000 0.0000 0.0000 0.0000 0.0000 22.9893
#
#
#
# Elastic Compliance Matrix: (Units=1/GPa)
#
#
# Indices 1 2 3 4 5 6 
#
# 1 0.016224 -0.004774 -0.008416 0.000000 0.000000 0.000000
# 2 -0.004774 0.028083 -0.012513 0.000000 0.000000 0.000000
# 3 -0.008416 -0.012513 0.028259 0.000000 0.000000 0.000000
# 4 0.000000 0.000000 0.000000 0.038387 0.000000 0.000000
# 5 0.000000 0.000000 0.000000 0.000000 0.036005 0.000000
# 6 0.000000 0.000000 0.000000 0.000000 0.000000 0.043499
#
#
# Mechanical properties :
#
#
# Convention : Reuss Voigt Hill
#
# Bulk Modulus (GPa) = 47.26555 50.05847 48.66201
# Shear Modulus (GPa) = 20.08707 22.11270 21.09988
#
# Velocity S-wave (km/s) = 3.31964 3.48300 3.40230
# Velocity P-wave (km/s) = 6.37369 6.60589 6.49083
#
# Compressibility (1/GPa) = 0.02115706
#
# Stress axis : x y z
#
# Youngs Moduli (GPa) = 61.63743 35.60900 35.38727
#
# Poissons Ratio (x) = 0.17001 0.29783
# Poissons Ratio (y) = 0.29428 0.44282
# Poissons Ratio (z) = 0.51877 0.44559
#
# Static dielectric constant tensor:
#      x y z
#    x 3.445420 0.000000 0.000000 
#    y 0.000000 3.176060 0.000000 
#    z 0.000000 0.000000 3.389800 
# 
# 
# High freq. dielectric constant tensor:
#      x y z
#    x 1.707940 0.000000 0.000000 
#    y 0.000000 1.686630 0.000000 
#    z 0.000000 0.000000 1.706010 
# 
# From -- ./inp_files/8016.got.cif
#   From: 2010.03.12/outbox.cif.g09.slc.cpg/sg55_5_cif.got.tgz:8016.got - 2010.04.16 15:19:21.
