data_PCOD8225801
_publ_section_title
;
Structure prediction by ZEFSAII (Michael W. Deem and Ramdas Pophale) SiO2 
 PCOD8225801
Probable space group: P B A M
;
_chemical_formula_sum "Si O2"
_cell_formula_units_Z 28
_cell_length_a 5.047483
_cell_length_b 18.173044
_cell_length_c 13.456815
_cell_angle_alpha 90.000000
_cell_angle_beta 90.000000
_cell_angle_gamma 90.000000
_cell_volume 1234.368484
_symmetry_space_group_name_H-M "P B A M"
_symmetry_group_IT_number 55
_symmetry_cell_setting 'orthorhombic'
loop_
_space_group_symop_operation_xyz
x,y,z
-x,-y,z
1/2+x,1/2-y,-z
1/2-x,1/2+y,-z
-x,-y,-z
x,y,-z
1/2-x,1/2+y,z
1/2+x,1/2-y,z
loop_
_atom_site_type_symbol
_atom_site_label
_atom_site_fract_x
_atom_site_fract_y
_atom_site_fract_z
Si Si1 0.247423 0.448372 0.500000
Si Si2 0.792118 0.297328 0.384716
Si Si3 0.441853 0.413341 0.697172
Si Si4 0.753523 0.550471 0.892239
O O1 0.500000 0.500000 0.500000
O O2 0.252877 0.397627 0.599926
O O3 0.000000 0.500000 0.500000
O O4 0.770838 0.321773 0.500000
O O5 0.081676 0.267335 0.358643
O O6 0.714189 0.367782 0.316978
O O7 0.500000 0.500000 0.702406
O O8 0.296986 0.391750 0.801343
O O9 0.500000 0.500000 0.904964
O O10 0.000000 0.500000 0.862058
O O11 0.805317 0.589974 0.000000
#
# Coordination Sequence:
#
# PCOD8225801 Si02
#       4
#     4   8   8   8
#     4  10  20  30  46  78 108 128 163 220 265 300
#     4  10  22  38  53  75 110 149 180 217 274 335
#     4  10  20  36  57  83 108 142 184 230 269 321
#     4   9  18  32  51  78 109 138 173 220 272 318
#
# _framework density 22.683662000000002
#
# number of rings (size 3 to 8) (size 9 to 14) (size 15 to 20)
#    0.000    2.286    1.429    0.857    0.000    9.143 
#    0.000    0.000    0.000    1.714    0.000    0.000 
#    0.000    0.000    0.000    0.000    0.000    0.000 
#
# Total GULP energy -346944.598502 kJ/mol
# GULP energy per Si atom -12390.878518 kJ/mol
# Density = 2.263203 g / cm^3
# Si number density = 22.683662 Si / 1000 Ang^3
#
#
#
# Elastic Constant Matrix: (Units=GPa)
#
#
# Indices 1 2 3 4 5 6 
#
# 1 65.9358 -17.8188 -10.9051 0.0000 0.0000 0.0000
# 2 -17.8188 56.1983 -2.3719 0.0000 0.0000 0.0000
# 3 -10.9051 -2.3719 179.5684 0.0000 0.0000 0.0000
# 4 0.0000 0.0000 0.0000 16.4983 0.0000 0.0000
# 5 0.0000 0.0000 0.0000 0.0000 23.5737 0.0000
# 6 0.0000 0.0000 0.0000 0.0000 0.0000 15.0297
#
#
#
# Elastic Compliance Matrix: (Units=1/GPa)
#
#
# Indices 1 2 3 4 5 6 
#
# 1 0.016799 0.005372 0.001091 0.000000 0.000000 0.000000
# 2 0.005372 0.019522 0.000584 0.000000 0.000000 0.000000
# 3 0.001091 0.000584 0.005643 0.000000 0.000000 0.000000
# 4 0.000000 0.000000 0.000000 0.060612 0.000000 0.000000
# 5 0.000000 0.000000 0.000000 0.000000 0.042420 0.000000
# 6 0.000000 0.000000 0.000000 0.000000 0.000000 0.066535
#
#
# Mechanical properties :
#
#
# Convention : Reuss Voigt Hill
#
# Bulk Modulus (GPa) = 17.83835 26.61234 22.22535
# Shear Modulus (GPa) = 23.13507 33.20689 28.17098
#
# Velocity S-wave (km/s) = 3.19705 3.83026 3.52789
# Velocity P-wave (km/s) = 4.63780 5.59630 5.13945
#
# Compressibility (1/GPa) = 0.05605898
#
# Stress axis : x y z
#
# Youngs Moduli (GPa) = 59.52881 51.22369 177.21428
#
# Poissons Ratio (x) = -0.27519 -0.19336
# Poissons Ratio (y) = -0.31981 -0.10352
# Poissons Ratio (z) = -0.06495 -0.02992
#
# Static dielectric constant tensor:
#      x y z
#    x 4.165010 0.000000 0.000000 
#    y 0.000000 3.731140 0.000000 
#    z 0.000000 0.000000 7.995040 
# 
# 
# High freq. dielectric constant tensor:
#      x y z
#    x 1.910930 0.000000 0.000000 
#    y 0.000000 1.846330 0.000000 
#    z 0.000000 0.000000 1.896410 
# 
# From -- ./inp_files/16387.got.cif
#   From: 2010.03.12/outbox.cif.g09.slc.cpg/sg55_9_cif.got.tgz:16387.got - 2010.04.16 15:19:21.
