data_PCOD8225424
_publ_section_title
;
Structure prediction by ZEFSAII (Michael W. Deem and Ramdas Pophale) SiO2 
 PCOD8225424
Probable space group: P B A M
;
_chemical_formula_sum "Si O2"
_cell_formula_units_Z 48
_cell_length_a 9.522126
_cell_length_b 22.039509
_cell_length_c 12.488944
_cell_angle_alpha 90.000000
_cell_angle_beta 90.000000
_cell_angle_gamma 90.000000
_cell_volume 2620.967026
_symmetry_space_group_name_H-M "P B A M"
_symmetry_group_IT_number 55
_symmetry_cell_setting 'orthorhombic'
loop_
_space_group_symop_operation_xyz
x,y,z
-x,-y,z
1/2+x,1/2-y,-z
1/2-x,1/2+y,-z
-x,-y,-z
x,y,-z
1/2-x,1/2+y,z
1/2+x,1/2-y,z
loop_
_atom_site_type_symbol
_atom_site_label
_atom_site_fract_x
_atom_site_fract_y
_atom_site_fract_z
Si Si1 0.606817 0.129726 0.622165
Si Si2 0.920641 0.909064 0.697502
Si Si3 0.518188 0.317878 0.876436
Si Si4 0.760269 0.727503 0.221587
Si Si5 0.810724 0.326124 0.617855
Si Si6 0.689054 0.528926 0.622275
O O1 0.647718 0.148389 0.500000
O O2 0.670195 0.176497 0.705807
O O3 0.439044 0.127143 0.636606
O O4 0.663494 0.061863 0.646178
O O5 0.941908 0.879989 0.814625
O O6 0.835898 0.861058 0.626578
O O7 0.068995 0.920398 0.640322
O O8 0.834041 0.972549 0.703126
O O9 0.619793 0.262288 0.844521
O O10 0.355354 0.301074 0.857158
O O11 0.540403 0.332649 0.000000
O O12 0.674369 0.772568 0.297769
O O13 0.819955 0.297064 0.500000
O O14 0.680825 0.504853 0.500000
#
# Coordination Sequence:
#
# PCOD8225424 Si02
#       6
#     8   8   8   8   8   8
#     4  10  20  33  53  82 115 146 177 212 267 336
#     4  10  20  35  55  78 110 143 181 223 267 316
#     4  11  23  38  59  78 102 142 189 234 273 313
#     4  11  20  38  54  80 112 138 178 227 279 321
#     4  10  20  33  52  82 114 146 176 211 268 333
#     4  10  19  34  56  83 113 145 177 215 273 330
#
# _framework density 18.313849999999999
#
# number of rings (size 3 to 8) (size 9 to 14) (size 15 to 20)
#    0.000    1.667    3.333    3.000    0.000    0.667 
#    0.000    4.167    0.000    0.000    0.000    2.333 
#    0.000    0.000    0.000    0.000    0.000    0.000 
#
# Total GULP energy -595094.793114 kJ/mol
# GULP energy per Si atom -12397.808190 kJ/mol
# Density = 1.827217 g / cm^3
# Si number density = 18.313850 Si / 1000 Ang^3
#
#
#
# Elastic Constant Matrix: (Units=GPa)
#
#
# Indices 1 2 3 4 5 6 
#
# 1 58.9337 13.5739 27.4639 0.0000 0.0000 0.0000
# 2 13.5739 72.2390 36.5152 0.0000 0.0000 0.0000
# 3 27.4639 36.5152 96.3857 0.0000 0.0000 0.0000
# 4 0.0000 0.0000 0.0000 20.7482 0.0000 0.0000
# 5 0.0000 0.0000 0.0000 0.0000 21.3822 0.0000
# 6 0.0000 0.0000 0.0000 0.0000 0.0000 27.1298
#
#
#
# Elastic Compliance Matrix: (Units=1/GPa)
#
#
# Indices 1 2 3 4 5 6 
#
# 1 0.019632 -0.001065 -0.005190 0.000000 0.000000 0.000000
# 2 -0.001065 0.017180 -0.006205 0.000000 0.000000 0.000000
# 3 -0.005190 -0.006205 0.014205 0.000000 0.000000 0.000000
# 4 0.000000 0.000000 0.000000 0.048197 0.000000 0.000000
# 5 0.000000 0.000000 0.000000 0.000000 0.046768 0.000000
# 6 0.000000 0.000000 0.000000 0.000000 0.000000 0.036860
#
#
# Mechanical properties :
#
#
# Convention : Reuss Voigt Hill
#
# Bulk Modulus (GPa) = 38.32098 42.51828 40.41963
# Shear Modulus (GPa) = 23.09887 23.85239 23.47563
#
# Velocity S-wave (km/s) = 3.55530 3.61283 3.58418
# Velocity P-wave (km/s) = 6.15009 6.37732 6.26473
#
# Compressibility (1/GPa) = 0.02609536
#
# Stress axis : x y z
#
# Youngs Moduli (GPa) = 50.93619 58.20887 70.39986
#
# Poissons Ratio (x) = 0.06201 0.36540
# Poissons Ratio (y) = 0.05427 0.43682
# Poissons Ratio (z) = 0.26438 0.36117
#
# Static dielectric constant tensor:
#      x y z
#    x 3.534850 0.000000 0.000000 
#    y 0.000000 3.347210 0.000000 
#    z 0.000000 0.000000 3.188580 
# 
# 
# High freq. dielectric constant tensor:
#      x y z
#    x 1.723970 0.000000 0.000000 
#    y 0.000000 1.703830 0.000000 
#    z 0.000000 0.000000 1.684430 
# 
# From -- ./inp_files/12219.got.cif
#   From: 2010.03.12/outbox.cif.g09.slc.cpg/sg55_7_cif.got.tgz:12219.got - 2010.04.16 15:19:21.
