data_PCOD8225231
_publ_section_title
;
Structure prediction by ZEFSAII (Michael W. Deem and Ramdas Pophale) SiO2 
 PCOD8225231
Probable space group: P B A M
;
_chemical_formula_sum "Si O2"
_cell_formula_units_Z 64
_cell_length_a 14.481387
_cell_length_b 24.629312
_cell_length_c 8.685113
_cell_angle_alpha 90.000000
_cell_angle_beta 90.000000
_cell_angle_gamma 90.000000
_cell_volume 3097.689712
_symmetry_space_group_name_H-M "P B A M"
_symmetry_group_IT_number 55
_symmetry_cell_setting 'orthorhombic'
loop_
_space_group_symop_operation_xyz
x,y,z
-x,-y,z
1/2+x,1/2-y,-z
1/2-x,1/2+y,-z
-x,-y,-z
x,y,-z
1/2-x,1/2+y,z
1/2+x,1/2-y,z
loop_
_atom_site_type_symbol
_atom_site_label
_atom_site_fract_x
_atom_site_fract_y
_atom_site_fract_z
Si Si1 0.009259 0.326646 0.319222
Si Si2 0.246863 0.476436 0.323122
Si Si3 0.437814 0.633184 0.680688
Si Si4 0.261290 0.583792 0.173558
Si Si5 0.173685 0.698596 0.173673
Si Si6 0.546064 0.054141 0.319852
Si Si7 0.937593 0.051123 0.820430
Si Si8 0.869071 0.760233 0.817904
O O1 0.028148 0.324188 0.500000
O O2 0.915947 0.293193 0.280006
O O3 0.002978 0.389045 0.258599
O O4 0.095512 0.298670 0.232630
O O5 0.276966 0.470688 0.500000
O O6 0.219236 0.538642 0.286366
O O7 0.155450 0.441926 0.285769
O O8 0.330359 0.458861 0.214276
O O9 0.419515 0.630548 0.500000
O O10 0.363394 0.597916 0.771681
O O11 0.534724 0.605215 0.725220
O O12 0.434184 0.695438 0.735411
O O13 0.196048 0.635306 0.181527
O O14 0.268843 0.561098 0.000000
O O15 0.261848 0.732834 0.234809
O O16 0.148526 0.716336 0.000000
O O17 0.527030 0.050168 0.500000
O O18 0.500000 0.000000 0.242024
O O19 0.950525 0.062535 0.000000
O O20 0.000000 0.000000 0.766736
O O21 0.875157 0.769381 0.000000
#
# Coordination Sequence:
#
# PCOD8225231 Si02
#       8
#     8   8   8   8   8   8   8   8
#     4  11  22  39  65  94 123 158 203 256 308 366
#     4  11  21  34  56  85 118 159 204 250 298 359
#     4  11  21  35  58  86 115 152 203 253 298 353
#     4  10  19  33  54  83 119 156 197 245 295 353
#     4   9  20  38  61  86 115 155 198 245 301 362
#     4   9  20  39  61  89 125 160 196 249 313 364
#     4  11  22  36  55  81 122 167 202 246 306 370
#     4  10  22  42  64  87 121 158 198 249 306 365
#
# _framework density 20.66056
#
# number of rings (size 3 to 8) (size 9 to 14) (size 15 to 20)
#    0.000    1.750    1.250    4.500    0.000    4.500 
#    2.250    2.500    0.000    4.500    0.000    0.000 
#    0.000    0.000    0.000    0.000    0.000    0.000 
#
# Total GULP energy -793598.773817 kJ/mol
# GULP energy per Si atom -12399.980841 kJ/mol
# Density = 2.061354 g / cm^3
# Si number density = 20.660560 Si / 1000 Ang^3
#
#
#
# Elastic Constant Matrix: (Units=GPa)
#
#
# Indices 1 2 3 4 5 6 
#
# 1 99.2102 48.3544 34.1906 0.0000 0.0000 0.0000
# 2 48.3544 88.1829 12.9200 0.0000 0.0000 0.0000
# 3 34.1906 12.9200 53.4617 0.0000 0.0000 0.0000
# 4 0.0000 0.0000 0.0000 29.0231 0.0000 0.0000
# 5 0.0000 0.0000 0.0000 0.0000 26.1109 0.0000
# 6 0.0000 0.0000 0.0000 0.0000 0.0000 30.1172
#
#
#
# Elastic Compliance Matrix: (Units=1/GPa)
#
#
# Indices 1 2 3 4 5 6 
#
# 1 0.017109 -0.008064 -0.008993 0.000000 0.000000 0.000000
# 2 -0.008064 0.015557 0.001398 0.000000 0.000000 0.000000
# 3 -0.008993 0.001398 0.024119 0.000000 0.000000 0.000000
# 4 0.000000 0.000000 0.000000 0.034455 0.000000 0.000000
# 5 0.000000 0.000000 0.000000 0.000000 0.038298 0.000000
# 6 0.000000 0.000000 0.000000 0.000000 0.000000 0.033204
#
#
# Mechanical properties :
#
#
# Convention : Reuss Voigt Hill
#
# Bulk Modulus (GPa) = 39.26833 47.97610 43.62221
# Shear Modulus (GPa) = 24.68522 26.74288 25.71405
#
# Velocity S-wave (km/s) = 3.46034 3.60167 3.53171
# Velocity P-wave (km/s) = 5.91717 6.36927 6.14738
#
# Compressibility (1/GPa) = 0.02546582
#
# Stress axis : x y z
#
# Youngs Moduli (GPa) = 58.44773 64.27888 41.46167
#
# Poissons Ratio (x) = 0.51835 0.37287
# Poissons Ratio (y) = 0.47133 -0.05795
# Poissons Ratio (z) = 0.52563 -0.08984
#
# Static dielectric constant tensor:
#      x y z
#    x 3.686190 0.000000 0.000000 
#    y 0.000000 3.835400 0.000000 
#    z 0.000000 0.000000 3.589670 
# 
# 
# High freq. dielectric constant tensor:
#      x y z
#    x 1.807790 0.000000 0.000000 
#    y 0.000000 1.797290 0.000000 
#    z 0.000000 0.000000 1.798980 
# 
# From -- ./inp_files/6530.got.cif
#   From: 2010.03.12/outbox.cif.g09.slc.cpg/sg55_4_cif.got.tgz:6530.got - 2010.04.16 15:19:21.
