data_PCOD8225415
_publ_section_title
;
Structure prediction by ZEFSAII (Michael W. Deem and Ramdas Pophale) SiO2 
 PCOD8225415
Probable space group: P B A M
;
_chemical_formula_sum "Si O2"
_cell_formula_units_Z 48
_cell_length_a 16.307400
_cell_length_b 17.817646
_cell_length_c 9.301472
_cell_angle_alpha 90.000000
_cell_angle_beta 90.000000
_cell_angle_gamma 90.000000
_cell_volume 2702.630871
_symmetry_space_group_name_H-M "P B A M"
_symmetry_group_IT_number 55
_symmetry_cell_setting 'orthorhombic'
loop_
_space_group_symop_operation_xyz
x,y,z
-x,-y,z
1/2+x,1/2-y,-z
1/2-x,1/2+y,-z
-x,-y,-z
x,y,-z
1/2-x,1/2+y,z
1/2+x,1/2-y,z
loop_
_atom_site_type_symbol
_atom_site_label
_atom_site_fract_x
_atom_site_fract_y
_atom_site_fract_z
Si Si1 0.414692 0.965487 0.166848
Si Si2 0.248192 0.041918 0.835916
Si Si3 0.836984 0.667867 0.332546
Si Si4 0.330157 0.411587 0.332901
Si Si5 0.646764 0.318720 0.835919
Si Si6 0.013828 0.914611 0.833841
O O1 0.397425 0.890368 0.255401
O O2 0.500000 0.000000 0.221720
O O3 0.344269 0.027792 0.194393
O O4 0.419944 0.942995 0.000000
O O5 0.226733 0.129092 0.808491
O O6 0.192358 0.992038 0.732869
O O7 0.225271 0.020176 0.000000
O O8 0.858301 0.666598 0.500000
O O9 0.742744 0.646829 0.302902
O O10 0.851690 0.750117 0.272183
O O11 0.346917 0.422851 0.500000
O O12 0.411651 0.379425 0.257776
O O13 0.566703 0.367136 0.801261
O O14 0.645964 0.289300 0.000000
O O15 0.038680 0.911043 0.000000
O O16 0.000000 0.000000 0.784217
#
# Coordination Sequence:
#
# PCOD8225415 Si02
#       6
#     8   8   8   8   8   8
#     4   9  18  35  60  84 106 136 183 231 269 317
#     4   9  17  33  56  78 104 138 176 221 267 313
#     4  10  22  38  54  76 111 147 179 218 268 322
#     4  10  20  34  53  78 107 142 179 211 258 321
#     4  10  20  35  55  79 107 141 181 223 272 319
#     4  10  19  34  56  82 109 137 177 224 267 316
#
# _framework density 17.760472
#
# number of rings (size 3 to 8) (size 9 to 14) (size 15 to 20)
#    0.000    2.333    1.667    1.000    0.000    4.000 
#    3.000    0.000    0.000    0.000    0.000    0.000 
#    0.000    0.000    0.000    0.000    0.000    0.000 
#
# Total GULP energy -595297.503832 kJ/mol
# GULP energy per Si atom -12402.031330 kJ/mol
# Density = 1.772005 g / cm^3
# Si number density = 17.760472 Si / 1000 Ang^3
#
#
#
# Elastic Constant Matrix: (Units=GPa)
#
#
# Indices 1 2 3 4 5 6 
#
# 1 114.1907 56.5329 54.2958 0.0000 0.0000 0.0000
# 2 56.5329 115.4266 57.5149 0.0000 0.0000 0.0000
# 3 54.2958 57.5149 82.4672 0.0000 0.0000 0.0000
# 4 0.0000 0.0000 0.0000 16.7115 0.0000 0.0000
# 5 0.0000 0.0000 0.0000 0.0000 27.4300 0.0000
# 6 0.0000 0.0000 0.0000 0.0000 0.0000 19.9136
#
#
#
# Elastic Compliance Matrix: (Units=1/GPa)
#
#
# Indices 1 2 3 4 5 6 
#
# 1 0.013547 -0.003357 -0.006578 0.000000 0.000000 0.000000
# 2 -0.003357 0.014110 -0.007630 0.000000 0.000000 0.000000
# 3 -0.006578 -0.007630 0.021778 0.000000 0.000000 0.000000
# 4 0.000000 0.000000 0.000000 0.059839 0.000000 0.000000
# 5 0.000000 0.000000 0.000000 0.000000 0.036456 0.000000
# 6 0.000000 0.000000 0.000000 0.000000 0.000000 0.050217
#
#
# Mechanical properties :
#
#
# Convention : Reuss Voigt Hill
#
# Bulk Modulus (GPa) = 69.90753 72.08576 70.99665
# Shear Modulus (GPa) = 21.20025 22.39373 21.79699
#
# Velocity S-wave (km/s) = 3.45871 3.55473 3.50705
# Velocity P-wave (km/s) = 7.44292 7.58446 7.51402
#
# Compressibility (1/GPa) = 0.01430461
#
# Stress axis : x y z
#
# Youngs Moduli (GPa) = 73.81680 70.87266 45.91752
#
# Poissons Ratio (x) = 0.23795 0.30203
# Poissons Ratio (y) = 0.24783 0.35035
# Poissons Ratio (z) = 0.48555 0.54076
#
# Static dielectric constant tensor:
#      x y z
#    x 3.454430 0.000000 0.000000 
#    y 0.000000 3.111730 0.000000 
#    z 0.000000 0.000000 3.296590 
# 
# 
# High freq. dielectric constant tensor:
#      x y z
#    x 1.693130 0.000000 0.000000 
#    y 0.000000 1.669600 0.000000 
#    z 0.000000 0.000000 1.687110 
# 
# From -- ./inp_files/5629.got.cif
#   From: 2010.03.12/outbox.cif.g09.slc.cpg/sg55_3_cif.got.tgz:5629.got - 2010.04.16 15:19:21.
