data_PCOD8225411
_publ_section_title
;
Structure prediction by ZEFSAII (Michael W. Deem and Ramdas Pophale) SiO2 
 PCOD8225411
Probable space group: P B A M
;
_chemical_formula_sum "Si O2"
_cell_formula_units_Z 64
_cell_length_a 27.410502
_cell_length_b 12.719932
_cell_length_c 9.390331
_cell_angle_alpha 90.000000
_cell_angle_beta 90.000000
_cell_angle_gamma 90.000000
_cell_volume 3274.030191
_symmetry_space_group_name_H-M "P B A M"
_symmetry_group_IT_number 55
_symmetry_cell_setting 'orthorhombic'
loop_
_space_group_symop_operation_xyz
x,y,z
-x,-y,z
1/2+x,1/2-y,-z
1/2-x,1/2+y,-z
-x,-y,-z
x,y,-z
1/2-x,1/2+y,z
1/2+x,1/2-y,z
loop_
_atom_site_type_symbol
_atom_site_label
_atom_site_fract_x
_atom_site_fract_y
_atom_site_fract_z
Si Si1 0.590798 0.149890 0.846492
Si Si2 0.311200 0.161178 0.831910
Si Si3 0.901180 0.250101 0.666715
Si Si4 0.888290 0.832832 0.337386
Si Si5 0.552973 0.533445 0.667975
Si Si6 0.778781 0.758500 0.334869
Si Si7 0.555624 0.969793 0.655706
Si Si8 0.305216 0.922746 0.845970
O O1 0.578237 0.249891 0.749130
O O2 0.648320 0.150775 0.870627
O O3 0.579817 0.039055 0.775709
O O4 0.563912 0.158901 0.000000
O O5 0.351618 0.232869 0.755438
O O6 0.258667 0.178373 0.762137
O O7 0.321978 0.038932 0.800187
O O8 0.310391 0.186857 0.000000
O O9 0.887537 0.238348 0.500000
O O10 0.928708 0.146405 0.726051
O O11 0.937787 0.347323 0.694277
O O12 0.902720 0.812687 0.500000
O O13 0.830631 0.817034 0.314846
O O14 0.905420 0.948699 0.289237
O O15 0.500000 0.500000 0.732510
O O16 0.547379 0.542642 0.500000
O O17 0.763265 0.757863 0.500000
O O18 0.776131 0.636978 0.279578
O O19 0.579545 0.992106 0.500000
O O20 0.500000 0.000000 0.650215
O O21 0.276929 0.927205 0.000000
#
# Coordination Sequence:
#
# PCOD8225411 Si02
#       8
#     8   8   8   8   8   8   8   8
#     4  10  19  34  56  81 111 146 186 231 286 345
#     4  11  22  38  59  83 116 157 194 236 296 359
#     4  10  21  37  58  88 119 153 197 243 294 351
#     4   9  19  36  58  83 114 150 195 245 294 345
#     4   9  19  36  61  88 118 157 200 247 296 353
#     4  10  21  35  55  86 116 150 195 247 299 350
#     4  10  21  34  54  85 117 147 187 238 292 350
#     4   9  19  36  55  77 109 148 188 231 285 348
#
# _framework density 19.547774
#
# number of rings (size 3 to 8) (size 9 to 14) (size 15 to 20)
#    0.000    2.250    1.250    1.125    1.750    3.250 
#    0.000    1.875    0.000    0.750    0.000    0.000 
#    0.000    0.000    0.000    0.000    0.000    0.000 
#
# Total GULP energy -793128.649326 kJ/mol
# GULP energy per Si atom -12392.635146 kJ/mol
# Density = 1.950328 g / cm^3
# Si number density = 19.547774 Si / 1000 Ang^3
#
#
#
# Elastic Constant Matrix: (Units=GPa)
#
#
# Indices 1 2 3 4 5 6 
#
# 1 75.9835 50.4802 42.3491 0.0000 0.0000 0.0000
# 2 50.4802 152.3360 62.5823 0.0000 0.0000 0.0000
# 3 42.3491 62.5823 106.7465 0.0000 0.0000 0.0000
# 4 0.0000 0.0000 0.0000 29.4306 0.0000 0.0000
# 5 0.0000 0.0000 0.0000 0.0000 58.1861 0.0000
# 6 0.0000 0.0000 0.0000 0.0000 0.0000 25.6508
#
#
#
# Elastic Compliance Matrix: (Units=1/GPa)
#
#
# Indices 1 2 3 4 5 6 
#
# 1 0.018694 -0.004147 -0.004985 0.000000 0.000000 0.000000
# 2 -0.004147 0.009567 -0.003964 0.000000 0.000000 0.000000
# 3 -0.004985 -0.003964 0.013670 0.000000 0.000000 0.000000
# 4 0.000000 0.000000 0.000000 0.033978 0.000000 0.000000
# 5 0.000000 0.000000 0.000000 0.000000 0.017186 0.000000
# 6 0.000000 0.000000 0.000000 0.000000 0.000000 0.038985
#
#
# Mechanical properties :
#
#
# Convention : Reuss Voigt Hill
#
# Bulk Modulus (GPa) = 63.53568 71.76546 67.65057
# Shear Modulus (GPa) = 30.57762 34.63046 32.60404
#
# Velocity S-wave (km/s) = 3.95935 4.21358 4.08844
# Velocity P-wave (km/s) = 7.31268 7.77592 7.54785
#
# Compressibility (1/GPa) = 0.01573919
#
# Stress axis : x y z
#
# Youngs Moduli (GPa) = 53.49242 104.52711 73.15496
#
# Poissons Ratio (x) = 0.43344 0.36471
# Poissons Ratio (y) = 0.22182 0.28996
# Poissons Ratio (z) = 0.26668 0.41431
#
# Static dielectric constant tensor:
#      x y z
#    x 3.636650 0.000000 0.000000 
#    y 0.000000 3.680160 0.000000 
#    z 0.000000 0.000000 3.794840 
# 
# 
# High freq. dielectric constant tensor:
#      x y z
#    x 1.742350 0.000000 0.000000 
#    y 0.000000 1.765200 0.000000 
#    z 0.000000 0.000000 1.754150 
# 
# From -- ./inp_files/4552.got.cif
#   From: 2010.03.12/outbox.cif.g09.slc.cpg/sg55_3_cif.got.tgz:4552.got - 2010.04.16 15:19:21.
