data_PCOD8225056
_publ_section_title
;
Structure prediction by ZEFSAII (Michael W. Deem and Ramdas Pophale) SiO2 
 PCOD8225056
Probable space group: P B A M
;
_chemical_formula_sum "Si O2"
_cell_formula_units_Z 56
_cell_length_a 13.243606
_cell_length_b 23.511177
_cell_length_c 9.468612
_cell_angle_alpha 90.000000
_cell_angle_beta 90.000000
_cell_angle_gamma 90.000000
_cell_volume 2948.267897
_symmetry_space_group_name_H-M "P B A M"
_symmetry_group_IT_number 55
_symmetry_cell_setting 'orthorhombic'
loop_
_space_group_symop_operation_xyz
x,y,z
-x,-y,z
1/2+x,1/2-y,-z
1/2-x,1/2+y,-z
-x,-y,-z
x,y,-z
1/2-x,1/2+y,z
1/2+x,1/2-y,z
loop_
_atom_site_type_symbol
_atom_site_label
_atom_site_fract_x
_atom_site_fract_y
_atom_site_fract_z
Si Si1 0.721272 0.051660 0.163565
Si Si2 0.273730 0.734965 0.661654
Si Si3 0.926868 0.333494 0.337446
Si Si4 0.124900 0.328069 0.165130
Si Si5 0.306110 0.055898 0.336105
Si Si6 0.891889 0.877214 0.663064
Si Si7 0.048826 0.940183 0.165323
O O1 0.656537 0.107406 0.194414
O O2 0.835628 0.061239 0.215856
O O3 0.669166 0.000357 0.247797
O O4 0.720980 0.034831 0.000000
O O5 0.279175 0.755982 0.500000
O O6 0.164249 0.709356 0.694589
O O7 0.291192 0.787399 0.766113
O O8 0.359410 0.687651 0.688900
O O9 0.961408 0.327942 0.500000
O O10 0.892659 0.397897 0.305043
O O11 0.017515 0.316062 0.236035
O O12 0.118111 0.314578 0.000000
O O13 0.304349 0.039854 0.500000
O O14 0.198310 0.081112 0.288767
O O15 0.917874 0.887567 0.500000
O O16 0.990766 0.889686 0.754912
O O17 0.038674 0.928369 0.000000
O O18 0.000000 0.000000 0.209044
#
# Coordination Sequence:
#
# PCOD8225056 Si02
#       7
#     8   8   8   8   8   8   8
#     4  10  22  37  51  76 116 151 183 227 277 330
#     4   9  20  40  62  82 108 144 188 235 281 331
#     4   9  20  40  63  84 110 144 185 233 280 333
#     4  11  24  39  56  83 117 149 184 231 280 332
#     4   9  18  34  57  83 108 140 184 229 275 329
#     4   9  18  33  55  83 110 139 181 233 279 324
#     4  10  19  32  52  79 113 152 184 218 273 335
#
# _framework density 18.994204
#
# number of rings (size 3 to 8) (size 9 to 14) (size 15 to 20)
#    0.000    2.429    1.429    2.143    0.000    5.429 
#    0.000    8.571    0.000    0.000    0.000    0.000 
#    0.000    0.000    0.000    0.000    0.000    0.000 
#
# Total GULP energy -694580.320183 kJ/mol
# GULP energy per Si atom -12403.220003 kJ/mol
# Density = 1.895097 g / cm^3
# Si number density = 18.994204 Si / 1000 Ang^3
#
#
#
# Elastic Constant Matrix: (Units=GPa)
#
#
# Indices 1 2 3 4 5 6 
#
# 1 84.1615 31.6007 45.6526 0.0000 0.0000 0.0000
# 2 31.6007 91.3818 62.0051 0.0000 0.0000 0.0000
# 3 45.6526 62.0051 86.5116 0.0000 0.0000 0.0000
# 4 0.0000 0.0000 0.0000 28.7266 0.0000 0.0000
# 5 0.0000 0.0000 0.0000 0.0000 30.4001 0.0000
# 6 0.0000 0.0000 0.0000 0.0000 0.0000 21.8933
#
#
#
# Elastic Compliance Matrix: (Units=1/GPa)
#
#
# Indices 1 2 3 4 5 6 
#
# 1 0.016655 0.000397 -0.009073 0.000000 0.000000 0.000000
# 2 0.000397 0.021313 -0.015485 0.000000 0.000000 0.000000
# 3 -0.009073 -0.015485 0.027446 0.000000 0.000000 0.000000
# 4 0.000000 0.000000 0.000000 0.034811 0.000000 0.000000
# 5 0.000000 0.000000 0.000000 0.000000 0.032895 0.000000
# 6 0.000000 0.000000 0.000000 0.000000 0.000000 0.045676
#
#
# Mechanical properties :
#
#
# Convention : Reuss Voigt Hill
#
# Bulk Modulus (GPa) = 58.51145 60.06352 59.28748
# Shear Modulus (GPa) = 21.47636 24.39041 22.93338
#
# Velocity S-wave (km/s) = 3.36621 3.58732 3.47852
# Velocity P-wave (km/s) = 6.78087 6.98922 6.88583
#
# Compressibility (1/GPa) = 0.01709067
#
# Stress axis : x y z
#
# Youngs Moduli (GPa) = 60.04363 46.92023 36.43545
#
# Poissons Ratio (x) = -0.01864 0.33059
# Poissons Ratio (y) = -0.02385 0.56421
# Poissons Ratio (z) = 0.54480 0.72656
#
# Static dielectric constant tensor:
#      x y z
#    x 3.364790 0.000000 0.000000 
#    y 0.000000 3.382040 0.000000 
#    z 0.000000 0.000000 3.340970 
# 
# 
# High freq. dielectric constant tensor:
#      x y z
#    x 1.735430 0.000000 0.000000 
#    y 0.000000 1.736570 0.000000 
#    z 0.000000 0.000000 1.732470 
# 
# From -- ./inp_files/6162.got.cif
#   From: 2010.03.12/outbox.cif.g09.slc.cpg/sg55_4_cif.got.tgz:6162.got - 2010.04.16 15:19:21.
