data_PCOD8225448
_publ_section_title
;
Structure prediction by ZEFSAII (Michael W. Deem and Ramdas Pophale) SiO2 
 PCOD8225448
Probable space group: P B A M
;
_chemical_formula_sum "Si O2"
_cell_formula_units_Z 56
_cell_length_a 16.200488
_cell_length_b 19.695009
_cell_length_c 8.602635
_cell_angle_alpha 90.000000
_cell_angle_beta 90.000000
_cell_angle_gamma 90.000000
_cell_volume 2744.832056
_symmetry_space_group_name_H-M "P B A M"
_symmetry_group_IT_number 55
_symmetry_cell_setting 'orthorhombic'
loop_
_space_group_symop_operation_xyz
x,y,z
-x,-y,z
1/2+x,1/2-y,-z
1/2-x,1/2+y,-z
-x,-y,-z
x,y,-z
1/2-x,1/2+y,z
1/2+x,1/2-y,z
loop_
_atom_site_type_symbol
_atom_site_label
_atom_site_fract_x
_atom_site_fract_y
_atom_site_fract_z
Si Si1 0.812998 0.274863 0.313707
Si Si2 0.404196 0.503895 0.315376
Si Si3 0.522040 0.842515 0.672476
Si Si4 0.879996 0.475179 0.674100
Si Si5 0.225812 0.101121 0.815585
Si Si6 0.700607 0.623332 0.680220
Si Si7 0.127493 0.393073 0.823977
O O1 0.804964 0.280691 0.500000
O O2 0.902258 0.300772 0.255140
O O3 0.739533 0.320436 0.238767
O O4 0.811065 0.198406 0.247493
O O5 0.500000 0.500000 0.266016
O O6 0.394403 0.510458 0.500000
O O7 0.362847 0.570760 0.237622
O O8 0.359712 0.434963 0.251056
O O9 0.500756 0.815494 0.500000
O O10 0.547346 0.920891 0.666430
O O11 0.439777 0.835703 0.777475
O O12 0.864874 0.504210 0.500000
O O13 0.794512 0.443969 0.732925
O O14 0.910838 0.532650 0.794084
O O15 0.233782 0.096655 0.000000
O O16 0.681554 0.628823 0.500000
O O17 0.794768 0.605254 0.710516
O O18 0.155076 0.381299 0.000000
#
# Coordination Sequence:
#
# PCOD8225448 Si02
#       7
#     8   8   8   8   8   8   8
#     4   9  20  40  63  85 112 155 206 250 297 355
#     4  10  21  39  64  92 120 155 205 256 299 354
#     4   9  19  35  55  80 112 149 192 240 286 341
#     4  10  19  34  57  82 112 149 191 236 279 334
#     4  11  21  35  59  89 121 155 190 239 305 364
#     4  10  21  40  64  85 114 157 202 251 300 349
#     4  12  23  33  52  85 121 153 187 231 292 356
#
# _framework density 20.401976000000001
#
# number of rings (size 3 to 8) (size 9 to 14) (size 15 to 20)
#    0.000    1.857    1.429    4.286    0.000    5.429 
#    2.571    0.000    0.000    0.000    0.000    0.000 
#    0.000    0.000    0.000    0.000    0.000    0.000 
#
# Total GULP energy -694115.822963 kJ/mol
# GULP energy per Si atom -12394.925410 kJ/mol
# Density = 2.035554 g / cm^3
# Si number density = 20.401976 Si / 1000 Ang^3
#
#
#
# Elastic Constant Matrix: (Units=GPa)
#
#
# Indices 1 2 3 4 5 6 
#
# 1 119.6019 42.1553 21.9357 0.0000 0.0000 0.0000
# 2 42.1553 112.8386 19.1623 0.0000 0.0000 0.0000
# 3 21.9357 19.1623 47.6392 0.0000 0.0000 0.0000
# 4 0.0000 0.0000 0.0000 12.5221 0.0000 0.0000
# 5 0.0000 0.0000 0.0000 0.0000 13.4133 0.0000
# 6 0.0000 0.0000 0.0000 0.0000 0.0000 10.2575
#
#
#
# Elastic Compliance Matrix: (Units=1/GPa)
#
#
# Indices 1 2 3 4 5 6 
#
# 1 0.010108 -0.003205 -0.003365 0.000000 0.000000 0.000000
# 2 -0.003205 0.010528 -0.002759 0.000000 0.000000 0.000000
# 3 -0.003365 -0.002759 0.023650 0.000000 0.000000 0.000000
# 4 0.000000 0.000000 0.000000 0.079859 0.000000 0.000000
# 5 0.000000 0.000000 0.000000 0.000000 0.074553 0.000000
# 6 0.000000 0.000000 0.000000 0.000000 0.000000 0.097490
#
#
# Mechanical properties :
#
#
# Convention : Reuss Voigt Hill
#
# Bulk Modulus (GPa) = 39.01934 49.62069 44.32002
# Shear Modulus (GPa) = 15.46130 20.36035 17.91082
#
# Velocity S-wave (km/s) = 2.75586 3.16248 2.96615
# Velocity P-wave (km/s) = 5.41232 6.14079 5.78803
#
# Compressibility (1/GPa) = 0.02562831
#
# Stress axis : x y z
#
# Youngs Moduli (GPa) = 98.93350 94.98466 42.28248
#
# Poissons Ratio (x) = 0.30440 0.14229
# Poissons Ratio (y) = 0.31705 0.11666
# Poissons Ratio (z) = 0.33292 0.26208
#
# Static dielectric constant tensor:
#      x y z
#    x 3.656770 0.000000 0.000000 
#    y 0.000000 3.923310 0.000000 
#    z 0.000000 0.000000 3.434170 
# 
# 
# High freq. dielectric constant tensor:
#      x y z
#    x 1.795090 0.000000 0.000000 
#    y 0.000000 1.787900 0.000000 
#    z 0.000000 0.000000 1.777420 
# 
# From -- ./inp_files/6122.got.cif
#   From: 2010.03.12/outbox.cif.g09.slc.cpg/sg55_4_cif.got.tgz:6122.got - 2010.04.16 15:19:21.
