data_PCOD8225640
_publ_section_title
;
Structure prediction by ZEFSAII (Michael W. Deem and Ramdas Pophale) SiO2 
 PCOD8225640
Probable space group: P B A M
;
_chemical_formula_sum "Si O2"
_cell_formula_units_Z 32
_cell_length_a 8.596929
_cell_length_b 23.853356
_cell_length_c 7.827163
_cell_angle_alpha 90.000000
_cell_angle_beta 90.000000
_cell_angle_gamma 90.000000
_cell_volume 1605.081939
_symmetry_space_group_name_H-M "P B A M"
_symmetry_group_IT_number 55
_symmetry_cell_setting 'orthorhombic'
loop_
_space_group_symop_operation_xyz
x,y,z
-x,-y,z
1/2+x,1/2-y,-z
1/2-x,1/2+y,-z
-x,-y,-z
x,y,-z
1/2-x,1/2+y,z
1/2+x,1/2-y,z
loop_
_atom_site_type_symbol
_atom_site_label
_atom_site_fract_x
_atom_site_fract_y
_atom_site_fract_z
Si Si1 0.307768 0.111087 0.810762
Si Si2 0.642006 0.111149 0.688614
Si Si3 0.814821 0.199111 0.500000
Si Si4 0.177259 0.180022 0.500000
Si Si5 0.676345 0.503360 0.297019
O O1 0.492428 0.122757 0.803720
O O2 0.213503 0.145406 0.670019
O O3 0.279005 0.045278 0.785707
O O4 0.252163 0.129463 0.000000
O O5 0.581521 0.092194 0.500000
O O6 0.744049 0.168313 0.668693
O O7 0.750715 0.062263 0.765416
O O8 0.779196 0.264356 0.500000
O O9 0.998111 0.194282 0.500000
O O10 0.500000 0.500000 0.228439
O O11 0.678171 0.497673 0.500000
#
# Coordination Sequence:
#
# PCOD8225640 Si02
#       5
#     8   8   4   4   8
#     4  12  24  38  63  94 128 167 202 251 308 368
#     4   9  19  38  62  94 115 161 207 242 308 362
#     4  10  22  41  74  89 114 168 202 258 318 352
#     4  12  22  45  66  91 124 156 212 256 306 370
#     4  10  19  35  62  92 125 163 204 255 305 364
#
# _framework density 19.936675000000001
#
# number of rings (size 3 to 8) (size 9 to 14) (size 15 to 20)
#    0.750    0.750    2.500    3.750    0.000    4.500 
#    0.000    8.750    0.000    0.000    0.000    0.000 
#    0.000    0.000    0.000    0.000    0.000    0.000 
#
# Total GULP energy -396747.863507 kJ/mol
# GULP energy per Si atom -12398.370735 kJ/mol
# Density = 1.989130 g / cm^3
# Si number density = 19.936675 Si / 1000 Ang^3
#
#
#
# Elastic Constant Matrix: (Units=GPa)
#
#
# Indices 1 2 3 4 5 6 
#
# 1 85.6095 -8.7308 15.1492 0.0000 0.0000 0.0000
# 2 -8.7308 82.9828 24.6193 0.0000 0.0000 0.0000
# 3 15.1492 24.6193 85.2640 0.0000 0.0000 0.0000
# 4 0.0000 0.0000 0.0000 -0.9125 0.0000 0.0000
# 5 0.0000 0.0000 0.0000 0.0000 9.0797 0.0000
# 6 0.0000 0.0000 0.0000 0.0000 0.0000 41.4060
#
#
#
# Elastic Compliance Matrix: (Units=1/GPa)
#
#
# Indices 1 2 3 4 5 6 
#
# 1 0.012399 0.002141 -0.002821 0.000000 0.000000 0.000000
# 2 0.002141 0.013550 -0.004293 0.000000 0.000000 0.000000
# 3 -0.002821 -0.004293 0.013469 0.000000 0.000000 0.000000
# 4 0.000000 0.000000 0.000000 -1.095928 0.000000 0.000000
# 5 0.000000 0.000000 0.000000 0.000000 0.110135 0.000000
# 6 0.000000 0.000000 0.000000 0.000000 0.000000 0.024151
#
#
# Mechanical properties :
#
#
# Convention : Reuss Voigt Hill
#
# Bulk Modulus (GPa) = 33.93042 35.10351 34.51696
# Shear Modulus (GPa) = -5.54044 24.76923 9.61439
#
# Velocity S-wave (km/s) = -1.66885 3.52859 2.19839
# Velocity P-wave (km/s) = 3.65276 5.85209 4.87799
#
# Compressibility (1/GPa) = 0.02947208
#
# Stress axis : x y z
#
# Youngs Moduli (GPa) = 80.65443 73.80295 74.24425
#
# Poissons Ratio (x) = -0.15805 0.20946
# Poissons Ratio (y) = -0.17272 0.31872
# Poissons Ratio (z) = 0.22755 0.31682
#
# Static dielectric constant tensor:
#      x y z
#    x 3.648850 0.000000 0.000000 
#    y 0.000000 3.654720 0.000000 
#    z 0.000000 0.000000 3.357910 
# 
# 
# High freq. dielectric constant tensor:
#      x y z
#    x 1.790370 0.000000 0.000000 
#    y 0.000000 1.772950 0.000000 
#    z 0.000000 0.000000 1.746560 
# 
# From -- ./inp_files/2070.got.cif
#   From: 2010.03.12/outbox.cif.g09.slc.cpg/sg55_2_cif.got.tgz:2070.got - 2010.04.16 15:19:21.
