data_PCOD8225974
_publ_section_title
;
Structure prediction by ZEFSAII (Michael W. Deem and Ramdas Pophale) SiO2 
 PCOD8225974
Probable space group: P B A M
;
_chemical_formula_sum "Si O2"
_cell_formula_units_Z 56
_cell_length_a 20.883293
_cell_length_b 14.825548
_cell_length_c 8.828079
_cell_angle_alpha 90.000000
_cell_angle_beta 90.000000
_cell_angle_gamma 90.000000
_cell_volume 2733.228547
_symmetry_space_group_name_H-M "P B A M"
_symmetry_group_IT_number 55
_symmetry_cell_setting 'orthorhombic'
loop_
_space_group_symop_operation_xyz
x,y,z
-x,-y,z
1/2+x,1/2-y,-z
1/2-x,1/2+y,-z
-x,-y,-z
x,y,-z
1/2-x,1/2+y,z
1/2+x,1/2-y,z
loop_
_atom_site_type_symbol
_atom_site_label
_atom_site_fract_x
_atom_site_fract_y
_atom_site_fract_z
Si Si1 0.901412 0.270972 0.175597
Si Si2 0.959639 0.762084 0.826431
Si Si3 0.732533 0.486637 0.823372
Si Si4 0.163769 0.168895 0.677927
Si Si5 0.453410 0.920941 0.670118
Si Si6 0.854624 0.435260 0.330947
Si Si7 0.764769 0.192135 0.821489
O O1 0.906914 0.361659 0.276404
O O2 0.837019 0.219309 0.223975
O O3 0.965717 0.211225 0.206788
O O4 0.899593 0.298335 0.000000
O O5 0.910334 0.814046 0.719420
O O6 0.953627 0.655879 0.795310
O O7 0.941151 0.781451 0.000000
O O8 0.676753 0.432234 0.737770
O O9 0.796528 0.430254 0.787314
O O10 0.740696 0.588817 0.764029
O O11 0.717096 0.484524 0.000000
O O12 0.171972 0.172763 0.500000
O O13 0.211274 0.244691 0.745925
O O14 0.470679 0.885641 0.500000
O O15 0.500000 0.000000 0.722230
O O16 0.382799 0.964317 0.668543
O O17 0.830534 0.410258 0.500000
O O18 0.753273 0.198366 0.000000
#
# Coordination Sequence:
#
# PCOD8225974 Si02
#       7
#     8   8   8   8   8   8   8
#     4  10  21  38  61  88 119 156 201 251 302 360
#     4  11  23  38  59  87 121 162 206 254 309 366
#     4  11  23  40  63  89 120 156 202 256 307 365
#     4  12  25  41  63  91 125 164 204 253 311 370
#     4  10  20  34  52  81 122 159 195 241 299 367
#     4  11  21  34  56  85 118 157 196 242 303 362
#     4  10  22  42  67  93 121 159 206 258 310 363
#
# _framework density 20.488589000000001
#
# number of rings (size 3 to 8) (size 9 to 14) (size 15 to 20)
#    0.000    1.286    2.857    3.429    0.000    5.429 
#    0.000    0.714    0.000    4.286    0.000    0.000 
#    0.000    0.000    0.000    0.000    0.000    0.000 
#
# Total GULP energy -694293.661542 kJ/mol
# GULP energy per Si atom -12398.101099 kJ/mol
# Density = 2.044196 g / cm^3
# Si number density = 20.488589 Si / 1000 Ang^3
#
#
#
# Elastic Constant Matrix: (Units=GPa)
#
#
# Indices 1 2 3 4 5 6 
#
# 1 102.9505 14.9715 31.0552 0.0000 0.0000 0.0000
# 2 14.9715 65.5774 29.8692 0.0000 0.0000 0.0000
# 3 31.0552 29.8692 75.8941 0.0000 0.0000 0.0000
# 4 0.0000 0.0000 0.0000 21.0408 0.0000 0.0000
# 5 0.0000 0.0000 0.0000 0.0000 26.5014 0.0000
# 6 0.0000 0.0000 0.0000 0.0000 0.0000 28.8484
#
#
#
# Elastic Compliance Matrix: (Units=1/GPa)
#
#
# Indices 1 2 3 4 5 6 
#
# 1 0.011098 -0.000567 -0.004318 0.000000 0.000000 0.000000
# 2 -0.000567 0.018609 -0.007092 0.000000 0.000000 0.000000
# 3 -0.004318 -0.007092 0.017734 0.000000 0.000000 0.000000
# 4 0.000000 0.000000 0.000000 0.047527 0.000000 0.000000
# 5 0.000000 0.000000 0.000000 0.000000 0.037734 0.000000
# 6 0.000000 0.000000 0.000000 0.000000 0.000000 0.034664
#
#
# Mechanical properties :
#
#
# Convention : Reuss Voigt Hill
#
# Bulk Modulus (GPa) = 42.57562 44.02375 43.29969
# Shear Modulus (GPa) = 25.10681 26.51319 25.81000
#
# Velocity S-wave (km/s) = 3.50438 3.60119 3.55311
# Velocity P-wave (km/s) = 6.09914 6.23097 6.16541
#
# Compressibility (1/GPa) = 0.02348762
#
# Stress axis : x y z
#
# Youngs Moduli (GPa) = 90.10259 53.73818 56.38783
#
# Poissons Ratio (x) = 0.03047 0.24350
# Poissons Ratio (y) = 0.05108 0.39989
# Poissons Ratio (z) = 0.38909 0.38110
#
# Static dielectric constant tensor:
#      x y z
#    x 3.964090 0.000000 0.000000 
#    y 0.000000 3.690750 0.000000 
#    z 0.000000 0.000000 3.606450 
# 
# 
# High freq. dielectric constant tensor:
#      x y z
#    x 1.811480 0.000000 0.000000 
#    y 0.000000 1.779430 0.000000 
#    z 0.000000 0.000000 1.799110 
# 
# From -- ./inp_files/8676.got.cif
#   From: 2010.03.12/outbox.cif.g09.slc.cpg/sg55_5_cif.got.tgz:8676.got - 2010.04.16 15:19:21.
