data_PCOD8225109
_publ_section_title
;
Structure prediction by ZEFSAII (Michael W. Deem and Ramdas Pophale) SiO2 
 PCOD8225109
Probable space group: P B A M
;
_chemical_formula_sum "Si O2"
_cell_formula_units_Z 56
_cell_length_a 14.697539
_cell_length_b 21.992061
_cell_length_c 8.948338
_cell_angle_alpha 90.000000
_cell_angle_beta 90.000000
_cell_angle_gamma 90.000000
_cell_volume 2892.363903
_symmetry_space_group_name_H-M "P B A M"
_symmetry_group_IT_number 55
_symmetry_cell_setting 'orthorhombic'
loop_
_space_group_symop_operation_xyz
x,y,z
-x,-y,z
1/2+x,1/2-y,-z
1/2-x,1/2+y,-z
-x,-y,-z
x,y,-z
1/2-x,1/2+y,z
1/2+x,1/2-y,z
loop_
_atom_site_type_symbol
_atom_site_label
_atom_site_fract_x
_atom_site_fract_y
_atom_site_fract_z
Si Si1 0.315692 0.787302 0.328183
Si Si2 0.315267 0.374434 0.178380
Si Si3 0.033321 0.361401 0.829376
Si Si4 0.828206 0.853533 0.670762
Si Si5 0.835434 0.534519 0.830348
Si Si6 0.492123 0.429260 0.675173
Si Si7 0.655899 0.902287 0.176426
O O1 0.296188 0.801771 0.500000
O O2 0.225403 0.809949 0.238461
O O3 0.407535 0.819726 0.276893
O O4 0.341687 0.717496 0.302142
O O5 0.245580 0.425427 0.240983
O O6 0.413959 0.392075 0.239374
O O7 0.318531 0.369991 0.000000
O O8 0.069008 0.430670 0.821041
O O9 0.930218 0.362768 0.766814
O O10 0.040549 0.337114 0.000000
O O11 0.800737 0.867402 0.500000
O O12 0.748170 0.870164 0.781785
O O13 0.915979 0.893183 0.715086
O O14 0.844312 0.469543 0.748872
O O15 0.805816 0.522948 0.000000
O O16 0.500000 0.500000 0.728387
O O17 0.470396 0.426982 0.500000
O O18 0.644612 0.907780 0.000000
#
# Coordination Sequence:
#
# PCOD8225109 Si02
#       7
#     8   8   8   8   8   8   8
#     4  10  21  38  56  74 103 143 183 220 267 325
#     4  10  20  35  58  84 109 140 181 227 272 321
#     4   9  18  33  54  80 108 136 171 214 258 310
#     4  10  23  39  53  74 106 143 181 224 270 319
#     4   8  15  30  52  79 110 138 164 202 256 316
#     4  10  21  38  59  83 113 149 188 230 279 333
#     4  10  19  32  54  81 107 137 170 209 262 316
#
# _framework density 19.361325999999998
#
# number of rings (size 3 to 8) (size 9 to 14) (size 15 to 20)
#    0.000    2.429    0.000    3.000    0.000    5.429 
#    0.000    7.143    0.000    4.286    0.000    0.000 
#    0.000    0.000    0.000    0.000    0.000    0.000 
#
# Total GULP energy -694139.285861 kJ/mol
# GULP energy per Si atom -12395.344390 kJ/mol
# Density = 1.931726 g / cm^3
# Si number density = 19.361326 Si / 1000 Ang^3
#
#
#
# Elastic Constant Matrix: (Units=GPa)
#
#
# Indices 1 2 3 4 5 6 
#
# 1 138.4660 51.8456 39.2250 0.0000 0.0000 0.0000
# 2 51.8456 110.7922 37.2892 0.0000 0.0000 0.0000
# 3 39.2250 37.2892 50.8085 0.0000 0.0000 0.0000
# 4 0.0000 0.0000 0.0000 19.8009 0.0000 0.0000
# 5 0.0000 0.0000 0.0000 0.0000 30.6779 0.0000
# 6 0.0000 0.0000 0.0000 0.0000 0.0000 23.3720
#
#
#
# Elastic Compliance Matrix: (Units=1/GPa)
#
#
# Indices 1 2 3 4 5 6 
#
# 1 0.009822 -0.002715 -0.005590 0.000000 0.000000 0.000000
# 2 -0.002715 0.012737 -0.007252 0.000000 0.000000 0.000000
# 3 -0.005590 -0.007252 0.029320 0.000000 0.000000 0.000000
# 4 0.000000 0.000000 0.000000 0.050503 0.000000 0.000000
# 5 0.000000 0.000000 0.000000 0.000000 0.032597 0.000000
# 6 0.000000 0.000000 0.000000 0.000000 0.000000 0.042786
#
#
# Mechanical properties :
#
#
# Convention : Reuss Voigt Hill
#
# Bulk Modulus (GPa) = 48.15864 61.86513 55.01188
# Shear Modulus (GPa) = 23.16944 26.21728 24.69336
#
# Velocity S-wave (km/s) = 3.46307 3.68381 3.57514
# Velocity P-wave (km/s) = 6.39672 7.07928 6.74664
#
# Compressibility (1/GPa) = 0.02076471
#
# Stress axis : x y z
#
# Youngs Moduli (GPa) = 101.81081 78.51064 34.10623
#
# Poissons Ratio (x) = 0.21314 0.19067
# Poissons Ratio (y) = 0.27639 0.24734
# Poissons Ratio (z) = 0.56917 0.56937
#
# Static dielectric constant tensor:
#      x y z
#    x 3.556310 0.000000 0.000000 
#    y 0.000000 3.673000 0.000000 
#    z 0.000000 0.000000 3.336490 
# 
# 
# High freq. dielectric constant tensor:
#      x y z
#    x 1.759400 0.000000 0.000000 
#    y 0.000000 1.756710 0.000000 
#    z 0.000000 0.000000 1.731680 
# 
# From -- ./inp_files/6018.got.cif
#   From: 2010.03.12/outbox.cif.g09.slc.cpg/sg55_4_cif.got.tgz:6018.got - 2010.04.16 15:19:21.
