data_PCOD8225345
_publ_section_title
;
Structure prediction by ZEFSAII (Michael W. Deem and Ramdas Pophale) SiO2 
 PCOD8225345
Probable space group: P B A M
;
_chemical_formula_sum "Si O2"
_cell_formula_units_Z 64
_cell_length_a 30.639141
_cell_length_b 11.849645
_cell_length_c 9.109510
_cell_angle_alpha 90.000000
_cell_angle_beta 90.000000
_cell_angle_gamma 90.000000
_cell_volume 3307.325519
_symmetry_space_group_name_H-M "P B A M"
_symmetry_group_IT_number 55
_symmetry_cell_setting 'orthorhombic'
loop_
_space_group_symop_operation_xyz
x,y,z
-x,-y,z
1/2+x,1/2-y,-z
1/2-x,1/2+y,-z
-x,-y,-z
x,y,-z
1/2-x,1/2+y,z
1/2+x,1/2-y,z
loop_
_atom_site_type_symbol
_atom_site_label
_atom_site_fract_x
_atom_site_fract_y
_atom_site_fract_z
Si Si1 0.706382 0.215082 0.827431
Si Si2 0.292077 0.233740 0.333109
Si Si3 0.827724 0.512452 0.668254
Si Si4 0.924344 0.503008 0.327200
Si Si5 0.552270 0.760377 0.673223
Si Si6 0.544807 0.243107 0.671635
Si Si7 0.370023 0.397822 0.326718
Si Si8 0.376079 0.636222 0.825818
O O1 0.750442 0.272250 0.771203
O O2 0.704789 0.089136 0.762429
O O3 0.664470 0.286612 0.774760
O O4 0.708563 0.207305 0.000000
O O5 0.276083 0.249439 0.500000
O O6 0.325253 0.333170 0.289426
O O7 0.317502 0.117962 0.312454
O O8 0.823555 0.551101 0.500000
O O9 0.876155 0.531514 0.731944
O O10 0.921483 0.484707 0.500000
O O11 0.941706 0.385894 0.256928
O O12 0.954698 0.609608 0.288196
O O13 0.558072 0.770341 0.500000
O O14 0.503898 0.714072 0.711169
O O15 0.588700 0.674309 0.733473
O O16 0.555797 0.261083 0.500000
O O17 0.578872 0.312924 0.766669
O O18 0.374540 0.420524 0.500000
O O19 0.368573 0.513797 0.240512
O O20 0.378897 0.627512 0.000000
#
# Coordination Sequence:
#
# PCOD8225345 Si02
#       8
#     8   8   8   8   8   8   8   8
#     4  11  25  41  58  82 116 154 192 236 283 338
#     4  10  22  39  62  90 116 146 186 238 290 339
#     4  10  19  36  63  91 118 146 184 234 288 343
#     4   9  15  29  56  90 121 143 174 226 285 339
#     4   9  17  32  57  91 120 142 180 234 287 337
#     4  10  19  33  60  90 115 148 188 231 281 339
#     4  10  21  39  61  84 113 148 189 236 284 337
#     4  11  25  42  56  77 115 157 196 238 281 330
#
# _framework density 19.350982999999999
#
# number of rings (size 3 to 8) (size 9 to 14) (size 15 to 20)
#    0.000    2.000    2.500    1.125    1.750    4.500 
#    0.000    3.125    0.000    3.000    0.000    0.000 
#    0.000    0.000    0.000    0.000    0.000    0.000 
#
# Total GULP energy -793601.835614 kJ/mol
# GULP energy per Si atom -12400.028681 kJ/mol
# Density = 1.930694 g / cm^3
# Si number density = 19.350983 Si / 1000 Ang^3
#
#
#
# Elastic Constant Matrix: (Units=GPa)
#
#
# Indices 1 2 3 4 5 6 
#
# 1 102.5133 42.6795 37.8147 0.0000 0.0000 0.0000
# 2 42.6795 104.2810 41.3254 0.0000 0.0000 0.0000
# 3 37.8147 41.3254 52.7478 0.0000 0.0000 0.0000
# 4 0.0000 0.0000 0.0000 6.0634 0.0000 0.0000
# 5 0.0000 0.0000 0.0000 0.0000 15.9733 0.0000
# 6 0.0000 0.0000 0.0000 0.0000 0.0000 24.1889
#
#
#
# Elastic Compliance Matrix: (Units=1/GPa)
#
#
# Indices 1 2 3 4 5 6 
#
# 1 0.013692 -0.002486 -0.007869 0.000000 0.000000 0.000000
# 2 -0.002486 0.014359 -0.009467 0.000000 0.000000 0.000000
# 3 -0.007869 -0.009467 0.032016 0.000000 0.000000 0.000000
# 4 0.000000 0.000000 0.000000 0.164923 0.000000 0.000000
# 5 0.000000 0.000000 0.000000 0.000000 0.062605 0.000000
# 6 0.000000 0.000000 0.000000 0.000000 0.000000 0.041341
#
#
# Mechanical properties :
#
#
# Convention : Reuss Voigt Hill
#
# Bulk Modulus (GPa) = 48.96180 55.90903 52.43541
# Shear Modulus (GPa) = 13.31960 18.42661 15.87310
#
# Velocity S-wave (km/s) = 2.62642 3.08917 2.86715
# Velocity P-wave (km/s) = 5.87830 6.45591 6.17386
#
# Compressibility (1/GPa) = 0.02042409
#
# Stress axis : x y z
#
# Youngs Moduli (GPa) = 73.03431 69.64482 31.23414
#
# Poissons Ratio (x) = 0.17311 0.24577
# Poissons Ratio (y) = 0.18154 0.29570
# Poissons Ratio (z) = 0.57467 0.65935
#
# Static dielectric constant tensor:
#      x y z
#    x 3.729270 0.000000 0.000000 
#    y 0.000000 3.569710 0.000000 
#    z 0.000000 0.000000 3.167330 
# 
# 
# High freq. dielectric constant tensor:
#      x y z
#    x 1.767060 0.000000 0.000000 
#    y 0.000000 1.760660 0.000000 
#    z 0.000000 0.000000 1.711860 
# 
# From -- ./inp_files/4653.got.cif
#   From: 2010.03.12/outbox.cif.g09.slc.cpg/sg55_3_cif.got.tgz:4653.got - 2010.04.16 15:19:21.
