data_PCOD8225797
_publ_section_title
;
Structure prediction by ZEFSAII (Michael W. Deem and Ramdas Pophale) SiO2 
 PCOD8225797
Probable space group: P B A M
;
_chemical_formula_sum "Si O2"
_cell_formula_units_Z 56
_cell_length_a 8.522709
_cell_length_b 19.531508
_cell_length_c 15.005736
_cell_angle_alpha 90.000000
_cell_angle_beta 90.000000
_cell_angle_gamma 90.000000
_cell_volume 2497.875208
_symmetry_space_group_name_H-M "P B A M"
_symmetry_group_IT_number 55
_symmetry_cell_setting 'orthorhombic'
loop_
_space_group_symop_operation_xyz
x,y,z
-x,-y,z
1/2+x,1/2-y,-z
1/2-x,1/2+y,-z
-x,-y,-z
x,y,-z
1/2-x,1/2+y,z
1/2+x,1/2-y,z
loop_
_atom_site_type_symbol
_atom_site_label
_atom_site_fract_x
_atom_site_fract_y
_atom_site_fract_z
Si Si1 0.712283 0.183095 0.367257
Si Si2 0.172936 0.335092 0.841560
Si Si3 0.404757 0.436250 0.655742
Si Si4 0.853523 0.330540 0.402693
Si Si5 0.316739 0.614328 0.766233
Si Si6 0.823053 0.517919 0.796859
Si Si7 0.671902 0.790815 0.100480
O O1 0.701349 0.176870 0.261782
O O2 0.834263 0.124529 0.406113
O O3 0.781509 0.255463 0.393328
O O4 0.540917 0.173293 0.407036
O O5 0.193595 0.416480 0.862762
O O6 0.300678 0.291406 0.896902
O O7 0.999056 0.311494 0.867224
O O8 0.500000 0.500000 0.608905
O O9 0.507282 0.398824 0.733170
O O10 0.252976 0.469157 0.700718
O O11 0.799160 0.359593 0.500000
O O12 0.793058 0.377804 0.322051
O O13 0.261219 0.551432 0.830434
O O14 0.303590 0.679594 0.831259
O O15 0.000000 0.500000 0.778349
O O16 0.698629 0.817046 0.000000
#
# Coordination Sequence:
#
# PCOD8225797 Si02
#       7
#     8   8   8   8   8   8   8
#     4  11  20  39  63  96 133 173 230 275 339 397
#     4  11  22  41  66  95 132 181 216 277 331 398
#     4   9  21  36  67  94 124 175 223 270 337 403
#     4  12  24  39  67 100 137 176 224 282 337 402
#     4  11  21  42  67 100 133 176 220 274 337 400
#     4  10  19  39  68  98 125 179 227 267 332 402
#     4  12  25  41  65 100 135 173 220 274 331 397
#
# _framework density 22.419053999999999
#
# number of rings (size 3 to 8) (size 9 to 14) (size 15 to 20)
#    0.000    1.143    4.286    2.571    4.000    0.000 
#    0.000    2.857    0.000   38.143    0.000    0.000 
#    0.000    0.000    0.000    0.000    0.000    0.000 
#
# Total GULP energy -693734.226637 kJ/mol
# GULP energy per Si atom -12388.111190 kJ/mol
# Density = 2.236803 g / cm^3
# Si number density = 22.419054 Si / 1000 Ang^3
#
#
#
# Elastic Constant Matrix: (Units=GPa)
#
#
# Indices 1 2 3 4 5 6 
#
# 1 89.3831 44.8121 22.6778 0.0000 0.0000 0.0000
# 2 44.8121 136.0862 23.1969 0.0000 0.0000 0.0000
# 3 22.6778 23.1969 100.4313 0.0000 0.0000 0.0000
# 4 0.0000 0.0000 0.0000 11.0139 0.0000 0.0000
# 5 0.0000 0.0000 0.0000 0.0000 8.1409 0.0000
# 6 0.0000 0.0000 0.0000 0.0000 0.0000 47.6217
#
#
#
# Elastic Compliance Matrix: (Units=1/GPa)
#
#
# Indices 1 2 3 4 5 6 
#
# 1 0.013835 -0.004188 -0.002157 0.000000 0.000000 0.000000
# 2 -0.004188 0.008917 -0.001114 0.000000 0.000000 0.000000
# 3 -0.002157 -0.001114 0.010701 0.000000 0.000000 0.000000
# 4 0.000000 0.000000 0.000000 0.090795 0.000000 0.000000
# 5 0.000000 0.000000 0.000000 0.000000 0.122837 0.000000
# 6 0.000000 0.000000 0.000000 0.000000 0.000000 0.020999
#
#
# Mechanical properties :
#
#
# Convention : Reuss Voigt Hill
#
# Bulk Modulus (GPa) = 53.94904 56.36382 55.15643
# Shear Modulus (GPa) = 17.29032 29.03623 23.16328
#
# Velocity S-wave (km/s) = 2.78012 3.60274 3.21782
# Velocity P-wave (km/s) = 5.86699 6.51935 6.20175
#
# Compressibility (1/GPa) = 0.01853601
#
# Stress axis : x y z
#
# Youngs Moduli (GPa) = 72.28246 112.14223 93.44644
#
# Poissons Ratio (x) = 0.46965 0.20153
# Poissons Ratio (y) = 0.30272 0.10410
# Poissons Ratio (z) = 0.15588 0.12492
#
# Static dielectric constant tensor:
#      x y z
#    x 4.216820 0.000000 0.000000 
#    y 0.000000 5.313450 0.000000 
#    z 0.000000 0.000000 3.742490 
# 
# 
# High freq. dielectric constant tensor:
#      x y z
#    x 1.896180 0.000000 0.000000 
#    y 0.000000 1.903090 0.000000 
#    z 0.000000 0.000000 1.836600 
# 
# From -- ./inp_files/17626.got.cif
#   From: 2010.03.12/outbox.cif.g09.slc.cpg/sg55_9_cif.got.tgz:17626.got - 2010.04.16 15:19:21.
