data_PCOD8225565
_publ_section_title
;
Structure prediction by ZEFSAII (Michael W. Deem and Ramdas Pophale) SiO2 
 PCOD8225565
Probable space group: P B A M
;
_chemical_formula_sum "Si O2"
_cell_formula_units_Z 36
_cell_length_a 5.100860
_cell_length_b 32.566578
_cell_length_c 10.748719
_cell_angle_alpha 90.000000
_cell_angle_beta 90.000000
_cell_angle_gamma 90.000000
_cell_volume 1785.550920
_symmetry_space_group_name_H-M "P B A M"
_symmetry_group_IT_number 55
_symmetry_cell_setting 'orthorhombic'
loop_
_space_group_symop_operation_xyz
x,y,z
-x,-y,z
1/2+x,1/2-y,-z
1/2-x,1/2+y,-z
-x,-y,-z
x,y,-z
1/2-x,1/2+y,z
1/2+x,1/2-y,z
loop_
_atom_site_type_symbol
_atom_site_label
_atom_site_fract_x
_atom_site_fract_y
_atom_site_fract_z
Si Si1 0.712615 0.163898 0.270324
Si Si2 0.211808 0.108446 0.734444
Si Si3 0.705379 0.223269 0.500000
Si Si4 0.691468 0.886971 0.000000
Si Si5 0.308273 0.336348 0.000000
Si Si6 0.750007 0.479246 0.357686
O O1 0.428078 0.143589 0.288617
O O2 0.756448 0.197421 0.375752
O O3 0.740317 0.185851 0.132627
O O4 0.927491 0.128150 0.285763
O O5 0.248958 0.070161 0.643961
O O6 0.239800 0.089026 0.873621
O O7 0.408664 0.239268 0.500000
O O8 0.383056 0.876164 0.000000
O O9 0.882666 0.846642 0.000000
O O10 0.500000 0.500000 0.290691
O O11 0.750910 0.493503 0.500000
O O12 0.000000 0.500000 0.290687
#
# Coordination Sequence:
#
# PCOD8225565 Si02
#       6
#     8   8   4   4   4   8
#     4  10  21  36  61  82 108 145 185 224 265 322
#     4  10  19  35  58  81 105 142 193 221 265 325
#     4  12  26  42  56  86 122 140 168 226 282 322
#     4   8  16  30  52  80 106 132 176 244 262 292
#     4   8  16  34  54  82 106 136 182 224 262 312
#     4  10  21  34  48  73 112 146 177 228 275 311
#
# _framework density 20.161845
#
# number of rings (size 3 to 8) (size 9 to 14) (size 15 to 20)
#    0.000    2.222    0.000    2.667    3.111    0.000 
#    0.000    2.222    0.000    0.000    0.000    0.000 
#    0.000    0.000    0.000    0.000    0.000    0.000 
#
# Total GULP energy -446046.129350 kJ/mol
# GULP energy per Si atom -12390.170260 kJ/mol
# Density = 2.011596 g / cm^3
# Si number density = 20.161845 Si / 1000 Ang^3
#
#
#
# Elastic Constant Matrix: (Units=GPa)
#
#
# Indices 1 2 3 4 5 6 
#
# 1 117.6229 17.9857 21.9428 0.0000 0.0000 0.0000
# 2 17.9857 60.1333 37.0091 0.0000 0.0000 0.0000
# 3 21.9428 37.0091 101.0496 0.0000 0.0000 0.0000
# 4 0.0000 0.0000 0.0000 3.5751 0.0000 0.0000
# 5 0.0000 0.0000 0.0000 0.0000 18.6575 0.0000
# 6 0.0000 0.0000 0.0000 0.0000 0.0000 32.1973
#
#
#
# Elastic Compliance Matrix: (Units=1/GPa)
#
#
# Indices 1 2 3 4 5 6 
#
# 1 0.009031 -0.001929 -0.001255 0.000000 0.000000 0.000000
# 2 -0.001929 0.021881 -0.007595 0.000000 0.000000 0.000000
# 3 -0.001255 -0.007595 0.012950 0.000000 0.000000 0.000000
# 4 0.000000 0.000000 0.000000 0.279710 0.000000 0.000000
# 5 0.000000 0.000000 0.000000 0.000000 0.053598 0.000000
# 6 0.000000 0.000000 0.000000 0.000000 0.000000 0.031059
#
#
# Mechanical properties :
#
#
# Convention : Reuss Voigt Hill
#
# Bulk Modulus (GPa) = 44.83305 48.07566 46.45436
# Shear Modulus (GPa) = 11.43588 24.34386 17.88987
#
# Velocity S-wave (km/s) = 2.38419 3.47857 2.98201
# Velocity P-wave (km/s) = 5.46480 6.32697 5.91162
#
# Compressibility (1/GPa) = 0.02230497
#
# Stress axis : x y z
#
# Youngs Moduli (GPa) = 110.73286 45.70181 77.21897
#
# Poissons Ratio (x) = 0.08816 0.09687
# Poissons Ratio (y) = 0.21360 0.58647
# Poissons Ratio (z) = 0.13892 0.34710
#
# Static dielectric constant tensor:
#      x y z
#    x 4.103140 0.000000 0.000000 
#    y 0.000000 3.037000 0.000000 
#    z 0.000000 0.000000 3.969170 
# 
# 
# High freq. dielectric constant tensor:
#      x y z
#    x 1.816960 0.000000 0.000000 
#    y 0.000000 1.729650 0.000000 
#    z 0.000000 0.000000 1.792710 
# 
# From -- ./inp_files/11261.got.cif
#   From: 2010.03.12/outbox.cif.g09.slc.cpg/sg55_6_cif.got.tgz:11261.got - 2010.04.16 15:19:21.
