data_PCOD8225075
_publ_section_title
;
Structure prediction by ZEFSAII (Michael W. Deem and Ramdas Pophale) SiO2 
 PCOD8225075
Probable space group: P B A M
;
_chemical_formula_sum "Si O2"
_cell_formula_units_Z 40
_cell_length_a 5.105349
_cell_length_b 17.280892
_cell_length_c 23.371589
_cell_angle_alpha 90.000000
_cell_angle_beta 90.000000
_cell_angle_gamma 90.000000
_cell_volume 2061.958082
_symmetry_space_group_name_H-M "P B A M"
_symmetry_group_IT_number 55
_symmetry_cell_setting 'orthorhombic'
loop_
_space_group_symop_operation_xyz
x,y,z
-x,-y,z
1/2+x,1/2-y,-z
1/2-x,1/2+y,-z
-x,-y,-z
x,y,-z
1/2-x,1/2+y,z
1/2+x,1/2-y,z
loop_
_atom_site_type_symbol
_atom_site_label
_atom_site_fract_x
_atom_site_fract_y
_atom_site_fract_z
Si Si1 0.853998 0.701847 0.230099
Si Si2 0.644634 0.201245 0.637581
Si Si3 0.005475 0.091969 0.936120
Si Si4 0.507267 0.091583 0.132167
Si Si5 0.742837 0.550277 0.565376
O O1 0.562712 0.730883 0.215385
O O2 0.856964 0.677151 0.296135
O O3 0.932551 0.626582 0.194129
O O4 0.356462 0.232507 0.622366
O O5 0.719915 0.126860 0.601680
O O6 0.729793 0.120750 0.911510
O O7 0.235332 0.121922 0.894462
O O8 0.045989 0.125636 0.000000
O O9 0.000000 0.000000 0.938690
O O10 0.500000 0.000000 0.140176
O O11 0.500000 0.500000 0.589342
O O12 0.687635 0.574872 0.500000
O O13 0.000000 0.500000 0.571010
#
# Coordination Sequence:
#
# PCOD8225075 Si02
#       5
#     8   8   8   8   8
#     4  10  21  37  54  74 106 142 172 213 268 313
#     4  10  21  37  57  81 108 146 192 226 263 324
#     4   9  17  30  50  76 103 129 164 214 263 307
#     4  10  19  32  53  78  99 129 175 216 255 312
#     4  10  21  37  57  84 117 148 179 224 281 325
#
# _framework density 19.399035999999999
#
# number of rings (size 3 to 8) (size 9 to 14) (size 15 to 20)
#    0.000    2.200    0.000    3.000    0.000    4.000 
#    0.000    3.000    0.000   12.000    0.000    0.000 
#    0.000    0.000    0.000    0.000    0.000    0.000 
#
# Total GULP energy -496022.659777 kJ/mol
# GULP energy per Si atom -12400.566494 kJ/mol
# Density = 1.935488 g / cm^3
# Si number density = 19.399036 Si / 1000 Ang^3
#
#
#
# Elastic Constant Matrix: (Units=GPa)
#
#
# Indices 1 2 3 4 5 6 
#
# 1 127.0419 28.2318 43.2105 0.0000 0.0000 0.0000
# 2 28.2318 68.7935 63.4600 0.0000 0.0000 0.0000
# 3 43.2105 63.4600 105.7483 0.0000 0.0000 0.0000
# 4 0.0000 0.0000 0.0000 9.6635 0.0000 0.0000
# 5 0.0000 0.0000 0.0000 0.0000 33.2681 0.0000
# 6 0.0000 0.0000 0.0000 0.0000 0.0000 26.0744
#
#
#
# Elastic Compliance Matrix: (Units=1/GPa)
#
#
# Indices 1 2 3 4 5 6 
#
# 1 0.009156 -0.000686 -0.003330 0.000000 0.000000 0.000000
# 2 -0.000686 0.032613 -0.019291 0.000000 0.000000 0.000000
# 3 -0.003330 -0.019291 0.022394 0.000000 0.000000 0.000000
# 4 0.000000 0.000000 0.000000 0.103482 0.000000 0.000000
# 5 0.000000 0.000000 0.000000 0.000000 0.030059 0.000000
# 6 0.000000 0.000000 0.000000 0.000000 0.000000 0.038352
#
#
# Mechanical properties :
#
#
# Convention : Reuss Voigt Hill
#
# Bulk Modulus (GPa) = 56.98126 63.48758 60.23442
# Shear Modulus (GPa) = 17.32988 24.91331 21.12160
#
# Velocity S-wave (km/s) = 2.99212 3.58754 3.30327
# Velocity P-wave (km/s) = 6.43226 7.06815 6.75769
#
# Compressibility (1/GPa) = 0.01754963
#
# Stress axis : x y z
#
# Youngs Moduli (GPa) = 109.21304 30.66255 44.65570
#
# Poissons Ratio (x) = 0.02104 0.14869
# Poissons Ratio (y) = 0.07492 0.86145
# Poissons Ratio (z) = 0.36365 0.59151
#
# Static dielectric constant tensor:
#      x y z
#    x 3.921490 0.000000 0.000000 
#    y 0.000000 3.141020 0.000000 
#    z 0.000000 0.000000 3.601550 
# 
# 
# High freq. dielectric constant tensor:
#      x y z
#    x 1.779910 0.000000 0.000000 
#    y 0.000000 1.726140 0.000000 
#    z 0.000000 0.000000 1.756450 
# 
# From -- ./inp_files/20328.got.cif
#   From: 2010.03.12/outbox.cif.g09.slc.cpg/sg55_11_cif.got.tgz:20328.got - 2010.04.16 15:19:21.
