data_PCOD8225542
_publ_section_title
;
Structure prediction by ZEFSAII (Michael W. Deem and Ramdas Pophale) SiO2 
 PCOD8225542
Probable space group: P B A M
;
_chemical_formula_sum "Si O2"
_cell_formula_units_Z 64
_cell_length_a 14.665403
_cell_length_b 24.245206
_cell_length_c 9.421486
_cell_angle_alpha 90.000000
_cell_angle_beta 90.000000
_cell_angle_gamma 90.000000
_cell_volume 3349.957423
_symmetry_space_group_name_H-M "P B A M"
_symmetry_group_IT_number 55
_symmetry_cell_setting 'orthorhombic'
loop_
_space_group_symop_operation_xyz
x,y,z
-x,-y,z
1/2+x,1/2-y,-z
1/2-x,1/2+y,-z
-x,-y,-z
x,y,-z
1/2-x,1/2+y,z
1/2+x,1/2-y,z
loop_
_atom_site_type_symbol
_atom_site_label
_atom_site_fract_x
_atom_site_fract_y
_atom_site_fract_z
Si Si1 0.244939 0.944916 0.337759
Si Si2 0.367399 0.741082 0.168306
Si Si3 0.451715 0.942859 0.332659
Si Si4 0.101950 0.012356 0.160725
Si Si5 0.453644 0.629012 0.161466
Si Si6 0.614706 0.650167 0.662673
Si Si7 0.661232 0.754087 0.835243
Si Si8 0.496353 0.163621 0.835116
O O1 0.241748 0.964799 0.500000
O O2 0.347557 0.946744 0.279152
O O3 0.210494 0.881860 0.323348
O O4 0.181611 0.986279 0.252267
O O5 0.409304 0.684220 0.226479
O O6 0.263829 0.741884 0.224164
O O7 0.425880 0.793709 0.221136
O O8 0.368514 0.739169 0.000000
O O9 0.457292 0.931261 0.500000
O O10 0.501097 0.892589 0.253408
O O11 0.500000 0.000000 0.291206
O O12 0.117591 0.078470 0.166593
O O13 0.110333 0.989689 0.000000
O O14 0.000000 0.000000 0.218189
O O15 0.539018 0.612287 0.260665
O O16 0.487487 0.638557 0.000000
O O17 0.588573 0.660651 0.500000
O O18 0.612314 0.707452 0.744911
O O19 0.604275 0.810292 0.813187
O O20 0.659739 0.736750 0.000000
O O21 0.513478 0.150013 0.000000
#
# Coordination Sequence:
#
# PCOD8225542 Si02
#       8
#     8   8   8   8   8   8   8   8
#     4  10  22  38  57  81 112 151 193 236 283 335
#     4   9  18  34  56  83 112 145 181 221 276 336
#     4  10  23  43  62  80 109 152 194 236 285 333
#     4  10  20  33  55  86 114 146 186 227 277 334
#     4  10  19  35  55  78 114 149 181 225 276 335
#     4  11  21  33  53  82 111 144 187 229 276 328
#     4  10  20  35  57  82 112 147 182 225 279 335
#     4  10  20  36  60  88 112 143 187 232 281 332
#
# _framework density 19.104721000000001
#
# number of rings (size 3 to 8) (size 9 to 14) (size 15 to 20)
#    0.000    2.000    2.500    1.125    0.000    3.500 
#    0.000    1.875    0.000    0.000    0.000    0.000 
#    0.000    0.000    0.000    0.000    0.000    0.000 
#
# Total GULP energy -793543.203686 kJ/mol
# GULP energy per Si atom -12399.112558 kJ/mol
# Density = 1.906124 g / cm^3
# Si number density = 19.104721 Si / 1000 Ang^3
#
#
#
# Elastic Constant Matrix: (Units=GPa)
#
#
# Indices 1 2 3 4 5 6 
#
# 1 101.7041 38.9059 35.4743 0.0000 0.0000 0.0000
# 2 38.9059 119.1445 43.1706 0.0000 0.0000 0.0000
# 3 35.4743 43.1706 66.8851 0.0000 0.0000 0.0000
# 4 0.0000 0.0000 0.0000 26.5641 0.0000 0.0000
# 5 0.0000 0.0000 0.0000 0.0000 21.4295 0.0000
# 6 0.0000 0.0000 0.0000 0.0000 0.0000 28.8910
#
#
#
# Elastic Compliance Matrix: (Units=1/GPa)
#
#
# Indices 1 2 3 4 5 6 
#
# 1 0.012487 -0.002190 -0.005209 0.000000 0.000000 0.000000
# 2 -0.002190 0.011339 -0.006157 0.000000 0.000000 0.000000
# 3 -0.005209 -0.006157 0.021688 0.000000 0.000000 0.000000
# 4 0.000000 0.000000 0.000000 0.037645 0.000000 0.000000
# 5 0.000000 0.000000 0.000000 0.000000 0.046665 0.000000
# 6 0.000000 0.000000 0.000000 0.000000 0.000000 0.034613
#
#
# Mechanical properties :
#
#
# Convention : Reuss Voigt Hill
#
# Bulk Modulus (GPa) = 54.34437 58.09282 56.21860
# Shear Modulus (GPa) = 25.29282 26.72245 26.00763
#
# Velocity S-wave (km/s) = 3.64250 3.74402 3.69361
# Velocity P-wave (km/s) = 6.79689 7.01170 6.90513
#
# Compressibility (1/GPa) = 0.01840117
#
# Stress axis : x y z
#
# Youngs Moduli (GPa) = 80.08154 88.18828 46.10798
#
# Poissons Ratio (x) = 0.19314 0.24019
# Poissons Ratio (y) = 0.17538 0.28390
# Poissons Ratio (z) = 0.41718 0.54301
#
# Static dielectric constant tensor:
#      x y z
#    x 3.646550 0.000000 0.000000 
#    y 0.000000 3.492460 0.000000 
#    z 0.000000 0.000000 3.287420 
# 
# 
# High freq. dielectric constant tensor:
#      x y z
#    x 1.742130 0.000000 0.000000 
#    y 0.000000 1.747300 0.000000 
#    z 0.000000 0.000000 1.720640 
# 
# From -- ./inp_files/6622.got.cif
#   From: 2010.03.12/outbox.cif.g09.slc.cpg/sg55_4_cif.got.tgz:6622.got - 2010.04.16 15:19:21.
