data_PCOD8225928
_publ_section_title
;
Structure prediction by ZEFSAII (Michael W. Deem and Ramdas Pophale) SiO2 
 PCOD8225928
Probable space group: P B A M
;
_chemical_formula_sum "Si O2"
_cell_formula_units_Z 64
_cell_length_a 27.169690
_cell_length_b 12.396049
_cell_length_c 9.945227
_cell_angle_alpha 90.000000
_cell_angle_beta 90.000000
_cell_angle_gamma 90.000000
_cell_volume 3349.520714
_symmetry_space_group_name_H-M "P B A M"
_symmetry_group_IT_number 55
_symmetry_cell_setting 'orthorhombic'
loop_
_space_group_symop_operation_xyz
x,y,z
-x,-y,z
1/2+x,1/2-y,-z
1/2-x,1/2+y,-z
-x,-y,-z
x,y,-z
1/2-x,1/2+y,z
1/2+x,1/2-y,z
loop_
_atom_site_type_symbol
_atom_site_label
_atom_site_fract_x
_atom_site_fract_y
_atom_site_fract_z
Si Si1 0.551254 0.945263 0.342867
Si Si2 0.282959 0.824876 0.850958
Si Si3 0.685916 0.350085 0.348737
Si Si4 0.081371 0.190088 0.743695
Si Si5 0.525769 0.704448 0.348353
Si Si6 0.385289 0.914727 0.850302
Si Si7 0.922115 0.045811 0.850223
Si Si8 0.188184 0.962499 0.149355
O O1 0.562452 0.963344 0.500000
O O2 0.549566 0.818629 0.306092
O O3 0.500000 0.000000 0.302199
O O4 0.594152 0.001164 0.257915
O O5 0.285755 0.742793 0.729207
O O6 0.326033 0.913994 0.832214
O O7 0.228436 0.870508 0.841312
O O8 0.290256 0.771905 0.000000
O O9 0.706253 0.358158 0.500000
O O10 0.627349 0.329868 0.355077
O O11 0.699938 0.456815 0.268900
O O12 0.093254 0.293699 0.835243
O O13 0.033159 0.214643 0.656650
O O14 0.074025 0.083324 0.833566
O O15 0.541163 0.674843 0.500000
O O16 0.543356 0.608201 0.253460
O O17 0.399501 0.954700 0.000000
O O18 0.866239 0.086679 0.828755
O O19 0.940643 0.074028 0.000000
O O20 0.189840 0.017317 0.000000
#
# Coordination Sequence:
#
# PCOD8225928 Si02
#       8
#     8   8   8   8   8   8   8   8
#     4  10  21  39  57  76 110 154 188 220 272 335
#     4   9  19  37  59  81 107 143 185 225 275 336
#     4  10  20  33  56  87 112 138 179 234 281 320
#     4  10  20  36  58  83 113 147 184 224 277 336
#     4  11  23  38  56  79 111 155 192 220 267 336
#     4  10  20  35  59  89 110 135 185 240 276 319
#     4  10  22  38  57  83 113 145 184 233 281 324
#     4   9  19  39  60  77 108 151 186 221 275 337
#
# _framework density 19.107211
#
# number of rings (size 3 to 8) (size 9 to 14) (size 15 to 20)
#    0.000    2.125    1.250    1.500    0.000   10.750 
#    2.250    0.000    0.000    0.000    0.000    0.000 
#    0.000    0.000    0.000    0.000    0.000    0.000 
#
# Total GULP energy -793420.181656 kJ/mol
# GULP energy per Si atom -12397.190338 kJ/mol
# Density = 1.906372 g / cm^3
# Si number density = 19.107211 Si / 1000 Ang^3
#
#
#
# Elastic Constant Matrix: (Units=GPa)
#
#
# Indices 1 2 3 4 5 6 
#
# 1 71.9834 22.7765 23.4611 0.0000 0.0000 0.0000
# 2 22.7765 69.6971 34.0045 0.0000 0.0000 0.0000
# 3 23.4611 34.0045 120.6528 0.0000 0.0000 0.0000
# 4 0.0000 0.0000 0.0000 26.7854 0.0000 0.0000
# 5 0.0000 0.0000 0.0000 0.0000 19.1268 0.0000
# 6 0.0000 0.0000 0.0000 0.0000 0.0000 21.4384
#
#
#
# Elastic Compliance Matrix: (Units=1/GPa)
#
#
# Indices 1 2 3 4 5 6 
#
# 1 0.015854 -0.004263 -0.001881 0.000000 0.000000 0.000000
# 2 -0.004263 0.017782 -0.004183 0.000000 0.000000 0.000000
# 3 -0.001881 -0.004183 0.009833 0.000000 0.000000 0.000000
# 4 0.000000 0.000000 0.000000 0.037334 0.000000 0.000000
# 5 0.000000 0.000000 0.000000 0.000000 0.052283 0.000000
# 6 0.000000 0.000000 0.000000 0.000000 0.000000 0.046645
#
#
# Mechanical properties :
#
#
# Convention : Reuss Voigt Hill
#
# Bulk Modulus (GPa) = 43.83164 46.97971 45.40567
# Shear Modulus (GPa) = 24.03970 25.60953 24.82462
#
# Velocity S-wave (km/s) = 3.55089 3.66499 3.60839
# Velocity P-wave (km/s) = 6.30883 6.52306 6.41684
#
# Compressibility (1/GPa) = 0.02281457
#
# Stress axis : x y z
#
# Youngs Moduli (GPa) = 63.07480 56.23798 101.69963
#
# Poissons Ratio (x) = 0.23975 0.19133
# Poissons Ratio (y) = 0.26890 0.42536
# Poissons Ratio (z) = 0.11867 0.23522
#
# Static dielectric constant tensor:
#      x y z
#    x 3.520980 0.000000 0.000000 
#    y 0.000000 3.292280 0.000000 
#    z 0.000000 0.000000 3.458580 
# 
# 
# High freq. dielectric constant tensor:
#      x y z
#    x 1.741270 0.000000 0.000000 
#    y 0.000000 1.727280 0.000000 
#    z 0.000000 0.000000 1.747380 
# 
# From -- ./inp_files/10771.got.cif
#   From: 2010.03.12/outbox.cif.g09.slc.cpg/sg55_6_cif.got.tgz:10771.got - 2010.04.16 15:19:21.
