data_PCOD8225746
_publ_section_title
;
Structure prediction by ZEFSAII (Michael W. Deem and Ramdas Pophale) SiO2 
 PCOD8225746
Probable space group: P B A M
;
_chemical_formula_sum "Si O2"
_cell_formula_units_Z 48
_cell_length_a 18.808615
_cell_length_b 14.683820
_cell_length_c 8.857629
_cell_angle_alpha 90.000000
_cell_angle_beta 90.000000
_cell_angle_gamma 90.000000
_cell_volume 2446.320501
_symmetry_space_group_name_H-M "P B A M"
_symmetry_group_IT_number 55
_symmetry_cell_setting 'orthorhombic'
loop_
_space_group_symop_operation_xyz
x,y,z
-x,-y,z
1/2+x,1/2-y,-z
1/2-x,1/2+y,-z
-x,-y,-z
x,y,-z
1/2-x,1/2+y,z
1/2+x,1/2-y,z
loop_
_atom_site_type_symbol
_atom_site_label
_atom_site_fract_x
_atom_site_fract_y
_atom_site_fract_z
Si Si1 0.768224 0.720003 0.177404
Si Si2 0.568081 0.446650 0.320479
Si Si3 0.810135 0.384740 0.674419
Si Si4 0.530032 0.905284 0.320653
Si Si5 0.291461 0.451456 0.673826
Si Si6 0.416923 0.757973 0.320653
O O1 0.735366 0.815401 0.227617
O O2 0.716423 0.638837 0.227552
O O3 0.844264 0.703803 0.253355
O O4 0.777669 0.719654 0.000000
O O5 0.500000 0.500000 0.254737
O O6 0.565870 0.444716 0.500000
O O7 0.639323 0.496038 0.264195
O O8 0.567266 0.343389 0.259262
O O9 0.807161 0.353252 0.500000
O O10 0.890218 0.387994 0.738286
O O11 0.777339 0.484974 0.692423
O O12 0.531447 0.911352 0.500000
O O13 0.480846 0.822423 0.265052
O O14 0.500000 0.000000 0.253543
O O15 0.302211 0.422695 0.500000
O O16 0.409254 0.759548 0.500000
#
# Coordination Sequence:
#
# PCOD8225746 Si02
#       6
#     8   8   8   8   8   8
#     4  12  25  38  56  84 120 159 195 235 288 348
#     4   9  18  32  56  90 116 143 189 246 296 336
#     4  10  20  38  63  91 116 147 193 243 293 344
#     4   9  18  32  58  92 118 141 182 243 298 344
#     4  10  20  37  62  86 114 150 196 246 290 343
#     4  10  19  37  61  85 114 151 194 240 291 344
#
# _framework density 19.621303999999999
#
# number of rings (size 3 to 8) (size 9 to 14) (size 15 to 20)
#    0.000    2.000    1.667    2.500    2.333    3.333 
#    0.000    0.833    0.000    3.000    0.000    0.000 
#    0.000    0.000    0.000    0.000    0.000    0.000 
#
# Total GULP energy -595362.866173 kJ/mol
# GULP energy per Si atom -12403.393045 kJ/mol
# Density = 1.957665 g / cm^3
# Si number density = 19.621304 Si / 1000 Ang^3
#
#
#
# Elastic Constant Matrix: (Units=GPa)
#
#
# Indices 1 2 3 4 5 6 
#
# 1 127.1244 25.0019 19.8669 0.0000 0.0000 0.0000
# 2 25.0019 93.6138 24.3376 0.0000 0.0000 0.0000
# 3 19.8669 24.3376 36.2464 0.0000 0.0000 0.0000
# 4 0.0000 0.0000 0.0000 8.5141 0.0000 0.0000
# 5 0.0000 0.0000 0.0000 0.0000 4.9814 0.0000
# 6 0.0000 0.0000 0.0000 0.0000 0.0000 38.9143
#
#
#
# Elastic Compliance Matrix: (Units=1/GPa)
#
#
# Indices 1 2 3 4 5 6 
#
# 1 0.008736 -0.001318 -0.003903 0.000000 0.000000 0.000000
# 2 -0.001318 0.013140 -0.008100 0.000000 0.000000 0.000000
# 3 -0.003903 -0.008100 0.035167 0.000000 0.000000 0.000000
# 4 0.000000 0.000000 0.000000 0.117452 0.000000 0.000000
# 5 0.000000 0.000000 0.000000 0.000000 0.200748 0.000000
# 6 0.000000 0.000000 0.000000 0.000000 0.000000 0.025697
#
#
# Mechanical properties :
#
#
# Convention : Reuss Voigt Hill
#
# Bulk Modulus (GPa) = 32.89502 43.93306 38.41404
# Shear Modulus (GPa) = 11.42290 23.00051 17.21170
#
# Velocity S-wave (km/s) = 2.41543 3.42749 2.96496
# Velocity P-wave (km/s) = 4.95787 6.17273 5.59835
#
# Compressibility (1/GPa) = 0.03039974
#
# Stress axis : x y z
#
# Youngs Moduli (GPa) = 114.47512 76.10221 28.43571
#
# Poissons Ratio (x) = 0.10033 0.11098
# Poissons Ratio (y) = 0.15092 0.23034
# Poissons Ratio (z) = 0.44677 0.61646
#
# Static dielectric constant tensor:
#      x y z
#    x 3.804830 0.000000 0.000000 
#    y 0.000000 3.693890 0.000000 
#    z 0.000000 0.000000 3.053300 
# 
# 
# High freq. dielectric constant tensor:
#      x y z
#    x 1.779220 0.000000 0.000000 
#    y 0.000000 1.778430 0.000000 
#    z 0.000000 0.000000 1.708150 
# 
# From -- ./inp_files/5659.got.cif
#   From: 2010.03.12/outbox.cif.g09.slc.cpg/sg55_3_cif.got.tgz:5659.got - 2010.04.16 15:19:21.
