data_PCOD8225307
_publ_section_title
;
Structure prediction by ZEFSAII (Michael W. Deem and Ramdas Pophale) SiO2 
 PCOD8225307
Probable space group: P B A M
;
_chemical_formula_sum "Si O2"
_cell_formula_units_Z 64
_cell_length_a 13.006297
_cell_length_b 13.355520
_cell_length_c 16.935632
_cell_angle_alpha 90.000000
_cell_angle_beta 90.000000
_cell_angle_gamma 90.000000
_cell_volume 2941.818516
_symmetry_space_group_name_H-M "P B A M"
_symmetry_group_IT_number 55
_symmetry_cell_setting 'orthorhombic'
loop_
_space_group_symop_operation_xyz
x,y,z
-x,-y,z
1/2+x,1/2-y,-z
1/2-x,1/2+y,-z
-x,-y,-z
x,y,-z
1/2-x,1/2+y,z
1/2+x,1/2-y,z
loop_
_atom_site_type_symbol
_atom_site_label
_atom_site_fract_x
_atom_site_fract_y
_atom_site_fract_z
Si Si1 0.453424 0.601175 0.873388
Si Si2 0.903018 0.874561 0.298526
Si Si3 0.740426 0.501523 0.912560
Si Si4 0.055457 0.778122 0.587556
Si Si5 0.315562 0.467625 0.409012
Si Si6 0.600346 0.937129 0.366682
Si Si7 0.311918 0.123223 0.214144
Si Si8 0.864398 0.214058 0.912972
O O1 0.500000 0.500000 0.909444
O O2 0.470103 0.602118 0.778861
O O3 0.335517 0.596044 0.901746
O O4 0.512198 0.695963 0.910930
O O5 0.789181 0.847547 0.265755
O O6 0.961621 0.788466 0.349187
O O7 0.895083 0.969779 0.355886
O O8 0.815844 0.478206 0.840045
O O9 0.688992 0.607689 0.896836
O O10 0.790651 0.497185 0.000000
O O11 0.012584 0.803388 0.500000
O O12 0.152090 0.852098 0.606964
O O13 0.100160 0.665648 0.583980
O O14 0.330997 0.497124 0.500000
O O15 0.198085 0.491645 0.384881
O O16 0.597988 0.900817 0.275595
O O17 0.500000 0.000000 0.388031
O O18 0.334695 0.215711 0.157968
O O19 0.835395 0.256859 0.000000
#
# Coordination Sequence:
#
# PCOD8225307 Si02
#       8
#     8   8   8   8   8   8   8   8
#     4   9  16  28  50  78 110 148 189 236 289 342
#     4  10  20  35  59  91 124 157 198 251 302 355
#     4   9  18  33  54  82 113 145 188 244 302 352
#     4  11  23  40  65  92 121 159 200 250 310 367
#     4  10  22  41  64  91 121 156 205 257 307 369
#     4  11  26  44  62  87 123 164 205 251 306 368
#     4  10  22  37  58  85 117 159 202 246 296 358
#     4  10  19  33  56  84 117 156 198 244 292 351
#
# _framework density 21.755251000000001
#
# number of rings (size 3 to 8) (size 9 to 14) (size 15 to 20)
#    0.000    2.000    0.000    3.375    0.000   10.500 
#    0.000    2.500    0.000    4.500    0.000    0.000 
#    0.000    0.000    0.000    0.000    0.000    0.000 
#
# Total GULP energy -792852.766745 kJ/mol
# GULP energy per Si atom -12388.324480 kJ/mol
# Density = 2.170573 g / cm^3
# Si number density = 21.755251 Si / 1000 Ang^3
#
#
#
# Elastic Constant Matrix: (Units=GPa)
#
#
# Indices 1 2 3 4 5 6 
#
# 1 47.1188 30.7224 17.2358 0.0000 0.0000 0.0000
# 2 30.7224 101.6955 37.0185 0.0000 0.0000 0.0000
# 3 17.2358 37.0185 135.3626 0.0000 0.0000 0.0000
# 4 0.0000 0.0000 0.0000 34.1508 0.0000 0.0000
# 5 0.0000 0.0000 0.0000 0.0000 26.9526 0.0000
# 6 0.0000 0.0000 0.0000 0.0000 0.0000 28.4251
#
#
#
# Elastic Compliance Matrix: (Units=1/GPa)
#
#
# Indices 1 2 3 4 5 6 
#
# 1 0.026640 -0.007567 -0.001323 0.000000 0.000000 0.000000
# 2 -0.007567 0.013069 -0.002611 0.000000 0.000000 0.000000
# 3 -0.001323 -0.002611 0.008270 0.000000 0.000000 0.000000
# 4 0.000000 0.000000 0.000000 0.029282 0.000000 0.000000
# 5 0.000000 0.000000 0.000000 0.000000 0.037102 0.000000
# 6 0.000000 0.000000 0.000000 0.000000 0.000000 0.035180
#
#
# Mechanical properties :
#
#
# Convention : Reuss Voigt Hill
#
# Bulk Modulus (GPa) = 40.03280 50.45893 45.24586
# Shear Modulus (GPa) = 27.64403 31.18572 29.41487
#
# Velocity S-wave (km/s) = 3.56853 3.79024 3.68106
# Velocity P-wave (km/s) = 5.95152 6.51144 6.23777
#
# Compressibility (1/GPa) = 0.02497952
#
# Stress axis : x y z
#
# Youngs Moduli (GPa) = 37.53699 76.51404 120.91917
#
# Poissons Ratio (x) = 0.57895 0.15996
# Poissons Ratio (y) = 0.28403 0.31569
# Poissons Ratio (z) = 0.04966 0.19976
#
# Static dielectric constant tensor:
#      x y z
#    x 3.859420 0.000000 0.000000 
#    y 0.000000 3.723180 0.000000 
#    z 0.000000 0.000000 4.252450 
# 
# 
# High freq. dielectric constant tensor:
#      x y z
#    x 1.828150 0.000000 0.000000 
#    y 0.000000 1.834400 0.000000 
#    z 0.000000 0.000000 1.881200 
# 
# From -- ./inp_files/21663.got.cif
#   From: 2010.03.12/outbox.cif.g09.slc.cpg/sg55_11_cif.got.tgz:21663.got - 2010.04.16 15:19:21.
