data_PCOD8225590
_publ_section_title
;
Structure prediction by ZEFSAII (Michael W. Deem and Ramdas Pophale) SiO2 
 PCOD8225590
Probable space group: P B A M
;
_chemical_formula_sum "Si O2"
_cell_formula_units_Z 64
_cell_length_a 24.226779
_cell_length_b 15.230557
_cell_length_c 9.108862
_cell_angle_alpha 90.000000
_cell_angle_beta 90.000000
_cell_angle_gamma 90.000000
_cell_volume 3361.054746
_symmetry_space_group_name_H-M "P B A M"
_symmetry_group_IT_number 55
_symmetry_cell_setting 'orthorhombic'
loop_
_space_group_symop_operation_xyz
x,y,z
-x,-y,z
1/2+x,1/2-y,-z
1/2-x,1/2+y,-z
-x,-y,-z
x,y,-z
1/2-x,1/2+y,z
1/2+x,1/2-y,z
loop_
_atom_site_type_symbol
_atom_site_label
_atom_site_fract_x
_atom_site_fract_y
_atom_site_fract_z
Si Si1 0.546009 0.201576 0.170133
Si Si2 0.578385 0.560749 0.326445
Si Si3 0.779277 0.480629 0.331325
Si Si4 0.694300 0.630311 0.674488
Si Si5 0.808266 0.309114 0.827581
Si Si6 0.402769 0.959547 0.331414
Si Si7 0.071463 0.627798 0.168373
Si Si8 0.961231 0.874652 0.326422
O O1 0.581875 0.126081 0.242099
O O2 0.480771 0.189340 0.198399
O O3 0.564765 0.292174 0.243683
O O4 0.560583 0.204081 0.000000
O O5 0.579265 0.564654 0.500000
O O6 0.633631 0.605202 0.263979
O O7 0.575146 0.458692 0.279625
O O8 0.524190 0.611710 0.270589
O O9 0.769325 0.453873 0.500000
O O10 0.734443 0.551336 0.277851
O O11 0.774443 0.392268 0.235154
O O12 0.838115 0.525751 0.309499
O O13 0.695397 0.644362 0.500000
O O14 0.713396 0.720443 0.751005
O O15 0.873182 0.319618 0.789255
O O16 0.797375 0.302862 0.000000
O O17 0.419353 0.947060 0.500000
O O18 0.436268 0.042345 0.268762
O O19 0.074032 0.596019 0.000000
O O20 0.959326 0.858506 0.500000
#
# Coordination Sequence:
#
# PCOD8225590 Si02
#       8
#     8   8   8   8   8   8   8   8
#     4  11  21  32  48  74 106 140 172 204 255 319
#     4   8  16  32  55  79 102 132 169 214 260 301
#     4   9  20  38  56  76 104 139 180 225 266 309
#     4  10  19  35  59  82 103 135 180 222 262 309
#     4  10  20  35  56  81 108 138 172 217 269 316
#     4  10  20  34  51  72  99 133 175 220 263 304
#     4   9  19  34  51  73 104 138 171 209 258 314
#     4   9  17  32  52  76 107 136 167 208 255 307
#
# _framework density 19.041642
#
# number of rings (size 3 to 8) (size 9 to 14) (size 15 to 20)
#    0.000    2.500    0.000    3.000    0.000    4.000 
#    2.250    1.875    0.000    0.000    0.000    0.000 
#    0.000    0.000    0.000    0.000    0.000    0.000 
#
# Total GULP energy -793677.514439 kJ/mol
# GULP energy per Si atom -12401.211163 kJ/mol
# Density = 1.899830 g / cm^3
# Si number density = 19.041642 Si / 1000 Ang^3
#
#
#
# Elastic Constant Matrix: (Units=GPa)
#
#
# Indices 1 2 3 4 5 6 
#
# 1 41.9995 36.0152 24.5895 0.0000 0.0000 0.0000
# 2 36.0152 153.0171 65.3842 0.0000 0.0000 0.0000
# 3 24.5895 65.3842 81.1580 0.0000 0.0000 0.0000
# 4 0.0000 0.0000 0.0000 -10.4064 0.0000 0.0000
# 5 0.0000 0.0000 0.0000 0.0000 20.3690 0.0000
# 6 0.0000 0.0000 0.0000 0.0000 0.0000 25.3716
#
#
#
# Elastic Compliance Matrix: (Units=1/GPa)
#
#
# Indices 1 2 3 4 5 6 
#
# 1 0.031316 -0.005058 -0.005414 0.000000 0.000000 0.000000
# 2 -0.005058 0.010783 -0.007155 0.000000 0.000000 0.000000
# 3 -0.005414 -0.007155 0.019726 0.000000 0.000000 0.000000
# 4 0.000000 0.000000 0.000000 -0.096094 0.000000 0.000000
# 5 0.000000 0.000000 0.000000 0.000000 0.049094 0.000000
# 6 0.000000 0.000000 0.000000 0.000000 0.000000 0.039414
#
#
# Mechanical properties :
#
#
# Convention : Reuss Voigt Hill
#
# Bulk Modulus (GPa) = 37.63196 58.68359 48.15778
# Shear Modulus (GPa) = 50.83932 17.07922 33.95927
#
# Velocity S-wave (km/s) = 5.17272 2.99815 4.22764
# Velocity P-wave (km/s) = 7.44861 6.54757 7.01258
#
# Compressibility (1/GPa) = 0.02657315
#
# Stress axis : x y z
#
# Youngs Moduli (GPa) = 31.93219 92.74037 50.69440
#
# Poissons Ratio (x) = 0.46904 0.27445
# Poissons Ratio (y) = 0.16150 0.36270
# Poissons Ratio (z) = 0.17287 0.66353
#
# Static dielectric constant tensor:
#      x y z
#    x 3.529340 0.000000 0.000000 
#    y 0.000000 3.481200 0.000000 
#    z 0.000000 0.000000 3.326970 
# 
# 
# High freq. dielectric constant tensor:
#      x y z
#    x 1.724740 0.000000 0.000000 
#    y 0.000000 1.748960 0.000000 
#    z 0.000000 0.000000 1.726790 
# 
# From -- ./inp_files/9655.got.cif
#   From: 2010.03.12/outbox.cif.g09.slc.cpg/sg55_5_cif.got.tgz:9655.got - 2010.04.16 15:19:21.
