data_PCOD8225092
_publ_section_title
;
Structure prediction by ZEFSAII (Michael W. Deem and Ramdas Pophale) SiO2 
 PCOD8225092
Probable space group: P B A M
;
_chemical_formula_sum "Si O2"
_cell_formula_units_Z 64
_cell_length_a 28.247450
_cell_length_b 12.574835
_cell_length_c 9.250378
_cell_angle_alpha 90.000000
_cell_angle_beta 90.000000
_cell_angle_gamma 90.000000
_cell_volume 3285.799230
_symmetry_space_group_name_H-M "P B A M"
_symmetry_group_IT_number 55
_symmetry_cell_setting 'orthorhombic'
loop_
_space_group_symop_operation_xyz
x,y,z
-x,-y,z
1/2+x,1/2-y,-z
1/2-x,1/2+y,-z
-x,-y,-z
x,y,-z
1/2-x,1/2+y,z
1/2+x,1/2-y,z
loop_
_atom_site_type_symbol
_atom_site_label
_atom_site_fract_x
_atom_site_fract_y
_atom_site_fract_z
Si Si1 0.067115 0.764433 0.334854
Si Si2 0.306083 0.009771 0.166021
Si Si3 0.828128 0.284467 0.333148
Si Si4 0.115816 0.341189 0.828079
Si Si5 0.861883 0.888234 0.834242
Si Si6 0.518172 0.115926 0.330029
Si Si7 0.703135 0.574484 0.831881
Si Si8 0.050706 0.970440 0.166051
O O1 0.059110 0.797047 0.500000
O O2 0.115469 0.698123 0.316270
O O3 0.073553 0.870988 0.244944
O O4 0.022830 0.696353 0.278417
O O5 0.302620 0.114821 0.262184
O O6 0.349704 0.936735 0.216994
O O7 0.258813 0.941659 0.186889
O O8 0.312294 0.044897 0.000000
O O9 0.813112 0.277686 0.500000
O O10 0.811380 0.177765 0.256035
O O11 0.139087 0.230824 0.768350
O O12 0.065368 0.358224 0.755849
O O13 0.108603 0.334435 0.000000
O O14 0.824509 0.971531 0.765114
O O15 0.915320 0.929196 0.813753
O O16 0.847037 0.879360 0.000000
O O17 0.528474 0.124992 0.500000
O O18 0.500000 0.000000 0.287818
O O19 0.689018 0.591360 0.000000
O O20 0.044572 0.937865 0.000000
O O21 0.000000 0.000000 0.234781
#
# Coordination Sequence:
#
# PCOD8225092 Si02
#       8
#     8   8   8   8   8   8   8   8
#     4  10  21  36  55  81 113 152 195 239 287 346
#     4  10  23  39  63  91 117 153 198 248 299 357
#     4  11  23  40  62  88 122 156 195 248 298 352
#     4  10  21  38  59  89 120 150 196 248 295 346
#     4   9  18  34  56  83 117 151 185 236 293 346
#     4  10  21  38  58  80 113 159 201 236 290 355
#     4  10  21  39  64  89 115 154 200 246 299 357
#     4  10  19  32  53  82 113 148 187 233 292 346
#
# _framework density 19.477757
#
# number of rings (size 3 to 8) (size 9 to 14) (size 15 to 20)
#    0.000    2.000    1.250    1.875    1.750    4.500 
#    0.000    1.250    0.000    0.000    0.000    0.000 
#    0.000    0.000    0.000    0.000    0.000    0.000 
#
# Total GULP energy -793671.529661 kJ/mol
# GULP energy per Si atom -12401.117651 kJ/mol
# Density = 1.943342 g / cm^3
# Si number density = 19.477757 Si / 1000 Ang^3
#
#
#
# Elastic Constant Matrix: (Units=GPa)
#
#
# Indices 1 2 3 4 5 6 
#
# 1 95.8433 39.3133 36.9826 0.0000 0.0000 0.0000
# 2 39.3133 142.0840 52.3273 0.0000 0.0000 0.0000
# 3 36.9826 52.3273 61.4169 0.0000 0.0000 0.0000
# 4 0.0000 0.0000 0.0000 149.6778 0.0000 0.0000
# 5 0.0000 0.0000 0.0000 0.0000 23.4249 0.0000
# 6 0.0000 0.0000 0.0000 0.0000 0.0000 30.4571
#
#
#
# Elastic Compliance Matrix: (Units=1/GPa)
#
#
# Indices 1 2 3 4 5 6 
#
# 1 0.013708 -0.001097 -0.007320 0.000000 0.000000 0.000000
# 2 -0.001097 0.010344 -0.008153 0.000000 0.000000 0.000000
# 3 -0.007320 -0.008153 0.027636 0.000000 0.000000 0.000000
# 4 0.000000 0.000000 0.000000 0.006681 0.000000 0.000000
# 5 0.000000 0.000000 0.000000 0.000000 0.042690 0.000000
# 6 0.000000 0.000000 0.000000 0.000000 0.000000 0.032833
#
#
# Mechanical properties :
#
#
# Convention : Reuss Voigt Hill
#
# Bulk Modulus (GPa) = 53.91055 61.84339 57.87697
# Shear Modulus (GPa) = 28.86613 52.09337 40.47975
#
# Velocity S-wave (km/s) = 3.85386 5.17717 4.56373
# Velocity P-wave (km/s) = 6.89500 8.21932 7.58611
#
# Compressibility (1/GPa) = 0.01854925
#
# Stress axis : x y z
#
# Youngs Moduli (GPa) = 72.94938 96.67327 36.18512
#
# Poissons Ratio (x) = 0.10607 0.26486
# Poissons Ratio (y) = 0.08004 0.29500
# Poissons Ratio (z) = 0.53396 0.78813
#
# Static dielectric constant tensor:
#      x y z
#    x 3.681190 0.000000 0.000000 
#    y 0.000000 3.650800 0.000000 
#    z 0.000000 0.000000 3.354230 
# 
# 
# High freq. dielectric constant tensor:
#      x y z
#    x 1.769900 0.000000 0.000000 
#    y 0.000000 1.768510 0.000000 
#    z 0.000000 0.000000 1.732940 
# 
# From -- ./inp_files/10785.got.cif
#   From: 2010.03.12/outbox.cif.g09.slc.cpg/sg55_6_cif.got.tgz:10785.got - 2010.04.16 15:19:21.
