data_PCOD8225262
_publ_section_title
;
Structure prediction by ZEFSAII (Michael W. Deem and Ramdas Pophale) SiO2 
 PCOD8225262
Probable space group: P B A M
;
_chemical_formula_sum "Si O2"
_cell_formula_units_Z 64
_cell_length_a 27.216947
_cell_length_b 13.148812
_cell_length_c 9.048242
_cell_angle_alpha 90.000000
_cell_angle_beta 90.000000
_cell_angle_gamma 90.000000
_cell_volume 3238.099063
_symmetry_space_group_name_H-M "P B A M"
_symmetry_group_IT_number 55
_symmetry_cell_setting 'orthorhombic'
loop_
_space_group_symop_operation_xyz
x,y,z
-x,-y,z
1/2+x,1/2-y,-z
1/2-x,1/2+y,-z
-x,-y,-z
x,y,-z
1/2-x,1/2+y,z
1/2+x,1/2-y,z
loop_
_atom_site_type_symbol
_atom_site_label
_atom_site_fract_x
_atom_site_fract_y
_atom_site_fract_z
Si Si1 0.374160 0.387697 0.674939
Si Si2 0.623923 0.383455 0.674611
Si Si3 0.444619 0.207235 0.324855
Si Si4 0.727765 0.634667 0.834079
Si Si5 0.107633 0.500932 0.675340
Si Si6 0.771400 0.806192 0.674960
Si Si7 0.054687 0.294524 0.324124
Si Si8 0.795312 0.451412 0.834053
O O1 0.365023 0.381576 0.500000
O O2 0.391253 0.501841 0.721204
O O3 0.415037 0.307071 0.728249
O O4 0.324187 0.358617 0.754331
O O5 0.623325 0.372204 0.500000
O O6 0.678957 0.360262 0.731638
O O7 0.586154 0.300252 0.741392
O O8 0.446971 0.204464 0.500000
O O9 0.419484 0.103248 0.268727
O O10 0.499620 0.214048 0.259596
O O11 0.769674 0.693125 0.740404
O O12 0.746867 0.520357 0.838345
O O13 0.723002 0.679049 0.000000
O O14 0.115401 0.501824 0.500000
O O15 0.076959 0.402394 0.726473
O O16 0.159923 0.493057 0.753800
O O17 0.768321 0.805384 0.500000
O O18 0.721304 0.854529 0.739440
O O19 0.053943 0.289029 0.500000
O O20 0.810950 0.420183 0.000000
#
# Coordination Sequence:
#
# PCOD8225262 Si02
#       8
#     8   8   8   8   8   8   8   8
#     4  10  19  34  54  79 111 144 188 232 275 333
#     4   9  18  31  50  78 110 144 181 228 279 329
#     4   9  18  31  52  81 109 142 181 232 290 336
#     4  11  23  37  54  79 112 149 187 228 279 334
#     4  10  19  33  55  82 111 144 187 235 283 337
#     4  11  21  35  56  81 111 146 187 231 276 330
#     4   9  17  31  52  81 113 141 180 234 291 337
#     4  11  23  37  54  80 113 149 187 226 278 337
#
# _framework density 19.764683000000002
#
# number of rings (size 3 to 8) (size 9 to 14) (size 15 to 20)
#    0.000    2.000    1.250    3.000    0.000    5.500 
#    0.000    2.500    0.000    2.250    0.000    0.875 
#    0.000    0.000    0.000    0.000    0.000    0.000 
#
# Total GULP energy -793481.682766 kJ/mol
# GULP energy per Si atom -12398.151293 kJ/mol
# Density = 1.971970 g / cm^3
# Si number density = 19.764683 Si / 1000 Ang^3
#
#
#
# Elastic Constant Matrix: (Units=GPa)
#
#
# Indices 1 2 3 4 5 6 
#
# 1 134.0397 66.6529 34.0537 0.0000 0.0000 0.0000
# 2 66.6529 147.0762 28.6362 0.0000 0.0000 0.0000
# 3 34.0537 28.6362 53.4182 0.0000 0.0000 0.0000
# 4 0.0000 0.0000 0.0000 16.5746 0.0000 0.0000
# 5 0.0000 0.0000 0.0000 0.0000 8.8451 0.0000
# 6 0.0000 0.0000 0.0000 0.0000 0.0000 39.7469
#
#
#
# Elastic Compliance Matrix: (Units=1/GPa)
#
#
# Indices 1 2 3 4 5 6 
#
# 1 0.010577 -0.003886 -0.004659 0.000000 0.000000 0.000000
# 2 -0.003886 0.009019 -0.002358 0.000000 0.000000 0.000000
# 3 -0.004659 -0.002358 0.022954 0.000000 0.000000 0.000000
# 4 0.000000 0.000000 0.000000 0.060333 0.000000 0.000000
# 5 0.000000 0.000000 0.000000 0.000000 0.113057 0.000000
# 6 0.000000 0.000000 0.000000 0.000000 0.000000 0.025159
#
#
# Mechanical properties :
#
#
# Convention : Reuss Voigt Hill
#
# Bulk Modulus (GPa) = 48.20619 65.91330 57.05974
# Shear Modulus (GPa) = 18.53085 26.71275 22.62180
#
# Velocity S-wave (km/s) = 3.06530 3.68032 3.38680
# Velocity P-wave (km/s) = 6.08039 7.17503 6.65027
#
# Compressibility (1/GPa) = 0.02074422
#
# Stress axis : x y z
#
# Youngs Moduli (GPa) = 94.54884 110.87310 43.56463
#
# Poissons Ratio (x) = 0.43085 0.20298
# Poissons Ratio (y) = 0.36741 0.10271
# Poissons Ratio (z) = 0.44053 0.26141
#
# Static dielectric constant tensor:
#      x y z
#    x 3.680720 0.000000 0.000000 
#    y 0.000000 3.850870 0.000000 
#    z 0.000000 0.000000 3.191680 
# 
# 
# High freq. dielectric constant tensor:
#      x y z
#    x 1.771150 0.000000 0.000000 
#    y 0.000000 1.787420 0.000000 
#    z 0.000000 0.000000 1.725180 
# 
# From -- ./inp_files/9653.got.cif
#   From: 2010.03.12/outbox.cif.g09.slc.cpg/sg55_5_cif.got.tgz:9653.got - 2010.04.16 15:19:21.
