data_PCOD8225910
_publ_section_title
;
Structure prediction by ZEFSAII (Michael W. Deem and Ramdas Pophale) SiO2 
 PCOD8225910
Probable space group: P B A M
;
_chemical_formula_sum "Si O2"
_cell_formula_units_Z 40
_cell_length_a 29.358783
_cell_length_b 9.004822
_cell_length_c 7.868123
_cell_angle_alpha 90.000000
_cell_angle_beta 90.000000
_cell_angle_gamma 90.000000
_cell_volume 2080.100517
_symmetry_space_group_name_H-M "P B A M"
_symmetry_group_IT_number 55
_symmetry_cell_setting 'orthorhombic'
loop_
_space_group_symop_operation_xyz
x,y,z
-x,-y,z
1/2+x,1/2-y,-z
1/2-x,1/2+y,-z
-x,-y,-z
x,y,-z
1/2-x,1/2+y,z
1/2+x,1/2-y,z
loop_
_atom_site_type_symbol
_atom_site_label
_atom_site_fract_x
_atom_site_fract_y
_atom_site_fract_z
Si Si1 0.867926 0.618185 0.191089
Si Si2 0.292890 0.343639 0.308191
Si Si3 0.113466 0.700426 0.307092
Si Si4 0.548804 0.813582 0.000000
Si Si5 0.790603 0.830713 0.192614
Si Si6 0.448629 0.834428 0.000000
O O1 0.872051 0.472366 0.305768
O O2 0.831036 0.729500 0.272805
O O3 0.917654 0.700521 0.168689
O O4 0.851663 0.568801 0.000000
O O5 0.284183 0.290983 0.500000
O O6 0.343650 0.300024 0.251319
O O7 0.256484 0.259445 0.192057
O O8 0.286340 0.519857 0.299147
O O9 0.097402 0.738225 0.500000
O O10 0.073862 0.739862 0.172018
O O11 0.496836 0.748858 0.000000
O O12 0.544926 0.988912 0.000000
O O13 0.803224 0.872918 0.000000
#
# Coordination Sequence:
#
# PCOD8225910 Si02
#       6
#     8   8   8   4   8   4
#     4   8  17  34  54  76 109 138 176 224 266 315
#     4  11  24  37  51  76 113 145 177 223 269 316
#     4  10  20  33  54  81 109 145 182 217 269 324
#     4   9  16  32  56  77 112 139 172 229 272 313
#     4  11  22  35  57  79 103 142 186 218 262 325
#     4   7  14  32  54  77 108 139 168 229 274 313
#
# _framework density 19.229841
#
# number of rings (size 3 to 8) (size 9 to 14) (size 15 to 20)
#    0.600    1.800    1.000    2.400    2.800    4.800 
#    0.000    8.000    0.000    2.400    0.000    2.800 
#    0.000    0.000    0.000    0.000    0.000    0.000 
#
# Total GULP energy -495692.675615 kJ/mol
# GULP energy per Si atom -12392.316890 kJ/mol
# Density = 1.918607 g / cm^3
# Si number density = 19.229841 Si / 1000 Ang^3
#
#
#
# Elastic Constant Matrix: (Units=GPa)
#
#
# Indices 1 2 3 4 5 6 
#
# 1 101.9787 22.2449 31.9530 0.0000 0.0000 0.0000
# 2 22.2449 56.4850 4.9518 0.0000 0.0000 0.0000
# 3 31.9530 4.9518 66.0016 0.0000 0.0000 0.0000
# 4 0.0000 0.0000 0.0000 19.6117 0.0000 0.0000
# 5 0.0000 0.0000 0.0000 0.0000 15.2938 0.0000
# 6 0.0000 0.0000 0.0000 0.0000 0.0000 22.6908
#
#
#
# Elastic Compliance Matrix: (Units=1/GPa)
#
#
# Indices 1 2 3 4 5 6 
#
# 1 0.012580 -0.004450 -0.005757 0.000000 0.000000 0.000000
# 2 -0.004450 0.019395 0.000699 0.000000 0.000000 0.000000
# 3 -0.005757 0.000699 0.017886 0.000000 0.000000 0.000000
# 4 0.000000 0.000000 0.000000 0.050990 0.000000 0.000000
# 5 0.000000 0.000000 0.000000 0.000000 0.065386 0.000000
# 6 0.000000 0.000000 0.000000 0.000000 0.000000 0.044071
#
#
# Mechanical properties :
#
#
# Convention : Reuss Voigt Hill
#
# Bulk Modulus (GPa) = 32.41867 38.08495 35.25181
# Shear Modulus (GPa) = 20.86777 22.54030 21.70404
#
# Velocity S-wave (km/s) = 3.29778 3.42739 3.36320
# Velocity P-wave (km/s) = 5.60317 5.95909 5.78387
#
# Compressibility (1/GPa) = 0.03084642
#
# Stress axis : x y z
#
# Youngs Moduli (GPa) = 79.48928 51.55988 55.91086
#
# Poissons Ratio (x) = 0.22943 0.32186
# Poissons Ratio (y) = 0.35370 -0.03909
# Poissons Ratio (z) = 0.45759 -0.03605
#
# Static dielectric constant tensor:
#      x y z
#    x 3.915920 0.000000 0.000000 
#    y 0.000000 3.187900 0.000000 
#    z 0.000000 0.000000 3.245080 
# 
# 
# High freq. dielectric constant tensor:
#      x y z
#    x 1.746970 0.000000 0.000000 
#    y 0.000000 1.717570 0.000000 
#    z 0.000000 0.000000 1.734870 
# 
# From -- ./inp_files/10395.got.cif
#   From: 2010.03.12/outbox.cif.g09.slc.cpg/sg55_6_cif.got.tgz:10395.got - 2010.04.16 15:19:21.
