data_PCOD8225039
_publ_section_title
;
Structure prediction by ZEFSAII (Michael W. Deem and Ramdas Pophale) SiO2 
 PCOD8225039
Probable space group: P B A M
;
_chemical_formula_sum "Si O2"
_cell_formula_units_Z 48
_cell_length_a 29.344838
_cell_length_b 5.021245
_cell_length_c 18.411411
_cell_angle_alpha 90.000000
_cell_angle_beta 90.000000
_cell_angle_gamma 90.000000
_cell_volume 2712.877612
_symmetry_space_group_name_H-M "P B A M"
_symmetry_group_IT_number 55
_symmetry_cell_setting 'orthorhombic'
loop_
_space_group_symop_operation_xyz
x,y,z
-x,-y,z
1/2+x,1/2-y,-z
1/2-x,1/2+y,-z
-x,-y,-z
x,y,-z
1/2-x,1/2+y,z
1/2+x,1/2-y,z
loop_
_atom_site_type_symbol
_atom_site_label
_atom_site_fract_x
_atom_site_fract_y
_atom_site_fract_z
Si Si1 0.159652 0.081370 0.128146
Si Si2 0.777981 0.401441 0.500000
Si Si3 0.046946 0.584527 0.174390
Si Si4 0.561424 0.422499 0.082004
Si Si5 0.646455 0.910087 0.219808
Si Si6 0.275988 0.464390 0.000000
Si Si7 0.782248 0.493288 0.657542
O O1 0.159951 0.379685 0.158256
O O2 0.114745 0.007134 0.083076
O O3 0.164105 0.878759 0.195538
O O4 0.200839 0.054990 0.073823
O O5 0.732308 0.586149 0.500000
O O6 0.803131 0.476231 0.575410
O O7 0.036669 0.865549 0.134826
O O8 0.090766 0.591851 0.228703
O O9 0.000000 0.500000 0.216697
O O10 0.055038 0.375787 0.109888
O O11 0.542891 0.447408 0.000000
O O12 0.672346 0.979401 0.293937
O O13 0.230389 0.646499 0.000000
O O14 0.744960 0.264830 0.672309
#
# Coordination Sequence:
#
# PCOD8225039 Si02
#       7
#     8   4   8   8   8   4   8
#     4  10  21  36  46  64  91 122 160 200 239 278
#     4   8  16  30  48  74 103 126 149 188 230 274
#     4  10  21  33  47  70  93 118 156 197 242 292
#     4  10  19  33  51  63  87 118 149 198 252 292
#     4  10  21  34  52  69  95 128 156 196 238 280
#     4  12  24  34  48  64  85 122 163 202 244 278
#     4  10  19  32  52  76 102 128 157 189 231 282
#
# _framework density 17.693390000000001
#
# number of rings (size 3 to 8) (size 9 to 14) (size 15 to 20)
#    0.000    2.000    0.833    3.000    0.000    6.000 
#    0.000    0.000    0.000    0.000    0.000    0.583 
#    0.000    0.000    0.000   26.167    0.000    0.000 
#
# Total GULP energy -594854.525968 kJ/mol
# GULP energy per Si atom -12392.802624 kJ/mol
# Density = 1.765312 g / cm^3
# Si number density = 17.693390 Si / 1000 Ang^3
#
#
#
# Elastic Constant Matrix: (Units=GPa)
#
#
# Indices 1 2 3 4 5 6 
#
# 1 78.6322 12.7879 47.7300 0.0000 0.0000 0.0000
# 2 12.7879 78.5824 3.6082 0.0000 0.0000 0.0000
# 3 47.7300 3.6082 81.4201 0.0000 0.0000 0.0000
# 4 0.0000 0.0000 0.0000 19.0171 0.0000 0.0000
# 5 0.0000 0.0000 0.0000 0.0000 -27.9048 0.0000
# 6 0.0000 0.0000 0.0000 0.0000 0.0000 23.4127
#
#
#
# Elastic Compliance Matrix: (Units=1/GPa)
#
#
# Indices 1 2 3 4 5 6 
#
# 1 0.020325 -0.002766 -0.011793 0.000000 0.000000 0.000000
# 2 -0.002766 0.013128 0.001040 0.000000 0.000000 0.000000
# 3 -0.011793 0.001040 0.019149 0.000000 0.000000 0.000000
# 4 0.000000 0.000000 0.000000 0.052584 0.000000 0.000000
# 5 0.000000 0.000000 0.000000 0.000000 -0.035836 0.000000
# 6 0.000000 0.000000 0.000000 0.000000 0.000000 0.042712
#
#
# Mechanical properties :
#
#
# Convention : Reuss Voigt Hill
#
# Bulk Modulus (GPa) = 39.11687 40.76521 39.94104
# Shear Modulus (GPa) = 33.87039 14.53890 24.20465
#
# Velocity S-wave (km/s) = 4.38001 2.86966 3.70267
# Velocity P-wave (km/s) = 6.90909 5.83693 6.39552
#
# Compressibility (1/GPa) = 0.02556442
#
# Stress axis : x y z
#
# Youngs Moduli (GPa) = 49.19942 76.17365 52.22220
#
# Poissons Ratio (x) = 0.21071 0.61583
# Poissons Ratio (y) = 0.13609 -0.05430
# Poissons Ratio (z) = 0.58019 -0.07921
#
# Static dielectric constant tensor:
#      x y z
#    x 3.388630 0.000000 0.000000 
#    y 0.000000 3.511810 0.000000 
#    z 0.000000 0.000000 3.058560 
# 
# 
# High freq. dielectric constant tensor:
#      x y z
#    x 1.675130 0.000000 0.000000 
#    y 0.000000 1.711780 0.000000 
#    z 0.000000 0.000000 1.641620 
# 
# From -- ./inp_files/20129.got.cif
#   From: 2010.03.12/outbox.cif.g09.slc.cpg/sg55_11_cif.got.tgz:20129.got - 2010.04.16 15:19:21.
