data_PCOD8225899
_publ_section_title
;
Structure prediction by ZEFSAII (Michael W. Deem and Ramdas Pophale) SiO2 
 PCOD8225899
Probable space group: P B A M
;
_chemical_formula_sum "Si O2"
_cell_formula_units_Z 64
_cell_length_a 33.333194
_cell_length_b 10.491618
_cell_length_c 9.023039
_cell_angle_alpha 90.000000
_cell_angle_beta 90.000000
_cell_angle_gamma 90.000000
_cell_volume 3155.529423
_symmetry_space_group_name_H-M "P B A M"
_symmetry_group_IT_number 55
_symmetry_cell_setting 'orthorhombic'
loop_
_space_group_symop_operation_xyz
x,y,z
-x,-y,z
1/2+x,1/2-y,-z
1/2-x,1/2+y,-z
-x,-y,-z
x,y,-z
1/2-x,1/2+y,z
1/2+x,1/2-y,z
loop_
_atom_site_type_symbol
_atom_site_label
_atom_site_fract_x
_atom_site_fract_y
_atom_site_fract_z
Si Si1 0.366057 0.148090 0.675490
Si Si2 0.569194 0.477967 0.174549
Si Si3 0.115962 0.375965 0.326605
Si Si4 0.535518 0.239423 0.330286
Si Si5 0.146305 0.106476 0.675932
Si Si6 0.448276 0.275157 0.670535
Si Si7 0.274213 0.517436 0.172499
Si Si8 0.211691 0.731625 0.171510
O O1 0.361329 0.152854 0.500000
O O2 0.409570 0.198280 0.725263
O O3 0.330486 0.232023 0.743195
O O4 0.364460 0.003788 0.741209
O O5 0.543288 0.357587 0.223104
O O6 0.612736 0.483370 0.252390
O O7 0.545472 0.602420 0.226621
O O8 0.575117 0.477350 0.000000
O O9 0.122526 0.384951 0.500000
O O10 0.068035 0.370188 0.290513
O O11 0.138685 0.250946 0.265827
O O12 0.543281 0.284207 0.500000
O O13 0.489467 0.192127 0.310896
O O14 0.143152 0.096591 0.500000
O O15 0.189120 0.060188 0.727787
O O16 0.443015 0.317208 0.500000
O O17 0.237601 0.608870 0.222671
O O18 0.265492 0.366785 0.203352
O O19 0.284135 0.540554 0.000000
O O20 0.201382 0.720262 0.000000
#
# Coordination Sequence:
#
# PCOD8225899 Si02
#       8
#     8   8   8   8   8   8   8   8
#     4  10  21  37  57  82 112 146 189 234 282 340
#     4  11  21  33  52  79 111 147 186 233 284 339
#     4   8  17  34  55  81 112 145 185 235 282 332
#     4   9  18  34  54  78 110 146 187 235 286 335
#     4  10  20  36  59  84 112 145 186 233 285 339
#     4  10  20  33  53  79 109 148 189 233 284 337
#     4  10  22  40  61  87 117 150 188 232 281 340
#     4  10  23  41  60  85 117 150 187 231 283 341
#
# _framework density 20.281856000000001
#
# number of rings (size 3 to 8) (size 9 to 14) (size 15 to 20)
#    0.000    2.250    0.000    3.375    1.750    6.000 
#    0.000    5.000    0.000    0.000    0.000    5.250 
#    0.000    0.000    0.000    0.000    0.000    0.000 
#
# Total GULP energy -793316.896109 kJ/mol
# GULP energy per Si atom -12395.576502 kJ/mol
# Density = 2.023569 g / cm^3
# Si number density = 20.281856 Si / 1000 Ang^3
#
#
#
# Elastic Constant Matrix: (Units=GPa)
#
#
# Indices 1 2 3 4 5 6 
#
# 1 110.9553 33.8995 25.7852 0.0000 0.0000 0.0000
# 2 33.8995 88.3950 15.7257 0.0000 0.0000 0.0000
# 3 25.7852 15.7257 56.2227 0.0000 0.0000 0.0000
# 4 0.0000 0.0000 0.0000 17.6374 0.0000 0.0000
# 5 0.0000 0.0000 0.0000 0.0000 21.2618 0.0000
# 6 0.0000 0.0000 0.0000 0.0000 0.0000 28.7121
#
#
#
# Elastic Compliance Matrix: (Units=1/GPa)
#
#
# Indices 1 2 3 4 5 6 
#
# 1 0.011031 -0.003505 -0.004079 0.000000 0.000000 0.000000
# 2 -0.003505 0.013019 -0.002034 0.000000 0.000000 0.000000
# 3 -0.004079 -0.002034 0.020226 0.000000 0.000000 0.000000
# 4 0.000000 0.000000 0.000000 0.056698 0.000000 0.000000
# 5 0.000000 0.000000 0.000000 0.000000 0.047033 0.000000
# 6 0.000000 0.000000 0.000000 0.000000 0.000000 0.034828
#
#
# Mechanical properties :
#
#
# Convention : Reuss Voigt Hill
#
# Bulk Modulus (GPa) = 39.93511 45.15486 42.54498
# Shear Modulus (GPa) = 23.76225 25.53310 24.64768
#
# Velocity S-wave (km/s) = 3.42658 3.55197 3.48984
# Velocity P-wave (km/s) = 5.94879 6.25571 6.10418
#
# Compressibility (1/GPa) = 0.02504062
#
# Stress axis : x y z
#
# Youngs Moduli (GPa) = 90.65047 76.81178 49.44119
#
# Poissons Ratio (x) = 0.26922 0.20167
# Poissons Ratio (y) = 0.31772 0.10056
# Poissons Ratio (z) = 0.36976 0.15623
#
# Static dielectric constant tensor:
#      x y z
#    x 3.727520 0.000000 0.000000 
#    y 0.000000 3.954840 0.000000 
#    z 0.000000 0.000000 3.386320 
# 
# 
# High freq. dielectric constant tensor:
#      x y z
#    x 1.797110 0.000000 0.000000 
#    y 0.000000 1.790020 0.000000 
#    z 0.000000 0.000000 1.766380 
# 
# From -- ./inp_files/10710.got.cif
#   From: 2010.03.12/outbox.cif.g09.slc.cpg/sg55_6_cif.got.tgz:10710.got - 2010.04.16 15:19:21.
