data_PCOD8225210
_publ_section_title
;
Structure prediction by ZEFSAII (Michael W. Deem and Ramdas Pophale) SiO2 
 PCOD8225210
Probable space group: P B A M
;
_chemical_formula_sum "Si O2"
_cell_formula_units_Z 48
_cell_length_a 13.294691
_cell_length_b 17.882226
_cell_length_c 9.926861
_cell_angle_alpha 90.000000
_cell_angle_beta 90.000000
_cell_angle_gamma 90.000000
_cell_volume 2359.998722
_symmetry_space_group_name_H-M "P B A M"
_symmetry_group_IT_number 55
_symmetry_cell_setting 'orthorhombic'
loop_
_space_group_symop_operation_xyz
x,y,z
-x,-y,z
1/2+x,1/2-y,-z
1/2-x,1/2+y,-z
-x,-y,-z
x,y,-z
1/2-x,1/2+y,z
1/2+x,1/2-y,z
loop_
_atom_site_type_symbol
_atom_site_label
_atom_site_fract_x
_atom_site_fract_y
_atom_site_fract_z
Si Si1 0.193030 0.489846 0.342339
Si Si2 0.244927 0.327562 0.655231
Si Si3 0.414692 0.274253 0.152225
Si Si4 0.094581 0.036290 0.650198
Si Si5 0.166615 0.617014 0.151525
Si Si6 0.870173 0.813348 0.755265
O O1 0.176018 0.510398 0.500000
O O2 0.177175 0.401777 0.314215
O O3 0.304491 0.505057 0.285032
O O4 0.130966 0.549149 0.251261
O O5 0.281256 0.328977 0.500000
O O6 0.344921 0.323393 0.747628
O O7 0.170547 0.258862 0.678625
O O8 0.404322 0.186822 0.190236
O O9 0.532769 0.293676 0.155472
O O10 0.375322 0.288094 0.000000
O O11 0.093396 0.004044 0.500000
O O12 0.091495 0.126141 0.646833
O O13 0.000000 0.000000 0.729902
O O14 0.281937 0.646907 0.159489
O O15 0.147444 0.588848 0.000000
#
# Coordination Sequence:
#
# PCOD8225210 Si02
#       6
#     8   8   8   8   8   8
#     4   9  18  33  51  73 104 139 176 221 269 317
#     4  10  21  36  56  82 109 141 183 226 270 323
#     4  10  21  36  55  80 110 143 179 222 272 325
#     4   9  16  27  46  73 103 133 165 208 264 318
#     4   9  19  35  54  76 103 138 180 222 267 322
#     4  10  19  33  54  78 108 140 176 220 269 318
#
# _framework density 20.338994
#
# number of rings (size 3 to 8) (size 9 to 14) (size 15 to 20)
#    0.000    2.500    0.000    2.000    0.000    8.000 
#    0.000    0.833    0.000    9.500    0.000    0.000 
#    0.000    0.000    0.000    0.000    0.000    0.000 
#
# Total GULP energy -594633.977802 kJ/mol
# GULP energy per Si atom -12388.207871 kJ/mol
# Density = 2.029270 g / cm^3
# Si number density = 20.338994 Si / 1000 Ang^3
#
#
#
# Elastic Constant Matrix: (Units=GPa)
#
#
# Indices 1 2 3 4 5 6 
#
# 1 42.9943 14.7672 -0.4616 0.0000 0.0000 0.0000
# 2 14.7672 133.5966 39.1154 0.0000 0.0000 0.0000
# 3 -0.4616 39.1154 86.2930 0.0000 0.0000 0.0000
# 4 0.0000 0.0000 0.0000 27.5484 0.0000 0.0000
# 5 0.0000 0.0000 0.0000 0.0000 17.6960 0.0000
# 6 0.0000 0.0000 0.0000 0.0000 0.0000 25.4736
#
#
#
# Elastic Compliance Matrix: (Units=1/GPa)
#
#
# Indices 1 2 3 4 5 6 
#
# 1 0.024357 -0.003148 0.001557 0.000000 0.000000 0.000000
# 2 -0.003148 0.009038 -0.004113 0.000000 0.000000 0.000000
# 3 0.001557 -0.004113 0.013461 0.000000 0.000000 0.000000
# 4 0.000000 0.000000 0.000000 0.036300 0.000000 0.000000
# 5 0.000000 0.000000 0.000000 0.000000 0.056510 0.000000
# 6 0.000000 0.000000 0.000000 0.000000 0.000000 0.039256
#
#
# Mechanical properties :
#
#
# Convention : Reuss Voigt Hill
#
# Bulk Modulus (GPa) = 28.21103 41.08066 34.64585
# Shear Modulus (GPa) = 24.73455 28.10780 26.42118
#
# Velocity S-wave (km/s) = 3.49107 3.72151 3.60813
# Velocity P-wave (km/s) = 5.49096 6.22158 5.86765
#
# Compressibility (1/GPa) = 0.03544712
#
# Stress axis : x y z
#
# Youngs Moduli (GPa) = 41.05601 110.64902 74.28691
#
# Poissons Ratio (x) = 0.34835 -0.11569
# Poissons Ratio (y) = 0.12926 0.30558
# Poissons Ratio (z) = -0.06394 0.45515
#
# Static dielectric constant tensor:
#      x y z
#    x 3.630740 0.000000 0.000000 
#    y 0.000000 4.054670 0.000000 
#    z 0.000000 0.000000 3.470340 
# 
# 
# High freq. dielectric constant tensor:
#      x y z
#    x 1.773040 0.000000 0.000000 
#    y 0.000000 1.807440 0.000000 
#    z 0.000000 0.000000 1.773990 
# 
# From -- ./inp_files/14131.got.cif
#   From: 2010.03.12/outbox.cif.g09.slc.cpg/sg55_8_cif.got.tgz:14131.got - 2010.04.16 15:19:21.
