data_PCOD8225082
_publ_section_title
;
Structure prediction by ZEFSAII (Michael W. Deem and Ramdas Pophale) SiO2 
 PCOD8225082
Probable space group: P B A M
;
_chemical_formula_sum "Si O2"
_cell_formula_units_Z 40
_cell_length_a 9.418041
_cell_length_b 28.910782
_cell_length_c 7.737248
_cell_angle_alpha 90.000000
_cell_angle_beta 90.000000
_cell_angle_gamma 90.000000
_cell_volume 2106.720557
_symmetry_space_group_name_H-M "P B A M"
_symmetry_group_IT_number 55
_symmetry_cell_setting 'orthorhombic'
loop_
_space_group_symop_operation_xyz
x,y,z
-x,-y,z
1/2+x,1/2-y,-z
1/2-x,1/2+y,-z
-x,-y,-z
x,y,-z
1/2-x,1/2+y,z
1/2+x,1/2-y,z
loop_
_atom_site_type_symbol
_atom_site_label
_atom_site_fract_x
_atom_site_fract_y
_atom_site_fract_z
Si Si1 0.909370 0.796963 0.000000
Si Si2 0.404656 0.959320 0.699284
Si Si3 0.394105 0.118600 0.192273
Si Si4 0.413790 0.632194 0.303222
Si Si5 0.588160 0.543279 0.294659
Si Si6 0.414900 0.204502 0.000000
O O1 0.943447 0.825696 0.826831
O O2 0.748299 0.780797 0.000000
O O3 0.996641 0.750390 0.000000
O O4 0.384043 0.971319 0.500000
O O5 0.481136 0.909965 0.718053
O O6 0.247979 0.957634 0.784230
O O7 0.500000 0.000000 0.785781
O O8 0.249830 0.115366 0.301784
O O9 0.361419 0.098667 0.000000
O O10 0.444512 0.172430 0.170624
O O11 0.451400 0.647068 0.500000
O O12 0.512542 0.590490 0.237668
O O13 0.500000 0.500000 0.218652
O O14 0.592214 0.540394 0.500000
#
# Coordination Sequence:
#
# PCOD8225082 Si02
#       6
#     4   8   8   8   8   4
#     4  10  20  40  57  82 111 140 185 226 278 342
#     4  10  19  32  53  80 112 150 189 232 277 326
#     4   9  19  36  54  80 107 144 187 224 275 331
#     4  10  19  36  60  81 110 147 183 230 275 327
#     4   9  18  32  51  79 111 147 188 225 273 330
#     4   8  20  36  57  74 107 142 169 230 280 318
#
# _framework density 18.986857000000001
#
# number of rings (size 3 to 8) (size 9 to 14) (size 15 to 20)
#    0.600    2.000    1.000    1.800    0.000    5.200 
#    1.800    5.500    0.000    0.000    0.000    0.000 
#    0.000    0.000    0.000    0.000    0.000    0.000 
#
# Total GULP energy -495705.992108 kJ/mol
# GULP energy per Si atom -12392.649803 kJ/mol
# Density = 1.894364 g / cm^3
# Si number density = 18.986857 Si / 1000 Ang^3
#
#
#
# Elastic Constant Matrix: (Units=GPa)
#
#
# Indices 1 2 3 4 5 6 
#
# 1 152.2938 109.2227 14.3801 0.0000 0.0000 0.0000
# 2 109.2227 154.7780 25.7026 0.0000 0.0000 0.0000
# 3 14.3801 25.7026 49.2615 0.0000 0.0000 0.0000
# 4 0.0000 0.0000 0.0000 18.9102 0.0000 0.0000
# 5 0.0000 0.0000 0.0000 0.0000 9.2275 0.0000
# 6 0.0000 0.0000 0.0000 0.0000 0.0000 44.9603
#
#
#
# Elastic Compliance Matrix: (Units=1/GPa)
#
#
# Indices 1 2 3 4 5 6 
#
# 1 0.013350 -0.009606 0.001115 0.000000 0.000000 0.000000
# 2 -0.009606 0.013986 -0.004493 0.000000 0.000000 0.000000
# 3 0.001115 -0.004493 0.022319 0.000000 0.000000 0.000000
# 4 0.000000 0.000000 0.000000 0.052882 0.000000 0.000000
# 5 0.000000 0.000000 0.000000 0.000000 0.108372 0.000000
# 6 0.000000 0.000000 0.000000 0.000000 0.000000 0.022242
#
#
# Mechanical properties :
#
#
# Convention : Reuss Voigt Hill
#
# Bulk Modulus (GPa) = 42.21852 72.77157 57.49505
# Shear Modulus (GPa) = 18.72561 28.42146 23.57353
#
# Velocity S-wave (km/s) = 3.14385 3.87318 3.52742
# Velocity P-wave (km/s) = 5.95503 7.64281 6.85109
#
# Compressibility (1/GPa) = 0.02368629
#
# Stress axis : x y z
#
# Youngs Moduli (GPa) = 74.90449 71.50129 44.80561
#
# Poissons Ratio (x) = 0.68685 -0.04995
# Poissons Ratio (y) = 0.71954 0.20131
# Poissons Ratio (z) = -0.08351 0.32126
#
# Static dielectric constant tensor:
#      x y z
#    x 3.610110 0.000000 0.000000 
#    y 0.000000 3.319440 0.000000 
#    z 0.000000 0.000000 3.192690 
# 
# 
# High freq. dielectric constant tensor:
#      x y z
#    x 1.742350 0.000000 0.000000 
#    y 0.000000 1.726570 0.000000 
#    z 0.000000 0.000000 1.718440 
# 
# From -- ./inp_files/2636.got.cif
#   From: 2010.03.12/outbox.cif.g09.slc.cpg/sg55_2_cif.got.tgz:2636.got - 2010.04.16 15:19:21.
