data_PCOD8225219
_publ_section_title
;
Structure prediction by ZEFSAII (Michael W. Deem and Ramdas Pophale) SiO2 
 PCOD8225219
Probable space group: P B A M
;
_chemical_formula_sum "Si O2"
_cell_formula_units_Z 64
_cell_length_a 24.577622
_cell_length_b 15.111748
_cell_length_c 9.375464
_cell_angle_alpha 90.000000
_cell_angle_beta 90.000000
_cell_angle_gamma 90.000000
_cell_volume 3482.148867
_symmetry_space_group_name_H-M "P B A M"
_symmetry_group_IT_number 55
_symmetry_cell_setting 'orthorhombic'
loop_
_space_group_symop_operation_xyz
x,y,z
-x,-y,z
1/2+x,1/2-y,-z
1/2-x,1/2+y,-z
-x,-y,-z
x,y,-z
1/2-x,1/2+y,z
1/2+x,1/2-y,z
loop_
_atom_site_type_symbol
_atom_site_label
_atom_site_fract_x
_atom_site_fract_y
_atom_site_fract_z
Si Si1 0.615225 0.493283 0.667551
Si Si2 0.434370 0.324401 0.668902
Si Si3 0.239898 0.769342 0.164987
Si Si4 0.149830 0.674903 0.330642
Si Si5 0.137761 0.307627 0.833901
Si Si6 0.943428 0.813678 0.332084
Si Si7 0.216760 0.970422 0.162134
Si Si8 0.840112 0.492721 0.835691
O O1 0.624414 0.500558 0.500000
O O2 0.587239 0.582076 0.729701
O O3 0.577569 0.410949 0.708724
O O4 0.674120 0.479661 0.737671
O O5 0.435983 0.331309 0.500000
O O6 0.395329 0.245372 0.719408
O O7 0.495023 0.305958 0.725854
O O8 0.208247 0.701415 0.265877
O O9 0.303638 0.765833 0.204173
O O10 0.216643 0.866450 0.195620
O O11 0.231101 0.742899 0.000000
O O12 0.154538 0.668651 0.500000
O O13 0.132108 0.580187 0.266127
O O14 0.091488 0.261472 0.742989
O O15 0.136626 0.411344 0.794729
O O16 0.125611 0.294127 0.000000
O O17 0.939737 0.797116 0.500000
O O18 0.275715 0.010570 0.191908
O O19 0.199406 0.987821 0.000000
O O20 0.853229 0.470932 0.000000
#
# Coordination Sequence:
#
# PCOD8225219 Si02
#       8
#     8   8   8   8   8   8   8   8
#     4  10  19  33  54  80 110 145 180 219 266 321
#     4   9  19  37  55  77 112 148 181 222 273 326
#     4   9  18  34  54  76 107 145 177 214 270 327
#     4  11  21  33  55  84 110 141 183 228 270 316
#     4   9  20  39  58  77 107 145 184 226 274 324
#     4  10  21  36  57  80 106 145 188 226 274 326
#     4   9  18  33  53  77 107 144 179 213 262 322
#     4   9  20  38  56  76 109 150 182 218 275 333
#
# _framework density 18.379455
#
# number of rings (size 3 to 8) (size 9 to 14) (size 15 to 20)
#    0.000    2.500    1.250    2.250    1.750    3.500 
#    0.000    5.000    0.000    5.250    0.000    0.000 
#    0.000    0.000    0.000    0.000    0.000    0.000 
#
# Total GULP energy -793658.720811 kJ/mol
# GULP energy per Si atom -12400.917513 kJ/mol
# Density = 1.833762 g / cm^3
# Si number density = 18.379455 Si / 1000 Ang^3
#
#
#
# Elastic Constant Matrix: (Units=GPa)
#
#
# Indices 1 2 3 4 5 6 
#
# 1 78.7578 53.9536 28.5207 0.0000 0.0000 0.0000
# 2 53.9536 121.5254 50.3122 0.0000 0.0000 0.0000
# 3 28.5207 50.3122 47.0465 0.0000 0.0000 0.0000
# 4 0.0000 0.0000 0.0000 32.8849 0.0000 0.0000
# 5 0.0000 0.0000 0.0000 0.0000 12.0940 0.0000
# 6 0.0000 0.0000 0.0000 0.0000 0.0000 24.1211
#
#
#
# Elastic Compliance Matrix: (Units=1/GPa)
#
#
# Indices 1 2 3 4 5 6 
#
# 1 0.018746 -0.006492 -0.004421 0.000000 0.000000 0.000000
# 2 -0.006492 0.017015 -0.014260 0.000000 0.000000 0.000000
# 3 -0.004421 -0.014260 0.039186 0.000000 0.000000 0.000000
# 4 0.000000 0.000000 0.000000 0.030409 0.000000 0.000000
# 5 0.000000 0.000000 0.000000 0.000000 0.082686 0.000000
# 6 0.000000 0.000000 0.000000 0.000000 0.000000 0.041458
#
#
# Mechanical properties :
#
#
# Convention : Reuss Voigt Hill
#
# Bulk Modulus (GPa) = 40.65178 56.98919 48.82049
# Shear Modulus (GPa) = 17.35831 21.45619 19.40725
#
# Velocity S-wave (km/s) = 3.07651 3.42043 3.25302
# Velocity P-wave (km/s) = 5.89796 6.83180 6.38198
#
# Compressibility (1/GPa) = 0.02459917
#
# Stress axis : x y z
#
# Youngs Moduli (GPa) = 53.34556 58.77214 25.51928
#
# Poissons Ratio (x) = 0.38155 0.11283
# Poissons Ratio (y) = 0.34632 0.36391
# Poissons Ratio (z) = 0.23586 0.83811
#
# Static dielectric constant tensor:
#      x y z
#    x 3.354120 0.000000 0.000000 
#    y 0.000000 3.439030 0.000000 
#    z 0.000000 0.000000 3.146560 
# 
# 
# High freq. dielectric constant tensor:
#      x y z
#    x 1.703520 0.000000 0.000000 
#    y 0.000000 1.720900 0.000000 
#    z 0.000000 0.000000 1.694150 
# 
# From -- ./inp_files/6697.got.cif
#   From: 2010.03.12/outbox.cif.g09.slc.cpg/sg55_4_cif.got.tgz:6697.got - 2010.04.16 15:19:21.
