data_PCOD8225843
_publ_section_title
;
Structure prediction by ZEFSAII (Michael W. Deem and Ramdas Pophale) SiO2 
 PCOD8225843
Probable space group: P B A M
;
_chemical_formula_sum "Si O2"
_cell_formula_units_Z 64
_cell_length_a 10.065005
_cell_length_b 28.334780
_cell_length_c 13.759153
_cell_angle_alpha 90.000000
_cell_angle_beta 90.000000
_cell_angle_gamma 90.000000
_cell_volume 3923.968749
_symmetry_space_group_name_H-M "P B A M"
_symmetry_group_IT_number 55
_symmetry_cell_setting 'orthorhombic'
loop_
_space_group_symop_operation_xyz
x,y,z
-x,-y,z
1/2+x,1/2-y,-z
1/2-x,1/2+y,-z
-x,-y,-z
x,y,-z
1/2-x,1/2+y,z
1/2+x,1/2-y,z
loop_
_atom_site_type_symbol
_atom_site_label
_atom_site_fract_x
_atom_site_fract_y
_atom_site_fract_z
Si Si1 0.472155 0.799185 0.386193
Si Si2 0.650888 0.449735 0.615145
Si Si3 0.979373 0.773544 0.892345
Si Si4 0.732802 0.195971 0.892395
Si Si5 0.348857 0.445815 0.384983
Si Si6 0.959549 0.804164 0.691281
Si Si7 0.230193 0.852370 0.303213
Si Si8 0.716821 0.857588 0.613099
O O1 0.492818 0.789547 0.500000
O O2 0.490130 0.750380 0.329878
O O3 0.329730 0.821797 0.367724
O O4 0.582093 0.835689 0.343403
O O5 0.646790 0.445978 0.500000
O O6 0.703334 0.501800 0.644259
O O7 0.500736 0.441350 0.651606
O O8 0.746319 0.408810 0.659714
O O9 0.905207 0.723701 0.877250
O O10 0.930389 0.808973 0.807477
O O11 0.140255 0.768387 0.882064
O O12 0.943471 0.793677 0.000000
O O13 0.742717 0.155111 0.811520
O O14 0.734611 0.172600 0.000000
O O15 0.335942 0.437276 0.500000
O O16 0.258192 0.407824 0.328326
O O17 0.834855 0.820642 0.629553
O O18 0.085143 0.835644 0.662606
O O19 0.695313 0.864921 0.500000
#
# Coordination Sequence:
#
# PCOD8225843 Si02
#       8
#     8   8   8   8   8   8   8   8
#     4  11  23  32  41  65 101 130 154 187 226 278
#     4   8  15  30  49  68  88 119 162 201 234 269
#     4   9  18  31  46  65  89 120 156 194 229 264
#     4   9  18  32  49  68  92 121 156 197 236 276
#     4   9  16  28  49  72  92 116 157 204 234 270
#     4  11  20  31  48  66  91 130 162 188 223 273
#     4  11  20  31  48  71  94 121 158 196 233 280
#     4  10  20  33  47  66  96 130 161 193 230 273
#
# _framework density 16.310016999999998
#
# number of rings (size 3 to 8) (size 9 to 14) (size 15 to 20)
#    0.000    2.250    2.500    2.250    1.750    2.500 
#    0.000    0.625    0.000    3.000    0.000    2.625 
#    0.000    1.000    0.000    0.000    0.000    0.000 
#
# Total GULP energy -793158.817762 kJ/mol
# GULP energy per Si atom -12393.106528 kJ/mol
# Density = 1.627290 g / cm^3
# Si number density = 16.310017 Si / 1000 Ang^3
#
#
#
# Elastic Constant Matrix: (Units=GPa)
#
#
# Indices 1 2 3 4 5 6 
#
# 1 48.2417 24.0825 23.8702 0.0000 0.0000 0.0000
# 2 24.0825 107.5443 30.3613 0.0000 0.0000 0.0000
# 3 23.8702 30.3613 42.6598 0.0000 0.0000 0.0000
# 4 0.0000 0.0000 0.0000 13.6081 0.0000 0.0000
# 5 0.0000 0.0000 0.0000 0.0000 17.4064 0.0000
# 6 0.0000 0.0000 0.0000 0.0000 0.0000 19.0357
#
#
#
# Elastic Compliance Matrix: (Units=1/GPa)
#
#
# Indices 1 2 3 4 5 6 
#
# 1 0.029155 -0.002407 -0.014601 0.000000 0.000000 0.000000
# 2 -0.002407 0.011835 -0.007077 0.000000 0.000000 0.000000
# 3 -0.014601 -0.007077 0.036648 0.000000 0.000000 0.000000
# 4 0.000000 0.000000 0.000000 0.073486 0.000000 0.000000
# 5 0.000000 0.000000 0.000000 0.000000 0.057450 0.000000
# 6 0.000000 0.000000 0.000000 0.000000 0.000000 0.052533
#
#
# Mechanical properties :
#
#
# Convention : Reuss Voigt Hill
#
# Bulk Modulus (GPa) = 33.93311 39.45262 36.69287
# Shear Modulus (GPa) = 15.66919 18.01881 16.84400
#
# Velocity S-wave (km/s) = 3.10289 3.32741 3.21711
# Velocity P-wave (km/s) = 5.80409 6.24531 6.02874
#
# Compressibility (1/GPa) = 0.02946974
#
# Stress axis : x y z
#
# Youngs Moduli (GPa) = 34.29964 84.49334 27.28697
#
# Poissons Ratio (x) = 0.20335 0.39841
# Poissons Ratio (y) = 0.08255 0.19310
# Poissons Ratio (z) = 0.50080 0.59793
#
# Static dielectric constant tensor:
#      x y z
#    x 3.150020 0.000000 0.000000 
#    y 0.000000 3.170760 0.000000 
#    z 0.000000 0.000000 3.061510 
# 
# 
# High freq. dielectric constant tensor:
#      x y z
#    x 1.626000 0.000000 0.000000 
#    y 0.000000 1.606790 0.000000 
#    z 0.000000 0.000000 1.607690 
# 
# From -- ./inp_files/17951.got.cif
#   From: 2010.03.12/outbox.cif.g09.slc.cpg/sg55_9_cif.got.tgz:17951.got - 2010.04.16 15:19:21.
