data_PCOD8225852
_publ_section_title
;
Structure prediction by ZEFSAII (Michael W. Deem and Ramdas Pophale) SiO2 
 PCOD8225852
Probable space group: P B A M
;
_chemical_formula_sum "Si O2"
_cell_formula_units_Z 56
_cell_length_a 15.082276
_cell_length_b 16.477858
_cell_length_c 12.707289
_cell_angle_alpha 90.000000
_cell_angle_beta 90.000000
_cell_angle_gamma 90.000000
_cell_volume 3158.061237
_symmetry_space_group_name_H-M "P B A M"
_symmetry_group_IT_number 55
_symmetry_cell_setting 'orthorhombic'
loop_
_space_group_symop_operation_xyz
x,y,z
-x,-y,z
1/2+x,1/2-y,-z
1/2-x,1/2+y,-z
-x,-y,-z
x,y,-z
1/2-x,1/2+y,z
1/2+x,1/2-y,z
loop_
_atom_site_type_symbol
_atom_site_label
_atom_site_fract_x
_atom_site_fract_y
_atom_site_fract_z
Si Si1 0.048202 0.317357 0.122039
Si Si2 0.685375 0.282599 0.760465
Si Si3 0.212826 0.371817 0.373988
Si Si4 0.099260 0.911214 0.382105
Si Si5 0.900781 0.522633 0.230500
Si Si6 0.908563 0.898025 0.618837
Si Si7 0.647750 0.856599 0.873728
O O1 0.104017 0.241162 0.164276
O O2 0.094774 0.402865 0.148820
O O3 0.945660 0.315674 0.160123
O O4 0.049043 0.307341 0.000000
O O5 0.684558 0.214388 0.670468
O O6 0.664368 0.364521 0.698085
O O7 0.775278 0.299234 0.825478
O O8 0.207620 0.373770 0.500000
O O9 0.312052 0.380617 0.325589
O O10 0.152863 0.446496 0.332637
O O11 0.102002 0.877470 0.500000
O O12 0.007097 0.877551 0.334067
O O13 0.102578 0.007084 0.383574
O O14 0.850389 0.447538 0.174698
O O15 0.000000 0.500000 0.267443
O O16 0.896791 0.863561 0.500000
O O17 0.659066 0.862321 0.000000
#
# Coordination Sequence:
#
# PCOD8225852 Si02
#       7
#     8   8   8   8   8   8   8
#     4   9  19  35  52  74 103 134 170 215 262 312
#     4  11  21  30  51  77 106 135 167 207 265 311
#     4  10  20  33  49  75 110 139 166 206 253 311
#     4   8  16  31  50  67  91 134 176 203 236 285
#     4   9  18  34  56  78 100 134 176 214 263 307
#     4   9  17  31  50  72  97 130 173 212 241 292
#     4  10  20  35  55  77 100 131 177 223 260 305
#
# _framework density 17.732398
#
# number of rings (size 3 to 8) (size 9 to 14) (size 15 to 20)
#    0.000    2.571    0.000    3.000    2.000    2.000 
#    0.000    0.714    0.000    0.857    0.000    5.000 
#    0.000    0.000    0.000    0.000    0.000    0.000 
#
# Total GULP energy -693803.324353 kJ/mol
# GULP energy per Si atom -12389.345078 kJ/mol
# Density = 1.769204 g / cm^3
# Si number density = 17.732398 Si / 1000 Ang^3
#
#
#
# Elastic Constant Matrix: (Units=GPa)
#
#
# Indices 1 2 3 4 5 6 
#
# 1 95.8233 23.9006 37.5193 0.0000 0.0000 0.0000
# 2 23.9006 43.7194 24.5041 0.0000 0.0000 0.0000
# 3 37.5193 24.5041 63.1481 0.0000 0.0000 0.0000
# 4 0.0000 0.0000 0.0000 14.3974 0.0000 0.0000
# 5 0.0000 0.0000 0.0000 0.0000 30.2478 0.0000
# 6 0.0000 0.0000 0.0000 0.0000 0.0000 29.0701
#
#
#
# Elastic Compliance Matrix: (Units=1/GPa)
#
#
# Indices 1 2 3 4 5 6 
#
# 1 0.014088 -0.003847 -0.006878 0.000000 0.000000 0.000000
# 2 -0.003847 0.030281 -0.009465 0.000000 0.000000 0.000000
# 3 -0.006878 -0.009465 0.023595 0.000000 0.000000 0.000000
# 4 0.000000 0.000000 0.000000 0.069457 0.000000 0.000000
# 5 0.000000 0.000000 0.000000 0.000000 0.033060 0.000000
# 6 0.000000 0.000000 0.000000 0.000000 0.000000 0.034400
#
#
# Mechanical properties :
#
#
# Convention : Reuss Voigt Hill
#
# Bulk Modulus (GPa) = 36.25093 41.61543 38.93318
# Shear Modulus (GPa) = 19.64982 22.52750 21.08866
#
# Velocity S-wave (km/s) = 3.33247 3.56815 3.45232
# Velocity P-wave (km/s) = 5.94095 6.36358 6.15589
#
# Compressibility (1/GPa) = 0.02758550
#
# Stress axis : x y z
#
# Youngs Moduli (GPa) = 70.98045 33.02396 42.38208
#
# Poissons Ratio (x) = 0.12704 0.29150
# Poissons Ratio (y) = 0.27306 0.40113
# Poissons Ratio (z) = 0.48819 0.31256
#
# Static dielectric constant tensor:
#      x y z
#    x 1.401580 0.000000 0.000000 
#    y 0.000000 3.137360 0.000000 
#    z 0.000000 0.000000 3.145370 
# 
# 
# High freq. dielectric constant tensor:
#      x y z
#    x 1.700130 0.000000 0.000000 
#    y 0.000000 1.677330 0.000000 
#    z 0.000000 0.000000 1.668540 
# 
# From -- ./inp_files/14241.got.cif
#   From: 2010.03.12/outbox.cif.g09.slc.cpg/sg55_8_cif.got.tgz:14241.got - 2010.04.16 15:19:21.
