data_PCOD8225257
_publ_section_title
;
Structure prediction by ZEFSAII (Michael W. Deem and Ramdas Pophale) SiO2 
 PCOD8225257
Probable space group: P B A M
;
_chemical_formula_sum "Si O2"
_cell_formula_units_Z 64
_cell_length_a 19.634290
_cell_length_b 19.879371
_cell_length_c 9.029613
_cell_angle_alpha 90.000000
_cell_angle_beta 90.000000
_cell_angle_gamma 90.000000
_cell_volume 3524.414484
_symmetry_space_group_name_H-M "P B A M"
_symmetry_group_IT_number 55
_symmetry_cell_setting 'orthorhombic'
loop_
_space_group_symop_operation_xyz
x,y,z
-x,-y,z
1/2+x,1/2-y,-z
1/2-x,1/2+y,-z
-x,-y,-z
x,y,-z
1/2-x,1/2+y,z
1/2+x,1/2-y,z
loop_
_atom_site_type_symbol
_atom_site_label
_atom_site_fract_x
_atom_site_fract_y
_atom_site_fract_z
Si Si1 0.905160 0.297756 0.325710
Si Si2 0.435406 0.335621 0.826625
Si Si3 0.927895 0.528120 0.826268
Si Si4 0.442615 0.836066 0.326788
Si Si5 0.331184 0.576854 0.829813
Si Si6 0.173882 0.588811 0.171355
Si Si7 0.413299 0.705902 0.830430
Si Si8 0.426285 0.473535 0.674567
O O1 0.898818 0.286922 0.500000
O O2 0.894848 0.226286 0.246123
O O3 0.846711 0.347528 0.269731
O O4 0.978262 0.328889 0.281221
O O5 0.515394 0.329616 0.790855
O O6 0.408398 0.404050 0.755029
O O7 0.419738 0.336626 0.000000
O O8 0.911012 0.597941 0.746820
O O9 0.869677 0.475805 0.780688
O O10 0.000000 0.500000 0.768840
O O11 0.930058 0.541886 0.000000
O O12 0.432550 0.841764 0.500000
O O13 0.401043 0.771287 0.269976
O O14 0.251638 0.570716 0.797252
O O15 0.353586 0.653268 0.796058
O O16 0.369414 0.526886 0.720398
O O17 0.348930 0.558504 0.000000
O O18 0.160757 0.606981 0.000000
O O19 0.413072 0.729827 0.000000
O O20 0.500000 0.500000 0.726526
O O21 0.424071 0.461951 0.500000
#
# Coordination Sequence:
#
# PCOD8225257 Si02
#       8
#     8   8   8   8   8   8   8   8
#     4  10  20  34  53  80 113 143 177 225 280 332
#     4  10  19  33  57  83 108 139 182 229 272 322
#     4  10  19  33  55  81 109 143 182 227 274 324
#     4  10  20  32  52  81 110 139 176 225 273 323
#     4  10  21  38  58  81 110 147 190 231 275 332
#     4  10  21  37  57  81 110 147 190 230 275 333
#     4   9  18  33  54  79 106 138 176 223 272 322
#     4  11  22  35  55  84 116 147 182 229 282 336
#
# _framework density 18.159044000000002
#
# number of rings (size 3 to 8) (size 9 to 14) (size 15 to 20)
#    0.000    2.000    2.500    1.500    0.000    3.750 
#    0.000    1.250    0.000    3.000    0.000    0.000 
#    0.000    0.000    0.000    0.000    0.000    0.000 
#
# Total GULP energy -793939.594861 kJ/mol
# GULP energy per Si atom -12405.306170 kJ/mol
# Density = 1.811771 g / cm^3
# Si number density = 18.159044 Si / 1000 Ang^3
#
#
#
# Elastic Constant Matrix: (Units=GPa)
#
#
# Indices 1 2 3 4 5 6 
#
# 1 84.9776 49.5374 32.4789 0.0000 0.0000 0.0000
# 2 49.5374 137.9198 59.7089 0.0000 0.0000 0.0000
# 3 32.4789 59.7089 75.8538 0.0000 0.0000 0.0000
# 4 0.0000 0.0000 0.0000 27.5563 0.0000 0.0000
# 5 0.0000 0.0000 0.0000 0.0000 18.9577 0.0000
# 6 0.0000 0.0000 0.0000 0.0000 0.0000 23.7561
#
#
#
# Elastic Compliance Matrix: (Units=1/GPa)
#
#
# Indices 1 2 3 4 5 6 
#
# 1 0.015444 -0.004072 -0.003408 0.000000 0.000000 0.000000
# 2 -0.004072 0.012072 -0.007759 0.000000 0.000000 0.000000
# 3 -0.003408 -0.007759 0.020750 0.000000 0.000000 0.000000
# 4 0.000000 0.000000 0.000000 0.036289 0.000000 0.000000
# 5 0.000000 0.000000 0.000000 0.000000 0.052749 0.000000
# 6 0.000000 0.000000 0.000000 0.000000 0.000000 0.042094
#
#
# Mechanical properties :
#
#
# Convention : Reuss Voigt Hill
#
# Bulk Modulus (GPa) = 56.21501 64.68906 60.45203
# Shear Modulus (GPa) = 23.16895 24.52242 23.84569
#
# Velocity S-wave (km/s) = 3.57584 3.67880 3.62768
# Velocity P-wave (km/s) = 6.93347 7.33115 7.13508
#
# Compressibility (1/GPa) = 0.01778884
#
# Stress axis : x y z
#
# Youngs Moduli (GPa) = 64.75074 82.83423 48.19255
#
# Poissons Ratio (x) = 0.33729 0.16422
# Poissons Ratio (y) = 0.26365 0.37394
# Poissons Ratio (z) = 0.22064 0.64274
#
# Static dielectric constant tensor:
#      x y z
#    x 3.122070 0.000000 0.000000 
#    y 0.000000 3.380640 0.000000 
#    z 0.000000 0.000000 3.291080 
# 
# 
# High freq. dielectric constant tensor:
#      x y z
#    x 1.674540 0.000000 0.000000 
#    y 0.000000 1.714610 0.000000 
#    z 0.000000 0.000000 1.706110 
# 
# From -- ./inp_files/8987.got.cif
#   From: 2010.03.12/outbox.cif.g09.slc.cpg/sg55_5_cif.got.tgz:8987.got - 2010.04.16 15:19:21.
