data_PCOD8225849
_publ_section_title
;
Structure prediction by ZEFSAII (Michael W. Deem and Ramdas Pophale) SiO2 
 PCOD8225849
Probable space group: P B A M
;
_chemical_formula_sum "Si O2"
_cell_formula_units_Z 64
_cell_length_a 11.325830
_cell_length_b 17.916679
_cell_length_c 16.353909
_cell_angle_alpha 90.000000
_cell_angle_beta 90.000000
_cell_angle_gamma 90.000000
_cell_volume 3318.555829
_symmetry_space_group_name_H-M "P B A M"
_symmetry_group_IT_number 55
_symmetry_cell_setting 'orthorhombic'
loop_
_space_group_symop_operation_xyz
x,y,z
-x,-y,z
1/2+x,1/2-y,-z
1/2-x,1/2+y,-z
-x,-y,-z
x,y,-z
1/2-x,1/2+y,z
1/2+x,1/2-y,z
loop_
_atom_site_type_symbol
_atom_site_label
_atom_site_fract_x
_atom_site_fract_y
_atom_site_fract_z
Si Si1 0.239326 0.412202 0.818598
Si Si2 0.238725 0.165924 0.315640
Si Si3 0.557844 0.289632 0.809120
Si Si4 0.013604 0.358790 0.096655
Si Si5 0.479106 0.585089 0.596149
Si Si6 0.524518 0.581520 0.095181
Si Si7 0.347714 0.313298 0.313148
Si Si8 0.615027 0.949530 0.775412
O O1 0.127676 0.403981 0.876847
O O2 0.345089 0.395193 0.879488
O O3 0.248006 0.357927 0.739566
O O4 0.229039 0.497471 0.787693
O O5 0.183619 0.207816 0.236089
O O6 0.138290 0.122400 0.365771
O O7 0.294462 0.239872 0.359616
O O8 0.345428 0.108621 0.295320
O O9 0.537835 0.224888 0.874415
O O10 0.566425 0.365588 0.859782
O O11 0.451604 0.285205 0.745437
O O12 0.906353 0.400346 0.142789
O O13 0.989880 0.361112 0.000000
O O14 0.500000 0.500000 0.627237
O O15 0.461192 0.586660 0.500000
O O16 0.596197 0.631199 0.619930
O O17 0.500000 0.500000 0.129378
O O18 0.505062 0.588114 0.000000
O O19 0.500000 0.000000 0.749142
#
# Coordination Sequence:
#
# PCOD8225849 Si02
#       8
#     8   8   8   8   8   8   8   8
#     4  10  20  35  53  77 104 152 196 237 292 343
#     4  11  20  38  64  86 114 156 194 235 286 347
#     4  10  20  35  53  79 109 145 195 241 292 340
#     4  11  21  34  51  77 114 150 192 248 295 333
#     4  10  23  41  63  94 126 151 182 232 295 357
#     4  10  20  33  48  70 103 141 192 251 296 345
#     4  10  20  36  63  84 113 147 195 239 277 343
#     4  10  22  35  55  81 114 151 201 241 287 342
#
# _framework density 19.285496999999999
#
# number of rings (size 3 to 8) (size 9 to 14) (size 15 to 20)
#    0.000    1.750    2.500    2.250    0.000    6.750 
#    0.000    2.500    0.000    0.375    0.000    0.000 
#    0.000    0.000    0.000    0.000    0.000    0.000 
#
# Total GULP energy -793043.697265 kJ/mol
# GULP energy per Si atom -12391.307770 kJ/mol
# Density = 1.924160 g / cm^3
# Si number density = 19.285497 Si / 1000 Ang^3
#
#
#
# Elastic Constant Matrix: (Units=GPa)
#
#
# Indices 1 2 3 4 5 6 
#
# 1 58.4349 37.2835 23.1688 0.0000 0.0000 0.0000
# 2 37.2835 146.4901 42.5764 0.0000 0.0000 0.0000
# 3 23.1688 42.5764 63.5270 0.0000 0.0000 0.0000
# 4 0.0000 0.0000 0.0000 28.1144 0.0000 0.0000
# 5 0.0000 0.0000 0.0000 0.0000 16.8493 0.0000
# 6 0.0000 0.0000 0.0000 0.0000 0.0000 34.9222
#
#
#
# Elastic Compliance Matrix: (Units=1/GPa)
#
#
# Indices 1 2 3 4 5 6 
#
# 1 0.021752 -0.004012 -0.005244 0.000000 0.000000 0.000000
# 2 -0.004012 0.009218 -0.004715 0.000000 0.000000 0.000000
# 3 -0.005244 -0.004715 0.020814 0.000000 0.000000 0.000000
# 4 0.000000 0.000000 0.000000 0.035569 0.000000 0.000000
# 5 0.000000 0.000000 0.000000 0.000000 0.059350 0.000000
# 6 0.000000 0.000000 0.000000 0.000000 0.000000 0.028635
#
#
# Mechanical properties :
#
#
# Convention : Reuss Voigt Hill
#
# Bulk Modulus (GPa) = 41.94308 52.72328 47.33318
# Shear Modulus (GPa) = 23.67128 27.00541 25.33835
#
# Velocity S-wave (km/s) = 3.50725 3.74611 3.62865
# Velocity P-wave (km/s) = 6.18035 6.79035 6.49252
#
# Compressibility (1/GPa) = 0.02384183
#
# Stress axis : x y z
#
# Youngs Moduli (GPa) = 45.97249 108.48611 48.04507
#
# Poissons Ratio (x) = 0.43524 0.25196
# Poissons Ratio (y) = 0.18444 0.22652
# Poissons Ratio (z) = 0.24110 0.51147
#
# Static dielectric constant tensor:
#      x y z
#    x 3.530660 0.000000 0.000000 
#    y 0.000000 4.031100 0.000000 
#    z 0.000000 0.000000 3.179630 
# 
# 
# High freq. dielectric constant tensor:
#      x y z
#    x 1.749550 0.000000 0.000000 
#    y 0.000000 1.778980 0.000000 
#    z 0.000000 0.000000 1.713210 
# 
# From -- ./inp_files/21358.got.cif
#   From: 2010.03.12/outbox.cif.g09.slc.cpg/sg55_11_cif.got.tgz:21358.got - 2010.04.16 15:19:21.
