data_PCOD8225180
_publ_section_title
;
Structure prediction by ZEFSAII (Michael W. Deem and Ramdas Pophale) SiO2 
 PCOD8225180
Probable space group: P B A M
;
_chemical_formula_sum "Si O2"
_cell_formula_units_Z 64
_cell_length_a 12.595062
_cell_length_b 27.823569
_cell_length_c 9.633095
_cell_angle_alpha 90.000000
_cell_angle_beta 90.000000
_cell_angle_gamma 90.000000
_cell_volume 3375.817733
_symmetry_space_group_name_H-M "P B A M"
_symmetry_group_IT_number 55
_symmetry_cell_setting 'orthorhombic'
loop_
_space_group_symop_operation_xyz
x,y,z
-x,-y,z
1/2+x,1/2-y,-z
1/2-x,1/2+y,-z
-x,-y,-z
x,y,-z
1/2-x,1/2+y,z
1/2+x,1/2-y,z
loop_
_atom_site_type_symbol
_atom_site_label
_atom_site_fract_x
_atom_site_fract_y
_atom_site_fract_z
Si Si1 0.443067 0.050310 0.656124
Si Si2 0.738818 0.914385 0.162029
Si Si3 0.668239 0.614785 0.160971
Si Si4 0.530148 0.446763 0.164240
Si Si5 0.849736 0.597238 0.348555
Si Si6 0.747303 0.720004 0.156916
Si Si7 0.877228 0.317072 0.157766
Si Si8 0.424743 0.801375 0.652859
O O1 0.407256 0.064643 0.500000
O O2 0.342546 0.051241 0.756825
O O3 0.534022 0.085900 0.713390
O O4 0.500000 0.000000 0.658558
O O5 0.856039 0.927555 0.218857
O O6 0.709531 0.858509 0.191729
O O7 0.729390 0.926416 0.000000
O O8 0.554994 0.593802 0.210733
O O9 0.756541 0.583308 0.242615
O O10 0.679489 0.671734 0.193321
O O11 0.686361 0.603781 0.000000
O O12 0.500000 0.500000 0.223929
O O13 0.534116 0.450138 0.000000
O O14 0.833511 0.571526 0.500000
O O15 0.846860 0.653960 0.370503
O O16 0.671142 0.764709 0.175755
O O17 0.851122 0.732187 0.250566
O O18 0.789949 0.715608 0.000000
O O19 0.970241 0.318996 0.269449
O O20 0.919771 0.324105 0.000000
O O21 0.451218 0.778734 0.500000
#
# Coordination Sequence:
#
# PCOD8225180 Si02
#       8
#     8   8   8   8   8   8   8   8
#     4  10  21  36  54  78 110 144 175 218 278 334
#     4  10  21  36  56  82 109 141 183 228 274 329
#     4   9  18  33  55  78 102 138 181 223 267 320
#     4   9  19  35  53  76 108 142 178 224 275 321
#     4   9  18  33  52  75 105 138 170 215 270 318
#     4   9  19  34  53  79 107 140 182 227 274 328
#     4  10  20  34  54  79 108 141 178 225 278 332
#     4  10  19  33  53  76 106 141 175 219 273 328
#
# _framework density 18.958369999999999
#
# number of rings (size 3 to 8) (size 9 to 14) (size 15 to 20)
#    0.000    2.500    1.250    0.375    1.750    2.750 
#    0.000    4.375    0.000    0.750    0.000    0.000 
#    0.000    0.000    0.000    0.000    0.000    0.000 
#
# Total GULP energy -792967.826841 kJ/mol
# GULP energy per Si atom -12390.122294 kJ/mol
# Density = 1.891522 g / cm^3
# Si number density = 18.958370 Si / 1000 Ang^3
#
#
#
# Elastic Constant Matrix: (Units=GPa)
#
#
# Indices 1 2 3 4 5 6 
#
# 1 152.9619 45.1874 71.0345 0.0000 0.0000 0.0000
# 2 45.1874 76.5619 32.1447 0.0000 0.0000 0.0000
# 3 71.0345 32.1447 83.9886 0.0000 0.0000 0.0000
# 4 0.0000 0.0000 0.0000 17.9177 0.0000 0.0000
# 5 0.0000 0.0000 0.0000 0.0000 67.5462 0.0000
# 6 0.0000 0.0000 0.0000 0.0000 0.0000 20.7859
#
#
#
# Elastic Compliance Matrix: (Units=1/GPa)
#
#
# Indices 1 2 3 4 5 6 
#
# 1 0.011384 -0.003189 -0.008408 0.000000 0.000000 0.000000
# 2 -0.003189 0.016455 -0.003601 0.000000 0.000000 0.000000
# 3 -0.008408 -0.003601 0.020396 0.000000 0.000000 0.000000
# 4 0.000000 0.000000 0.000000 0.055811 0.000000 0.000000
# 5 0.000000 0.000000 0.000000 0.000000 0.014805 0.000000
# 6 0.000000 0.000000 0.000000 0.000000 0.000000 0.048110
#
#
# Mechanical properties :
#
#
# Convention : Reuss Voigt Hill
#
# Bulk Modulus (GPa) = 56.05425 67.80507 61.92966
# Shear Modulus (GPa) = 24.59400 32.25968 28.42684
#
# Velocity S-wave (km/s) = 3.60566 4.12953 3.87645
# Velocity P-wave (km/s) = 6.85315 7.65377 7.26450
#
# Compressibility (1/GPa) = 0.01783986
#
# Stress axis : x y z
#
# Youngs Moduli (GPa) = 87.84113 60.77084 49.03042
#
# Poissons Ratio (x) = 0.19380 0.41224
# Poissons Ratio (y) = 0.28012 0.17655
# Poissons Ratio (z) = 0.73855 0.21882
#
# Static dielectric constant tensor:
#      x y z
#    x 2.488940 0.000000 0.000000 
#    y 0.000000 2.558480 0.000000 
#    z 0.000000 0.000000 3.648150 
# 
# 
# High freq. dielectric constant tensor:
#      x y z
#    x 1.732510 0.000000 0.000000 
#    y 0.000000 1.728300 0.000000 
#    z 0.000000 0.000000 1.723090 
# 
# From -- ./inp_files/4626.got.cif
#   From: 2010.03.12/outbox.cif.g09.slc.cpg/sg55_3_cif.got.tgz:4626.got - 2010.04.16 15:19:21.
