data_PCOD8225585
_publ_section_title
;
Structure prediction by ZEFSAII (Michael W. Deem and Ramdas Pophale) SiO2 
 PCOD8225585
Probable space group: P B A M
;
_chemical_formula_sum "Si O2"
_cell_formula_units_Z 56
_cell_length_a 14.577915
_cell_length_b 21.945932
_cell_length_c 8.907756
_cell_angle_alpha 90.000000
_cell_angle_beta 90.000000
_cell_angle_gamma 90.000000
_cell_volume 2849.822134
_symmetry_space_group_name_H-M "P B A M"
_symmetry_group_IT_number 55
_symmetry_cell_setting 'orthorhombic'
loop_
_space_group_symop_operation_xyz
x,y,z
-x,-y,z
1/2+x,1/2-y,-z
1/2-x,1/2+y,-z
-x,-y,-z
x,y,-z
1/2-x,1/2+y,z
1/2+x,1/2-y,z
loop_
_atom_site_type_symbol
_atom_site_label
_atom_site_fract_x
_atom_site_fract_y
_atom_site_fract_z
Si Si1 0.121412 0.608374 0.827906
Si Si2 0.691158 0.772172 0.326296
Si Si3 0.920181 0.043481 0.178700
Si Si4 0.101878 0.252594 0.673806
Si Si5 0.560889 0.681090 0.177723
Si Si6 0.088275 0.380574 0.827682
Si Si7 0.281282 0.987612 0.178530
O O1 0.142841 0.666913 0.729270
O O2 0.178132 0.551356 0.761575
O O3 0.014138 0.592895 0.815725
O O4 0.149059 0.622163 0.000000
O O5 0.668206 0.763430 0.500000
O O6 0.799045 0.776469 0.295971
O O7 0.651055 0.714115 0.239608
O O8 0.938481 0.111768 0.236219
O O9 0.822120 0.020004 0.239622
O O10 0.920063 0.041637 0.000000
O O11 0.000000 0.000000 0.243731
O O12 0.074339 0.249769 0.500000
O O13 0.100762 0.322043 0.724941
O O14 0.031133 0.213231 0.768354
O O15 0.564351 0.684272 0.000000
O O16 0.157023 0.431650 0.763373
O O17 0.111436 0.363361 0.000000
O O18 0.285242 0.987984 0.000000
#
# Coordination Sequence:
#
# PCOD8225585 Si02
#       7
#     8   8   8   8   8   8   8
#     4  10  20  34  58  88 115 148 193 243 296 347
#     4  11  24  40  58  83 121 161 198 242 294 353
#     4   9  19  34  54  85 120 151 188 237 293 344
#     4  11  24  39  58  84 119 161 196 237 295 351
#     4  11  22  38  63  91 117 152 197 247 294 345
#     4  10  19  35  58  88 117 148 193 243 294 349
#     4   9  18  33  55  83 119 154 186 239 297 348
#
# _framework density 19.650348999999999
#
# number of rings (size 3 to 8) (size 9 to 14) (size 15 to 20)
#    0.000    1.857    1.429    2.571    2.000    5.143 
#    0.000    0.714    0.000    5.143    0.000    0.000 
#    0.000    0.000    0.000    0.000    0.000    0.000 
#
# Total GULP energy -694604.586400 kJ/mol
# GULP energy per Si atom -12403.653329 kJ/mol
# Density = 1.960562 g / cm^3
# Si number density = 19.650349 Si / 1000 Ang^3
#
#
#
# Elastic Constant Matrix: (Units=GPa)
#
#
# Indices 1 2 3 4 5 6 
#
# 1 102.5464 41.5970 23.0465 0.0000 0.0000 0.0000
# 2 41.5970 128.6163 21.5428 0.0000 0.0000 0.0000
# 3 23.0465 21.5428 52.5360 0.0000 0.0000 0.0000
# 4 0.0000 0.0000 0.0000 0.5429 0.0000 0.0000
# 5 0.0000 0.0000 0.0000 0.0000 20.0839 0.0000
# 6 0.0000 0.0000 0.0000 0.0000 0.0000 29.4456
#
#
#
# Elastic Compliance Matrix: (Units=1/GPa)
#
#
# Indices 1 2 3 4 5 6 
#
# 1 0.011932 -0.003202 -0.003921 0.000000 0.000000 0.000000
# 2 -0.003202 0.009208 -0.002371 0.000000 0.000000 0.000000
# 3 -0.003921 -0.002371 0.021727 0.000000 0.000000 0.000000
# 4 0.000000 0.000000 0.000000 1.841969 0.000000 0.000000
# 5 0.000000 0.000000 0.000000 0.000000 0.049791 0.000000
# 6 0.000000 0.000000 0.000000 0.000000 0.000000 0.033961
#
#
# Mechanical properties :
#
#
# Convention : Reuss Voigt Hill
#
# Bulk Modulus (GPa) = 41.87974 50.67460 46.27717
# Shear Modulus (GPa) = 2.50559 23.18197 12.84378
#
# Velocity S-wave (km/s) = 1.13042 3.43844 2.55937
# Velocity P-wave (km/s) = 4.80235 6.45042 5.68641
#
# Compressibility (1/GPa) = 0.02387789
#
# Stress axis : x y z
#
# Youngs Moduli (GPa) = 83.80903 108.60291 46.02572
#
# Poissons Ratio (x) = 0.34777 0.18048
# Poissons Ratio (y) = 0.26837 0.10913
# Poissons Ratio (z) = 0.32863 0.25750
#
# Static dielectric constant tensor:
#      x y z
#    x 3.853350 0.000000 0.000000 
#    y 0.000000 3.717030 0.000000 
#    z 0.000000 0.000000 3.286880 
# 
# 
# High freq. dielectric constant tensor:
#      x y z
#    x 1.783370 0.000000 0.000000 
#    y 0.000000 1.775000 0.000000 
#    z 0.000000 0.000000 1.733350 
# 
# From -- ./inp_files/6176.got.cif
#   From: 2010.03.12/outbox.cif.g09.slc.cpg/sg55_4_cif.got.tgz:6176.got - 2010.04.16 15:19:21.
