data_PCOD8225733
_publ_section_title
;
Structure prediction by ZEFSAII (Michael W. Deem and Ramdas Pophale) SiO2 
 PCOD8225733
Probable space group: P B A M
;
_chemical_formula_sum "Si O2"
_cell_formula_units_Z 64
_cell_length_a 30.543056
_cell_length_b 11.773994
_cell_length_c 8.816471
_cell_angle_alpha 90.000000
_cell_angle_beta 90.000000
_cell_angle_gamma 90.000000
_cell_volume 3170.524269
_symmetry_space_group_name_H-M "P B A M"
_symmetry_group_IT_number 55
_symmetry_cell_setting 'orthorhombic'
loop_
_space_group_symop_operation_xyz
x,y,z
-x,-y,z
1/2+x,1/2-y,-z
1/2-x,1/2+y,-z
-x,-y,-z
x,y,-z
1/2-x,1/2+y,z
1/2+x,1/2-y,z
loop_
_atom_site_type_symbol
_atom_site_label
_atom_site_fract_x
_atom_site_fract_y
_atom_site_fract_z
Si Si1 0.170160 0.490568 0.328726
Si Si2 0.946901 0.733740 0.822980
Si Si3 0.069524 0.496717 0.328535
Si Si4 0.121722 0.868807 0.680176
Si Si5 0.035955 0.742566 0.322815
Si Si6 0.296901 0.771135 0.177052
Si Si7 0.131053 0.125922 0.320385
Si Si8 0.705715 0.767421 0.322778
O O1 0.178870 0.446527 0.500000
O O2 0.120203 0.529698 0.310612
O O3 0.180573 0.391388 0.211572
O O4 0.200126 0.598847 0.292583
O O5 0.944664 0.600066 0.787898
O O6 0.907534 0.794999 0.738224
O O7 0.992913 0.784738 0.765481
O O8 0.941875 0.755253 0.000000
O O9 0.059869 0.454118 0.500000
O O10 0.041807 0.608767 0.292385
O O11 0.121258 0.860562 0.500000
O O12 0.077291 0.811998 0.743441
O O13 0.163836 0.800733 0.741356
O O14 0.123987 0.997986 0.738015
O O15 0.029722 0.768100 0.500000
O O16 0.322376 0.669732 0.260432
O O17 0.247197 0.776466 0.231223
O O18 0.299238 0.747837 0.000000
O O19 0.131723 0.131711 0.500000
O O20 0.712649 0.741910 0.500000
#
# Coordination Sequence:
#
# PCOD8225733 Si02
#       8
#     8   8   8   8   8   8   8   8
#     4  10  20  38  67  94 120 157 204 253 301 355
#     4  12  25  39  57  88 126 164 200 243 300 365
#     4  10  19  36  64  93 120 154 198 249 302 354
#     4   9  20  40  67  93 115 148 204 259 301 348
#     4  10  20  39  65  93 120 152 198 254 304 356
#     4  12  26  41  59  91 130 165 200 245 304 369
#     4  11  23  42  65  88 116 158 208 256 300 353
#     4  10  21  41  67  95 121 155 203 255 303 357
#
# _framework density 20.185936999999999
#
# number of rings (size 3 to 8) (size 9 to 14) (size 15 to 20)
#    0.000    1.500    2.500    3.000    1.750    3.000 
#    0.000    5.000    0.000    0.000    0.000    0.000 
#    0.000    0.000    0.000    0.000    0.000    0.000 
#
# Total GULP energy -793920.430919 kJ/mol
# GULP energy per Si atom -12405.006733 kJ/mol
# Density = 2.013999 g / cm^3
# Si number density = 20.185937 Si / 1000 Ang^3
#
#
#
# Elastic Constant Matrix: (Units=GPa)
#
#
# Indices 1 2 3 4 5 6 
#
# 1 107.0086 17.3285 25.6957 0.0000 0.0000 0.0000
# 2 17.3285 74.4993 25.9943 0.0000 0.0000 0.0000
# 3 25.6957 25.9943 77.3099 0.0000 0.0000 0.0000
# 4 0.0000 0.0000 0.0000 2.5973 0.0000 0.0000
# 5 0.0000 0.0000 0.0000 0.0000 4.6501 0.0000
# 6 0.0000 0.0000 0.0000 0.0000 0.0000 27.6621
#
#
#
# Elastic Compliance Matrix: (Units=1/GPa)
#
#
# Indices 1 2 3 4 5 6 
#
# 1 0.010275 -0.001358 -0.002959 0.000000 0.000000 0.000000
# 2 -0.001358 0.015386 -0.004722 0.000000 0.000000 0.000000
# 3 -0.002959 -0.004722 0.015506 0.000000 0.000000 0.000000
# 4 0.000000 0.000000 0.000000 0.385021 0.000000 0.000000
# 5 0.000000 0.000000 0.000000 0.000000 0.215050 0.000000
# 6 0.000000 0.000000 0.000000 0.000000 0.000000 0.036150
#
#
# Mechanical properties :
#
#
# Convention : Reuss Voigt Hill
#
# Bulk Modulus (GPa) = 43.30755 44.09497 43.70126
# Shear Modulus (GPa) = 7.11072 19.63518 13.37295
#
# Velocity S-wave (km/s) = 1.87890 3.12222 2.57668
# Velocity P-wave (km/s) = 5.11937 5.90674 5.52709
#
# Compressibility (1/GPa) = 0.02309066
#
# Stress axis : x y z
#
# Youngs Moduli (GPa) = 97.31999 64.99243 64.49057
#
# Poissons Ratio (x) = 0.08824 0.19081
# Poissons Ratio (y) = 0.13213 0.30454
# Poissons Ratio (z) = 0.28795 0.30691
#
# Static dielectric constant tensor:
#      x y z
#    x 3.855040 0.000000 0.000000 
#    y 0.000000 3.687540 0.000000 
#    z 0.000000 0.000000 3.375110 
# 
# 
# High freq. dielectric constant tensor:
#      x y z
#    x 1.806720 0.000000 0.000000 
#    y 0.000000 1.788360 0.000000 
#    z 0.000000 0.000000 1.760110 
# 
# From -- ./inp_files/4480.got.cif
#   From: 2010.03.12/outbox.cif.g09.slc.cpg/sg55_3_cif.got.tgz:4480.got - 2010.04.16 15:19:21.
