data_PCOD8225099
_publ_section_title
;
Structure prediction by ZEFSAII (Michael W. Deem and Ramdas Pophale) SiO2 
 PCOD8225099
Probable space group: P B A M
;
_chemical_formula_sum "Si O2"
_cell_formula_units_Z 56
_cell_length_a 22.007783
_cell_length_b 8.738768
_cell_length_c 14.291779
_cell_angle_alpha 90.000000
_cell_angle_beta 90.000000
_cell_angle_gamma 90.000000
_cell_volume 2748.607940
_symmetry_space_group_name_H-M "P B A M"
_symmetry_group_IT_number 55
_symmetry_cell_setting 'orthorhombic'
loop_
_space_group_symop_operation_xyz
x,y,z
-x,-y,z
1/2+x,1/2-y,-z
1/2-x,1/2+y,-z
-x,-y,-z
x,y,-z
1/2-x,1/2+y,z
1/2+x,1/2-y,z
loop_
_atom_site_type_symbol
_atom_site_label
_atom_site_fract_x
_atom_site_fract_y
_atom_site_fract_z
Si Si1 0.780961 0.923568 0.893124
Si Si2 0.668902 0.670423 0.608212
Si Si3 0.857877 0.478102 0.106383
Si Si4 0.932251 0.003029 0.282905
Si Si5 0.390872 0.362190 0.103679
Si Si6 0.709885 0.007731 0.609088
Si Si7 0.854747 0.719645 0.754110
O O1 0.803578 0.800563 0.817785
O O2 0.713071 0.969675 0.865906
O O3 0.822044 0.075683 0.884519
O O4 0.783296 0.857123 0.000000
O O5 0.651883 0.677775 0.500000
O O6 0.607999 0.628057 0.662984
O O7 0.718723 0.538471 0.628336
O O8 0.694154 0.835578 0.641576
O O9 0.890425 0.317540 0.122758
O O10 0.888630 0.600005 0.176400
O O11 0.866160 0.533643 0.000000
O O12 0.936183 0.055200 0.174897
O O13 0.903941 0.834601 0.288970
O O14 0.000000 0.000000 0.325492
O O15 0.415237 0.398691 0.000000
O O16 0.695208 0.033887 0.500000
O O17 0.671986 0.132077 0.665457
#
# Coordination Sequence:
#
# PCOD8225099 Si02
#       7
#     8   8   8   8   8   8   8
#     4   9  18  31  50  83 122 157 189 229 287 356
#     4  10  22  42  65  90 120 153 190 240 298 356
#     4  10  19  32  53  85 120 152 192 242 298 360
#     4  11  25  42  59  83 115 160 211 249 288 344
#     4   9  19  35  54  78 113 157 199 240 289 344
#     4  10  22  39  64  97 127 151 185 236 300 369
#     4  11  22  33  59  86 120 160 192 241 296 351
#
# _framework density 20.373951000000002
#
# number of rings (size 3 to 8) (size 9 to 14) (size 15 to 20)
#    0.000    2.000    0.000    3.000    8.000    5.143 
#    0.000    2.857    0.000    3.429    0.000    0.000 
#    0.000    0.000    0.000    0.000    0.000    0.000 
#
# Total GULP energy -694469.101758 kJ/mol
# GULP energy per Si atom -12401.233960 kJ/mol
# Density = 2.032758 g / cm^3
# Si number density = 20.373951 Si / 1000 Ang^3
#
#
#
# Elastic Constant Matrix: (Units=GPa)
#
#
# Indices 1 2 3 4 5 6 
#
# 1 92.5411 43.8134 40.1636 0.0000 0.0000 0.0000
# 2 43.8134 112.9592 48.7632 0.0000 0.0000 0.0000
# 3 40.1636 48.7632 75.0735 0.0000 0.0000 0.0000
# 4 0.0000 0.0000 0.0000 38.6278 0.0000 0.0000
# 5 0.0000 0.0000 0.0000 0.0000 15.5281 0.0000
# 6 0.0000 0.0000 0.0000 0.0000 0.0000 16.4974
#
#
#
# Elastic Compliance Matrix: (Units=1/GPa)
#
#
# Indices 1 2 3 4 5 6 
#
# 1 0.014883 -0.003246 -0.005854 0.000000 0.000000 0.000000
# 2 -0.003246 0.013010 -0.006714 0.000000 0.000000 0.000000
# 3 -0.005854 -0.006714 0.020813 0.000000 0.000000 0.000000
# 4 0.000000 0.000000 0.000000 0.025888 0.000000 0.000000
# 5 0.000000 0.000000 0.000000 0.000000 0.064399 0.000000
# 6 0.000000 0.000000 0.000000 0.000000 0.000000 0.060616
#
#
# Mechanical properties :
#
#
# Convention : Reuss Voigt Hill
#
# Bulk Modulus (GPa) = 58.55256 60.67269 59.61263
# Shear Modulus (GPa) = 21.10317 23.98623 22.54470
#
# Velocity S-wave (km/s) = 3.22186 3.43490 3.33009
# Velocity P-wave (km/s) = 6.53007 6.75097 6.64144
#
# Compressibility (1/GPa) = 0.01707867
#
# Stress axis : x y z
#
# Youngs Moduli (GPa) = 67.18862 76.86359 48.04588
#
# Poissons Ratio (x) = 0.24947 0.28128
# Poissons Ratio (y) = 0.21807 0.32259
# Poissons Ratio (z) = 0.39335 0.51608
#
# Static dielectric constant tensor:
#      x y z
#    x 3.172420 0.000000 0.000000 
#    y 0.000000 3.855470 0.000000 
#    z 0.000000 0.000000 3.856030 
# 
# 
# High freq. dielectric constant tensor:
#      x y z
#    x 1.741710 0.000000 0.000000 
#    y 0.000000 1.809350 0.000000 
#    z 0.000000 0.000000 1.809530 
# 
# From -- ./inp_files/19756.got.cif
#   From: 2010.03.12/outbox.cif.g09.slc.cpg/sg55_10_cif.got.tgz:19756.got - 2010.04.16 15:19:21.
