data_PCOD8225200
_publ_section_title
;
Structure prediction by ZEFSAII (Michael W. Deem and Ramdas Pophale) SiO2 
 PCOD8225200
Probable space group: P B A M
;
_chemical_formula_sum "Si O2"
_cell_formula_units_Z 48
_cell_length_a 25.186880
_cell_length_b 10.594622
_cell_length_c 9.332420
_cell_angle_alpha 90.000000
_cell_angle_beta 90.000000
_cell_angle_gamma 90.000000
_cell_volume 2490.314029
_symmetry_space_group_name_H-M "P B A M"
_symmetry_group_IT_number 55
_symmetry_cell_setting 'orthorhombic'
loop_
_space_group_symop_operation_xyz
x,y,z
-x,-y,z
1/2+x,1/2-y,-z
1/2-x,1/2+y,-z
-x,-y,-z
x,y,-z
1/2-x,1/2+y,z
1/2+x,1/2-y,z
loop_
_atom_site_type_symbol
_atom_site_label
_atom_site_fract_x
_atom_site_fract_y
_atom_site_fract_z
Si Si1 0.295638 0.350998 0.170445
Si Si2 0.558770 0.009563 0.835998
Si Si3 0.509064 0.356962 0.656114
Si Si4 0.604088 0.267210 0.829887
Si Si5 0.717348 0.365254 0.829622
Si Si6 0.410425 0.264824 0.164662
O O1 0.260942 0.233721 0.232296
O O2 0.275142 0.489170 0.225314
O O3 0.356463 0.330251 0.219819
O O4 0.292636 0.347480 0.000000
O O5 0.593249 0.124862 0.773287
O O6 0.500000 0.000000 0.761822
O O7 0.595078 0.886189 0.820625
O O8 0.547643 0.044117 0.000000
O O9 0.500000 0.500000 0.623066
O O10 0.516446 0.289203 0.500000
O O11 0.560397 0.353645 0.756219
O O12 0.459116 0.300238 0.737130
O O13 0.661129 0.312758 0.775161
O O14 0.599883 0.282808 0.000000
O O15 0.720115 0.365635 0.000000
O O16 0.422273 0.302995 0.000000
#
# Coordination Sequence:
#
# PCOD8225200 Si02
#       6
#     8   8   8   8   8   8
#     4   9  18  30  47  75 106 136 172 216 264 310
#     4   9  16  28  48  78 104 132 172 211 254 307
#     4  11  23  36  51  74 104 137 174 219 270 315
#     4  10  19  33  54  77 106 138 174 213 258 317
#     4   9  18  30  47  75 106 136 172 216 264 310
#     4  10  19  33  54  77 106 138 174 213 258 317
#
# _framework density 19.274677000000001
#
# number of rings (size 3 to 8) (size 9 to 14) (size 15 to 20)
#    0.000    2.333    1.667    1.500    2.333    2.667 
#    0.000    1.667    0.000    1.000    0.000    0.000 
#    0.000    0.000    0.000    0.000    0.000    0.000 
#
# Total GULP energy -594795.594505 kJ/mol
# GULP energy per Si atom -12391.574886 kJ/mol
# Density = 1.923081 g / cm^3
# Si number density = 19.274677 Si / 1000 Ang^3
#
#
#
# Elastic Constant Matrix: (Units=GPa)
#
#
# Indices 1 2 3 4 5 6 
#
# 1 101.4142 24.4033 22.6371 0.0000 0.0000 0.0000
# 2 24.4033 93.7666 6.5486 0.0000 0.0000 0.0000
# 3 22.6371 6.5486 37.8291 0.0000 0.0000 0.0000
# 4 0.0000 0.0000 0.0000 9.1128 0.0000 0.0000
# 5 0.0000 0.0000 0.0000 0.0000 -1.0367 0.0000
# 6 0.0000 0.0000 0.0000 0.0000 0.0000 40.1592
#
#
#
# Elastic Compliance Matrix: (Units=1/GPa)
#
#
# Indices 1 2 3 4 5 6 
#
# 1 0.011999 -0.002653 -0.006721 0.000000 0.000000 0.000000
# 2 -0.002653 0.011382 -0.000383 0.000000 0.000000 0.000000
# 3 -0.006721 -0.000383 0.030523 0.000000 0.000000 0.000000
# 4 0.000000 0.000000 0.000000 0.109736 0.000000 0.000000
# 5 0.000000 0.000000 0.000000 0.000000 -0.964620 0.000000
# 6 0.000000 0.000000 0.000000 0.000000 0.000000 0.024901
#
#
# Mechanical properties :
#
#
# Convention : Reuss Voigt Hill
#
# Bulk Modulus (GPa) = 29.07820 37.79866 33.43843
# Shear Modulus (GPa) = -6.71050 21.60846 7.44898
#
# Velocity S-wave (km/s) = -1.86790 3.35189 1.96800
# Velocity P-wave (km/s) = 3.23526 5.88501 4.74869
#
# Compressibility (1/GPa) = 0.03439003
#
# Stress axis : x y z
#
# Youngs Moduli (GPa) = 83.33811 87.85738 32.76238
#
# Poissons Ratio (x) = 0.23313 0.22020
# Poissons Ratio (y) = 0.22114 0.01253
# Poissons Ratio (z) = 0.56012 0.03361
#
# Static dielectric constant tensor:
#      x y z
#    x 3.629250 0.000000 0.000000 
#    y 0.000000 5.440710 0.000000 
#    z 0.000000 0.000000 3.049730 
# 
# 
# High freq. dielectric constant tensor:
#      x y z
#    x 1.751730 0.000000 0.000000 
#    y 0.000000 1.767820 0.000000 
#    z 0.000000 0.000000 1.680710 
# 
# From -- ./inp_files/9436.got.cif
#   From: 2010.03.12/outbox.cif.g09.slc.cpg/sg55_5_cif.got.tgz:9436.got - 2010.04.16 15:19:21.
