data_PCOD8225773
_publ_section_title
;
Structure prediction by ZEFSAII (Michael W. Deem and Ramdas Pophale) SiO2 
 PCOD8225773
Probable space group: P B A M
;
_chemical_formula_sum "Si O2"
_cell_formula_units_Z 40
_cell_length_a 12.409081
_cell_length_b 18.653868
_cell_length_c 8.895737
_cell_angle_alpha 90.000000
_cell_angle_beta 90.000000
_cell_angle_gamma 90.000000
_cell_volume 2059.161707
_symmetry_space_group_name_H-M "P B A M"
_symmetry_group_IT_number 55
_symmetry_cell_setting 'orthorhombic'
loop_
_space_group_symop_operation_xyz
x,y,z
-x,-y,z
1/2+x,1/2-y,-z
1/2-x,1/2+y,-z
-x,-y,-z
x,y,-z
1/2-x,1/2+y,z
1/2+x,1/2-y,z
loop_
_atom_site_type_symbol
_atom_site_label
_atom_site_fract_x
_atom_site_fract_y
_atom_site_fract_z
Si Si1 0.210747 0.454550 0.177728
Si Si2 0.106694 0.186983 0.677212
Si Si3 0.808680 0.385101 0.176012
Si Si4 0.449633 0.423003 0.825120
Si Si5 0.452424 0.834581 0.175905
O O1 0.193031 0.534295 0.243284
O O2 0.325928 0.423347 0.228584
O O3 0.116685 0.402304 0.234877
O O4 0.205926 0.460910 0.000000
O O5 0.113085 0.184819 0.500000
O O6 0.220374 0.162409 0.742318
O O7 0.084552 0.266924 0.730276
O O8 0.009926 0.136608 0.730152
O O9 0.923343 0.349891 0.208725
O O10 0.780963 0.385920 0.000000
O O11 0.500000 0.500000 0.791423
O O12 0.460861 0.403100 0.000000
O O13 0.431245 0.820506 0.000000
#
# Coordination Sequence:
#
# PCOD8225773 Si02
#       5
#     8   8   8   8   8
#     4   9  18  36  65  96 118 143 193 256 305 348
#     4  12  26  40  56  85 128 165 200 242 295 360
#     4  10  20  40  66  90 117 151 200 252 301 357
#     4  10  19  37  64  90 117 152 199 249 296 350
#     4  10  22  39  64  92 119 155 200 250 303 355
#
# _framework density 19.425379
#
# number of rings (size 3 to 8) (size 9 to 14) (size 15 to 20)
#    0.000    1.800    2.000    2.400    2.800    3.600 
#    0.000    1.000    0.000    2.400    0.000    0.000 
#    0.000    0.000    0.000    0.000    0.000    0.000 
#
# Total GULP energy -496127.489557 kJ/mol
# GULP energy per Si atom -12403.187239 kJ/mol
# Density = 1.938117 g / cm^3
# Si number density = 19.425379 Si / 1000 Ang^3
#
#
#
# Elastic Constant Matrix: (Units=GPa)
#
#
# Indices 1 2 3 4 5 6 
#
# 1 99.5550 94.4514 46.1552 0.0000 0.0000 0.0000
# 2 94.4514 143.6433 66.5382 0.0000 0.0000 0.0000
# 3 46.1552 66.5382 65.0029 0.0000 0.0000 0.0000
# 4 0.0000 0.0000 0.0000 -10.3346 0.0000 0.0000
# 5 0.0000 0.0000 0.0000 0.0000 -13.7063 0.0000
# 6 0.0000 0.0000 0.0000 0.0000 0.0000 29.5260
#
#
#
# Elastic Compliance Matrix: (Units=1/GPa)
#
#
# Indices 1 2 3 4 5 6 
#
# 1 0.026824 -0.016764 -0.001886 0.000000 0.000000 0.000000
# 2 -0.016764 0.023716 -0.012373 0.000000 0.000000 0.000000
# 3 -0.001886 -0.012373 0.029388 0.000000 0.000000 0.000000
# 4 0.000000 0.000000 0.000000 -0.096763 0.000000 0.000000
# 5 0.000000 0.000000 0.000000 0.000000 -0.072959 0.000000
# 6 0.000000 0.000000 0.000000 0.000000 0.000000 0.033868
#
#
# Mechanical properties :
#
#
# Convention : Reuss Voigt Hill
#
# Bulk Modulus (GPa) = 55.92249 80.27676 68.09963
# Shear Modulus (GPa) = 413.83441 7.83413 210.83427
#
# Velocity S-wave (km/s) = 14.61166 2.01040 10.42934
# Velocity P-wave (km/s) = 17.70644 6.84137 13.42242
#
# Compressibility (1/GPa) = 0.01788189
#
# Stress axis : x y z
#
# Youngs Moduli (GPa) = 37.28025 42.16539 34.02698
#
# Poissons Ratio (x) = 0.70686 0.06418
# Poissons Ratio (y) = 0.62497 0.42101
# Poissons Ratio (z) = 0.07032 0.52171
#
# Static dielectric constant tensor:
#      x y z
#    x 4.008610 0.000000 0.000000 
#    y 0.000000 3.826260 0.000000 
#    z 0.000000 0.000000 3.196710 
# 
# 
# High freq. dielectric constant tensor:
#      x y z
#    x 1.776280 0.000000 0.000000 
#    y 0.000000 1.770180 0.000000 
#    z 0.000000 0.000000 1.717150 
# 
# From -- ./inp_files/3595.got.cif
#   From: 2010.03.12/outbox.cif.g09.slc.cpg/sg55_2_cif.got.tgz:3595.got - 2010.04.16 15:19:21.
