data_PCOD8225887
_publ_section_title
;
Structure prediction by ZEFSAII (Michael W. Deem and Ramdas Pophale) SiO2 
 PCOD8225887
Probable space group: P B A M
;
_chemical_formula_sum "Si O2"
_cell_formula_units_Z 56
_cell_length_a 22.408262
_cell_length_b 8.724098
_cell_length_c 13.675331
_cell_angle_alpha 90.000000
_cell_angle_beta 90.000000
_cell_angle_gamma 90.000000
_cell_volume 2673.416081
_symmetry_space_group_name_H-M "P B A M"
_symmetry_group_IT_number 55
_symmetry_cell_setting 'orthorhombic'
loop_
_space_group_symop_operation_xyz
x,y,z
-x,-y,z
1/2+x,1/2-y,-z
1/2-x,1/2+y,-z
-x,-y,-z
x,y,-z
1/2-x,1/2+y,z
1/2+x,1/2-y,z
loop_
_atom_site_type_symbol
_atom_site_label
_atom_site_fract_x
_atom_site_fract_y
_atom_site_fract_z
Si Si1 0.897596 0.667193 0.889715
Si Si2 0.824466 0.677199 0.385206
Si Si3 0.066802 0.482411 0.701495
Si Si4 0.429648 0.494562 0.107973
Si Si5 0.288891 0.042330 0.111606
Si Si6 0.634835 0.736409 0.761717
Si Si7 0.720563 0.494173 0.704123
O O1 0.938038 0.569380 0.815037
O O2 0.900587 0.844440 0.859677
O O3 0.828930 0.611892 0.881916
O O4 0.922397 0.641460 0.000000
O O5 0.817093 0.691197 0.500000
O O6 0.893404 0.641113 0.358089
O O7 0.805043 0.837591 0.338301
O O8 0.783656 0.536988 0.345967
O O9 0.099479 0.645641 0.693381
O O10 0.000000 0.500000 0.657841
O O11 0.500000 0.500000 0.107439
O O12 0.413352 0.368020 0.185895
O O13 0.406103 0.450591 0.000000
O O14 0.325801 0.184560 0.154300
O O15 0.230252 0.020804 0.178350
O O16 0.269520 0.077051 0.000000
O O17 0.674933 0.634310 0.688256
#
# Coordination Sequence:
#
# PCOD8225887 Si02
#       7
#     8   8   8   8   8   8   8
#     4   9  18  35  58  88 128 176 222 263 318 381
#     4  12  25  46  71  96 125 166 218 279 337 389
#     4  11  23  43  66  94 129 170 219 273 329 394
#     4  10  20  33  51  83 128 181 232 269 306 365
#     4  10  21  37  59  91 134 176 210 256 318 392
#     4  11  22  36  61  91 131 169 216 261 321 386
#     4  12  23  44  66  98 132 166 217 264 325 401
#
# _framework density 20.946981999999998
#
# number of rings (size 3 to 8) (size 9 to 14) (size 15 to 20)
#    0.000    1.286    4.286    2.571    0.000    2.286 
#    0.000    1.429    0.000    0.857    0.000    0.000 
#    0.000    0.000    0.000    0.000    0.000    0.000 
#
# Total GULP energy -694469.371209 kJ/mol
# GULP energy per Si atom -12401.238772 kJ/mol
# Density = 2.089931 g / cm^3
# Si number density = 20.946982 Si / 1000 Ang^3
#
#
#
# Elastic Constant Matrix: (Units=GPa)
#
#
# Indices 1 2 3 4 5 6 
#
# 1 102.8537 50.0202 39.9816 0.0000 0.0000 0.0000
# 2 50.0202 121.1260 35.6283 0.0000 0.0000 0.0000
# 3 39.9816 35.6283 90.5491 0.0000 0.0000 0.0000
# 4 0.0000 0.0000 0.0000 18.7880 0.0000 0.0000
# 5 0.0000 0.0000 0.0000 0.0000 14.1013 0.0000
# 6 0.0000 0.0000 0.0000 0.0000 0.0000 28.9745
#
#
#
# Elastic Compliance Matrix: (Units=1/GPa)
#
#
# Indices 1 2 3 4 5 6 
#
# 1 0.013473 -0.004313 -0.004252 0.000000 0.000000 0.000000
# 2 -0.004313 0.010717 -0.002312 0.000000 0.000000 0.000000
# 3 -0.004252 -0.002312 0.013831 0.000000 0.000000 0.000000
# 4 0.000000 0.000000 0.000000 0.053225 0.000000 0.000000
# 5 0.000000 0.000000 0.000000 0.000000 0.070915 0.000000
# 6 0.000000 0.000000 0.000000 0.000000 0.000000 0.034513
#
#
# Mechanical properties :
#
#
# Convention : Reuss Voigt Hill
#
# Bulk Modulus (GPa) = 61.47680 62.86543 62.17112
# Shear Modulus (GPa) = 22.33619 24.96601 23.65110
#
# Velocity S-wave (km/s) = 3.26900 3.45609 3.36384
# Velocity P-wave (km/s) = 6.60764 6.78254 6.69566
#
# Compressibility (1/GPa) = 0.01626630
#
# Stress axis : x y z
#
# Youngs Moduli (GPa) = 74.22297 93.30796 72.30138
#
# Poissons Ratio (x) = 0.40245 0.30741
# Poissons Ratio (y) = 0.32013 0.16719
# Poissons Ratio (z) = 0.31558 0.21577
#
# Static dielectric constant tensor:
#      x y z
#    x 3.710610 0.000000 0.000000 
#    y 0.000000 3.933400 0.000000 
#    z 0.000000 0.000000 3.632820 
# 
# 
# High freq. dielectric constant tensor:
#      x y z
#    x 1.814880 0.000000 0.000000 
#    y 0.000000 1.833770 0.000000 
#    z 0.000000 0.000000 1.793320 
# 
# From -- ./inp_files/19729.got.cif
#   From: 2010.03.12/outbox.cif.g09.slc.cpg/sg55_10_cif.got.tgz:19729.got - 2010.04.16 15:19:21.
