data_PCOD8225993
_publ_section_title
;
Structure prediction by ZEFSAII (Michael W. Deem and Ramdas Pophale) SiO2 
 PCOD8225993
Probable space group: P B A M
;
_chemical_formula_sum "Si O2"
_cell_formula_units_Z 64
_cell_length_a 25.333122
_cell_length_b 14.870417
_cell_length_c 8.803275
_cell_angle_alpha 90.000000
_cell_angle_beta 90.000000
_cell_angle_gamma 90.000000
_cell_volume 3316.317713
_symmetry_space_group_name_H-M "P B A M"
_symmetry_group_IT_number 55
_symmetry_cell_setting 'orthorhombic'
loop_
_space_group_symop_operation_xyz
x,y,z
-x,-y,z
1/2+x,1/2-y,-z
1/2-x,1/2+y,-z
-x,-y,-z
x,y,-z
1/2-x,1/2+y,z
1/2+x,1/2-y,z
loop_
_atom_site_type_symbol
_atom_site_label
_atom_site_fract_x
_atom_site_fract_y
_atom_site_fract_z
Si Si1 0.669139 0.868685 0.174430
Si Si2 0.618444 0.707550 0.325622
Si Si3 0.421633 0.860885 0.176947
Si Si4 0.694865 0.196774 0.821080
Si Si5 0.579820 0.960568 0.324930
Si Si6 0.277513 0.621406 0.322982
Si Si7 0.487398 0.217691 0.671149
Si Si8 0.211158 0.920454 0.675783
O O1 0.638687 0.776079 0.199218
O O2 0.632063 0.951627 0.220371
O O3 0.716233 0.865675 0.292947
O O4 0.687826 0.878278 0.000000
O O5 0.626553 0.743275 0.500000
O O6 0.554773 0.700683 0.297658
O O7 0.651531 0.616631 0.300875
O O8 0.361408 0.843916 0.227965
O O9 0.460860 0.777918 0.221131
O O10 0.445566 0.946085 0.268907
O O11 0.425444 0.879017 0.000000
O O12 0.692299 0.299703 0.764916
O O13 0.743956 0.139825 0.755460
O O14 0.702312 0.197122 0.000000
O O15 0.595941 0.968434 0.500000
O O16 0.542119 0.876465 0.297742
O O17 0.290386 0.630965 0.500000
O O18 0.292288 0.521997 0.260076
O O19 0.508434 0.223514 0.500000
O O20 0.227275 0.921772 0.500000
#
# Coordination Sequence:
#
# PCOD8225993 Si02
#       8
#     8   8   8   8   8   8   8   8
#     4  11  20  31  50  78 110 145 180 220 271 327
#     4   9  18  35  56  79 107 138 178 227 272 322
#     4  11  23  36  51  76 111 146 186 232 280 337
#     4  11  24  39  55  81 116 152 187 230 280 334
#     4  10  20  34  53  78 109 146 187 229 275 331
#     4  11  22  36  56  82 111 148 190 230 279 337
#     4   9  19  34  54  78 106 143 184 228 277 333
#     4  10  21  37  60  85 110 143 184 231 281 335
#
# _framework density 19.298513
#
# number of rings (size 3 to 8) (size 9 to 14) (size 15 to 20)
#    0.000    1.750    1.250    4.500    0.000    9.000 
#    0.000    0.000    0.000    0.750    0.000    5.250 
#    0.000    0.000    0.000    0.000    0.000    0.000 
#
# Total GULP energy -793141.246199 kJ/mol
# GULP energy per Si atom -12392.831972 kJ/mol
# Density = 1.925459 g / cm^3
# Si number density = 19.298513 Si / 1000 Ang^3
#
#
#
# Elastic Constant Matrix: (Units=GPa)
#
#
# Indices 1 2 3 4 5 6 
#
# 1 49.6240 17.2944 22.1771 0.0000 0.0000 0.0000
# 2 17.2944 83.4661 32.6745 0.0000 0.0000 0.0000
# 3 22.1771 32.6745 55.6631 0.0000 0.0000 0.0000
# 4 0.0000 0.0000 0.0000 20.8251 0.0000 0.0000
# 5 0.0000 0.0000 0.0000 0.0000 27.7668 0.0000
# 6 0.0000 0.0000 0.0000 0.0000 0.0000 17.6658
#
#
#
# Elastic Compliance Matrix: (Units=1/GPa)
#
#
# Indices 1 2 3 4 5 6 
#
# 1 0.024689 -0.001642 -0.008872 0.000000 0.000000 0.000000
# 2 -0.001642 0.015665 -0.008541 0.000000 0.000000 0.000000
# 3 -0.008872 -0.008541 0.026514 0.000000 0.000000 0.000000
# 4 0.000000 0.000000 0.000000 0.048019 0.000000 0.000000
# 5 0.000000 0.000000 0.000000 0.000000 0.036014 0.000000
# 6 0.000000 0.000000 0.000000 0.000000 0.000000 0.056607
#
#
# Mechanical properties :
#
#
# Convention : Reuss Voigt Hill
#
# Bulk Modulus (GPa) = 34.77531 37.00502 35.89016
# Shear Modulus (GPa) = 19.59214 21.02533 20.30873
#
# Velocity S-wave (km/s) = 3.18970 3.30431 3.24751
# Velocity P-wave (km/s) = 5.62356 5.81159 5.71835
#
# Compressibility (1/GPa) = 0.02875603
#
# Stress axis : x y z
#
# Youngs Moduli (GPa) = 40.50379 63.83771 37.71630
#
# Poissons Ratio (x) = 0.10484 0.33464
# Poissons Ratio (y) = 0.06652 0.32213
# Poissons Ratio (z) = 0.35937 0.54523
#
# Static dielectric constant tensor:
#      x y z
#    x 3.712870 0.000000 0.000000 
#    y 0.000000 3.545090 0.000000 
#    z 0.000000 0.000000 3.428020 
# 
# 
# High freq. dielectric constant tensor:
#      x y z
#    x 1.749150 0.000000 0.000000 
#    y 0.000000 1.724260 0.000000 
#    z 0.000000 0.000000 1.750730 
# 
# From -- ./inp_files/9726.got.cif
#   From: 2010.03.12/outbox.cif.g09.slc.cpg/sg55_5_cif.got.tgz:9726.got - 2010.04.16 15:19:21.
