data_PCOD8225510
_publ_section_title
;
Structure prediction by ZEFSAII (Michael W. Deem and Ramdas Pophale) SiO2 
 PCOD8225510
Probable space group: P B A M
;
_chemical_formula_sum "Si O2"
_cell_formula_units_Z 56
_cell_length_a 14.652814
_cell_length_b 22.022454
_cell_length_c 8.401987
_cell_angle_alpha 90.000000
_cell_angle_beta 90.000000
_cell_angle_gamma 90.000000
_cell_volume 2711.244934
_symmetry_space_group_name_H-M "P B A M"
_symmetry_group_IT_number 55
_symmetry_cell_setting 'orthorhombic'
loop_
_space_group_symop_operation_xyz
x,y,z
-x,-y,z
1/2+x,1/2-y,-z
1/2-x,1/2+y,-z
-x,-y,-z
x,y,-z
1/2-x,1/2+y,z
1/2+x,1/2-y,z
loop_
_atom_site_type_symbol
_atom_site_label
_atom_site_fract_x
_atom_site_fract_y
_atom_site_fract_z
Si Si1 0.125549 0.605567 0.814206
Si Si2 0.693573 0.770925 0.316133
Si Si3 0.922467 0.043765 0.186196
Si Si4 0.113573 0.252248 0.815263
Si Si5 0.542338 0.674082 0.315717
Si Si6 0.080848 0.386358 0.814136
Si Si7 0.277914 0.983745 0.189727
O O1 0.151091 0.663145 0.709303
O O2 0.187557 0.549757 0.755799
O O3 0.020284 0.588429 0.780886
O O4 0.140738 0.620517 0.000000
O O5 0.720476 0.762794 0.500000
O O6 0.780710 0.763063 0.204825
O O7 0.620278 0.720919 0.261724
O O8 0.947125 0.113246 0.215280
O O9 0.823387 0.027274 0.259819
O O10 0.917468 0.031318 0.000000
O O11 0.000000 0.000000 0.262425
O O12 0.093021 0.318882 0.742154
O O13 0.055932 0.202864 0.718849
O O14 0.086172 0.248381 0.000000
O O15 0.550063 0.657517 0.500000
O O16 0.154536 0.432432 0.737725
O O17 0.100946 0.381510 0.000000
O O18 0.280066 0.979960 0.000000
#
# Coordination Sequence:
#
# PCOD8225510 Si02
#       7
#     8   8   8   8   8   8   8
#     4  10  19  34  59  88 116 151 199 247 299 357
#     4  11  24  40  58  86 125 164 202 246 304 365
#     4  10  22  39  60  88 121 158 206 255 299 354
#     4  11  22  37  63  92 119 154 203 255 303 357
#     4  11  24  42  62  87 123 165 203 247 305 367
#     4   9  17  32  56  89 118 147 191 247 303 353
#     4   9  18  33  56  86 120 153 192 249 305 352
#
# _framework density 20.654719
#
# number of rings (size 3 to 8) (size 9 to 14) (size 15 to 20)
#    0.000    1.857    1.429    2.571    2.000    4.857 
#    0.000    0.714    0.000    3.429    0.000    0.000 
#    0.000    0.000    0.000    0.000    0.000    0.000 
#
# Total GULP energy -694598.682218 kJ/mol
# GULP energy per Si atom -12403.547897 kJ/mol
# Density = 2.060771 g / cm^3
# Si number density = 20.654719 Si / 1000 Ang^3
#
#
#
# Elastic Constant Matrix: (Units=GPa)
#
#
# Indices 1 2 3 4 5 6 
#
# 1 138.7025 69.6692 11.6844 0.0000 0.0000 0.0000
# 2 69.6692 154.3011 6.2419 0.0000 0.0000 0.0000
# 3 11.6844 6.2419 20.2746 0.0000 0.0000 0.0000
# 4 0.0000 0.0000 0.0000 15.7319 0.0000 0.0000
# 5 0.0000 0.0000 0.0000 0.0000 12.6268 0.0000
# 6 0.0000 0.0000 0.0000 0.0000 0.0000 34.6175
#
#
#
# Elastic Compliance Matrix: (Units=1/GPa)
#
#
# Indices 1 2 3 4 5 6 
#
# 1 0.009679 -0.004197 -0.004286 0.000000 0.000000 0.000000
# 2 -0.004197 0.008382 -0.000162 0.000000 0.000000 0.000000
# 3 -0.004286 -0.000162 0.051843 0.000000 0.000000 0.000000
# 4 0.000000 0.000000 0.000000 0.063565 0.000000 0.000000
# 5 0.000000 0.000000 0.000000 0.000000 0.079197 0.000000
# 6 0.000000 0.000000 0.000000 0.000000 0.000000 0.028887
#
#
# Mechanical properties :
#
#
# Convention : Reuss Voigt Hill
#
# Bulk Modulus (GPa) = 19.00624 54.27436 36.64030
# Shear Modulus (GPa) = 18.09103 27.64074 22.86588
#
# Velocity S-wave (km/s) = 2.96274 3.66215 3.33085
# Velocity P-wave (km/s) = 4.57445 6.64950 5.70707
#
# Compressibility (1/GPa) = 0.05261430
#
# Stress axis : x y z
#
# Youngs Moduli (GPa) = 103.31975 119.29957 19.28917
#
# Poissons Ratio (x) = 0.50066 0.08267
# Poissons Ratio (y) = 0.43360 0.00313
# Poissons Ratio (z) = 0.44282 0.01933
#
# Static dielectric constant tensor:
#      x y z
#    x 3.951980 0.000000 0.000000 
#    y 0.000000 3.799610 0.000000 
#    z 0.000000 0.000000 3.267490 
# 
# 
# High freq. dielectric constant tensor:
#      x y z
#    x 1.822730 0.000000 0.000000 
#    y 0.000000 1.818630 0.000000 
#    z 0.000000 0.000000 1.767560 
# 
# From -- ./inp_files/6047.got.cif
#   From: 2010.03.12/outbox.cif.g09.slc.cpg/sg55_4_cif.got.tgz:6047.got - 2010.04.16 15:19:21.
