data_PCOD8225049
_publ_section_title
;
Structure prediction by ZEFSAII (Michael W. Deem and Ramdas Pophale) SiO2 
 PCOD8225049
Probable space group: P B A M
;
_chemical_formula_sum "Si O2"
_cell_formula_units_Z 56
_cell_length_a 21.769647
_cell_length_b 14.425275
_cell_length_c 9.485806
_cell_angle_alpha 90.000000
_cell_angle_beta 90.000000
_cell_angle_gamma 90.000000
_cell_volume 2978.857488
_symmetry_space_group_name_H-M "P B A M"
_symmetry_group_IT_number 55
_symmetry_cell_setting 'orthorhombic'
loop_
_space_group_symop_operation_xyz
x,y,z
-x,-y,z
1/2+x,1/2-y,-z
1/2-x,1/2+y,-z
-x,-y,-z
x,y,-z
1/2-x,1/2+y,z
1/2+x,1/2-y,z
loop_
_atom_site_type_symbol
_atom_site_label
_atom_site_fract_x
_atom_site_fract_y
_atom_site_fract_z
Si Si1 0.367899 0.306335 0.840218
Si Si2 0.027529 0.654483 0.159484
Si Si3 0.652548 0.358494 0.660896
Si Si4 0.711158 0.824448 0.664992
Si Si5 0.071637 0.999271 0.833000
Si Si6 0.892845 0.466744 0.660692
Si Si7 0.585776 0.172386 0.342706
O O1 0.423682 0.235766 0.830394
O O2 0.311630 0.268809 0.744874
O O3 0.394278 0.404614 0.786228
O O4 0.343650 0.314913 0.000000
O O5 0.050214 0.563724 0.242496
O O6 0.966347 0.693586 0.229554
O O7 0.013838 0.625289 0.000000
O O8 0.647273 0.394886 0.500000
O O9 0.722525 0.360658 0.716084
O O10 0.607390 0.417652 0.757877
O O11 0.636463 0.250694 0.671524
O O12 0.711897 0.799935 0.500000
O O13 0.667647 0.910515 0.703344
O O14 0.075550 0.014075 0.000000
O O15 0.000000 0.000000 0.785242
O O16 0.911267 0.445295 0.500000
O O17 0.880294 0.574920 0.687192
O O18 0.556714 0.172072 0.500000
#
# Coordination Sequence:
#
# PCOD8225049 Si02
#       7
#     8   8   8   8   8   8   8
#     4   9  19  35  55  78 105 139 176 214 260 315
#     4  10  19  32  52  78 105 131 166 211 253 302
#     4  10  22  37  54  79 107 137 178 225 266 311
#     4   9  19  36  56  78 104 136 175 216 261 311
#     4  10  21  38  58  80 109 146 184 223 273 326
#     4   9  18  33  52  73 102 139 170 202 252 311
#     4  10  20  33  49  72 104 137 167 204 255 310
#
# _framework density 18.799153
#
# number of rings (size 3 to 8) (size 9 to 14) (size 15 to 20)
#    0.000    2.429    0.000    1.714    0.000    7.143 
#    0.000    2.857    0.000    0.000    0.000    0.000 
#    0.000    0.000    0.000    0.000    0.000    0.000 
#
# Total GULP energy -694391.207757 kJ/mol
# GULP energy per Si atom -12399.842996 kJ/mol
# Density = 1.875637 g / cm^3
# Si number density = 18.799153 Si / 1000 Ang^3
#
#
#
# Elastic Constant Matrix: (Units=GPa)
#
#
# Indices 1 2 3 4 5 6 
#
# 1 107.5139 28.9652 46.2459 0.0000 0.0000 0.0000
# 2 28.9652 98.0099 36.2615 0.0000 0.0000 0.0000
# 3 46.2459 36.2615 72.5501 0.0000 0.0000 0.0000
# 4 0.0000 0.0000 0.0000 27.1452 0.0000 0.0000
# 5 0.0000 0.0000 0.0000 0.0000 24.7836 0.0000
# 6 0.0000 0.0000 0.0000 0.0000 0.0000 25.4833
#
#
#
# Elastic Compliance Matrix: (Units=1/GPa)
#
#
# Indices 1 2 3 4 5 6 
#
# 1 0.012886 -0.000944 -0.007742 0.000000 0.000000 0.000000
# 2 -0.000944 0.012587 -0.005690 0.000000 0.000000 0.000000
# 3 -0.007742 -0.005690 0.021562 0.000000 0.000000 0.000000
# 4 0.000000 0.000000 0.000000 0.036839 0.000000 0.000000
# 5 0.000000 0.000000 0.000000 0.000000 0.040349 0.000000
# 6 0.000000 0.000000 0.000000 0.000000 0.000000 0.039241
#
#
# Mechanical properties :
#
#
# Convention : Reuss Voigt Hill
#
# Bulk Modulus (GPa) = 54.69196 55.66879 55.18037
# Shear Modulus (GPa) = 25.21309 26.58916 25.90113
#
# Velocity S-wave (km/s) = 3.66619 3.76491 3.71587
# Velocity P-wave (km/s) = 6.86128 6.96965 6.91568
#
# Compressibility (1/GPa) = 0.01828422
#
# Stress axis : x y z
#
# Youngs Moduli (GPa) = 77.60660 79.44724 46.37729
#
# Poissons Ratio (x) = 0.07498 0.35905
# Poissons Ratio (y) = 0.07324 0.26387
# Poissons Ratio (z) = 0.60083 0.45202
#
# Static dielectric constant tensor:
#      x y z
#    x 3.428000 0.000000 0.000000 
#    y 0.000000 3.481600 0.000000 
#    z 0.000000 0.000000 3.526650 
# 
# 
# High freq. dielectric constant tensor:
#      x y z
#    x 1.724610 0.000000 0.000000 
#    y 0.000000 1.734710 0.000000 
#    z 0.000000 0.000000 1.725440 
# 
# From -- ./inp_files/6173.got.cif
#   From: 2010.03.12/outbox.cif.g09.slc.cpg/sg55_4_cif.got.tgz:6173.got - 2010.04.16 15:19:21.
