data_PCOD8225919
_publ_section_title
;
Structure prediction by ZEFSAII (Michael W. Deem and Ramdas Pophale) SiO2 
 PCOD8225919
Probable space group: P B A M
;
_chemical_formula_sum "Si O2"
_cell_formula_units_Z 56
_cell_length_a 16.282749
_cell_length_b 21.584185
_cell_length_c 7.737636
_cell_angle_alpha 90.000000
_cell_angle_beta 90.000000
_cell_angle_gamma 90.000000
_cell_volume 2719.391141
_symmetry_space_group_name_H-M "P B A M"
_symmetry_group_IT_number 55
_symmetry_cell_setting 'orthorhombic'
loop_
_space_group_symop_operation_xyz
x,y,z
-x,-y,z
1/2+x,1/2-y,-z
1/2-x,1/2+y,-z
-x,-y,-z
x,y,-z
1/2-x,1/2+y,z
1/2+x,1/2-y,z
loop_
_atom_site_type_symbol
_atom_site_label
_atom_site_fract_x
_atom_site_fract_y
_atom_site_fract_z
Si Si1 0.183682 0.642497 0.195206
Si Si2 0.795840 0.617913 0.201897
Si Si3 0.400224 0.069018 0.500000
Si Si4 0.591211 0.077280 0.500000
Si Si5 0.533761 0.624232 0.303474
Si Si6 0.336163 0.282875 0.798022
Si Si7 0.154188 0.976015 0.807196
Si Si8 0.354700 0.608684 0.306836
O O1 0.141936 0.594636 0.326267
O O2 0.167851 0.712047 0.261466
O O3 0.281458 0.632507 0.186821
O O4 0.149432 0.632417 0.000000
O O5 0.873860 0.610118 0.326975
O O6 0.748346 0.681576 0.250068
O O7 0.735566 0.561198 0.246011
O O8 0.823317 0.617455 0.000000
O O9 0.494480 0.089457 0.500000
O O10 0.389058 0.995458 0.500000
O O11 0.527551 0.601418 0.500000
O O12 0.584898 0.687702 0.294803
O O13 0.576802 0.569998 0.195885
O O14 0.441284 0.634303 0.231893
O O15 0.351162 0.290164 0.000000
O O16 0.142677 0.033971 0.682381
O O17 0.163355 0.002212 0.000000
O O18 0.339198 0.633749 0.500000
#
# Coordination Sequence:
#
# PCOD8225919 Si02
#       8
#     8   8   4   4   8   8   8   8
#     4  11  24  44  66  87 119 164 203 252 311 362
#     4   9  20  38  62  95 123 154 205 253 296 363
#     4  11  26  45  62  91 125 154 209 259 312 375
#     4  11  24  41  66  93 119 164 202 258 319 360
#     4  10  21  34  55  88 122 160 197 242 296 353
#     4   9  21  41  62  87 121 158 202 248 300 361
#     4  10  20  33  55  86 124 164 198 241 298 355
#     4  11  22  36  55  88 123 156 203 246 289 364
#
# _framework density 20.592846999999999
#
# number of rings (size 3 to 8) (size 9 to 14) (size 15 to 20)
#    0.000    1.857    0.714    3.429    6.000    6.286 
#    2.571    1.429    0.000    0.000    0.000    0.000 
#    0.000    0.000    0.000    0.000    0.000    0.000 
#
# Total GULP energy -694429.739043 kJ/mol
# GULP energy per Si atom -12400.531054 kJ/mol
# Density = 2.054598 g / cm^3
# Si number density = 20.592847 Si / 1000 Ang^3
#
#
#
# Elastic Constant Matrix: (Units=GPa)
#
#
# Indices 1 2 3 4 5 6 
#
# 1 114.2080 25.1500 31.1642 0.0000 0.0000 0.0000
# 2 25.1500 82.6702 12.7616 0.0000 0.0000 0.0000
# 3 31.1642 12.7616 75.2034 0.0000 0.0000 0.0000
# 4 0.0000 0.0000 0.0000 25.2385 0.0000 0.0000
# 5 0.0000 0.0000 0.0000 0.0000 18.6071 0.0000
# 6 0.0000 0.0000 0.0000 0.0000 0.0000 12.6065
#
#
#
# Elastic Compliance Matrix: (Units=1/GPa)
#
#
# Indices 1 2 3 4 5 6 
#
# 1 0.010374 -0.002559 -0.003865 0.000000 0.000000 0.000000
# 2 -0.002559 0.013053 -0.001154 0.000000 0.000000 0.000000
# 3 -0.003865 -0.001154 0.015095 0.000000 0.000000 0.000000
# 4 0.000000 0.000000 0.000000 0.039622 0.000000 0.000000
# 5 0.000000 0.000000 0.000000 0.000000 0.053743 0.000000
# 6 0.000000 0.000000 0.000000 0.000000 0.000000 0.079324
#
#
# Mechanical properties :
#
#
# Convention : Reuss Voigt Hill
#
# Bulk Modulus (GPa) = 42.79939 45.58146 44.19043
# Shear Modulus (GPa) = 21.35325 24.82413 23.08869
#
# Velocity S-wave (km/s) = 3.22363 3.47576 3.35206
# Velocity P-wave (km/s) = 5.88935 6.18793 6.04049
#
# Compressibility (1/GPa) = 0.02336482
#
# Stress axis : x y z
#
# Youngs Moduli (GPa) = 96.39346 76.61014 66.24840
#
# Poissons Ratio (x) = 0.19608 0.25603
# Poissons Ratio (y) = 0.24671 0.07648
# Poissons Ratio (z) = 0.37253 0.08844
#
# Static dielectric constant tensor:
#      x y z
#    x 3.740650 0.000000 0.000000 
#    y 0.000000 3.681080 0.000000 
#    z 0.000000 0.000000 3.625100 
# 
# 
# High freq. dielectric constant tensor:
#      x y z
#    x 1.797480 0.000000 0.000000 
#    y 0.000000 1.795350 0.000000 
#    z 0.000000 0.000000 1.811280 
# 
# From -- ./inp_files/6275.got.cif
#   From: 2010.03.12/outbox.cif.g09.slc.cpg/sg55_4_cif.got.tgz:6275.got - 2010.04.16 15:19:21.
