data_PCOD8225148
_publ_section_title
;
Structure prediction by ZEFSAII (Michael W. Deem and Ramdas Pophale) SiO2 
 PCOD8225148
Probable space group: P B A M
;
_chemical_formula_sum "Si O2"
_cell_formula_units_Z 40
_cell_length_a 32.843053
_cell_length_b 5.076371
_cell_length_c 15.319270
_cell_angle_alpha 90.000000
_cell_angle_beta 90.000000
_cell_angle_gamma 90.000000
_cell_volume 2554.082646
_symmetry_space_group_name_H-M "P B A M"
_symmetry_group_IT_number 55
_symmetry_cell_setting 'orthorhombic'
loop_
_space_group_symop_operation_xyz
x,y,z
-x,-y,z
1/2+x,1/2-y,-z
1/2-x,1/2+y,-z
-x,-y,-z
x,y,-z
1/2-x,1/2+y,z
1/2+x,1/2-y,z
loop_
_atom_site_type_symbol
_atom_site_label
_atom_site_fract_x
_atom_site_fract_y
_atom_site_fract_z
Si Si1 0.884331 0.187840 0.397336
Si Si2 0.278037 0.799512 0.811649
Si Si3 0.023887 0.749104 0.603901
Si Si4 0.775853 0.727220 0.500000
Si Si5 0.164088 0.297077 0.346750
Si Si6 0.775097 0.605723 0.000000
O O1 0.883939 0.121447 0.500000
O O2 0.929627 0.252308 0.363586
O O3 0.855519 0.432307 0.377907
O O4 0.869562 0.932250 0.344202
O O5 0.256651 0.518935 0.796557
O O6 0.315973 0.834817 0.747603
O O7 0.297895 0.824180 0.909211
O O8 0.023091 0.743937 0.500000
O O9 0.000000 0.500000 0.642731
O O10 0.000000 0.000000 0.640760
O O11 0.762500 0.422950 0.500000
O O12 0.801305 0.791452 0.414024
O O13 0.764966 0.295052 0.000000
#
# Coordination Sequence:
#
# PCOD8225148 Si02
#       6
#     8   8   8   4   8   4
#     4  11  20  33  45  63  91 121 150 182 223 263
#     4  10  19  33  48  66  86 114 154 192 230 268
#     4   9  17  29  46  64  81 109 148 183 214 258
#     4  12  22  32  42  56  80 120 160 186 206 238
#     4  12  21  32  45  63  89 122 151 190 221 258
#     4   8  16  30  50  66  82 106 142 192 238 274
#
# _framework density 15.661201
#
# number of rings (size 3 to 8) (size 9 to 14) (size 15 to 20)
#    0.000    1.600    2.000    4.800    0.000    3.200 
#    0.000    0.000    0.000    0.000    0.000    0.000 
#    0.000    0.000    0.000   18.000    0.000    0.000 
#
# Total GULP energy -495976.411853 kJ/mol
# GULP energy per Si atom -12399.410296 kJ/mol
# Density = 1.562556 g / cm^3
# Si number density = 15.661201 Si / 1000 Ang^3
#
#
#
# Elastic Constant Matrix: (Units=GPa)
#
#
# Indices 1 2 3 4 5 6 
#
# 1 71.3102 15.2814 34.5215 0.0000 0.0000 0.0000
# 2 15.2814 82.5804 6.7146 0.0000 0.0000 0.0000
# 3 34.5215 6.7146 66.1562 0.0000 0.0000 0.0000
# 4 0.0000 0.0000 0.0000 3.0102 0.0000 0.0000
# 5 0.0000 0.0000 0.0000 0.0000 12.2508 0.0000
# 6 0.0000 0.0000 0.0000 0.0000 0.0000 29.7355
#
#
#
# Elastic Compliance Matrix: (Units=1/GPa)
#
#
# Indices 1 2 3 4 5 6 
#
# 1 0.019379 -0.002787 -0.009829 0.000000 0.000000 0.000000
# 2 -0.002787 0.012611 0.000174 0.000000 0.000000 0.000000
# 3 -0.009829 0.000174 0.020227 0.000000 0.000000 0.000000
# 4 0.000000 0.000000 0.000000 0.332206 0.000000 0.000000
# 5 0.000000 0.000000 0.000000 0.000000 0.081627 0.000000
# 6 0.000000 0.000000 0.000000 0.000000 0.000000 0.033630
#
#
# Mechanical properties :
#
#
# Convention : Reuss Voigt Hill
#
# Bulk Modulus (GPa) = 36.58567 37.00909 36.79738
# Shear Modulus (GPa) = 9.36899 19.90125 14.63512
#
# Velocity S-wave (km/s) = 2.44853 3.56861 3.06025
# Velocity P-wave (km/s) = 5.60403 6.37670 6.00281
#
# Compressibility (1/GPa) = 0.02733311
#
# Stress axis : x y z
#
# Youngs Moduli (GPa) = 51.60260 79.29628 49.43837
#
# Poissons Ratio (x) = 0.22098 0.48595
# Poissons Ratio (y) = 0.14381 -0.00861
# Poissons Ratio (z) = 0.50722 -0.01382
#
# Static dielectric constant tensor:
#      x y z
#    x 2.922500 0.000000 0.000000 
#    y 0.000000 3.214990 0.000000 
#    z 0.000000 0.000000 2.897680 
# 
# 
# High freq. dielectric constant tensor:
#      x y z
#    x 1.580690 0.000000 0.000000 
#    y 0.000000 1.628030 0.000000 
#    z 0.000000 0.000000 1.562240 
# 
# From -- ./inp_files/16606.got.cif
#   From: 2010.03.12/outbox.cif.g09.slc.cpg/sg55_9_cif.got.tgz:16606.got - 2010.04.16 15:19:21.
