data_PCOD8225972
_publ_section_title
;
Structure prediction by ZEFSAII (Michael W. Deem and Ramdas Pophale) SiO2 
 PCOD8225972
Probable space group: P B A M
;
_chemical_formula_sum "Si O2"
_cell_formula_units_Z 56
_cell_length_a 14.364198
_cell_length_b 22.448966
_cell_length_c 8.863145
_cell_angle_alpha 90.000000
_cell_angle_beta 90.000000
_cell_angle_gamma 90.000000
_cell_volume 2858.022079
_symmetry_space_group_name_H-M "P B A M"
_symmetry_group_IT_number 55
_symmetry_cell_setting 'orthorhombic'
loop_
_space_group_symop_operation_xyz
x,y,z
-x,-y,z
1/2+x,1/2-y,-z
1/2-x,1/2+y,-z
-x,-y,-z
x,y,-z
1/2-x,1/2+y,z
1/2+x,1/2-y,z
loop_
_atom_site_type_symbol
_atom_site_label
_atom_site_fract_x
_atom_site_fract_y
_atom_site_fract_z
Si Si1 0.102878 0.783557 0.328323
Si Si2 0.108447 0.217093 0.325590
Si Si3 0.594939 0.852769 0.678749
Si Si4 0.894560 0.999052 0.820193
Si Si5 0.906937 0.656848 0.175546
Si Si6 0.709877 0.613655 0.826468
Si Si7 0.721147 0.385682 0.821493
O O1 0.134762 0.788076 0.500000
O O2 0.112861 0.715646 0.272730
O O3 0.171122 0.824516 0.234733
O O4 0.997100 0.805653 0.307177
O O5 0.140108 0.215220 0.500000
O O6 0.117986 0.283854 0.266793
O O7 0.175028 0.176036 0.227247
O O8 0.585715 0.859812 0.500000
O O9 0.498683 0.874230 0.755545
O O10 0.678407 0.892858 0.742851
O O11 0.843243 0.939603 0.763050
O O12 0.839024 0.055903 0.751868
O O13 0.894623 0.000074 0.000000
O O14 0.000000 0.000000 0.757378
O O15 0.821163 0.611058 0.197766
O O16 0.922476 0.672301 0.000000
O O17 0.683223 0.613124 0.000000
O O18 0.734558 0.386794 0.000000
#
# Coordination Sequence:
#
# PCOD8225972 Si02
#       7
#     8   8   8   8   8   8   8
#     4   9  19  33  51  77 107 141 175 211 261 321
#     4  10  20  34  52  78 114 148 177 216 271 325
#     4  10  21  37  55  77 110 145 176 218 274 328
#     4   9  19  36  56  79 107 138 174 219 271 320
#     4  10  20  34  54  81 109 138 180 226 267 321
#     4  10  20  34  54  79 106 138 176 222 271 316
#     4  11  21  34  56  81 105 140 185 227 267 317
#
# _framework density 19.593971
#
# number of rings (size 3 to 8) (size 9 to 14) (size 15 to 20)
#    0.000    2.143    0.000    4.286    0.000    8.000 
#    0.000    2.143    0.000    8.143    0.000    0.000 
#    0.000    0.000    0.000    0.000    0.000    0.000 
#
# Total GULP energy -694475.899454 kJ/mol
# GULP energy per Si atom -12401.355347 kJ/mol
# Density = 1.954937 g / cm^3
# Si number density = 19.593971 Si / 1000 Ang^3
#
#
#
# Elastic Constant Matrix: (Units=GPa)
#
#
# Indices 1 2 3 4 5 6 
#
# 1 147.8689 55.5383 40.7107 0.0000 0.0000 0.0000
# 2 55.5383 57.8795 21.1592 0.0000 0.0000 0.0000
# 3 40.7107 21.1592 58.4714 0.0000 0.0000 0.0000
# 4 0.0000 0.0000 0.0000 9.6706 0.0000 0.0000
# 5 0.0000 0.0000 0.0000 0.0000 28.4932 0.0000
# 6 0.0000 0.0000 0.0000 0.0000 0.0000 33.8542
#
#
#
# Elastic Compliance Matrix: (Units=1/GPa)
#
#
# Indices 1 2 3 4 5 6 
#
# 1 0.011578 -0.009407 -0.004657 0.000000 0.000000 0.000000
# 2 -0.009407 0.027555 -0.003421 0.000000 0.000000 0.000000
# 3 -0.004657 -0.003421 0.021583 0.000000 0.000000 0.000000
# 4 0.000000 0.000000 0.000000 0.103406 0.000000 0.000000
# 5 0.000000 0.000000 0.000000 0.000000 0.035096 0.000000
# 6 0.000000 0.000000 0.000000 0.000000 0.000000 0.029538
#
#
# Mechanical properties :
#
#
# Convention : Reuss Voigt Hill
#
# Bulk Modulus (GPa) = 38.84354 55.44848 47.14601
# Shear Modulus (GPa) = 18.36141 24.19104 21.27623
#
# Velocity S-wave (km/s) = 3.06452 3.51752 3.29881
# Velocity P-wave (km/s) = 5.69113 6.69757 6.21476
#
# Compressibility (1/GPa) = 0.02574431
#
# Stress axis : x y z
#
# Youngs Moduli (GPa) = 86.36862 36.29104 46.33274
#
# Poissons Ratio (x) = 0.34141 0.21578
# Poissons Ratio (y) = 0.81251 0.15853
# Poissons Ratio (z) = 0.40223 0.12417
#
# Static dielectric constant tensor:
#      x y z
#    x 3.914970 0.000000 0.000000 
#    y 0.000000 3.440620 0.000000 
#    z 0.000000 0.000000 3.431240 
# 
# 
# High freq. dielectric constant tensor:
#      x y z
#    x 1.782710 0.000000 0.000000 
#    y 0.000000 1.737720 0.000000 
#    z 0.000000 0.000000 1.752420 
# 
# From -- ./inp_files/6188.got.cif
#   From: 2010.03.12/outbox.cif.g09.slc.cpg/sg55_4_cif.got.tgz:6188.got - 2010.04.16 15:19:21.
