data_PCOD8225770
_publ_section_title
;
Structure prediction by ZEFSAII (Michael W. Deem and Ramdas Pophale) SiO2 
 PCOD8225770
Probable space group: P B A M
;
_chemical_formula_sum "Si O2"
_cell_formula_units_Z 48
_cell_length_a 18.429452
_cell_length_b 16.477751
_cell_length_c 7.809080
_cell_angle_alpha 90.000000
_cell_angle_beta 90.000000
_cell_angle_gamma 90.000000
_cell_volume 2371.429562
_symmetry_space_group_name_H-M "P B A M"
_symmetry_group_IT_number 55
_symmetry_cell_setting 'orthorhombic'
loop_
_space_group_symop_operation_xyz
x,y,z
-x,-y,z
1/2+x,1/2-y,-z
1/2-x,1/2+y,-z
-x,-y,-z
x,y,-z
1/2-x,1/2+y,z
1/2+x,1/2-y,z
loop_
_atom_site_type_symbol
_atom_site_label
_atom_site_fract_x
_atom_site_fract_y
_atom_site_fract_z
Si Si1 0.838212 0.668519 0.805055
Si Si2 0.824554 0.139627 0.196154
Si Si3 0.585439 0.087178 0.500000
Si Si4 0.080655 0.006443 0.304974
Si Si5 0.841245 0.327409 0.803646
Si Si6 0.916756 0.410772 0.500000
Si Si7 0.318906 0.651709 0.295756
O O1 0.759711 0.632799 0.750733
O O2 0.895299 0.633481 0.673349
O O3 0.842819 0.765563 0.794709
O O4 0.856898 0.643059 0.000000
O O5 0.875716 0.078360 0.299730
O O6 0.846769 0.231758 0.231952
O O7 0.834977 0.116128 0.000000
O O8 0.500997 0.077347 0.500000
O O9 0.622523 0.998499 0.500000
O O10 0.067799 0.030736 0.500000
O O11 0.129121 0.079382 0.225145
O O12 0.000000 0.000000 0.217448
O O13 0.898202 0.365240 0.674637
O O14 0.762954 0.366113 0.763275
O O15 0.861925 0.347288 0.000000
O O16 0.321550 0.660733 0.500000
#
# Coordination Sequence:
#
# PCOD8225770 Si02
#       7
#     8   8   4   8   8   4   8
#     4  10  22  41  66  93 122 162 211 261 310 366
#     4   9  21  38  59  91 122 158 207 251 299 363
#     4  11  26  43  62  91 123 156 211 262 322 378
#     4  10  23  37  56  92 131 166 201 245 307 372
#     4  10  22  41  65  94 123 160 212 260 308 368
#     4  11  26  43  62  91 121 162 205 262 326 374
#     4  10  19  37  63  92 127 164 210 256 301 364
#
# _framework density 20.240955
#
# number of rings (size 3 to 8) (size 9 to 14) (size 15 to 20)
#    0.000    2.000    1.667    1.500    4.667    4.333 
#    0.000    3.333    0.000    0.000    0.000    0.000 
#    0.000    0.000    0.000    0.000    0.000    0.000 
#
# Total GULP energy -595058.606815 kJ/mol
# GULP energy per Si atom -12397.054309 kJ/mol
# Density = 2.019489 g / cm^3
# Si number density = 20.240955 Si / 1000 Ang^3
#
#
#
# Elastic Constant Matrix: (Units=GPa)
#
#
# Indices 1 2 3 4 5 6 
#
# 1 97.6694 64.4816 34.1686 0.0000 0.0000 0.0000
# 2 64.4816 89.9416 27.6662 0.0000 0.0000 0.0000
# 3 34.1686 27.6662 105.0181 0.0000 0.0000 0.0000
# 4 0.0000 0.0000 0.0000 15.8406 0.0000 0.0000
# 5 0.0000 0.0000 0.0000 0.0000 -16.0554 0.0000
# 6 0.0000 0.0000 0.0000 0.0000 0.0000 28.1241
#
#
#
# Elastic Compliance Matrix: (Units=1/GPa)
#
#
# Indices 1 2 3 4 5 6 
#
# 1 0.020279 -0.013612 -0.003012 0.000000 0.000000 0.000000
# 2 -0.013612 0.021236 -0.001166 0.000000 0.000000 0.000000
# 3 -0.003012 -0.001166 0.010809 0.000000 0.000000 0.000000
# 4 0.000000 0.000000 0.000000 0.063129 0.000000 0.000000
# 5 0.000000 0.000000 0.000000 0.000000 -0.062284 0.000000
# 6 0.000000 0.000000 0.000000 0.000000 0.000000 0.035557
#
#
# Mechanical properties :
#
#
# Convention : Reuss Voigt Hill
#
# Bulk Modulus (GPa) = 59.72039 60.58466 60.15252
# Shear Modulus (GPa) = 38.49512 16.66937 27.58224
#
# Velocity S-wave (km/s) = 4.36574 2.87286 3.69547
# Velocity P-wave (km/s) = 7.41497 6.40321 6.92759
#
# Compressibility (1/GPa) = 0.01674470
#
# Stress axis : x y z
#
# Youngs Moduli (GPa) = 49.31178 47.09029 92.51379
#
# Poissons Ratio (x) = 0.64100 0.27865
# Poissons Ratio (y) = 0.67124 0.10783
# Poissons Ratio (z) = 0.14853 0.05489
#
# Static dielectric constant tensor:
#      x y z
#    x 3.693920 0.000000 0.000000 
#    y 0.000000 3.806560 0.000000 
#    z 0.000000 0.000000 3.632700 
# 
# 
# High freq. dielectric constant tensor:
#      x y z
#    x 1.780780 0.000000 0.000000 
#    y 0.000000 1.794690 0.000000 
#    z 0.000000 0.000000 1.793590 
# 
# From -- ./inp_files/5736.got.cif
#   From: 2010.03.12/outbox.cif.g09.slc.cpg/sg55_3_cif.got.tgz:5736.got - 2010.04.16 15:19:21.
