data_PCOD8225914
_publ_section_title
;
Structure prediction by ZEFSAII (Michael W. Deem and Ramdas Pophale) SiO2 
 PCOD8225914
Probable space group: P B A M
;
_chemical_formula_sum "Si O2"
_cell_formula_units_Z 56
_cell_length_a 9.778635
_cell_length_b 20.529607
_cell_length_c 13.964047
_cell_angle_alpha 90.000000
_cell_angle_beta 90.000000
_cell_angle_gamma 90.000000
_cell_volume 2803.303850
_symmetry_space_group_name_H-M "P B A M"
_symmetry_group_IT_number 55
_symmetry_cell_setting 'orthorhombic'
loop_
_space_group_symop_operation_xyz
x,y,z
-x,-y,z
1/2+x,1/2-y,-z
1/2-x,1/2+y,-z
-x,-y,-z
x,y,-z
1/2-x,1/2+y,z
1/2+x,1/2-y,z
loop_
_atom_site_type_symbol
_atom_site_label
_atom_site_fract_x
_atom_site_fract_y
_atom_site_fract_z
Si Si1 0.428371 0.782995 0.693694
Si Si2 0.831047 0.746907 0.893704
Si Si3 0.166516 0.875753 0.107559
Si Si4 0.630471 0.081008 0.262753
Si Si5 0.822036 0.440689 0.269660
Si Si6 0.355979 0.607580 0.109169
Si Si7 0.786114 0.315642 0.387202
O O1 0.434324 0.774185 0.809000
O O2 0.357466 0.853955 0.670995
O O3 0.581513 0.779568 0.654719
O O4 0.345039 0.726026 0.642596
O O5 0.696068 0.701900 0.887194
O O6 0.785334 0.821590 0.879230
O O7 0.900699 0.739532 0.000000
O O8 0.275231 0.915004 0.169619
O O9 0.012894 0.887170 0.144025
O O10 0.182372 0.901917 0.000000
O O11 0.472184 0.077489 0.230703
O O12 0.674735 0.013741 0.316062
O O13 0.721401 0.442148 0.178325
O O14 0.770454 0.389244 0.348364
O O15 0.346756 0.582350 0.000000
O O16 0.798133 0.319935 0.500000
#
# Coordination Sequence:
#
# PCOD8225914 Si02
#       7
#     8   8   8   8   8   8   8
#     4  10  21  38  61  88 115 149 190 238 293 346
#     4   9  18  31  52  84 118 150 185 230 283 342
#     4   9  19  33  51  80 117 154 194 235 279 335
#     4   9  21  37  58  79 115 154 195 234 289 346
#     4  10  21  40  56  83 114 156 193 237 290 345
#     4  10  20  33  54  85 118 156 197 236 283 342
#     4  11  23  40  62  87 114 146 191 245 299 347
#
# _framework density 19.976430000000001
#
# number of rings (size 3 to 8) (size 9 to 14) (size 15 to 20)
#    0.000    2.286    1.429    0.429    4.000    2.857 
#    0.000   14.286    0.000    0.000    0.000    3.000 
#    0.000    0.000    0.000    0.000    0.000    0.000 
#
# Total GULP energy -694053.740572 kJ/mol
# GULP energy per Si atom -12393.816796 kJ/mol
# Density = 1.993096 g / cm^3
# Si number density = 19.976430 Si / 1000 Ang^3
#
#
#
# Elastic Constant Matrix: (Units=GPa)
#
#
# Indices 1 2 3 4 5 6 
#
# 1 43.3298 -7.6732 8.7683 0.0000 0.0000 0.0000
# 2 -7.6732 76.4772 -0.7878 0.0000 0.0000 0.0000
# 3 8.7683 -0.7878 75.9379 0.0000 0.0000 0.0000
# 4 0.0000 0.0000 0.0000 10.9894 0.0000 0.0000
# 5 0.0000 0.0000 0.0000 0.0000 18.3161 0.0000
# 6 0.0000 0.0000 0.0000 0.0000 0.0000 24.7203
#
#
#
# Elastic Compliance Matrix: (Units=1/GPa)
#
#
# Indices 1 2 3 4 5 6 
#
# 1 0.024058 0.002386 -0.002753 0.000000 0.000000 0.000000
# 2 0.002386 0.013314 -0.000137 0.000000 0.000000 0.000000
# 3 -0.002753 -0.000137 0.013485 0.000000 0.000000 0.000000
# 4 0.000000 0.000000 0.000000 0.090997 0.000000 0.000000
# 5 0.000000 0.000000 0.000000 0.000000 0.054597 0.000000
# 6 0.000000 0.000000 0.000000 0.000000 0.000000 0.040453
#
#
# Mechanical properties :
#
#
# Convention : Reuss Voigt Hill
#
# Bulk Modulus (GPa) = 20.06131 21.81772 20.93951
# Shear Modulus (GPa) = 19.64412 23.83434 21.73923
#
# Velocity S-wave (km/s) = 3.13927 3.45791 3.30243
# Velocity P-wave (km/s) = 4.81708 5.18539 5.00463
#
# Compressibility (1/GPa) = 0.04984720
#
# Stress axis : x y z
#
# Youngs Moduli (GPa) = 41.56554 75.11047 74.15576
#
# Poissons Ratio (x) = -0.17918 0.20417
# Poissons Ratio (y) = -0.09915 0.01018
# Poissons Ratio (z) = 0.11444 0.01031
#
# Static dielectric constant tensor:
#      x y z
#    x 3.461550 0.000000 0.000000 
#    y 0.000000 3.916620 0.000000 
#    z 0.000000 0.000000 3.438020 
# 
# 
# High freq. dielectric constant tensor:
#      x y z
#    x 1.770490 0.000000 0.000000 
#    y 0.000000 1.789480 0.000000 
#    z 0.000000 0.000000 1.747690 
# 
# From -- ./inp_files/17620.got.cif
#   From: 2010.03.12/outbox.cif.g09.slc.cpg/sg55_9_cif.got.tgz:17620.got - 2010.04.16 15:19:21.
