data_PCOD8225476
_publ_section_title
;
Structure prediction by ZEFSAII (Michael W. Deem and Ramdas Pophale) SiO2 
 PCOD8225476
Probable space group: P B A M
;
_chemical_formula_sum "Si O2"
_cell_formula_units_Z 64
_cell_length_a 32.297728
_cell_length_b 10.795808
_cell_length_c 9.656178
_cell_angle_alpha 90.000000
_cell_angle_beta 90.000000
_cell_angle_gamma 90.000000
_cell_volume 3366.916824
_symmetry_space_group_name_H-M "P B A M"
_symmetry_group_IT_number 55
_symmetry_cell_setting 'orthorhombic'
loop_
_space_group_symop_operation_xyz
x,y,z
-x,-y,z
1/2+x,1/2-y,-z
1/2-x,1/2+y,-z
-x,-y,-z
x,y,-z
1/2-x,1/2+y,z
1/2+x,1/2-y,z
loop_
_atom_site_type_symbol
_atom_site_label
_atom_site_fract_x
_atom_site_fract_y
_atom_site_fract_z
Si Si1 0.578553 0.447297 0.651908
Si Si2 0.144754 0.268261 0.652414
Si Si3 0.492202 0.731291 0.341795
Si Si4 0.436635 0.180936 0.158384
Si Si5 0.782160 0.078334 0.163931
Si Si6 0.426767 0.945346 0.657942
Si Si7 0.778695 0.795503 0.835551
Si Si8 0.626244 0.620089 0.843637
O O1 0.577603 0.510918 0.500000
O O2 0.611430 0.338573 0.649501
O O3 0.533220 0.394445 0.686816
O O4 0.591113 0.544410 0.766236
O O5 0.166099 0.277619 0.500000
O O6 0.119446 0.393381 0.685259
O O7 0.177716 0.241777 0.770881
O O8 0.508224 0.734643 0.500000
O O9 0.530726 0.731577 0.237744
O O10 0.462344 0.846511 0.313241
O O11 0.390264 0.239172 0.162281
O O12 0.434884 0.050840 0.232543
O O13 0.451235 0.164073 0.000000
O O14 0.753668 0.191509 0.220286
O O15 0.828230 0.104480 0.224157
O O16 0.767031 0.938640 0.207906
O O17 0.782716 0.088638 0.000000
O O18 0.430001 0.994490 0.500000
O O19 0.783375 0.788461 0.000000
O O20 0.628359 0.569843 0.000000
#
# Coordination Sequence:
#
# PCOD8225476 Si02
#       8
#     8   8   8   8   8   8   8   8
#     4   9  18  34  57  80 101 135 183 225 263 320
#     4   9  18  34  56  82 107 133 174 223 268 316
#     4   9  19  36  56  77 104 141 183 226 272 325
#     4  11  23  34  49  78 112 142 179 230 277 318
#     4   9  19  35  56  81 108 142 184 224 268 329
#     4   9  19  36  56  76 105 145 182 219 267 327
#     4  10  19  34  58  83 107 142 184 223 269 329
#     4  10  21  37  53  74 109 145 177 222 276 322
#
# _framework density 19.008489000000001
#
# number of rings (size 3 to 8) (size 9 to 14) (size 15 to 20)
#    0.000    2.500    1.250    2.250    0.000    5.500 
#    0.000    8.750    0.000    0.000    0.000    0.000 
#    0.000    0.000    0.000    0.000    0.000    0.000 
#
# Total GULP energy -793157.229600 kJ/mol
# GULP energy per Si atom -12393.081713 kJ/mol
# Density = 1.896523 g / cm^3
# Si number density = 19.008489 Si / 1000 Ang^3
#
#
#
# Elastic Constant Matrix: (Units=GPa)
#
#
# Indices 1 2 3 4 5 6 
#
# 1 85.8917 59.2314 36.4824 0.0000 0.0000 0.0000
# 2 59.2314 61.4992 22.0680 0.0000 0.0000 0.0000
# 3 36.4824 22.0680 58.1604 0.0000 0.0000 0.0000
# 4 0.0000 0.0000 0.0000 29.5655 0.0000 0.0000
# 5 0.0000 0.0000 0.0000 0.0000 28.5284 0.0000
# 6 0.0000 0.0000 0.0000 0.0000 0.0000 24.9905
#
#
#
# Elastic Compliance Matrix: (Units=1/GPa)
#
#
# Indices 1 2 3 4 5 6 
#
# 1 0.041273 -0.035262 -0.012510 0.000000 0.000000 0.000000
# 2 -0.035262 0.048950 0.003546 0.000000 0.000000 0.000000
# 3 -0.012510 0.003546 0.023696 0.000000 0.000000 0.000000
# 4 0.000000 0.000000 0.000000 0.033823 0.000000 0.000000
# 5 0.000000 0.000000 0.000000 0.000000 0.035053 0.000000
# 6 0.000000 0.000000 0.000000 0.000000 0.000000 0.040015
#
#
# Mechanical properties :
#
#
# Convention : Reuss Voigt Hill
#
# Bulk Modulus (GPa) = 39.26802 49.01277 44.14040
# Shear Modulus (GPa) = 15.63716 22.46818 19.05267
#
# Velocity S-wave (km/s) = 2.87128 3.44176 3.16938
# Velocity P-wave (km/s) = 5.62986 6.45252 6.05518
#
# Compressibility (1/GPa) = 0.02546602
#
# Stress axis : x y z
#
# Youngs Moduli (GPa) = 24.22882 20.42900 42.20210
#
# Poissons Ratio (x) = 0.72037 0.52794
# Poissons Ratio (y) = 0.85436 -0.14964
# Poissons Ratio (z) = 0.30310 -0.07244
#
# Static dielectric constant tensor:
#      x y z
#    x 3.636830 0.000000 0.000000 
#    y 0.000000 3.676880 0.000000 
#    z 0.000000 0.000000 3.678730 
# 
# 
# High freq. dielectric constant tensor:
#      x y z
#    x 1.735830 0.000000 0.000000 
#    y 0.000000 1.741030 0.000000 
#    z 0.000000 0.000000 1.722070 
# 
# From -- ./inp_files/10746.got.cif
#   From: 2010.03.12/outbox.cif.g09.slc.cpg/sg55_6_cif.got.tgz:10746.got - 2010.04.16 15:19:21.
