data_PCOD8225199
_publ_section_title
;
Structure prediction by ZEFSAII (Michael W. Deem and Ramdas Pophale) SiO2 
 PCOD8225199
Probable space group: P B A M
;
_chemical_formula_sum "Si O2"
_cell_formula_units_Z 56
_cell_length_a 24.142334
_cell_length_b 13.455052
_cell_length_c 8.979332
_cell_angle_alpha 90.000000
_cell_angle_beta 90.000000
_cell_angle_gamma 90.000000
_cell_volume 2916.813516
_symmetry_space_group_name_H-M "P B A M"
_symmetry_group_IT_number 55
_symmetry_cell_setting 'orthorhombic'
loop_
_space_group_symop_operation_xyz
x,y,z
-x,-y,z
1/2+x,1/2-y,-z
1/2-x,1/2+y,-z
-x,-y,-z
x,y,-z
1/2-x,1/2+y,z
1/2+x,1/2-y,z
loop_
_atom_site_type_symbol
_atom_site_label
_atom_site_fract_x
_atom_site_fract_y
_atom_site_fract_z
Si Si1 0.055728 0.220380 0.825381
Si Si2 0.162423 0.532552 0.327183
Si Si3 0.944487 0.552961 0.823492
Si Si4 0.157965 0.760324 0.670846
Si Si5 0.725441 0.554422 0.326232
Si Si6 0.062479 0.869270 0.825427
Si Si7 0.884443 0.949157 0.676819
O O1 0.056691 0.333477 0.767879
O O2 0.103693 0.160472 0.739573
O O3 0.997205 0.172759 0.783143
O O4 0.067575 0.214557 0.000000
O O5 0.152374 0.507461 0.500000
O O6 0.107834 0.505432 0.238314
O O7 0.176505 0.648147 0.303249
O O8 0.214788 0.472922 0.256832
O O9 0.000000 0.500000 0.762601
O O10 0.942913 0.547307 0.000000
O O11 0.139927 0.780557 0.500000
O O12 0.210206 0.831262 0.710615
O O13 0.106474 0.786294 0.775618
O O14 0.731363 0.534601 0.500000
O O15 0.676386 0.482897 0.266567
O O16 0.070723 0.973198 0.740876
O O17 0.068448 0.888985 0.000000
O O18 0.888633 0.949270 0.500000
#
# Coordination Sequence:
#
# PCOD8225199 Si02
#       7
#     8   8   8   8   8   8   8
#     4  10  21  35  52  76 107 142 176 215 264 313
#     4  10  20  35  57  81 104 135 177 222 263 308
#     4  10  22  40  57  75 105 141 176 216 263 316
#     4   9  18  33  53  77 106 139 177 221 263 307
#     4   8  17  34  53  76 107 140 172 210 261 315
#     4  10  19  33  54  77 105 143 181 213 255 313
#     4  10  20  34  54  80 109 140 174 215 262 310
#
# _framework density 19.199033
#
# number of rings (size 3 to 8) (size 9 to 14) (size 15 to 20)
#    0.000    2.429    0.000    3.000    0.000    6.571 
#    0.000    6.429    0.000    0.000    0.000    0.000 
#    0.000    0.000    0.000    0.000    0.000    0.000 
#
# Total GULP energy -694424.940572 kJ/mol
# GULP energy per Si atom -12400.445367 kJ/mol
# Density = 1.915534 g / cm^3
# Si number density = 19.199033 Si / 1000 Ang^3
#
#
#
# Elastic Constant Matrix: (Units=GPa)
#
#
# Indices 1 2 3 4 5 6 
#
# 1 130.5504 68.6137 25.4406 0.0000 0.0000 0.0000
# 2 68.6137 132.1557 28.6711 0.0000 0.0000 0.0000
# 3 25.4406 28.6711 30.6502 0.0000 0.0000 0.0000
# 4 0.0000 0.0000 0.0000 29.8871 0.0000 0.0000
# 5 0.0000 0.0000 0.0000 0.0000 4.6112 0.0000
# 6 0.0000 0.0000 0.0000 0.0000 0.0000 26.5448
#
#
#
# Elastic Compliance Matrix: (Units=1/GPa)
#
#
# Indices 1 2 3 4 5 6 
#
# 1 0.011066 -0.004708 -0.004781 0.000000 0.000000 0.000000
# 2 -0.004708 0.011497 -0.006846 0.000000 0.000000 0.000000
# 3 -0.004781 -0.006846 0.042999 0.000000 0.000000 0.000000
# 4 0.000000 0.000000 0.000000 0.033459 0.000000 0.000000
# 5 0.000000 0.000000 0.000000 0.000000 0.216862 0.000000
# 6 0.000000 0.000000 0.000000 0.000000 0.000000 0.037672
#
#
# Mechanical properties :
#
#
# Convention : Reuss Voigt Hill
#
# Bulk Modulus (GPa) = 30.40392 59.86746 45.13569
# Shear Modulus (GPa) = 12.58846 23.58401 18.08624
#
# Velocity S-wave (km/s) = 2.56341 3.50865 3.07259
# Velocity P-wave (km/s) = 4.96306 6.90394 6.01234
#
# Compressibility (1/GPa) = 0.03289050
#
# Stress axis : x y z
#
# Youngs Moduli (GPa) = 90.36670 86.98280 23.25643
#
# Poissons Ratio (x) = 0.40952 0.11119
# Poissons Ratio (y) = 0.42546 0.15922
# Poissons Ratio (z) = 0.43205 0.59551
#
# Static dielectric constant tensor:
#      x y z
#    x 3.594600 0.000000 0.000000 
#    y 0.000000 3.700630 0.000000 
#    z 0.000000 0.000000 3.304080 
# 
# 
# High freq. dielectric constant tensor:
#      x y z
#    x 1.746210 0.000000 0.000000 
#    y 0.000000 1.756410 0.000000 
#    z 0.000000 0.000000 1.725840 
# 
# From -- ./inp_files/8731.got.cif
#   From: 2010.03.12/outbox.cif.g09.slc.cpg/sg55_5_cif.got.tgz:8731.got - 2010.04.16 15:19:21.
