data_PCOD8225799
_publ_section_title
;
Structure prediction by ZEFSAII (Michael W. Deem and Ramdas Pophale) SiO2 
 PCOD8225799
Probable space group: P B A M
;
_chemical_formula_sum "Si O2"
_cell_formula_units_Z 40
_cell_length_a 28.294533
_cell_length_b 5.016450
_cell_length_c 12.683772
_cell_angle_alpha 90.000000
_cell_angle_beta 90.000000
_cell_angle_gamma 90.000000
_cell_volume 1800.310626
_symmetry_space_group_name_H-M "P B A M"
_symmetry_group_IT_number 55
_symmetry_cell_setting 'orthorhombic'
loop_
_space_group_symop_operation_xyz
x,y,z
-x,-y,z
1/2+x,1/2-y,-z
1/2-x,1/2+y,-z
-x,-y,-z
x,y,-z
1/2-x,1/2+y,z
1/2+x,1/2-y,z
loop_
_atom_site_type_symbol
_atom_site_label
_atom_site_fract_x
_atom_site_fract_y
_atom_site_fract_z
Si Si1 0.717207 0.242633 0.771126
Si Si2 0.581316 0.827697 0.304208
Si Si3 0.500000 0.500000 0.743896
Si Si4 0.051384 0.378940 0.884504
Si Si5 0.719953 0.302534 0.000000
Si Si6 0.132642 0.186425 0.379471
O O1 0.743513 0.519764 0.753811
O O2 0.693397 0.234886 0.889415
O O3 0.676635 0.199366 0.685506
O O4 0.527100 0.724111 0.326175
O O5 0.618232 0.596114 0.329936
O O6 0.585015 0.919588 0.180979
O O7 0.591150 0.090603 0.374757
O O8 0.456783 0.611954 0.815806
O O9 0.000000 0.500000 0.900737
O O10 0.073799 0.317891 0.000000
O O11 0.733257 0.614789 0.000000
O O12 0.147248 0.139105 0.500000
#
# Coordination Sequence:
#
# PCOD8225799 Si02
#       6
#     8   8   4   8   4   8
#     4  10  21  41  68  94 125 163 208 254 322 396
#     4  11  23  43  62  93 131 168 216 268 326 381
#     4  10  19  40  69  88 134 170 223 259 326 406
#     4   9  18  35  65  95 127 167 208 263 321 384
#     4   8  16  34  62  92 122 157 191 247 313 384
#     4  12  26  44  64  92 131 170 218 280 321 362
#
# _framework density 22.218388000000001
#
# number of rings (size 3 to 8) (size 9 to 14) (size 15 to 20)
#    0.000    1.800    2.000    2.100    0.000    1.600 
#    3.600    3.000    0.000    0.000    0.000    0.000 
#    0.000    0.000    0.000    0.000    0.000    0.000 
#
# Total GULP energy -495584.353606 kJ/mol
# GULP energy per Si atom -12389.608840 kJ/mol
# Density = 2.216782 g / cm^3
# Si number density = 22.218388 Si / 1000 Ang^3
#
#
#
# Elastic Constant Matrix: (Units=GPa)
#
#
# Indices 1 2 3 4 5 6 
#
# 1 50.3916 22.6558 67.1442 0.0000 0.0000 0.0000
# 2 22.6558 105.1426 36.7617 0.0000 0.0000 0.0000
# 3 67.1442 36.7617 161.1617 0.0000 0.0000 0.0000
# 4 0.0000 0.0000 0.0000 19.9709 0.0000 0.0000
# 5 0.0000 0.0000 0.0000 0.0000 24.4436 0.0000
# 6 0.0000 0.0000 0.0000 0.0000 0.0000 32.8747
#
#
#
# Elastic Compliance Matrix: (Units=1/GPa)
#
#
# Indices 1 2 3 4 5 6 
#
# 1 0.045744 -0.003470 -0.018267 0.000000 0.000000 0.000000
# 2 -0.003470 0.010598 -0.000972 0.000000 0.000000 0.000000
# 3 -0.018267 -0.000972 0.014037 0.000000 0.000000 0.000000
# 4 0.000000 0.000000 0.000000 0.050073 0.000000 0.000000
# 5 0.000000 0.000000 0.000000 0.000000 0.040911 0.000000
# 6 0.000000 0.000000 0.000000 0.000000 0.000000 0.030419
#
#
# Mechanical properties :
#
#
# Convention : Reuss Voigt Hill
#
# Bulk Modulus (GPa) = 40.06035 63.31326 51.68680
# Shear Modulus (GPa) = 20.36501 28.13345 24.24923
#
# Velocity S-wave (km/s) = 3.03080 3.56226 3.30722
# Velocity P-wave (km/s) = 5.50609 6.74369 6.15607
#
# Compressibility (1/GPa) = 0.02496234
#
# Stress axis : x y z
#
# Youngs Moduli (GPa) = 21.86077 94.35390 71.24044
#
# Poissons Ratio (x) = 0.32742 1.30132
# Poissons Ratio (y) = 0.07586 0.06923
# Poissons Ratio (z) = 0.39932 0.09169
#
# Static dielectric constant tensor:
#      x y z
#    x 3.531170 0.000000 0.000000 
#    y 0.000000 4.270560 0.000000 
#    z 0.000000 0.000000 4.237000 
# 
# 
# High freq. dielectric constant tensor:
#      x y z
#    x 1.828420 0.000000 0.000000 
#    y 0.000000 1.897430 0.000000 
#    z 0.000000 0.000000 1.864530 
# 
# From -- ./inp_files/15859.got.cif
#   From: 2010.03.12/outbox.cif.g09.slc.cpg/sg55_8_cif.got.tgz:15859.got - 2010.04.16 15:19:21.
