data_PCOD8225775
_publ_section_title
;
Structure prediction by ZEFSAII (Michael W. Deem and Ramdas Pophale) SiO2 
 PCOD8225775
Probable space group: P B A M
;
_chemical_formula_sum "Si O2"
_cell_formula_units_Z 40
_cell_length_a 18.593219
_cell_length_b 12.371115
_cell_length_c 8.869008
_cell_angle_alpha 90.000000
_cell_angle_beta 90.000000
_cell_angle_gamma 90.000000
_cell_volume 2040.039025
_symmetry_space_group_name_H-M "P B A M"
_symmetry_group_IT_number 55
_symmetry_cell_setting 'orthorhombic'
loop_
_space_group_symop_operation_xyz
x,y,z
-x,-y,z
1/2+x,1/2-y,-z
1/2-x,1/2+y,-z
-x,-y,-z
x,y,-z
1/2-x,1/2+y,z
1/2+x,1/2-y,z
loop_
_atom_site_type_symbol
_atom_site_label
_atom_site_fract_x
_atom_site_fract_y
_atom_site_fract_z
Si Si1 0.893852 0.189033 0.674084
Si Si2 0.693902 0.894928 0.677525
Si Si3 0.045089 0.219495 0.822542
Si Si4 0.426495 0.942589 0.321194
Si Si5 0.851220 0.945964 0.675663
O O1 0.917066 0.205374 0.500000
O O2 0.833428 0.275800 0.721096
O O3 0.962609 0.208427 0.776435
O O4 0.859750 0.072949 0.702918
O O5 0.697758 0.910532 0.500000
O O6 0.773785 0.911599 0.743233
O O7 0.639226 0.985141 0.741221
O O8 0.081092 0.325296 0.751462
O O9 0.086768 0.114128 0.766172
O O10 0.050739 0.227449 0.000000
O O11 0.424450 0.929183 0.500000
O O12 0.500000 0.000000 0.269556
O O13 0.858839 0.916123 0.500000
#
# Coordination Sequence:
#
# PCOD8225775 Si02
#       5
#     8   8   8   8   8
#     4  10  20  39  63  89 118 152 199 249 295 347
#     4   9  19  36  62  94 118 145 191 251 307 349
#     4  12  25  39  58  86 123 163 200 240 291 355
#     4  10  19  37  65  90 115 150 196 250 297 344
#     4  10  22  38  63  91 118 153 198 251 299 350
#
# _framework density 19.607468000000001
#
# number of rings (size 3 to 8) (size 9 to 14) (size 15 to 20)
#    0.000    1.800    2.000    2.400    2.800    3.600 
#    0.000    2.000    0.000    0.000    0.000    0.000 
#    0.000    0.000    0.000    0.000    0.000    0.000 
#
# Total GULP energy -496149.498880 kJ/mol
# GULP energy per Si atom -12403.737472 kJ/mol
# Density = 1.956284 g / cm^3
# Si number density = 19.607468 Si / 1000 Ang^3
#
#
#
# Elastic Constant Matrix: (Units=GPa)
#
#
# Indices 1 2 3 4 5 6 
#
# 1 39.3614 40.2768 6.7663 0.0000 0.0000 0.0000
# 2 40.2768 129.6066 29.2548 0.0000 0.0000 0.0000
# 3 6.7663 29.2548 41.7602 0.0000 0.0000 0.0000
# 4 0.0000 0.0000 0.0000 7.1658 0.0000 0.0000
# 5 0.0000 0.0000 0.0000 0.0000 4.7409 0.0000
# 6 0.0000 0.0000 0.0000 0.0000 0.0000 36.9878
#
#
#
# Elastic Compliance Matrix: (Units=1/GPa)
#
#
# Indices 1 2 3 4 5 6 
#
# 1 0.037466 -0.012202 0.002478 0.000000 0.000000 0.000000
# 2 -0.012202 0.013139 -0.007227 0.000000 0.000000 0.000000
# 3 0.002478 -0.007227 0.028608 0.000000 0.000000 0.000000
# 4 0.000000 0.000000 0.000000 0.139552 0.000000 0.000000
# 5 0.000000 0.000000 0.000000 0.000000 0.210928 0.000000
# 6 0.000000 0.000000 0.000000 0.000000 0.000000 0.027036
#
#
# Mechanical properties :
#
#
# Convention : Reuss Voigt Hill
#
# Bulk Modulus (GPa) = 22.07080 40.36933 31.22006
# Shear Modulus (GPa) = 9.88659 18.74092 14.31376
#
# Velocity S-wave (km/s) = 2.24793 3.09496 2.70481
# Velocity P-wave (km/s) = 4.24480 5.77972 5.07068
#
# Compressibility (1/GPa) = 0.04530874
#
# Stress axis : x y z
#
# Youngs Moduli (GPa) = 26.69119 76.10954 34.95548
#
# Poissons Ratio (x) = 0.92870 -0.08661
# Poissons Ratio (y) = 0.32569 0.25263
# Poissons Ratio (z) = -0.06613 0.55007
#
# Static dielectric constant tensor:
#      x y z
#    x 3.788380 0.000000 0.000000 
#    y 0.000000 3.736810 0.000000 
#    z 0.000000 0.000000 3.206170 
# 
# 
# High freq. dielectric constant tensor:
#      x y z
#    x 1.773200 0.000000 0.000000 
#    y 0.000000 1.782920 0.000000 
#    z 0.000000 0.000000 1.723010 
# 
# From -- ./inp_files/3590.got.cif
#   From: 2010.03.12/outbox.cif.g09.slc.cpg/sg55_2_cif.got.tgz:3590.got - 2010.04.16 15:19:21.
