data_PCOD8225865
_publ_section_title
;
Structure prediction by ZEFSAII (Michael W. Deem and Ramdas Pophale) SiO2 
 PCOD8225865
Probable space group: P B A M
;
_chemical_formula_sum "Si O2"
_cell_formula_units_Z 56
_cell_length_a 14.885854
_cell_length_b 21.300526
_cell_length_c 8.572167
_cell_angle_alpha 90.000000
_cell_angle_beta 90.000000
_cell_angle_gamma 90.000000
_cell_volume 2718.032883
_symmetry_space_group_name_H-M "P B A M"
_symmetry_group_IT_number 55
_symmetry_cell_setting 'orthorhombic'
loop_
_space_group_symop_operation_xyz
x,y,z
-x,-y,z
1/2+x,1/2-y,-z
1/2-x,1/2+y,-z
-x,-y,-z
x,y,-z
1/2-x,1/2+y,z
1/2+x,1/2-y,z
loop_
_atom_site_type_symbol
_atom_site_label
_atom_site_fract_x
_atom_site_fract_y
_atom_site_fract_z
Si Si1 0.577338 0.454263 0.324843
Si Si2 0.824090 0.332324 0.184352
Si Si3 0.998863 0.263597 0.178137
Si Si4 0.762153 0.463643 0.821122
Si Si5 0.190398 0.273025 0.318082
Si Si6 0.237289 0.900857 0.814942
Si Si7 0.936233 0.145017 0.674447
O O1 0.500000 0.500000 0.265372
O O2 0.610416 0.472836 0.500000
O O3 0.656139 0.454903 0.200654
O O4 0.534736 0.385114 0.327423
O O5 0.929291 0.319374 0.219601
O O6 0.809403 0.402621 0.257025
O O7 0.754832 0.282843 0.260333
O O8 0.804776 0.329347 0.000000
O O9 0.937477 0.202497 0.205817
O O10 0.085386 0.260020 0.288297
O O11 0.031505 0.267472 0.000000
O O12 0.788115 0.534117 0.760046
O O13 0.788219 0.460310 0.000000
O O14 0.206830 0.281218 0.500000
O O15 0.209436 0.339072 0.234193
O O16 0.139787 0.903183 0.733405
O O17 0.224993 0.901925 0.000000
O O18 0.910800 0.168077 0.500000
#
# Coordination Sequence:
#
# PCOD8225865 Si02
#       7
#     8   8   8   8   8   8   8
#     4  10  20  33  50  79 119 158 192 236 297 365
#     4  10  22  42  65  92 124 160 204 255 311 369
#     4  11  23  40  64  89 120 159 205 256 309 368
#     4  10  22  38  59  87 120 158 204 254 304 365
#     4  12  25  41  64  92 124 162 207 257 310 368
#     4  11  22  38  60  87 120 160 203 248 303 362
#     4  11  21  35  57  86 121 157 199 248 303 364
#
# _framework density 20.603135000000002
#
# number of rings (size 3 to 8) (size 9 to 14) (size 15 to 20)
#    0.000    1.286    2.857    3.429    0.000    5.429 
#    0.000    0.714    0.000    4.286    0.000    0.000 
#    0.000    0.000    0.000    0.000    0.000    0.000 
#
# Total GULP energy -694024.767175 kJ/mol
# GULP energy per Si atom -12393.299414 kJ/mol
# Density = 2.055624 g / cm^3
# Si number density = 20.603135 Si / 1000 Ang^3
#
#
#
# Elastic Constant Matrix: (Units=GPa)
#
#
# Indices 1 2 3 4 5 6 
#
# 1 59.1351 21.2188 13.7265 0.0000 0.0000 0.0000
# 2 21.2188 135.5521 21.9868 0.0000 0.0000 0.0000
# 3 13.7265 21.9868 47.3899 0.0000 0.0000 0.0000
# 4 0.0000 0.0000 0.0000 18.5675 0.0000 0.0000
# 5 0.0000 0.0000 0.0000 0.0000 13.9014 0.0000
# 6 0.0000 0.0000 0.0000 0.0000 0.0000 31.6037
#
#
#
# Elastic Compliance Matrix: (Units=1/GPa)
#
#
# Indices 1 2 3 4 5 6 
#
# 1 0.018727 -0.002219 -0.004395 0.000000 0.000000 0.000000
# 2 -0.002219 0.008240 -0.003181 0.000000 0.000000 0.000000
# 3 -0.004395 -0.003181 0.023850 0.000000 0.000000 0.000000
# 4 0.000000 0.000000 0.000000 0.053857 0.000000 0.000000
# 5 0.000000 0.000000 0.000000 0.000000 0.071935 0.000000
# 6 0.000000 0.000000 0.000000 0.000000 0.000000 0.031642
#
#
# Mechanical properties :
#
#
# Convention : Reuss Voigt Hill
#
# Bulk Modulus (GPa) = 32.02130 39.54904 35.78517
# Shear Modulus (GPa) = 20.98640 25.15752 23.07196
#
# Velocity S-wave (km/s) = 3.19502 3.49815 3.35001
# Velocity P-wave (km/s) = 5.40246 5.96266 5.68946
#
# Compressibility (1/GPa) = 0.03122921
#
# Stress axis : x y z
#
# Youngs Moduli (GPa) = 53.39992 121.35308 41.92845
#
# Poissons Ratio (x) = 0.26923 0.18427
# Poissons Ratio (y) = 0.11847 0.13336
# Poissons Ratio (z) = 0.23469 0.38597
#
# Static dielectric constant tensor:
#      x y z
#    x 3.563340 0.000000 0.000000 
#    y 0.000000 4.188650 0.000000 
#    z 0.000000 0.000000 3.604540 
# 
# 
# High freq. dielectric constant tensor:
#      x y z
#    x 1.784740 0.000000 0.000000 
#    y 0.000000 1.823040 0.000000 
#    z 0.000000 0.000000 1.797470 
# 
# From -- ./inp_files/6081.got.cif
#   From: 2010.03.12/outbox.cif.g09.slc.cpg/sg55_4_cif.got.tgz:6081.got - 2010.04.16 15:19:21.
