data_PCOD8225599
_publ_section_title
;
Structure prediction by ZEFSAII (Michael W. Deem and Ramdas Pophale) SiO2 
 PCOD8225599
Probable space group: P B A M
;
_chemical_formula_sum "Si O2"
_cell_formula_units_Z 64
_cell_length_a 12.134420
_cell_length_b 30.890353
_cell_length_c 8.633778
_cell_angle_alpha 90.000000
_cell_angle_beta 90.000000
_cell_angle_gamma 90.000000
_cell_volume 3236.255276
_symmetry_space_group_name_H-M "P B A M"
_symmetry_group_IT_number 55
_symmetry_cell_setting 'orthorhombic'
loop_
_space_group_symop_operation_xyz
x,y,z
-x,-y,z
1/2+x,1/2-y,-z
1/2-x,1/2+y,-z
-x,-y,-z
x,y,-z
1/2-x,1/2+y,z
1/2+x,1/2-y,z
loop_
_atom_site_type_symbol
_atom_site_label
_atom_site_fract_x
_atom_site_fract_y
_atom_site_fract_z
Si Si1 0.006787 0.199312 0.317722
Si Si2 0.963384 0.453641 0.184957
Si Si3 0.108463 0.372906 0.816921
Si Si4 0.736227 0.421828 0.179102
Si Si5 0.002982 0.049950 0.816442
Si Si6 0.473306 0.205313 0.322406
Si Si7 0.352173 0.377836 0.316280
Si Si8 0.757740 0.834162 0.324790
O O1 0.988425 0.201427 0.500000
O O2 0.986764 0.247036 0.248037
O O3 0.131404 0.189028 0.271096
O O4 0.924360 0.162605 0.250003
O O5 0.041888 0.414971 0.246119
O O6 0.000000 0.500000 0.250559
O O7 0.838807 0.448508 0.249307
O O8 0.964549 0.452480 0.000000
O O9 0.042508 0.329598 0.773530
O O10 0.228102 0.372696 0.740799
O O11 0.122668 0.375049 0.000000
O O12 0.618636 0.432961 0.255331
O O13 0.765928 0.372174 0.205071
O O14 0.726580 0.432939 0.000000
O O15 0.902921 0.076831 0.742604
O O16 0.994565 0.055847 0.000000
O O17 0.000000 0.000000 0.767756
O O18 0.515112 0.203095 0.500000
O O19 0.342827 0.198553 0.312530
O O20 0.354172 0.378211 0.500000
O O21 0.770149 0.852346 0.500000
#
# Coordination Sequence:
#
# PCOD8225599 Si02
#       8
#     8   8   8   8   8   8   8   8
#     4   9  20  37  59  85 112 150 193 234 281 337
#     4   9  19  35  58  83 109 148 191 229 276 339
#     4  11  23  39  59  84 118 151 188 239 293 346
#     4  10  19  35  59  84 112 146 188 235 284 339
#     4  10  22  38  60  88 118 153 195 240 290 348
#     4  10  21  37  61  86 112 149 194 236 280 339
#     4  11  23  40  61  84 117 156 197 241 290 347
#     4  10  19  35  59  84 112 145 187 237 284 333
#
# _framework density 19.775943000000002
#
# number of rings (size 3 to 8) (size 9 to 14) (size 15 to 20)
#    0.000    2.000    2.500    0.750    3.500    0.250 
#    0.000    1.875    0.000    1.875    0.000    0.000 
#    0.000    0.000    0.000    0.000    0.000    0.000 
#
# Total GULP energy -793451.612283 kJ/mol
# GULP energy per Si atom -12397.681442 kJ/mol
# Density = 1.973093 g / cm^3
# Si number density = 19.775943 Si / 1000 Ang^3
#
#
#
# Elastic Constant Matrix: (Units=GPa)
#
#
# Indices 1 2 3 4 5 6 
#
# 1 136.9511 46.6490 23.7641 0.0000 0.0000 0.0000
# 2 46.6490 136.2690 23.2661 0.0000 0.0000 0.0000
# 3 23.7641 23.2661 30.6553 0.0000 0.0000 0.0000
# 4 0.0000 0.0000 0.0000 23.3848 0.0000 0.0000
# 5 0.0000 0.0000 0.0000 0.0000 25.6201 0.0000
# 6 0.0000 0.0000 0.0000 0.0000 0.0000 35.9677
#
#
#
# Elastic Compliance Matrix: (Units=1/GPa)
#
#
# Indices 1 2 3 4 5 6 
#
# 1 0.008958 -0.002161 -0.005304 0.000000 0.000000 0.000000
# 2 -0.002161 0.008952 -0.005119 0.000000 0.000000 0.000000
# 3 -0.005304 -0.005119 0.040618 0.000000 0.000000 0.000000
# 4 0.000000 0.000000 0.000000 0.042763 0.000000 0.000000
# 5 0.000000 0.000000 0.000000 0.000000 0.039032 0.000000
# 6 0.000000 0.000000 0.000000 0.000000 0.000000 0.027803
#
#
# Mechanical properties :
#
#
# Convention : Reuss Voigt Hill
#
# Bulk Modulus (GPa) = 29.97651 54.58153 42.27902
# Shear Modulus (GPa) = 24.46004 31.00763 27.73383
#
# Velocity S-wave (km/s) = 3.52072 3.96403 3.74893
# Velocity P-wave (km/s) = 5.63189 6.97217 6.33756
#
# Compressibility (1/GPa) = 0.03335945
#
# Stress axis : x y z
#
# Youngs Moduli (GPa) = 111.62668 111.70381 24.61960
#
# Poissons Ratio (x) = 0.24140 0.13059
# Poissons Ratio (y) = 0.24123 0.12603
# Poissons Ratio (z) = 0.59212 0.57182
#
# Static dielectric constant tensor:
#      x y z
#    x 3.885850 0.000000 0.000000 
#    y 0.000000 3.867240 0.000000 
#    z 0.000000 0.000000 3.264460 
# 
# 
# High freq. dielectric constant tensor:
#      x y z
#    x 1.790400 0.000000 0.000000 
#    y 0.000000 1.778560 0.000000 
#    z 0.000000 0.000000 1.734780 
# 
# From -- ./inp_files/4496.got.cif
#   From: 2010.03.12/outbox.cif.g09.slc.cpg/sg55_3_cif.got.tgz:4496.got - 2010.04.16 15:19:21.
