data_PCOD8225443
_publ_section_title
;
Structure prediction by ZEFSAII (Michael W. Deem and Ramdas Pophale) SiO2 
 PCOD8225443
Probable space group: P B A M
;
_chemical_formula_sum "Si O2"
_cell_formula_units_Z 48
_cell_length_a 9.079150
_cell_length_b 33.314853
_cell_length_c 7.879161
_cell_angle_alpha 90.000000
_cell_angle_beta 90.000000
_cell_angle_gamma 90.000000
_cell_volume 2383.214142
_symmetry_space_group_name_H-M "P B A M"
_symmetry_group_IT_number 55
_symmetry_cell_setting 'orthorhombic'
loop_
_space_group_symop_operation_xyz
x,y,z
-x,-y,z
1/2+x,1/2-y,-z
1/2-x,1/2+y,-z
-x,-y,-z
x,y,-z
1/2-x,1/2+y,z
1/2+x,1/2-y,z
loop_
_atom_site_type_symbol
_atom_site_label
_atom_site_fract_x
_atom_site_fract_y
_atom_site_fract_z
Si Si1 0.895642 0.166203 0.810221
Si Si2 0.218111 0.698579 0.500000
Si Si3 0.163092 0.493287 0.804587
Si Si4 0.830855 0.081635 0.700894
Si Si5 0.237310 0.146762 0.187160
Si Si6 0.656638 0.433987 0.306811
Si Si7 0.061641 0.780764 0.500000
O O1 0.800473 0.126350 0.771391
O O2 0.864250 0.199900 0.668450
O O3 0.064786 0.154374 0.795269
O O4 0.857143 0.182293 0.000000
O O5 0.181444 0.672349 0.667710
O O6 0.101106 0.734225 0.500000
O O7 0.385266 0.714743 0.500000
O O8 0.206674 0.447132 0.778077
O O9 0.276200 0.521805 0.705572
O O10 0.000000 0.500000 0.730237
O O11 0.168534 0.505611 0.000000
O O12 0.818099 0.081865 0.500000
O O13 0.989871 0.065428 0.764287
O O14 0.258470 0.098778 0.210353
O O15 0.296278 0.159290 0.000000
O O16 0.650096 0.419446 0.500000
#
# Coordination Sequence:
#
# PCOD8225443 Si02
#       7
#     8   4   8   8   8   8   4
#     4   9  17  32  56  82 108 139 176 222 269 311
#     4  10  20  36  56  81 110 139 175 216 265 324
#     4  11  24  37  48  72 112 151 184 220 267 323
#     4  10  19  34  57  82 104 134 183 233 270 314
#     4   9  17  32  56  82 108 139 176 222 269 311
#     4  10  19  34  57  82 104 134 183 233 270 314
#     4  10  20  36  56  81 110 139 175 216 265 324
#
# _framework density 20.140867
#
# number of rings (size 3 to 8) (size 9 to 14) (size 15 to 20)
#    0.000    2.167    1.667    2.000    0.000    6.000 
#    0.000    1.667    0.000    2.000    0.000    0.000 
#    0.000    0.000    0.000    0.000    0.000    0.000 
#
# Total GULP energy -595186.451694 kJ/mol
# GULP energy per Si atom -12399.717744 kJ/mol
# Density = 2.009503 g / cm^3
# Si number density = 20.140867 Si / 1000 Ang^3
#
#
#
# Elastic Constant Matrix: (Units=GPa)
#
#
# Indices 1 2 3 4 5 6 
#
# 1 26.8822 -12.7869 6.5286 0.0000 0.0000 0.0000
# 2 -12.7869 47.3287 22.5736 0.0000 0.0000 0.0000
# 3 6.5286 22.5736 111.1401 0.0000 0.0000 0.0000
# 4 0.0000 0.0000 0.0000 23.8201 0.0000 0.0000
# 5 0.0000 0.0000 0.0000 0.0000 15.0783 0.0000
# 6 0.0000 0.0000 0.0000 0.0000 0.0000 27.6387
#
#
#
# Elastic Compliance Matrix: (Units=1/GPa)
#
#
# Indices 1 2 3 4 5 6 
#
# 1 0.045790 0.015119 -0.005761 0.000000 0.000000 0.000000
# 2 0.015119 0.028387 -0.006654 0.000000 0.000000 0.000000
# 3 -0.005761 -0.006654 0.010687 0.000000 0.000000 0.000000
# 4 0.000000 0.000000 0.000000 0.041981 0.000000 0.000000
# 5 0.000000 0.000000 0.000000 0.000000 0.066320 0.000000
# 6 0.000000 0.000000 0.000000 0.000000 0.000000 0.036181
#
#
# Mechanical properties :
#
#
# Convention : Reuss Voigt Hill
#
# Bulk Modulus (GPa) = 11.07750 24.22018 17.64884
# Shear Modulus (GPa) = 19.68274 24.57647 22.12960
#
# Velocity S-wave (km/s) = 3.12950 3.49697 3.31832
# Velocity P-wave (km/s) = 4.30933 5.32509 4.84390
#
# Compressibility (1/GPa) = 0.09027307
#
# Stress axis : x y z
#
# Youngs Moduli (GPa) = 21.83891 35.22732 93.56731
#
# Poissons Ratio (x) = -0.53259 0.53900
# Poissons Ratio (y) = -0.33018 0.62258
# Poissons Ratio (z) = 0.12580 0.23440
#
# Static dielectric constant tensor:
#      x y z
#    x 3.223100 0.000000 0.000000 
#    y 0.000000 3.548460 0.000000 
#    z 0.000000 0.000000 3.826810 
# 
# 
# High freq. dielectric constant tensor:
#      x y z
#    x 1.736960 0.000000 0.000000 
#    y 0.000000 1.781130 0.000000 
#    z 0.000000 0.000000 1.801080 
# 
# From -- ./inp_files/2918.got.cif
#   From: 2010.03.12/outbox.cif.g09.slc.cpg/sg55_2_cif.got.tgz:2918.got - 2010.04.16 15:19:21.
