data_PCOD8225706
_publ_section_title
;
Structure prediction by ZEFSAII (Michael W. Deem and Ramdas Pophale) SiO2 
 PCOD8225706
Probable space group: P B A M
;
_chemical_formula_sum "Si O2"
_cell_formula_units_Z 40
_cell_length_a 8.875557
_cell_length_b 25.542905
_cell_length_c 8.812354
_cell_angle_alpha 90.000000
_cell_angle_beta 90.000000
_cell_angle_gamma 90.000000
_cell_volume 1997.826826
_symmetry_space_group_name_H-M "P B A M"
_symmetry_group_IT_number 55
_symmetry_cell_setting 'orthorhombic'
loop_
_space_group_symop_operation_xyz
x,y,z
-x,-y,z
1/2+x,1/2-y,-z
1/2-x,1/2+y,-z
-x,-y,-z
x,y,-z
1/2-x,1/2+y,z
1/2+x,1/2-y,z
loop_
_atom_site_type_symbol
_atom_site_label
_atom_site_fract_x
_atom_site_fract_y
_atom_site_fract_z
Si Si1 0.664872 0.308084 0.179915
Si Si2 0.169785 0.986994 0.175000
Si Si3 0.350122 0.092052 0.176897
Si Si4 0.172785 0.795938 0.819577
Si Si5 0.667929 0.107157 0.677555
O O1 0.740244 0.361950 0.235462
O O2 0.495554 0.304158 0.246246
O O3 0.765554 0.259859 0.239186
O O4 0.654993 0.306860 0.000000
O O5 0.219815 0.939380 0.279399
O O6 0.271533 0.037090 0.207956
O O7 0.182175 0.969394 0.000000
O O8 0.000000 0.000000 0.219252
O O9 0.500944 0.092032 0.273017
O O10 0.389280 0.099658 0.000000
O O11 0.284569 0.839961 0.760172
O O12 0.173247 0.798218 0.000000
O O13 0.673879 0.116654 0.500000
#
# Coordination Sequence:
#
# PCOD8225706 Si02
#       5
#     8   8   8   8   8
#     4   9  18  34  62  92 112 139 184 239 289 333
#     4  10  21  39  64  89 111 141 185 236 286 336
#     4  10  20  37  61  87 113 144 186 233 281 332
#     4  10  19  36  61  87 114 145 187 235 284 336
#     4  12  25  38  54  81 118 157 192 227 274 331
#
# _framework density 20.021756
#
# number of rings (size 3 to 8) (size 9 to 14) (size 15 to 20)
#    0.000    1.800    0.000    4.800    0.000   10.000 
#    0.000    7.000    0.000    0.000    0.000    0.000 
#    0.000    0.000    0.000    0.000    0.000    0.000 
#
# Total GULP energy -496181.912161 kJ/mol
# GULP energy per Si atom -12404.547804 kJ/mol
# Density = 1.997619 g / cm^3
# Si number density = 20.021756 Si / 1000 Ang^3
#
#
#
# Elastic Constant Matrix: (Units=GPa)
#
#
# Indices 1 2 3 4 5 6 
#
# 1 83.7633 -14.3587 17.5783 0.0000 0.0000 0.0000
# 2 -14.3587 61.0122 19.1445 0.0000 0.0000 0.0000
# 3 17.5783 19.1445 30.9598 0.0000 0.0000 0.0000
# 4 0.0000 0.0000 0.0000 6.8923 0.0000 0.0000
# 5 0.0000 0.0000 0.0000 0.0000 4.3521 0.0000
# 6 0.0000 0.0000 0.0000 0.0000 0.0000 31.9657
#
#
#
# Elastic Compliance Matrix: (Units=1/GPa)
#
#
# Indices 1 2 3 4 5 6 
#
# 1 0.016437 0.008433 -0.014547 0.000000 0.000000 0.000000
# 2 0.008433 0.024662 -0.020038 0.000000 0.000000 0.000000
# 3 -0.014547 -0.020038 0.052950 0.000000 0.000000 0.000000
# 4 0.000000 0.000000 0.000000 0.145089 0.000000 0.000000
# 5 0.000000 0.000000 0.000000 0.000000 0.229772 0.000000
# 6 0.000000 0.000000 0.000000 0.000000 0.000000 0.031284
#
#
# Mechanical properties :
#
#
# Convention : Reuss Voigt Hill
#
# Bulk Modulus (GPa) = 23.95522 24.49593 24.22557
# Shear Modulus (GPa) = 8.82747 18.86678 13.84713
#
# Velocity S-wave (km/s) = 2.10203 3.07304 2.63269
# Velocity P-wave (km/s) = 4.22870 4.98525 4.62248
#
# Compressibility (1/GPa) = 0.04174456
#
# Stress axis : x y z
#
# Youngs Moduli (GPa) = 60.83933 40.54756 18.88558
#
# Poissons Ratio (x) = -0.34193 0.27473
# Poissons Ratio (y) = -0.51305 0.37844
# Poissons Ratio (z) = 0.88503 0.81251
#
# Static dielectric constant tensor:
#      x y z
#    x 3.862020 0.000000 0.000000 
#    y 0.000000 3.833980 0.000000 
#    z 0.000000 0.000000 3.252310 
# 
# 
# High freq. dielectric constant tensor:
#      x y z
#    x 1.801220 0.000000 0.000000 
#    y 0.000000 1.800160 0.000000 
#    z 0.000000 0.000000 1.738280 
# 
# From -- ./inp_files/2282.got.cif
#   From: 2010.03.12/outbox.cif.g09.slc.cpg/sg55_2_cif.got.tgz:2282.got - 2010.04.16 15:19:21.
