data_PCOD8225023
_publ_section_title
;
Structure prediction by ZEFSAII (Michael W. Deem and Ramdas Pophale) SiO2 
 PCOD8225023
Probable space group: P B A M
;
_chemical_formula_sum "Si O2"
_cell_formula_units_Z 64
_cell_length_a 15.272405
_cell_length_b 24.778974
_cell_length_c 8.995599
_cell_angle_alpha 90.000000
_cell_angle_beta 90.000000
_cell_angle_gamma 90.000000
_cell_volume 3404.245247
_symmetry_space_group_name_H-M "P B A M"
_symmetry_group_IT_number 55
_symmetry_cell_setting 'orthorhombic'
loop_
_space_group_symop_operation_xyz
x,y,z
-x,-y,z
1/2+x,1/2-y,-z
1/2-x,1/2+y,-z
-x,-y,-z
x,y,-z
1/2-x,1/2+y,z
1/2+x,1/2-y,z
loop_
_atom_site_type_symbol
_atom_site_label
_atom_site_fract_x
_atom_site_fract_y
_atom_site_fract_z
Si Si1 0.294839 0.641711 0.828287
Si Si2 0.989436 0.831661 0.824468
Si Si3 0.680958 0.056980 0.822784
Si Si4 0.045061 0.276001 0.671418
Si Si5 0.010859 0.396181 0.672176
Si Si6 0.328869 0.364201 0.171840
Si Si7 0.675569 0.943812 0.674747
Si Si8 0.779910 0.736774 0.169212
O O1 0.397093 0.641865 0.778660
O O2 0.245204 0.601107 0.721550
O O3 0.253938 0.701109 0.801774
O O4 0.285030 0.623941 0.000000
O O5 0.071049 0.868707 0.766808
O O6 0.001535 0.771738 0.760228
O O7 0.994360 0.824788 0.000000
O O8 0.588216 0.079590 0.769985
O O9 0.759522 0.094371 0.755526
O O10 0.698889 0.997744 0.761975
O O11 0.680204 0.056376 0.000000
O O12 0.042325 0.260305 0.500000
O O13 0.996779 0.332671 0.702780
O O14 0.145089 0.283004 0.720633
O O15 0.033661 0.406877 0.500000
O O16 0.921835 0.425695 0.719381
O O17 0.302231 0.301834 0.198678
O O18 0.329072 0.378904 0.000000
O O19 0.683444 0.953769 0.500000
O O20 0.814960 0.730828 0.000000
#
# Coordination Sequence:
#
# PCOD8225023 Si02
#       8
#     8   8   8   8   8   8   8   8
#     4   9  19  35  56  83 111 141 187 235 275 324
#     4   9  19  36  58  82 114 149 181 226 282 333
#     4  11  22  38  61  86 111 140 188 239 279 330
#     4  10  19  32  51  80 115 147 183 221 266 328
#     4  10  22  38  54  78 114 153 185 220 275 337
#     4   9  18  34  58  86 112 143 182 228 283 333
#     4  11  24  40  57  76 110 155 192 229 281 335
#     4   9  17  33  55  81 112 145 181 225 278 330
#
# _framework density 18.800055
#
# number of rings (size 3 to 8) (size 9 to 14) (size 15 to 20)
#    0.000    2.250    1.250    2.250    1.750    5.000 
#    0.000    2.500    0.000    3.750    0.000    0.000 
#    0.000    0.000    0.000    0.000    0.000    0.000 
#
# Total GULP energy -793426.851230 kJ/mol
# GULP energy per Si atom -12397.294550 kJ/mol
# Density = 1.875727 g / cm^3
# Si number density = 18.800055 Si / 1000 Ang^3
#
#
#
# Elastic Constant Matrix: (Units=GPa)
#
#
# Indices 1 2 3 4 5 6 
#
# 1 107.5294 64.0704 36.1377 0.0000 0.0000 0.0000
# 2 64.0704 110.2973 40.3516 0.0000 0.0000 0.0000
# 3 36.1377 40.3516 49.4004 0.0000 0.0000 0.0000
# 4 0.0000 0.0000 0.0000 29.4617 0.0000 0.0000
# 5 0.0000 0.0000 0.0000 0.0000 18.5037 0.0000
# 6 0.0000 0.0000 0.0000 0.0000 0.0000 25.5866
#
#
#
# Elastic Compliance Matrix: (Units=1/GPa)
#
#
# Indices 1 2 3 4 5 6 
#
# 1 0.015231 -0.006805 -0.005583 0.000000 0.000000 0.000000
# 2 -0.006805 0.015971 -0.008067 0.000000 0.000000 0.000000
# 3 -0.005583 -0.008067 0.030917 0.000000 0.000000 0.000000
# 4 0.000000 0.000000 0.000000 0.033942 0.000000 0.000000
# 5 0.000000 0.000000 0.000000 0.000000 0.054043 0.000000
# 6 0.000000 0.000000 0.000000 0.000000 0.000000 0.039083
#
#
# Mechanical properties :
#
#
# Convention : Reuss Voigt Hill
#
# Bulk Modulus (GPa) = 47.15398 60.92740 54.04069
# Shear Modulus (GPa) = 21.08224 23.15491 22.11857
#
# Velocity S-wave (km/s) = 3.35235 3.51328 3.43376
# Velocity P-wave (km/s) = 6.33409 6.99543 6.67295
#
# Compressibility (1/GPa) = 0.02120712
#
# Stress axis : x y z
#
# Youngs Moduli (GPa) = 65.65677 62.61526 32.34488
#
# Poissons Ratio (x) = 0.42608 0.18060
# Poissons Ratio (y) = 0.44677 0.26094
# Poissons Ratio (z) = 0.36659 0.50514
#
# Static dielectric constant tensor:
#      x y z
#    x 3.646210 0.000000 0.000000 
#    y 0.000000 3.496840 0.000000 
#    z 0.000000 0.000000 3.303010 
# 
# 
# High freq. dielectric constant tensor:
#      x y z
#    x 1.730740 0.000000 0.000000 
#    y 0.000000 1.727340 0.000000 
#    z 0.000000 0.000000 1.716120 
# 
# From -- ./inp_files/6693.got.cif
#   From: 2010.03.12/outbox.cif.g09.slc.cpg/sg55_4_cif.got.tgz:6693.got - 2010.04.16 15:19:21.
