data_PCOD8225445
_publ_section_title
;
Structure prediction by ZEFSAII (Michael W. Deem and Ramdas Pophale) SiO2 
 PCOD8225445
Probable space group: P B A M
;
_chemical_formula_sum "Si O2"
_cell_formula_units_Z 56
_cell_length_a 19.491175
_cell_length_b 16.732237
_cell_length_c 9.057275
_cell_angle_alpha 90.000000
_cell_angle_beta 90.000000
_cell_angle_gamma 90.000000
_cell_volume 2953.857786
_symmetry_space_group_name_H-M "P B A M"
_symmetry_group_IT_number 55
_symmetry_cell_setting 'orthorhombic'
loop_
_space_group_symop_operation_xyz
x,y,z
-x,-y,z
1/2+x,1/2-y,-z
1/2-x,1/2+y,-z
-x,-y,-z
x,y,-z
1/2-x,1/2+y,z
1/2+x,1/2-y,z
loop_
_atom_site_type_symbol
_atom_site_label
_atom_site_fract_x
_atom_site_fract_y
_atom_site_fract_z
Si Si1 0.388763 0.323206 0.827772
Si Si2 0.855088 0.845776 0.326123
Si Si3 0.529688 0.243280 0.172214
Si Si4 0.693588 0.084295 0.326387
Si Si5 0.742830 0.238308 0.825422
Si Si6 0.940902 0.560726 0.827814
Si Si7 0.157887 0.974122 0.670811
O O1 0.454165 0.271964 0.780200
O O2 0.321673 0.273500 0.778116
O O3 0.389433 0.410318 0.754155
O O4 0.386805 0.339185 0.000000
O O5 0.846232 0.834083 0.500000
O O6 0.784365 0.820111 0.246234
O O7 0.917815 0.793683 0.268589
O O8 0.868057 0.938104 0.285215
O O9 0.534223 0.150007 0.209928
O O10 0.544307 0.259589 0.000000
O O11 0.686204 0.099974 0.500000
O O12 0.695594 0.168335 0.240929
O O13 0.627109 0.037930 0.264830
O O14 0.761705 0.034018 0.287658
O O15 0.732391 0.240119 0.000000
O O16 0.000000 0.500000 0.777387
O O17 0.924061 0.550236 0.000000
O O18 0.147240 0.956585 0.500000
#
# Coordination Sequence:
#
# PCOD8225445 Si02
#       7
#     8   8   8   8   8   8   8
#     4   9  20  37  57  81 111 148 189 232 281 335
#     4  11  22  36  56  83 113 149 191 229 281 340
#     4  10  21  38  57  81 115 150 187 232 283 337
#     4  10  19  35  57  79 107 143 185 230 279 333
#     4  10  19  34  57  82 108 143 187 234 280 331
#     4  10  21  36  56  82 114 150 186 228 283 338
#     4   9  21  38  55  80 113 147 185 235 283 328
#
# _framework density 18.958259000000002
#
# number of rings (size 3 to 8) (size 9 to 14) (size 15 to 20)
#    0.000    2.143    1.429    1.286    0.000    4.857 
#    0.000    4.286    0.000    0.000    0.000    0.000 
#    0.000    0.000    0.000    0.000    0.000    0.000 
#
# Total GULP energy -694535.437066 kJ/mol
# GULP energy per Si atom -12402.418519 kJ/mol
# Density = 1.891511 g / cm^3
# Si number density = 18.958259 Si / 1000 Ang^3
#
#
#
# Elastic Constant Matrix: (Units=GPa)
#
#
# Indices 1 2 3 4 5 6 
#
# 1 91.7695 53.1144 33.9488 0.0000 0.0000 0.0000
# 2 53.1144 101.4242 38.8420 0.0000 0.0000 0.0000
# 3 33.9488 38.8420 61.7396 0.0000 0.0000 0.0000
# 4 0.0000 0.0000 0.0000 28.9795 0.0000 0.0000
# 5 0.0000 0.0000 0.0000 0.0000 27.9067 0.0000
# 6 0.0000 0.0000 0.0000 0.0000 0.0000 29.6558
#
#
#
# Elastic Compliance Matrix: (Units=1/GPa)
#
#
# Indices 1 2 3 4 5 6 
#
# 1 0.016666 -0.006874 -0.004839 0.000000 0.000000 0.000000
# 2 -0.006874 0.015825 -0.006176 0.000000 0.000000 0.000000
# 3 -0.004839 -0.006176 0.022743 0.000000 0.000000 0.000000
# 4 0.000000 0.000000 0.000000 0.034507 0.000000 0.000000
# 5 0.000000 0.000000 0.000000 0.000000 0.035834 0.000000
# 6 0.000000 0.000000 0.000000 0.000000 0.000000 0.033720
#
#
# Mechanical properties :
#
#
# Convention : Reuss Voigt Hill
#
# Bulk Modulus (GPa) = 51.40007 56.30485 53.85246
# Shear Modulus (GPa) = 24.80671 25.91029 25.35850
#
# Velocity S-wave (km/s) = 3.62123 3.70090 3.66128
# Velocity P-wave (km/s) = 6.68248 6.93009 6.80741
#
# Compressibility (1/GPa) = 0.01945523
#
# Stress axis : x y z
#
# Youngs Moduli (GPa) = 60.00300 63.19234 43.96912
#
# Poissons Ratio (x) = 0.43441 0.21277
# Poissons Ratio (y) = 0.41249 0.27154
# Poissons Ratio (z) = 0.29036 0.39026
#
# Static dielectric constant tensor:
#      x y z
#    x 3.656720 0.000000 0.000000 
#    y 0.000000 3.489480 0.000000 
#    z 0.000000 0.000000 3.422570 
# 
# 
# High freq. dielectric constant tensor:
#      x y z
#    x 1.742230 0.000000 0.000000 
#    y 0.000000 1.731100 0.000000 
#    z 0.000000 0.000000 1.736310 
# 
# From -- ./inp_files/6142.got.cif
#   From: 2010.03.12/outbox.cif.g09.slc.cpg/sg55_4_cif.got.tgz:6142.got - 2010.04.16 15:19:21.
