data_PCOD8225815
_publ_section_title
;
Structure prediction by ZEFSAII (Michael W. Deem and Ramdas Pophale) SiO2 
 PCOD8225815
Probable space group: P B A M
;
_chemical_formula_sum "Si O2"
_cell_formula_units_Z 40
_cell_length_a 32.528841
_cell_length_b 9.439339
_cell_length_c 7.313288
_cell_angle_alpha 90.000000
_cell_angle_beta 90.000000
_cell_angle_gamma 90.000000
_cell_volume 2245.550620
_symmetry_space_group_name_H-M "P B A M"
_symmetry_group_IT_number 55
_symmetry_cell_setting 'orthorhombic'
loop_
_space_group_symop_operation_xyz
x,y,z
-x,-y,z
1/2+x,1/2-y,-z
1/2-x,1/2+y,-z
-x,-y,-z
x,y,-z
1/2-x,1/2+y,z
1/2+x,1/2-y,z
loop_
_atom_site_type_symbol
_atom_site_label
_atom_site_fract_x
_atom_site_fract_y
_atom_site_fract_z
Si Si1 0.203707 0.342578 0.290928
Si Si2 0.137746 0.379112 0.000000
Si Si3 0.556074 0.295539 0.000000
Si Si4 0.780529 0.335663 0.290630
Si Si5 0.427273 0.374266 0.000000
Si Si6 0.653590 0.796602 0.000000
Si Si7 0.508329 0.665009 0.705216
O O1 0.191411 0.316395 0.500000
O O2 0.223279 0.496951 0.259261
O O3 0.237648 0.230785 0.222871
O O4 0.162090 0.324238 0.177514
O O5 0.092753 0.314998 0.000000
O O6 0.133029 0.548445 0.000000
O O7 0.572502 0.455834 0.000000
O O8 0.529078 0.264762 0.181722
O O9 0.788815 0.294304 0.500000
O O10 0.818555 0.273109 0.178426
O O11 0.449546 0.312954 0.181668
O O12 0.380642 0.323767 0.000000
O O13 0.500000 0.500000 0.690355
O O14 0.511733 0.731099 0.500000
#
# Coordination Sequence:
#
# PCOD8225815 Si02
#       7
#     8   4   4   8   4   4   8
#     4   9  18  32  48  66  90 122 158 192 227 268
#     4  10  20  32  46  67  98 127 147 182 235 276
#     4   9  18  31  49  73  93 115 154 191 220 269
#     4   9  18  32  48  66  90 122 158 192 227 268
#     4   9  18  31  49  73  93 115 154 191 220 269
#     4  10  20  32  46  67  98 127 147 182 235 276
#     4   8  15  31  52  70  92 120 148 186 232 268
#
# _framework density 17.813003999999999
#
# number of rings (size 3 to 8) (size 9 to 14) (size 15 to 20)
#    0.000    3.000    0.000    1.800    0.000    3.200 
#    0.000    2.000    0.000    1.200    0.000    0.000 
#    0.000    0.000    0.000    0.000    0.000    0.000 
#
# Total GULP energy -495926.576643 kJ/mol
# GULP energy per Si atom -12398.164416 kJ/mol
# Density = 1.777246 g / cm^3
# Si number density = 17.813004 Si / 1000 Ang^3
#
#
#
# Elastic Constant Matrix: (Units=GPa)
#
#
# Indices 1 2 3 4 5 6 
#
# 1 36.9515 -1.5775 19.6442 0.0000 0.0000 0.0000
# 2 -1.5775 14.4476 7.5670 0.0000 0.0000 0.0000
# 3 19.6442 7.5670 108.3192 0.0000 0.0000 0.0000
# 4 0.0000 0.0000 0.0000 13.9120 0.0000 0.0000
# 5 0.0000 0.0000 0.0000 0.0000 -2.2582 0.0000
# 6 0.0000 0.0000 0.0000 0.0000 0.0000 36.8269
#
#
#
# Elastic Compliance Matrix: (Units=1/GPa)
#
#
# Indices 1 2 3 4 5 6 
#
# 1 0.030521 0.006468 -0.005987 0.000000 0.000000 0.000000
# 2 0.006468 0.073215 -0.006288 0.000000 0.000000 0.000000
# 3 -0.005987 -0.006288 0.010757 0.000000 0.000000 0.000000
# 4 0.000000 0.000000 0.000000 0.071880 0.000000 0.000000
# 5 0.000000 0.000000 0.000000 0.000000 -0.442839 0.000000
# 6 0.000000 0.000000 0.000000 0.000000 0.000000 0.027154
#
#
# Mechanical properties :
#
#
# Convention : Reuss Voigt Hill
#
# Bulk Modulus (GPa) = 9.72001 23.44288 16.58145
# Shear Modulus (GPa) = -27.26225 18.63512 -4.31356
#
# Velocity S-wave (km/s) = -3.91636 3.23794 -1.55783
# Velocity P-wave (km/s) = 3.87066 5.21230 2.46841
#
# Compressibility (1/GPa) = 0.10288054
#
# Stress axis : x y z
#
# Youngs Moduli (GPa) = 32.76381 13.65838 92.96262
#
# Poissons Ratio (x) = -0.08835 0.55658
# Poissons Ratio (y) = -0.21193 0.58453
# Poissons Ratio (z) = 0.19616 0.08588
#
# Static dielectric constant tensor:
#      x y z
#    x 3.127330 0.000000 0.000000 
#    y 0.000000 3.027580 0.000000 
#    z 0.000000 0.000000 3.834120 
# 
# 
# High freq. dielectric constant tensor:
#      x y z
#    x 1.679730 0.000000 0.000000 
#    y 0.000000 1.662650 0.000000 
#    z 0.000000 0.000000 1.704060 
# 
# From -- ./inp_files/10042.got.cif
#   From: 2010.03.12/outbox.cif.g09.slc.cpg/sg55_6_cif.got.tgz:10042.got - 2010.04.16 15:19:21.
