data_PCOD8225277
_publ_section_title
;
Structure prediction by ZEFSAII (Michael W. Deem and Ramdas Pophale) SiO2 
 PCOD8225277
Probable space group: P B A M
;
_chemical_formula_sum "Si O2"
_cell_formula_units_Z 40
_cell_length_a 13.575922
_cell_length_b 18.019899
_cell_length_c 8.870932
_cell_angle_alpha 90.000000
_cell_angle_beta 90.000000
_cell_angle_gamma 90.000000
_cell_volume 2170.155914
_symmetry_space_group_name_H-M "P B A M"
_symmetry_group_IT_number 55
_symmetry_cell_setting 'orthorhombic'
loop_
_space_group_symop_operation_xyz
x,y,z
-x,-y,z
1/2+x,1/2-y,-z
1/2-x,1/2+y,-z
-x,-y,-z
x,y,-z
1/2-x,1/2+y,z
1/2+x,1/2-y,z
loop_
_atom_site_type_symbol
_atom_site_label
_atom_site_fract_x
_atom_site_fract_y
_atom_site_fract_z
Si Si1 0.407555 0.327092 0.177261
Si Si2 0.400069 0.037548 0.824268
Si Si3 0.305558 0.473327 0.825260
Si Si4 0.820022 0.317275 0.322138
Si Si5 0.370629 0.630820 0.823417
O O1 0.348279 0.397783 0.245752
O O2 0.373970 0.256172 0.268270
O O3 0.522335 0.338201 0.211464
O O4 0.387634 0.315462 0.000000
O O5 0.382917 0.112838 0.734247
O O6 0.500000 0.000000 0.765172
O O7 0.311325 0.979515 0.795211
O O8 0.407535 0.058224 0.000000
O O9 0.360256 0.546507 0.760324
O O10 0.331564 0.468687 0.000000
O O11 0.815384 0.318942 0.500000
O O12 0.709147 0.317334 0.258009
O O13 0.345191 0.631533 0.000000
#
# Coordination Sequence:
#
# PCOD8225277 Si02
#       5
#     8   8   8   8   8
#     4  10  19  33  56  81 104 135 177 223 267 309
#     4   9  18  35  58  80 103 136 180 223 262 310
#     4   8  15  30  54  82 104 125 166 221 266 304
#     4  11  23  36  50  75 113 146 172 209 261 321
#     4   9  18  35  57  77 100 133 176 223 266 310
#
# _framework density 18.431856
#
# number of rings (size 3 to 8) (size 9 to 14) (size 15 to 20)
#    0.000    2.600    0.000    3.600    0.000    5.200 
#    0.000    8.000    0.000    6.000    0.000    0.000 
#    0.000    0.000    0.000    0.000    0.000    0.000 
#
# Total GULP energy -495966.479031 kJ/mol
# GULP energy per Si atom -12399.161976 kJ/mol
# Density = 1.838990 g / cm^3
# Si number density = 18.431856 Si / 1000 Ang^3
#
#
#
# Elastic Constant Matrix: (Units=GPa)
#
#
# Indices 1 2 3 4 5 6 
#
# 1 132.1136 84.3166 57.5554 0.0000 0.0000 0.0000
# 2 84.3166 120.6002 52.1512 0.0000 0.0000 0.0000
# 3 57.5554 52.1512 71.4484 0.0000 0.0000 0.0000
# 4 0.0000 0.0000 0.0000 4.3422 0.0000 0.0000
# 5 0.0000 0.0000 0.0000 0.0000 8.7168 0.0000
# 6 0.0000 0.0000 0.0000 0.0000 0.0000 27.2228
#
#
#
# Elastic Compliance Matrix: (Units=1/GPa)
#
#
# Indices 1 2 3 4 5 6 
#
# 1 0.015609 -0.008001 -0.006734 0.000000 0.000000 0.000000
# 2 -0.008001 0.016217 -0.005392 0.000000 0.000000 0.000000
# 3 -0.006734 -0.005392 0.023356 0.000000 0.000000 0.000000
# 4 0.000000 0.000000 0.000000 0.230296 0.000000 0.000000
# 5 0.000000 0.000000 0.000000 0.000000 0.114721 0.000000
# 6 0.000000 0.000000 0.000000 0.000000 0.000000 0.036734
#
#
# Mechanical properties :
#
#
# Convention : Reuss Voigt Hill
#
# Bulk Modulus (GPa) = 66.98413 79.13429 73.05921
# Shear Modulus (GPa) = 10.36990 16.73229 13.55109
#
# Velocity S-wave (km/s) = 2.37451 3.01623 2.71440
# Velocity P-wave (km/s) = 6.62858 7.42676 7.03900
#
# Compressibility (1/GPa) = 0.01492891
#
# Stress axis : x y z
#
# Youngs Moduli (GPa) = 64.06414 61.66190 42.81477
#
# Poissons Ratio (x) = 0.49337 0.28831
# Poissons Ratio (y) = 0.51259 0.23086
# Poissons Ratio (z) = 0.43141 0.33248
#
# Static dielectric constant tensor:
#      x y z
#    x 3.533560 0.000000 0.000000 
#    y 0.000000 3.499960 0.000000 
#    z 0.000000 0.000000 3.058890 
# 
# 
# High freq. dielectric constant tensor:
#      x y z
#    x 1.725220 0.000000 0.000000 
#    y 0.000000 1.717960 0.000000 
#    z 0.000000 0.000000 1.679650 
# 
# From -- ./inp_files/3599.got.cif
#   From: 2010.03.12/outbox.cif.g09.slc.cpg/sg55_2_cif.got.tgz:3599.got - 2010.04.16 15:19:21.
