data_PCOD8225357
_publ_section_title
;
Structure prediction by ZEFSAII (Michael W. Deem and Ramdas Pophale) SiO2 
 PCOD8225357
Probable space group: P B A M
;
_chemical_formula_sum "Si O2"
_cell_formula_units_Z 64
_cell_length_a 18.897688
_cell_length_b 22.961996
_cell_length_c 8.633715
_cell_angle_alpha 90.000000
_cell_angle_beta 90.000000
_cell_angle_gamma 90.000000
_cell_volume 3746.416176
_symmetry_space_group_name_H-M "P B A M"
_symmetry_group_IT_number 55
_symmetry_cell_setting 'orthorhombic'
loop_
_space_group_symop_operation_xyz
x,y,z
-x,-y,z
1/2+x,1/2-y,-z
1/2-x,1/2+y,-z
-x,-y,-z
x,y,-z
1/2-x,1/2+y,z
1/2+x,1/2-y,z
loop_
_atom_site_type_symbol
_atom_site_label
_atom_site_fract_x
_atom_site_fract_y
_atom_site_fract_z
Si Si1 0.221415 0.662719 0.679144
Si Si2 0.641567 0.719078 0.679069
Si Si3 0.352877 0.943276 0.680238
Si Si4 0.631509 0.934237 0.820255
Si Si5 0.156801 0.228280 0.819646
Si Si6 0.499021 0.247515 0.180031
Si Si7 0.235062 0.345116 0.819562
Si Si8 0.996731 0.621575 0.680270
O O1 0.217854 0.645496 0.500000
O O2 0.170028 0.716573 0.718222
O O3 0.196319 0.608466 0.780784
O O4 0.301835 0.678899 0.724001
O O5 0.651363 0.704026 0.500000
O O6 0.559395 0.716629 0.724910
O O7 0.684317 0.671139 0.777234
O O8 0.350627 0.959259 0.500000
O O9 0.287968 0.901091 0.721747
O O10 0.426326 0.912787 0.726418
O O11 0.343692 0.000977 0.780895
O O12 0.563063 0.919277 0.717992
O O13 0.612164 0.929048 0.000000
O O14 0.074271 0.223706 0.778253
O O15 0.184107 0.291994 0.769807
O O16 0.171838 0.218243 0.000000
O O17 0.498928 0.179729 0.220328
O O18 0.481693 0.253437 0.000000
O O19 0.228777 0.359491 0.000000
O O20 0.998126 0.638483 0.500000
#
# Coordination Sequence:
#
# PCOD8225357 Si02
#       8
#     8   8   8   8   8   8   8   8
#     4  10  20  34  52  74 101 134 173 215 259 305
#     4  10  20  33  51  75 104 137 172 212 260 309
#     4  11  23  37  53  73 103 139 178 218 259 306
#     4  12  24  36  53  73 101 139 180 219 258 303
#     4   9  19  33  51  75 104 134 169 212 259 309
#     4  11  20  32  52  78 106 138 172 211 257 308
#     4  10  19  34  53  75 102 134 174 216 259 306
#     4  11  22  35  50  72 104 140 177 215 253 301
#
# _framework density 17.082992000000001
#
# number of rings (size 3 to 8) (size 9 to 14) (size 15 to 20)
#    0.000    1.500    2.500    3.750    0.000    5.500 
#    0.000    0.000    0.000    0.000    0.000    0.875 
#    0.000    7.000    0.000    0.000    0.000    0.000 
#
# Total GULP energy -793994.164358 kJ/mol
# GULP energy per Si atom -12406.158818 kJ/mol
# Density = 1.704411 g / cm^3
# Si number density = 17.082992 Si / 1000 Ang^3
#
#
#
# Elastic Constant Matrix: (Units=GPa)
#
#
# Indices 1 2 3 4 5 6 
#
# 1 99.2488 39.4637 26.7671 0.0000 0.0000 0.0000
# 2 39.4637 63.3884 19.8282 0.0000 0.0000 0.0000
# 3 26.7671 19.8282 48.8568 0.0000 0.0000 0.0000
# 4 0.0000 0.0000 0.0000 26.6036 0.0000 0.0000
# 5 0.0000 0.0000 0.0000 0.0000 29.2789 0.0000
# 6 0.0000 0.0000 0.0000 0.0000 0.0000 19.0919
#
#
#
# Elastic Compliance Matrix: (Units=1/GPa)
#
#
# Indices 1 2 3 4 5 6 
#
# 1 0.014326 -0.007404 -0.004844 0.000000 0.000000 0.000000
# 2 -0.007404 0.021896 -0.004830 0.000000 0.000000 0.000000
# 3 -0.004844 -0.004830 0.025082 0.000000 0.000000 0.000000
# 4 0.000000 0.000000 0.000000 0.037589 0.000000 0.000000
# 5 0.000000 0.000000 0.000000 0.000000 0.034154 0.000000
# 6 0.000000 0.000000 0.000000 0.000000 0.000000 0.052378
#
#
# Mechanical properties :
#
#
# Convention : Reuss Voigt Hill
#
# Bulk Modulus (GPa) = 36.83444 42.62356 39.72900
# Shear Modulus (GPa) = 21.86933 23.35720 22.61327
#
# Velocity S-wave (km/s) = 3.58184 3.70168 3.64226
# Velocity P-wave (km/s) = 6.22214 6.57837 6.40273
#
# Compressibility (1/GPa) = 0.02714850
#
# Stress axis : x y z
#
# Youngs Moduli (GPa) = 69.80318 45.67061 39.86901
#
# Poissons Ratio (x) = 0.33813 0.19313
# Poissons Ratio (y) = 0.51680 0.19257
# Poissons Ratio (z) = 0.33813 0.22059
#
# Static dielectric constant tensor:
#      x y z
#    x 3.251780 0.000000 0.000000 
#    y 0.000000 2.957790 0.000000 
#    z 0.000000 0.000000 3.222840 
# 
# 
# High freq. dielectric constant tensor:
#      x y z
#    x 1.654580 0.000000 0.000000 
#    y 0.000000 1.629100 0.000000 
#    z 0.000000 0.000000 1.673590 
# 
# From -- ./inp_files/7949.got.cif
#   From: 2010.03.12/outbox.cif.g09.slc.cpg/sg55_4_cif.got.tgz:7949.got - 2010.04.16 15:19:21.
