data_PCOD8225839
_publ_section_title
;
Structure prediction by ZEFSAII (Michael W. Deem and Ramdas Pophale) SiO2 
 PCOD8225839
Probable space group: P B A M
;
_chemical_formula_sum "Si O2"
_cell_formula_units_Z 64
_cell_length_a 11.653101
_cell_length_b 33.212607
_cell_length_c 9.157254
_cell_angle_alpha 90.000000
_cell_angle_beta 90.000000
_cell_angle_gamma 90.000000
_cell_volume 3544.130769
_symmetry_space_group_name_H-M "P B A M"
_symmetry_group_IT_number 55
_symmetry_cell_setting 'orthorhombic'
loop_
_space_group_symop_operation_xyz
x,y,z
-x,-y,z
1/2+x,1/2-y,-z
1/2-x,1/2+y,-z
-x,-y,-z
x,y,-z
1/2-x,1/2+y,z
1/2+x,1/2-y,z
loop_
_atom_site_type_symbol
_atom_site_label
_atom_site_fract_x
_atom_site_fract_y
_atom_site_fract_z
Si Si1 0.012341 0.636406 0.171231
Si Si2 0.404223 0.553546 0.172420
Si Si3 0.876891 0.716038 0.830620
Si Si4 0.343246 0.464988 0.827585
Si Si5 0.321073 0.323940 0.330381
Si Si6 0.229774 0.130003 0.172470
Si Si7 0.450391 0.695762 0.829074
Si Si8 0.813976 0.595113 0.329905
O O1 0.969407 0.681566 0.204512
O O2 0.936378 0.603770 0.256112
O O3 0.141213 0.632970 0.233731
O O4 0.004646 0.626774 0.000000
O O5 0.535551 0.553243 0.229070
O O6 0.339591 0.512232 0.213046
O O7 0.335004 0.591144 0.241165
O O8 0.410937 0.557686 0.000000
O O9 0.760595 0.709621 0.740803
O O10 0.931881 0.758179 0.782319
O O11 0.842236 0.716700 0.000000
O O12 0.239214 0.444524 0.742196
O O13 0.327471 0.458066 0.000000
O O14 0.330993 0.314230 0.500000
O O15 0.444982 0.322850 0.258757
O O16 0.270990 0.367945 0.299142
O O17 0.162494 0.170571 0.214499
O O18 0.236154 0.125050 0.000000
O O19 0.477867 0.691739 0.000000
O O20 0.833683 0.587505 0.500000
#
# Coordination Sequence:
#
# PCOD8225839 Si02
#       8
#     8   8   8   8   8   8   8   8
#     4   9  18  33  52  72  97 132 170 207 248 301
#     4   8  15  28  48  78 107 129 159 206 256 304
#     4   9  19  33  52  75  99 128 168 213 253 292
#     4   9  16  29  53  78 101 129 165 208 254 301
#     4  10  21  35  50  71 102 134 167 206 248 302
#     4   9  17  30  50  76 103 130 163 206 257 305
#     4  10  20  32  54  80 102 129 165 214 260 301
#     4  10  20  34  51  72  99 133 171 209 249 294
#
# _framework density 18.058024
#
# number of rings (size 3 to 8) (size 9 to 14) (size 15 to 20)
#    0.000    2.750    0.000    2.250    1.750    3.000 
#    0.000    2.500    0.000    6.000    0.000    0.000 
#    0.000    0.000    0.000    0.000    0.000    0.000 
#
# Total GULP energy -793634.604752 kJ/mol
# GULP energy per Si atom -12400.540699 kJ/mol
# Density = 1.801692 g / cm^3
# Si number density = 18.058024 Si / 1000 Ang^3
#
#
#
# Elastic Constant Matrix: (Units=GPa)
#
#
# Indices 1 2 3 4 5 6 
#
# 1 121.7614 46.5244 32.0859 0.0000 0.0000 0.0000
# 2 46.5244 94.6274 22.3250 0.0000 0.0000 0.0000
# 3 32.0859 22.3250 43.7910 0.0000 0.0000 0.0000
# 4 0.0000 0.0000 0.0000 12.8314 0.0000 0.0000
# 5 0.0000 0.0000 0.0000 0.0000 11.3860 0.0000
# 6 0.0000 0.0000 0.0000 0.0000 0.0000 24.5207
#
#
#
# Elastic Compliance Matrix: (Units=1/GPa)
#
#
# Indices 1 2 3 4 5 6 
#
# 1 0.011452 -0.004150 -0.006275 0.000000 0.000000 0.000000
# 2 -0.004150 0.013516 -0.003850 0.000000 0.000000 0.000000
# 3 -0.006275 -0.003850 0.029396 0.000000 0.000000 0.000000
# 4 0.000000 0.000000 0.000000 0.077934 0.000000 0.000000
# 5 0.000000 0.000000 0.000000 0.000000 0.087827 0.000000
# 6 0.000000 0.000000 0.000000 0.000000 0.000000 0.040782
#
#
# Mechanical properties :
#
#
# Convention : Reuss Voigt Hill
#
# Bulk Modulus (GPa) = 38.73826 51.33893 45.03860
# Shear Modulus (GPa) = 16.77493 20.36391 18.56942
#
# Velocity S-wave (km/s) = 3.05117 3.36176 3.21022
# Velocity P-wave (km/s) = 5.82336 6.60002 6.22382
#
# Compressibility (1/GPa) = 0.02581427
#
# Stress axis : x y z
#
# Youngs Moduli (GPa) = 87.32014 73.98368 34.01772
#
# Poissons Ratio (x) = 0.30703 0.21347
# Poissons Ratio (y) = 0.36238 0.13097
# Poissons Ratio (z) = 0.54796 0.28484
#
# Static dielectric constant tensor:
#      x y z
#    x 3.431220 0.000000 0.000000 
#    y 0.000000 3.477430 0.000000 
#    z 0.000000 0.000000 3.025930 
# 
# 
# High freq. dielectric constant tensor:
#      x y z
#    x 1.700380 0.000000 0.000000 
#    y 0.000000 1.701090 0.000000 
#    z 0.000000 0.000000 1.666960 
# 
# From -- ./inp_files/4570.got.cif
#   From: 2010.03.12/outbox.cif.g09.slc.cpg/sg55_3_cif.got.tgz:4570.got - 2010.04.16 15:19:21.
