data_PCOD8225896
_publ_section_title
;
Structure prediction by ZEFSAII (Michael W. Deem and Ramdas Pophale) SiO2 
 PCOD8225896
Probable space group: P B A M
;
_chemical_formula_sum "Si O2"
_cell_formula_units_Z 64
_cell_length_a 14.651793
_cell_length_b 24.708237
_cell_length_c 8.958764
_cell_angle_alpha 90.000000
_cell_angle_beta 90.000000
_cell_angle_gamma 90.000000
_cell_volume 3243.251510
_symmetry_space_group_name_H-M "P B A M"
_symmetry_group_IT_number 55
_symmetry_cell_setting 'orthorhombic'
loop_
_space_group_symop_operation_xyz
x,y,z
-x,-y,z
1/2+x,1/2-y,-z
1/2-x,1/2+y,-z
-x,-y,-z
x,y,-z
1/2-x,1/2+y,z
1/2+x,1/2-y,z
loop_
_atom_site_type_symbol
_atom_site_label
_atom_site_fract_x
_atom_site_fract_y
_atom_site_fract_z
Si Si1 0.137161 0.847798 0.670246
Si Si2 0.563198 0.372594 0.331445
Si Si3 0.996921 0.671873 0.824240
Si Si4 0.670043 0.758797 0.174637
Si Si5 0.756687 0.063681 0.174458
Si Si6 0.451505 0.947152 0.175035
Si Si7 0.095589 0.022334 0.175845
Si Si8 0.865494 0.757941 0.323088
O O1 0.158138 0.830250 0.500000
O O2 0.121135 0.795975 0.773805
O O3 0.221101 0.882446 0.733009
O O4 0.045151 0.882965 0.680344
O O5 0.598243 0.378340 0.500000
O O6 0.615282 0.417515 0.235300
O O7 0.584722 0.312790 0.271276
O O8 0.990158 0.610098 0.762965
O O9 0.917852 0.707197 0.747620
O O10 0.098960 0.692956 0.787787
O O11 0.976719 0.674446 0.000000
O O12 0.762197 0.763879 0.268086
O O13 0.693156 0.757112 0.000000
O O14 0.654640 0.046692 0.212759
O O15 0.821744 0.015347 0.228930
O O16 0.770621 0.076542 0.000000
O O17 0.500000 0.000000 0.248133
O O18 0.470128 0.947586 0.000000
O O19 0.090731 0.025731 0.000000
O O20 0.000000 0.000000 0.241128
O O21 0.867168 0.750357 0.500000
#
# Coordination Sequence:
#
# PCOD8225896 Si02
#       8
#     8   8   8   8   8   8   8   8
#     4  11  21  36  58  84 115 154 198 240 294 354
#     4  10  22  37  55  81 114 155 193 236 292 353
#     4  10  21  38  62  90 117 151 197 246 296 350
#     4  11  23  37  58  88 120 154 196 245 298 355
#     4  10  20  35  58  86 115 152 197 245 295 350
#     4   9  19  37  60  84 111 145 189 239 288 340
#     4  10  20  33  52  82 117 151 188 235 292 351
#     4  11  23  40  60  86 121 157 197 241 296 359
#
# _framework density 19.733284000000001
#
# number of rings (size 3 to 8) (size 9 to 14) (size 15 to 20)
#    0.000    1.750    2.500    1.875    0.000    4.750 
#    0.000    2.500    0.000    1.500    0.000    0.000 
#    0.000    0.000    0.000    0.000    0.000    0.000 
#
# Total GULP energy -793625.377460 kJ/mol
# GULP energy per Si atom -12400.396523 kJ/mol
# Density = 1.968837 g / cm^3
# Si number density = 19.733284 Si / 1000 Ang^3
#
#
#
# Elastic Constant Matrix: (Units=GPa)
#
#
# Indices 1 2 3 4 5 6 
#
# 1 114.6789 69.3976 33.6701 0.0000 0.0000 0.0000
# 2 69.3976 165.4707 38.4261 0.0000 0.0000 0.0000
# 3 33.6701 38.4261 39.8518 0.0000 0.0000 0.0000
# 4 0.0000 0.0000 0.0000 25.5670 0.0000 0.0000
# 5 0.0000 0.0000 0.0000 0.0000 19.8144 0.0000
# 6 0.0000 0.0000 0.0000 0.0000 0.0000 36.0462
#
#
#
# Elastic Compliance Matrix: (Units=1/GPa)
#
#
# Indices 1 2 3 4 5 6 
#
# 1 0.013226 -0.003804 -0.007507 0.000000 0.000000 0.000000
# 2 -0.003804 0.008881 -0.005350 0.000000 0.000000 0.000000
# 3 -0.007507 -0.005350 0.036593 0.000000 0.000000 0.000000
# 4 0.000000 0.000000 0.000000 0.039113 0.000000 0.000000
# 5 0.000000 0.000000 0.000000 0.000000 0.050468 0.000000
# 6 0.000000 0.000000 0.000000 0.000000 0.000000 0.027742
#
#
# Mechanical properties :
#
#
# Convention : Reuss Voigt Hill
#
# Bulk Modulus (GPa) = 39.40055 66.99879 53.19967
# Shear Modulus (GPa) = 22.95650 28.18602 25.57126
#
# Velocity S-wave (km/s) = 3.41448 3.78345 3.60369
# Velocity P-wave (km/s) = 5.96278 7.28779 6.65833
#
# Compressibility (1/GPa) = 0.02538035
#
# Stress axis : x y z
#
# Youngs Moduli (GPa) = 75.61031 112.60173 27.32730
#
# Poissons Ratio (x) = 0.42829 0.20514
# Poissons Ratio (y) = 0.28759 0.14619
# Poissons Ratio (z) = 0.56758 0.60237
#
# Static dielectric constant tensor:
#      x y z
#    x 3.593220 0.000000 0.000000 
#    y 0.000000 3.845630 0.000000 
#    z 0.000000 0.000000 3.391230 
# 
# 
# High freq. dielectric constant tensor:
#      x y z
#    x 1.771010 0.000000 0.000000 
#    y 0.000000 1.777280 0.000000 
#    z 0.000000 0.000000 1.749770 
# 
# From -- ./inp_files/6677.got.cif
#   From: 2010.03.12/outbox.cif.g09.slc.cpg/sg55_4_cif.got.tgz:6677.got - 2010.04.16 15:19:21.
