data_PCOD8225027
_publ_section_title
;
Structure prediction by ZEFSAII (Michael W. Deem and Ramdas Pophale) SiO2 
 PCOD8225027
Probable space group: P B A M
;
_chemical_formula_sum "Si O2"
_cell_formula_units_Z 48
_cell_length_a 29.143521
_cell_length_b 10.285172
_cell_length_c 9.179434
_cell_angle_alpha 90.000000
_cell_angle_beta 90.000000
_cell_angle_gamma 90.000000
_cell_volume 2751.499782
_symmetry_space_group_name_H-M "P B A M"
_symmetry_group_IT_number 55
_symmetry_cell_setting 'orthorhombic'
loop_
_space_group_symop_operation_xyz
x,y,z
-x,-y,z
1/2+x,1/2-y,-z
1/2-x,1/2+y,-z
-x,-y,-z
x,y,-z
1/2-x,1/2+y,z
1/2+x,1/2-y,z
loop_
_atom_site_type_symbol
_atom_site_label
_atom_site_fract_x
_atom_site_fract_y
_atom_site_fract_z
Si Si1 0.780515 0.504486 0.330319
Si Si2 0.518124 0.363843 0.169341
Si Si3 0.474011 0.127903 0.667538
Si Si4 0.382727 0.994646 0.332805
Si Si5 0.383370 0.733556 0.170012
Si Si6 0.291292 0.703252 0.325772
O O1 0.770746 0.502840 0.500000
O O2 0.831823 0.453308 0.294393
O O3 0.744035 0.403856 0.261069
O O4 0.774758 0.652870 0.273461
O O5 0.500000 0.500000 0.232563
O O6 0.489313 0.251631 0.244161
O O7 0.572442 0.356028 0.199633
O O8 0.507231 0.351334 0.000000
O O9 0.487077 0.150825 0.500000
O O10 0.419258 0.109771 0.689591
O O11 0.500000 0.000000 0.726082
O O12 0.383646 0.943674 0.500000
O O13 0.395916 0.876097 0.228589
O O14 0.340686 0.671858 0.256590
O O15 0.371237 0.742410 0.000000
O O16 0.295840 0.699487 0.500000
#
# Coordination Sequence:
#
# PCOD8225027 Si02
#       6
#     8   8   8   8   8   8
#     4   8  15  29  50  71  95 126 161 194 239 297
#     4  10  22  38  52  70 103 143 178 209 249 309
#     4  10  19  32  54  82 106 128 165 216 260 298
#     4   9  17  32  53  77 104 130 162 209 255 301
#     4  10  19  32  52  74  97 132 173 208 247 298
#     4   9  17  32  52  73  96 128 163 203 248 299
#
# _framework density 17.445031
#
# number of rings (size 3 to 8) (size 9 to 14) (size 15 to 20)
#    0.000    2.667    1.667    1.500    0.000    2.000 
#    3.000    3.333    0.000    0.000    0.000    0.000 
#    0.000    0.000    0.000    0.000    0.000    0.000 
#
# Total GULP energy -595048.111524 kJ/mol
# GULP energy per Si atom -12396.835657 kJ/mol
# Density = 1.740533 g / cm^3
# Si number density = 17.445031 Si / 1000 Ang^3
#
#
#
# Elastic Constant Matrix: (Units=GPa)
#
#
# Indices 1 2 3 4 5 6 
#
# 1 134.8767 87.2281 44.0753 0.0000 0.0000 0.0000
# 2 87.2281 127.9321 39.0839 0.0000 0.0000 0.0000
# 3 44.0753 39.0839 44.0916 0.0000 0.0000 0.0000
# 4 0.0000 0.0000 0.0000 20.1392 0.0000 0.0000
# 5 0.0000 0.0000 0.0000 0.0000 -30.4762 0.0000
# 6 0.0000 0.0000 0.0000 0.0000 0.0000 34.9675
#
#
#
# Elastic Compliance Matrix: (Units=1/GPa)
#
#
# Indices 1 2 3 4 5 6 
#
# 1 0.015162 -0.007827 -0.008218 0.000000 0.000000 0.000000
# 2 -0.007827 0.014760 -0.005260 0.000000 0.000000 0.000000
# 3 -0.008218 -0.005260 0.035557 0.000000 0.000000 0.000000
# 4 0.000000 0.000000 0.000000 0.049654 0.000000 0.000000
# 5 0.000000 0.000000 0.000000 0.000000 -0.032812 0.000000
# 6 0.000000 0.000000 0.000000 0.000000 0.000000 0.028598
#
#
# Mechanical properties :
#
#
# Convention : Reuss Voigt Hill
#
# Bulk Modulus (GPa) = 43.72581 71.96388 57.84484
# Shear Modulus (GPa) = 31.02669 14.02695 22.52682
#
# Velocity S-wave (km/s) = 4.22185 2.83868 3.59737
# Velocity P-wave (km/s) = 6.99176 7.21703 7.10529
#
# Compressibility (1/GPa) = 0.02286979
#
# Stress axis : x y z
#
# Youngs Moduli (GPa) = 65.95615 67.74968 28.12368
#
# Poissons Ratio (x) = 0.53028 0.23112
# Poissons Ratio (y) = 0.51624 0.14792
# Poissons Ratio (z) = 0.54202 0.35634
#
# Static dielectric constant tensor:
#      x y z
#    x 3.498190 0.000000 0.000000 
#    y 0.000000 3.253010 0.000000 
#    z 0.000000 0.000000 3.051830 
# 
# 
# High freq. dielectric constant tensor:
#      x y z
#    x 1.686970 0.000000 0.000000 
#    y 0.000000 1.656280 0.000000 
#    z 0.000000 0.000000 1.652830 
# 
# From -- ./inp_files/10518.got.cif
#   From: 2010.03.12/outbox.cif.g09.slc.cpg/sg55_6_cif.got.tgz:10518.got - 2010.04.16 15:19:21.
