data_PCOD8225917
_publ_section_title
;
Structure prediction by ZEFSAII (Michael W. Deem and Ramdas Pophale) SiO2 
 PCOD8225917
Probable space group: P B A M
;
_chemical_formula_sum "Si O2"
_cell_formula_units_Z 40
_cell_length_a 7.305723
_cell_length_b 20.042402
_cell_length_c 10.418988
_cell_angle_alpha 90.000000
_cell_angle_beta 90.000000
_cell_angle_gamma 90.000000
_cell_volume 1525.592371
_symmetry_space_group_name_H-M "P B A M"
_symmetry_group_IT_number 55
_symmetry_cell_setting 'orthorhombic'
loop_
_space_group_symop_operation_xyz
x,y,z
-x,-y,z
1/2+x,1/2-y,-z
1/2-x,1/2+y,-z
-x,-y,-z
x,y,-z
1/2-x,1/2+y,z
1/2+x,1/2-y,z
loop_
_atom_site_type_symbol
_atom_site_label
_atom_site_fract_x
_atom_site_fract_y
_atom_site_fract_z
Si Si1 0.463595 0.640453 0.000000
Si Si2 0.463405 0.840743 0.243540
Si Si3 0.832358 0.725521 0.000000
Si Si4 0.096451 0.925047 0.751781
Si Si5 0.599197 0.781279 0.500000
Si Si6 0.682359 0.956617 0.851379
Si Si7 0.978950 0.859329 0.500000
O O1 0.461298 0.595720 0.130268
O O2 0.649578 0.683071 0.000000
O O3 0.298604 0.694355 0.000000
O O4 0.279446 0.882868 0.242736
O O5 0.483045 0.799677 0.373987
O O6 0.636647 0.889682 0.226477
O O7 0.454618 0.789274 0.126005
O O8 0.996823 0.909427 0.619079
O O9 0.159548 0.003152 0.770304
O O10 0.629501 0.700748 0.500000
O O11 0.787577 0.820696 0.500000
O O12 0.500000 0.000000 0.863679
O O13 0.743168 0.939366 0.000000
#
# Coordination Sequence:
#
# PCOD8225917 Si02
#       7
#     4   8   4   8   4   8   4
#     4  10  20  33  55  85 115 148 193 244 293 346
#     4  10  20  37  62  90 119 155 196 243 295 349
#     4  10  20  33  55  85 115 148 193 244 293 346
#     4  10  20  37  62  90 119 155 196 243 295 349
#     4  12  26  43  60  83 119 160 202 248 297 354
#     4   9  16  33  63  94 122 152 195 244 289 346
#     4  12  26  43  60  83 119 160 202 248 297 354
#
# _framework density 26.219321999999998
#
# number of rings (size 3 to 8) (size 9 to 14) (size 15 to 20)
#    0.000    1.800    2.000    3.000    0.000    5.600 
#    0.000    5.000    0.000    1.200    0.000    0.000 
#    0.000    0.000    0.000    0.000    0.000    0.000 
#
# Total GULP energy -496260.371564 kJ/mol
# GULP energy per Si atom -12406.509289 kJ/mol
# Density = 2.615965 g / cm^3
# Si number density = 26.219322 Si / 1000 Ang^3
#
#
#
# Elastic Constant Matrix: (Units=GPa)
#
#
# Indices 1 2 3 4 5 6 
#
# 1 108.4208 26.4856 53.5220 0.0000 0.0000 0.0000
# 2 26.4856 163.2656 86.3351 0.0000 0.0000 0.0000
# 3 53.5220 86.3351 229.0159 0.0000 0.0000 0.0000
# 4 0.0000 0.0000 0.0000 47.5175 0.0000 0.0000
# 5 0.0000 0.0000 0.0000 0.0000 33.7062 0.0000
# 6 0.0000 0.0000 0.0000 0.0000 0.0000 45.3320
#
#
#
# Elastic Compliance Matrix: (Units=1/GPa)
#
#
# Indices 1 2 3 4 5 6 
#
# 1 0.010459 -0.000505 -0.002254 0.000000 0.000000 0.000000
# 2 -0.000505 0.007674 -0.002775 0.000000 0.000000 0.000000
# 3 -0.002254 -0.002775 0.005939 0.000000 0.000000 0.000000
# 4 0.000000 0.000000 0.000000 0.021045 0.000000 0.000000
# 5 0.000000 0.000000 0.000000 0.000000 0.029668 0.000000
# 6 0.000000 0.000000 0.000000 0.000000 0.000000 0.022059
#
#
# Mechanical properties :
#
#
# Convention : Reuss Voigt Hill
#
# Bulk Modulus (GPa) = 76.89251 92.59866 84.74559
# Shear Modulus (GPa) = 44.54389 47.60177 46.07283
#
# Velocity S-wave (km/s) = 4.12624 4.26552 4.19646
# Velocity P-wave (km/s) = 7.21744 7.72354 7.47478
#
# Compressibility (1/GPa) = 0.01300517
#
# Stress axis : x y z
#
# Youngs Moduli (GPa) = 95.60802 130.30372 168.36480
#
# Poissons Ratio (x) = 0.06578 0.37951
# Poissons Ratio (y) = 0.04826 0.46724
# Poissons Ratio (z) = 0.21551 0.36161
#
# Static dielectric constant tensor:
#      x y z
#    x 5.136650 0.000000 0.000000 
#    y 0.000000 5.245890 0.000000 
#    z 0.000000 0.000000 4.847380 
# 
# 
# High freq. dielectric constant tensor:
#      x y z
#    x 2.105140 0.000000 0.000000 
#    y 0.000000 2.078240 0.000000 
#    z 0.000000 0.000000 2.047700 
# 
# From -- ./inp_files/2419.got.cif
#   From: 2010.03.12/outbox.cif.g09.slc.cpg/sg55_2_cif.got.tgz:2419.got - 2010.04.16 15:19:21.
