data_PCOD8225821
_publ_section_title
;
Structure prediction by ZEFSAII (Michael W. Deem and Ramdas Pophale) SiO2 
 PCOD8225821
Probable space group: P B A M
;
_chemical_formula_sum "Si O2"
_cell_formula_units_Z 64
_cell_length_a 18.969483
_cell_length_b 23.008441
_cell_length_c 8.871075
_cell_angle_alpha 90.000000
_cell_angle_beta 90.000000
_cell_angle_gamma 90.000000
_cell_volume 3871.853696
_symmetry_space_group_name_H-M "P B A M"
_symmetry_group_IT_number 55
_symmetry_cell_setting 'orthorhombic'
loop_
_space_group_symop_operation_xyz
x,y,z
-x,-y,z
1/2+x,1/2-y,-z
1/2-x,1/2+y,-z
-x,-y,-z
x,y,-z
1/2-x,1/2+y,z
1/2+x,1/2-y,z
loop_
_atom_site_type_symbol
_atom_site_label
_atom_site_fract_x
_atom_site_fract_y
_atom_site_fract_z
Si Si1 0.256698 0.649994 0.323428
Si Si2 0.118249 0.934273 0.174360
Si Si3 0.832316 0.745801 0.827359
Si Si4 0.301412 0.321294 0.827766
Si Si5 0.987397 0.878780 0.678181
Si Si6 0.621635 0.781781 0.324038
Si Si7 0.010055 0.245606 0.824453
Si Si8 0.351813 0.564604 0.176588
O O1 0.263498 0.638602 0.500000
O O2 0.309850 0.701709 0.280012
O O3 0.176819 0.667643 0.278270
O O4 0.277901 0.591764 0.233648
O O5 0.180329 0.888037 0.208919
O O6 0.049340 0.922379 0.273226
O O7 0.148923 0.996847 0.218765
O O8 0.095108 0.932469 0.000000
O O9 0.782053 0.689867 0.800245
O O10 0.912598 0.728379 0.789005
O O11 0.826571 0.767767 0.000000
O O12 0.346765 0.280725 0.719169
O O13 0.321653 0.305856 0.000000
O O14 0.983913 0.874986 0.500000
O O15 0.002920 0.815562 0.743959
O O16 0.914021 0.902469 0.738870
O O17 0.606567 0.782373 0.500000
O O18 0.547676 0.791428 0.237682
O O19 0.998108 0.235654 0.000000
O O20 0.360935 0.575023 0.000000
#
# Coordination Sequence:
#
# PCOD8225821 Si02
#       8
#     8   8   8   8   8   8   8   8
#     4  10  20  33  49  70  96 126 162 205 246 285
#     4  10  21  35  51  70  96 131 168 206 242 286
#     4   9  18  31  50  72  95 124 159 197 242 297
#     4   9  17  32  51  70  93 125 160 198 245 291
#     4  12  23  33  47  69  99 134 169 205 239 280
#     4  10  20  32  48  72  98 125 160 201 245 291
#     4  11  20  31  49  73 100 131 161 195 240 293
#     4  11  22  35  50  69  96 132 171 204 241 289
#
# _framework density 16.52955
#
# number of rings (size 3 to 8) (size 9 to 14) (size 15 to 20)
#    0.000    1.750    2.500    3.000    0.000    4.500 
#    0.000    0.000    0.000    0.000    0.000    0.875 
#    0.000    7.000    0.000    0.000    0.000    0.000 
#
# Total GULP energy -793635.640472 kJ/mol
# GULP energy per Si atom -12400.556882 kJ/mol
# Density = 1.649193 g / cm^3
# Si number density = 16.529550 Si / 1000 Ang^3
#
#
#
# Elastic Constant Matrix: (Units=GPa)
#
#
# Indices 1 2 3 4 5 6 
#
# 1 90.5268 19.0589 25.1762 0.0000 0.0000 0.0000
# 2 19.0589 44.4309 13.7551 0.0000 0.0000 0.0000
# 3 25.1762 13.7551 69.0192 0.0000 0.0000 0.0000
# 4 0.0000 0.0000 0.0000 12.9850 0.0000 0.0000
# 5 0.0000 0.0000 0.0000 0.0000 24.3478 0.0000
# 6 0.0000 0.0000 0.0000 0.0000 0.0000 20.1627
#
#
#
# Elastic Compliance Matrix: (Units=1/GPa)
#
#
# Indices 1 2 3 4 5 6 
#
# 1 0.013052 -0.004396 -0.003885 0.000000 0.000000 0.000000
# 2 -0.004396 0.025467 -0.003472 0.000000 0.000000 0.000000
# 3 -0.003885 -0.003472 0.016598 0.000000 0.000000 0.000000
# 4 0.000000 0.000000 0.000000 0.077012 0.000000 0.000000
# 5 0.000000 0.000000 0.000000 0.000000 0.041072 0.000000
# 6 0.000000 0.000000 0.000000 0.000000 0.000000 0.049597
#
#
# Mechanical properties :
#
#
# Convention : Reuss Voigt Hill
#
# Bulk Modulus (GPa) = 31.63409 35.55083 33.59246
# Shear Modulus (GPa) = 19.46730 21.23155 20.34942
#
# Velocity S-wave (km/s) = 3.43553 3.58782 3.51250
# Velocity P-wave (km/s) = 5.90902 6.22233 6.06770
#
# Compressibility (1/GPa) = 0.03161146
#
# Stress axis : x y z
#
# Youngs Moduli (GPa) = 76.61400 39.26579 60.24898
#
# Poissons Ratio (x) = 0.17262 0.23407
# Poissons Ratio (y) = 0.33681 0.20918
# Poissons Ratio (z) = 0.29765 0.13633
#
# Static dielectric constant tensor:
#      x y z
#    x 3.369820 0.000000 0.000000 
#    y 0.000000 3.020660 0.000000 
#    z 0.000000 0.000000 3.188640 
# 
# 
# High freq. dielectric constant tensor:
#      x y z
#    x 1.636980 0.000000 0.000000 
#    y 0.000000 1.602330 0.000000 
#    z 0.000000 0.000000 1.646510 
# 
# From -- ./inp_files/9193.got.cif
#   From: 2010.03.12/outbox.cif.g09.slc.cpg/sg55_5_cif.got.tgz:9193.got - 2010.04.16 15:19:21.
