data_PCOD8225478
_publ_section_title
;
Structure prediction by ZEFSAII (Michael W. Deem and Ramdas Pophale) SiO2 
 PCOD8225478
Probable space group: P B A M
;
_chemical_formula_sum "Si O2"
_cell_formula_units_Z 44
_cell_length_a 19.820530
_cell_length_b 16.015572
_cell_length_c 7.769997
_cell_angle_alpha 90.000000
_cell_angle_beta 90.000000
_cell_angle_gamma 90.000000
_cell_volume 2466.485511
_symmetry_space_group_name_H-M "P B A M"
_symmetry_group_IT_number 55
_symmetry_cell_setting 'orthorhombic'
loop_
_space_group_symop_operation_xyz
x,y,z
-x,-y,z
1/2+x,1/2-y,-z
1/2-x,1/2+y,-z
-x,-y,-z
x,y,-z
1/2-x,1/2+y,z
1/2+x,1/2-y,z
loop_
_atom_site_type_symbol
_atom_site_label
_atom_site_fract_x
_atom_site_fract_y
_atom_site_fract_z
Si Si1 0.074407 0.530686 0.195458
Si Si2 0.347176 0.947092 0.500000
Si Si3 0.573264 0.217151 0.500000
Si Si4 0.311690 0.450148 0.500000
Si Si5 0.468747 0.212419 0.803329
Si Si6 0.110946 0.875606 0.815084
Si Si7 0.000000 0.000000 0.242090
Si Si8 0.588744 0.405837 0.500000
O O1 0.127001 0.491490 0.327478
O O2 0.077803 0.630560 0.212213
O O3 0.000000 0.500000 0.246346
O O4 0.092217 0.502376 0.000000
O O5 0.367017 0.850012 0.500000
O O6 0.267545 0.954669 0.500000
O O7 0.530748 0.204214 0.673320
O O8 0.607008 0.308445 0.500000
O O9 0.336477 0.402546 0.329557
O O10 0.341178 0.543703 0.500000
O O11 0.423280 0.290670 0.748955
O O12 0.496069 0.221598 0.000000
O O13 0.054689 0.945914 0.859280
O O14 0.147771 0.860594 0.000000
O O15 0.041614 0.070409 0.341742
#
# Coordination Sequence:
#
# PCOD8225478 Si02
#       8
#     8   4   4   4   8   8   4   4
#     4  10  20  37  58  83 111 136 176 236 281 322
#     4  12  24  37  58  80 105 156 197 216 276 334
#     4  12  19  34  57  81 109 138 176 231 280 325
#     4  10  24  41  49  78 114 152 194 220 256 334
#     4  10  20  33  57  89 112 131 169 228 290 330
#     4  10  19  34  58  83 110 143 178 225 280 330
#     4   9  15  30  56  85 107 134 175 221 280 325
#     4   9  18  33  53  76 114 144 172 224 277 320
#
# _framework density 17.839148999999999
#
# number of rings (size 3 to 8) (size 9 to 14) (size 15 to 20)
#    0.000    1.818    3.636    2.182    0.000    0.727 
#    3.273    0.000    0.000    0.000    0.000    0.000 
#    0.000    0.000    0.000    0.000    0.000    0.000 
#
# Total GULP energy -545319.210384 kJ/mol
# GULP energy per Si atom -12393.618418 kJ/mol
# Density = 1.779855 g / cm^3
# Si number density = 17.839149 Si / 1000 Ang^3
#
#
#
# Elastic Constant Matrix: (Units=GPa)
#
#
# Indices 1 2 3 4 5 6 
#
# 1 116.0126 40.1602 60.0018 0.0000 0.0000 0.0000
# 2 40.1602 115.0198 31.3722 0.0000 0.0000 0.0000
# 3 60.0018 31.3722 113.6384 0.0000 0.0000 0.0000
# 4 0.0000 0.0000 0.0000 -37.0578 0.0000 0.0000
# 5 0.0000 0.0000 0.0000 0.0000 -12.7592 0.0000
# 6 0.0000 0.0000 0.0000 0.0000 0.0000 18.7792
#
#
#
# Elastic Compliance Matrix: (Units=1/GPa)
#
#
# Indices 1 2 3 4 5 6 
#
# 1 0.012643 -0.002805 -0.005901 0.000000 0.000000 0.000000
# 2 -0.002805 0.010024 -0.001287 0.000000 0.000000 0.000000
# 3 -0.005901 -0.001287 0.012271 0.000000 0.000000 0.000000
# 4 0.000000 0.000000 0.000000 -0.026985 0.000000 0.000000
# 5 0.000000 0.000000 0.000000 0.000000 -0.078375 0.000000
# 6 0.000000 0.000000 0.000000 0.000000 0.000000 0.053250
#
#
# Mechanical properties :
#
#
# Convention : Reuss Voigt Hill
#
# Bulk Modulus (GPa) = 66.87553 67.52659 67.20106
# Shear Modulus (GPa) = 641.22511 8.00156 324.61334
#
# Velocity S-wave (km/s) = 18.97969 2.12017 13.50414
# Velocity P-wave (km/s) = 22.75685 6.62787 16.76012
#
# Compressibility (1/GPa) = 0.01495315
#
# Stress axis : x y z
#
# Youngs Moduli (GPa) = 79.09677 99.75699 81.49403
#
# Poissons Ratio (x) = 0.27979 0.48091
# Poissons Ratio (y) = 0.22185 0.10484
# Poissons Ratio (z) = 0.46676 0.12834
#
# Static dielectric constant tensor:
#      x y z
#    x 2.853070 0.000000 0.000000 
#    y 0.000000 3.569290 0.000000 
#    z 0.000000 0.000000 3.142590 
# 
# 
# High freq. dielectric constant tensor:
#      x y z
#    x 1.640340 0.000000 0.000000 
#    y 0.000000 1.707840 0.000000 
#    z 0.000000 0.000000 1.709820 
# 
# From -- ./inp_files/7393.got.cif
#   From: 2010.03.12/outbox.cif.g09.slc.cpg/sg55_4_cif.got.tgz:7393.got - 2010.04.16 15:19:21.
