data_PCOD8225132
_publ_section_title
;
Structure prediction by ZEFSAII (Michael W. Deem and Ramdas Pophale) SiO2 
 PCOD8225132
Probable space group: P B A M
;
_chemical_formula_sum "Si O2"
_cell_formula_units_Z 64
_cell_length_a 15.260600
_cell_length_b 24.417819
_cell_length_c 9.013197
_cell_angle_alpha 90.000000
_cell_angle_beta 90.000000
_cell_angle_gamma 90.000000
_cell_volume 3358.592723
_symmetry_space_group_name_H-M "P B A M"
_symmetry_group_IT_number 55
_symmetry_cell_setting 'orthorhombic'
loop_
_space_group_symop_operation_xyz
x,y,z
-x,-y,z
1/2+x,1/2-y,-z
1/2-x,1/2+y,-z
-x,-y,-z
x,y,-z
1/2-x,1/2+y,z
1/2+x,1/2-y,z
loop_
_atom_site_type_symbol
_atom_site_label
_atom_site_fract_x
_atom_site_fract_y
_atom_site_fract_z
Si Si1 0.827472 0.062845 0.674522
Si Si2 0.318512 0.849771 0.671556
Si Si3 0.000734 0.889785 0.173395
Si Si4 0.815132 0.358982 0.173899
Si Si5 0.821435 0.949612 0.826611
Si Si6 0.462047 0.284601 0.325486
Si Si7 0.785802 0.235791 0.174573
Si Si8 0.512236 0.839005 0.670677
O O1 0.845784 0.062353 0.500000
O O2 0.744538 0.100513 0.715813
O O3 0.913808 0.083293 0.756368
O O4 0.802414 0.002860 0.730319
O O5 0.307701 0.832793 0.500000
O O6 0.300436 0.796215 0.772034
O O7 0.419059 0.867834 0.702692
O O8 0.919691 0.929606 0.203855
O O9 0.978708 0.830989 0.247382
O O10 0.016394 0.880963 0.000000
O O11 0.746762 0.403941 0.231129
O O12 0.778736 0.299358 0.220966
O O13 0.911447 0.369819 0.240499
O O14 0.825520 0.362727 0.000000
O O15 0.807845 0.962537 0.000000
O O16 0.461681 0.295097 0.500000
O O17 0.364398 0.293175 0.263119
O O18 0.496675 0.224686 0.281306
O O19 0.800643 0.228882 0.000000
O O20 0.539454 0.842275 0.500000
#
# Coordination Sequence:
#
# PCOD8225132 Si02
#       8
#     8   8   8   8   8   8   8   8
#     4  11  23  39  59  83 114 149 193 240 282 338
#     4  10  21  37  56  82 117 151 186 234 287 334
#     4  11  22  36  57  83 114 152 188 229 285 344
#     4   9  20  39  58  82 114 147 188 240 286 335
#     4  10  23  41  59  80 113 152 191 239 292 340
#     4  10  19  33  53  81 116 149 184 227 275 335
#     4  10  19  32  55  83 112 148 187 227 281 340
#     4   9  20  37  57  82 115 153 188 229 285 341
#
# _framework density 19.055599999999998
#
# number of rings (size 3 to 8) (size 9 to 14) (size 15 to 20)
#    0.000    2.000    1.250    1.875    1.750    5.000 
#    0.000    0.625    0.000    3.750    0.000    0.000 
#    0.000    0.000    0.000    0.000    0.000    0.000 
#
# Total GULP energy -793733.266257 kJ/mol
# GULP energy per Si atom -12402.082285 kJ/mol
# Density = 1.901223 g / cm^3
# Si number density = 19.055600 Si / 1000 Ang^3
#
#
#
# Elastic Constant Matrix: (Units=GPa)
#
#
# Indices 1 2 3 4 5 6 
#
# 1 121.0704 62.4362 48.0184 0.0000 0.0000 0.0000
# 2 62.4362 99.3722 45.4953 0.0000 0.0000 0.0000
# 3 48.0184 45.4953 68.9727 0.0000 0.0000 0.0000
# 4 0.0000 0.0000 0.0000 30.0693 0.0000 0.0000
# 5 0.0000 0.0000 0.0000 0.0000 29.2832 0.0000
# 6 0.0000 0.0000 0.0000 0.0000 0.0000 24.6777
#
#
#
# Elastic Compliance Matrix: (Units=1/GPa)
#
#
# Indices 1 2 3 4 5 6 
#
# 1 0.013514 -0.005994 -0.005455 0.000000 0.000000 0.000000
# 2 -0.005994 0.017075 -0.007090 0.000000 0.000000 0.000000
# 3 -0.005455 -0.007090 0.022973 0.000000 0.000000 0.000000
# 4 0.000000 0.000000 0.000000 0.033257 0.000000 0.000000
# 5 0.000000 0.000000 0.000000 0.000000 0.034149 0.000000
# 6 0.000000 0.000000 0.000000 0.000000 0.000000 0.040522
#
#
# Mechanical properties :
#
#
# Convention : Reuss Voigt Hill
#
# Bulk Modulus (GPa) = 60.66274 66.81280 63.73777
# Shear Modulus (GPa) = 24.50222 25.70371 25.10296
#
# Velocity S-wave (km/s) = 3.58973 3.67669 3.63347
# Velocity P-wave (km/s) = 7.00609 7.29124 7.15009
#
# Compressibility (1/GPa) = 0.01648458
#
# Stress axis : x y z
#
# Youngs Moduli (GPa) = 73.99692 58.56483 43.52913
#
# Poissons Ratio (x) = 0.35101 0.23745
# Poissons Ratio (y) = 0.44350 0.30863
# Poissons Ratio (z) = 0.40365 0.41524
#
# Static dielectric constant tensor:
#      x y z
#    x 3.499930 0.000000 0.000000 
#    y 0.000000 3.570500 0.000000 
#    z 0.000000 0.000000 3.465350 
# 
# 
# High freq. dielectric constant tensor:
#      x y z
#    x 1.738990 0.000000 0.000000 
#    y 0.000000 1.734030 0.000000 
#    z 0.000000 0.000000 1.742650 
# 
# From -- ./inp_files/6559.got.cif
#   From: 2010.03.12/outbox.cif.g09.slc.cpg/sg55_4_cif.got.tgz:6559.got - 2010.04.16 15:19:21.
