data_PCOD8225715
_publ_section_title
;
Structure prediction by ZEFSAII (Michael W. Deem and Ramdas Pophale) SiO2 
 PCOD8225715
Probable space group: P B A M
;
_chemical_formula_sum "Si O2"
_cell_formula_units_Z 64
_cell_length_a 30.814105
_cell_length_b 12.043521
_cell_length_c 8.784964
_cell_angle_alpha 90.000000
_cell_angle_beta 90.000000
_cell_angle_gamma 90.000000
_cell_volume 3260.190807
_symmetry_space_group_name_H-M "P B A M"
_symmetry_group_IT_number 55
_symmetry_cell_setting 'orthorhombic'
loop_
_space_group_symop_operation_xyz
x,y,z
-x,-y,z
1/2+x,1/2-y,-z
1/2-x,1/2+y,-z
-x,-y,-z
x,y,-z
1/2-x,1/2+y,z
1/2+x,1/2-y,z
loop_
_atom_site_type_symbol
_atom_site_label
_atom_site_fract_x
_atom_site_fract_y
_atom_site_fract_z
Si Si1 0.201998 0.730895 0.323010
Si Si2 0.543209 0.233709 0.181115
Si Si3 0.673643 0.988050 0.828042
Si Si4 0.207862 0.274751 0.822424
Si Si5 0.073884 0.497084 0.825722
Si Si6 0.447128 0.236877 0.180941
Si Si7 0.625470 0.365405 0.818866
Si Si8 0.868407 0.115577 0.819021
O O1 0.198414 0.755420 0.500000
O O2 0.183343 0.609305 0.289238
O O3 0.251606 0.731560 0.271865
O O4 0.175183 0.825195 0.236049
O O5 0.495398 0.277705 0.227998
O O6 0.580276 0.315361 0.246693
O O7 0.549241 0.108584 0.247843
O O8 0.548170 0.228120 0.000000
O O9 0.624569 0.028009 0.809650
O O10 0.703387 0.094036 0.792517
O O11 0.681785 0.944225 0.000000
O O12 0.165670 0.208940 0.761898
O O13 0.215255 0.249740 0.000000
O O14 0.061279 0.614264 0.747651
O O15 0.059394 0.506452 0.000000
O O16 0.411054 0.321258 0.245968
O O17 0.442034 0.232202 0.000000
O O18 0.630752 0.490197 0.755769
O O19 0.623933 0.365613 0.000000
O O20 0.868192 0.116683 0.000000
#
# Coordination Sequence:
#
# PCOD8225715 Si02
#       8
#     8   8   8   8   8   8   8   8
#     4  12  26  40  56  81 113 145 182 234 284 333
#     4   9  15  25  44  79 117 144 173 222 281 323
#     4  10  19  36  62  84 109 143 184 229 274 330
#     4  10  21  38  60  84 108 144 187 230 276 330
#     4   9  14  25  46  76 113 144 175 217 268 324
#     4   9  16  25  45  77 114 148 178 219 272 325
#     4   9  18  32  52  79 112 145 182 225 272 325
#     4  10  20  36  55  79 111 149 190 227 268 328
#
# _framework density 19.630752000000001
#
# number of rings (size 3 to 8) (size 9 to 14) (size 15 to 20)
#    0.000    2.250    2.500    1.500    1.750    2.500 
#    0.000    2.500    0.000    0.000    0.000    4.375 
#    0.000    0.000    0.000    0.000    0.000    0.000 
#
# Total GULP energy -793462.277050 kJ/mol
# GULP energy per Si atom -12397.848079 kJ/mol
# Density = 1.958607 g / cm^3
# Si number density = 19.630752 Si / 1000 Ang^3
#
#
#
# Elastic Constant Matrix: (Units=GPa)
#
#
# Indices 1 2 3 4 5 6 
#
# 1 112.2394 47.6579 12.3995 0.0000 0.0000 0.0000
# 2 47.6579 118.5016 16.6016 0.0000 0.0000 0.0000
# 3 12.3995 16.6016 20.9586 0.0000 0.0000 0.0000
# 4 0.0000 0.0000 0.0000 5.9036 0.0000 0.0000
# 5 0.0000 0.0000 0.0000 0.0000 -0.9954 0.0000
# 6 0.0000 0.0000 0.0000 0.0000 0.0000 24.2772
#
#
#
# Elastic Compliance Matrix: (Units=1/GPa)
#
#
# Indices 1 2 3 4 5 6 
#
# 1 0.010951 -0.003933 -0.003363 0.000000 0.000000 0.000000
# 2 -0.003933 0.010905 -0.006311 0.000000 0.000000 0.000000
# 3 -0.003363 -0.006311 0.054702 0.000000 0.000000 0.000000
# 4 0.000000 0.000000 0.000000 0.169388 0.000000 0.000000
# 5 0.000000 0.000000 0.000000 0.000000 -1.004639 0.000000
# 6 0.000000 0.000000 0.000000 0.000000 0.000000 0.041191
#
#
# Mechanical properties :
#
#
# Convention : Reuss Voigt Hill
#
# Bulk Modulus (GPa) = 20.26629 45.00193 32.63411
# Shear Modulus (GPa) = -7.42016 17.50645 5.04315
#
# Velocity S-wave (km/s) = -1.94630 2.98952 1.60455
# Velocity P-wave (km/s) = 2.30117 5.90680 4.48250
#
# Compressibility (1/GPa) = 0.04934302
#
# Stress axis : x y z
#
# Youngs Moduli (GPa) = 91.31510 91.70478 18.28087
#
# Poissons Ratio (x) = 0.36067 0.06149
# Poissons Ratio (y) = 0.35914 0.11537
# Poissons Ratio (z) = 0.30714 0.57873
#
# Static dielectric constant tensor:
#      x y z
#    x 3.724990 0.000000 0.000000 
#    y 0.000000 3.789580 0.000000 
#    z 0.000000 0.000000 2.890180 
# 
# 
# High freq. dielectric constant tensor:
#      x y z
#    x 1.780290 0.000000 0.000000 
#    y 0.000000 1.774620 0.000000 
#    z 0.000000 0.000000 1.686790 
# 
# From -- ./inp_files/10856.got.cif
#   From: 2010.03.12/outbox.cif.g09.slc.cpg/sg55_6_cif.got.tgz:10856.got - 2010.04.16 15:19:21.
