data_PCOD8225258
_publ_section_title
;
Structure prediction by ZEFSAII (Michael W. Deem and Ramdas Pophale) SiO2 
 PCOD8225258
Probable space group: P B A M
;
_chemical_formula_sum "Si O2"
_cell_formula_units_Z 40
_cell_length_a 19.921545
_cell_length_b 8.007600
_cell_length_c 13.163322
_cell_angle_alpha 90.000000
_cell_angle_beta 90.000000
_cell_angle_gamma 90.000000
_cell_volume 2099.862669
_symmetry_space_group_name_H-M "P B A M"
_symmetry_group_IT_number 55
_symmetry_cell_setting 'orthorhombic'
loop_
_space_group_symop_operation_xyz
x,y,z
-x,-y,z
1/2+x,1/2-y,-z
1/2-x,1/2+y,-z
-x,-y,-z
x,y,-z
1/2-x,1/2+y,z
1/2+x,1/2-y,z
loop_
_atom_site_type_symbol
_atom_site_label
_atom_site_fract_x
_atom_site_fract_y
_atom_site_fract_z
Si Si1 0.149712 0.152892 0.500000
Si Si2 0.650211 0.368920 0.112139
Si Si3 0.578451 0.481995 0.694585
Si Si4 0.726264 0.061757 0.813856
Si Si5 0.679049 0.769625 0.694666
Si Si6 0.709592 0.978149 0.500000
O O1 0.209064 0.014050 0.500000
O O2 0.180624 0.336590 0.500000
O O3 0.106043 0.127927 0.398762
O O4 0.594054 0.390104 0.198946
O O5 0.708233 0.507399 0.122949
O O6 0.681673 0.185017 0.120002
O O7 0.617681 0.387350 0.000000
O O8 0.500000 0.500000 0.680336
O O9 0.610319 0.666428 0.695701
O O10 0.755289 0.149322 0.709842
O O11 0.680451 0.902214 0.787352
O O12 0.682550 0.873198 0.593335
#
# Coordination Sequence:
#
# PCOD8225258 Si02
#       6
#     4   8   8   8   8   4
#     4  12  23  37  59  84 111 139 176 226 281 328
#     4  10  19  34  58  84 111 141 177 227 278 325
#     4  11  24  40  55  75 111 155 192 220 258 322
#     4   9  18  33  54  85 112 135 172 227 287 329
#     4  10  19  33  55  81 112 142 176 223 276 327
#     4  12  20  33  60  90 110 133 175 230 287 330
#
# _framework density 19.048863999999998
#
# number of rings (size 3 to 8) (size 9 to 14) (size 15 to 20)
#    0.000    1.600    0.000    8.700    0.000    0.400 
#    0.000    6.000    0.000    1.200    0.000    0.000 
#    0.000    0.000    0.000    0.000    0.000    0.000 
#
# Total GULP energy -495992.853912 kJ/mol
# GULP energy per Si atom -12399.821348 kJ/mol
# Density = 1.900551 g / cm^3
# Si number density = 19.048864 Si / 1000 Ang^3
#
#
#
# Elastic Constant Matrix: (Units=GPa)
#
#
# Indices 1 2 3 4 5 6 
#
# 1 113.8303 49.6894 51.6426 0.0000 0.0000 0.0000
# 2 49.6894 114.9442 37.7908 0.0000 0.0000 0.0000
# 3 51.6426 37.7908 138.4776 0.0000 0.0000 0.0000
# 4 0.0000 0.0000 0.0000 10.2675 0.0000 0.0000
# 5 0.0000 0.0000 0.0000 0.0000 -2.5450 0.0000
# 6 0.0000 0.0000 0.0000 0.0000 0.0000 20.0670
#
#
#
# Elastic Compliance Matrix: (Units=1/GPa)
#
#
# Indices 1 2 3 4 5 6 
#
# 1 0.012127 -0.004126 -0.003397 0.000000 0.000000 0.000000
# 2 -0.004126 0.010961 -0.001453 0.000000 0.000000 0.000000
# 3 -0.003397 -0.001453 0.008885 0.000000 0.000000 0.000000
# 4 0.000000 0.000000 0.000000 0.097395 0.000000 0.000000
# 5 0.000000 0.000000 0.000000 0.000000 -0.392932 0.000000
# 6 0.000000 0.000000 0.000000 0.000000 0.000000 0.049833
#
#
# Mechanical properties :
#
#
# Convention : Reuss Voigt Hill
#
# Bulk Modulus (GPa) = 71.31382 71.72197 71.51789
# Shear Modulus (GPa) = -26.16321 20.76654 -2.69833
#
# Velocity S-wave (km/s) = -3.71007 3.30536 -1.19147
# Velocity P-wave (km/s) = 4.37787 7.23191 5.97772
#
# Compressibility (1/GPa) = 0.01402253
#
# Stress axis : x y z
#
# Youngs Moduli (GPa) = 82.46124 91.23291 112.55530
#
# Poissons Ratio (x) = 0.37639 0.38231
# Poissons Ratio (y) = 0.34021 0.16351
# Poissons Ratio (z) = 0.28009 0.13253
#
# Static dielectric constant tensor:
#      x y z
#    x 3.103090 0.000000 0.000000 
#    y 0.000000 3.772850 0.000000 
#    z 0.000000 0.000000 3.580530 
# 
# 
# High freq. dielectric constant tensor:
#      x y z
#    x 1.694120 0.000000 0.000000 
#    y 0.000000 1.756560 0.000000 
#    z 0.000000 0.000000 1.751150 
# 
# From -- ./inp_files/15221.got.cif
#   From: 2010.03.12/outbox.cif.g09.slc.cpg/sg55_8_cif.got.tgz:15221.got - 2010.04.16 15:19:21.
