data_PCOD8225046
_publ_section_title
;
Structure prediction by ZEFSAII (Michael W. Deem and Ramdas Pophale) SiO2 
 PCOD8225046
Probable space group: P B A M
;
_chemical_formula_sum "Si O2"
_cell_formula_units_Z 64
_cell_length_a 17.156911
_cell_length_b 22.195056
_cell_length_c 9.020016
_cell_angle_alpha 90.000000
_cell_angle_beta 90.000000
_cell_angle_gamma 90.000000
_cell_volume 3434.809469
_symmetry_space_group_name_H-M "P B A M"
_symmetry_group_IT_number 55
_symmetry_cell_setting 'orthorhombic'
loop_
_space_group_symop_operation_xyz
x,y,z
-x,-y,z
1/2+x,1/2-y,-z
1/2-x,1/2+y,-z
-x,-y,-z
x,y,-z
1/2-x,1/2+y,z
1/2+x,1/2-y,z
loop_
_atom_site_type_symbol
_atom_site_label
_atom_site_fract_x
_atom_site_fract_y
_atom_site_fract_z
Si Si1 0.854592 0.472318 0.328458
Si Si2 0.784135 0.156573 0.825645
Si Si3 0.660658 0.788973 0.174148
Si Si4 0.225681 0.121191 0.672399
Si Si5 0.582844 0.427784 0.824736
Si Si6 0.637259 0.106635 0.325156
Si Si7 0.590441 0.563607 0.175371
Si Si8 0.538076 0.866124 0.674865
O O1 0.872561 0.481774 0.500000
O O2 0.770814 0.441783 0.299719
O O3 0.856320 0.538889 0.255972
O O4 0.922245 0.428218 0.265472
O O5 0.824392 0.219617 0.787137
O O6 0.700467 0.150314 0.748544
O O7 0.841652 0.105506 0.758811
O O8 0.771509 0.149150 0.000000
O O9 0.731876 0.825406 0.243089
O O10 0.578391 0.809342 0.244937
O O11 0.657481 0.800842 0.000000
O O12 0.222628 0.137465 0.500000
O O13 0.139056 0.117174 0.737287
O O14 0.494610 0.411484 0.777624
O O15 0.601904 0.495472 0.769811
O O16 0.596066 0.420850 0.000000
O O17 0.651786 0.106036 0.500000
O O18 0.552801 0.133560 0.285698
O O19 0.593776 0.564559 0.000000
O O20 0.553777 0.859900 0.500000
#
# Coordination Sequence:
#
# PCOD8225046 Si02
#       8
#     8   8   8   8   8   8   8   8
#     4   8  15  29  51  78 107 139 167 196 248 311
#     4  10  21  37  53  72 101 137 177 218 258 298
#     4  10  21  37  54  70  96 138 182 218 254 301
#     4  10  19  32  52  77 106 136 170 216 259 303
#     4   9  16  30  54  80 105 134 171 209 256 317
#     4  10  19  32  54  82 108 135 167 205 256 316
#     4   8  16  32  53  76 104 137 170 211 259 309
#     4   9  18  34  55  78 106 137 168 210 255 304
#
# _framework density 18.632766
#
# number of rings (size 3 to 8) (size 9 to 14) (size 15 to 20)
#    0.000    2.750    0.000    3.375    0.000    3.000 
#    2.250    4.375    0.000    3.750    0.000    0.000 
#    0.000    0.000    0.000    0.000    0.000    0.000 
#
# Total GULP energy -793469.025632 kJ/mol
# GULP energy per Si atom -12397.953526 kJ/mol
# Density = 1.859036 g / cm^3
# Si number density = 18.632766 Si / 1000 Ang^3
#
#
#
# Elastic Constant Matrix: (Units=GPa)
#
#
# Indices 1 2 3 4 5 6 
#
# 1 128.6364 45.1948 37.3796 0.0000 0.0000 0.0000
# 2 45.1948 73.9327 33.2244 0.0000 0.0000 0.0000
# 3 37.3796 33.2244 44.7162 0.0000 0.0000 0.0000
# 4 0.0000 0.0000 0.0000 20.4510 0.0000 0.0000
# 5 0.0000 0.0000 0.0000 0.0000 30.9702 0.0000
# 6 0.0000 0.0000 0.0000 0.0000 0.0000 18.3712
#
#
#
# Elastic Compliance Matrix: (Units=1/GPa)
#
#
# Indices 1 2 3 4 5 6 
#
# 1 0.010962 -0.003878 -0.006282 0.000000 0.000000 0.000000
# 2 -0.003878 0.021678 -0.012865 0.000000 0.000000 0.000000
# 3 -0.006282 -0.012865 0.037173 0.000000 0.000000 0.000000
# 4 0.000000 0.000000 0.000000 0.048897 0.000000 0.000000
# 5 0.000000 0.000000 0.000000 0.000000 0.032289 0.000000
# 6 0.000000 0.000000 0.000000 0.000000 0.000000 0.054433
#
#
# Mechanical properties :
#
#
# Convention : Reuss Voigt Hill
#
# Bulk Modulus (GPa) = 42.08214 53.20922 47.64568
# Shear Modulus (GPa) = 19.27501 22.72423 20.99962
#
# Velocity S-wave (km/s) = 3.21980 3.49604 3.36076
# Velocity P-wave (km/s) = 6.03796 6.70188 6.37856
#
# Compressibility (1/GPa) = 0.02376305
#
# Stress axis : x y z
#
# Youngs Moduli (GPa) = 91.22657 46.13034 26.90095
#
# Poissons Ratio (x) = 0.17889 0.16899
# Poissons Ratio (y) = 0.35376 0.34608
# Poissons Ratio (z) = 0.57308 0.59347
#
# Static dielectric constant tensor:
#      x y z
#    x 3.526510 0.000000 0.000000 
#    y 0.000000 3.478530 0.000000 
#    z 0.000000 0.000000 3.118750 
# 
# 
# High freq. dielectric constant tensor:
#      x y z
#    x 1.732480 0.000000 0.000000 
#    y 0.000000 1.712730 0.000000 
#    z 0.000000 0.000000 1.694780 
# 
# From -- ./inp_files/7994.got.cif
#   From: 2010.03.12/outbox.cif.g09.slc.cpg/sg55_4_cif.got.tgz:7994.got - 2010.04.16 15:19:21.
