data_PCOD8225364
_publ_section_title
;
Structure prediction by ZEFSAII (Michael W. Deem and Ramdas Pophale) SiO2 
 PCOD8225364
Probable space group: P B A M
;
_chemical_formula_sum "Si O2"
_cell_formula_units_Z 48
_cell_length_a 8.458443
_cell_length_b 23.006134
_cell_length_c 12.796555
_cell_angle_alpha 90.000000
_cell_angle_beta 90.000000
_cell_angle_gamma 90.000000
_cell_volume 2490.159352
_symmetry_space_group_name_H-M "P B A M"
_symmetry_group_IT_number 55
_symmetry_cell_setting 'orthorhombic'
loop_
_space_group_symop_operation_xyz
x,y,z
-x,-y,z
1/2+x,1/2-y,-z
1/2-x,1/2+y,-z
-x,-y,-z
x,y,-z
1/2-x,1/2+y,z
1/2+x,1/2-y,z
loop_
_atom_site_type_symbol
_atom_site_label
_atom_site_fract_x
_atom_site_fract_y
_atom_site_fract_z
Si Si1 0.818818 0.982513 0.617464
Si Si2 0.733270 0.292801 0.500000
Si Si3 0.732929 0.102687 0.312392
Si Si4 0.957699 0.791890 0.883292
Si Si5 0.095295 0.137200 0.311286
Si Si6 0.184012 0.327767 0.883643
Si Si7 0.405966 0.829721 0.500000
O O1 0.751750 0.974229 0.500000
O O2 0.802261 0.921974 0.680005
O O3 0.722093 0.032790 0.677328
O O4 0.000000 0.000000 0.610671
O O5 0.648979 0.317322 0.602347
O O6 0.716367 0.223517 0.500000
O O7 0.917181 0.306539 0.500000
O O8 0.667549 0.119514 0.197912
O O9 0.620543 0.131235 0.398162
O O10 0.910950 0.124614 0.330212
O O11 0.872146 0.835575 0.802799
O O12 0.932112 0.724714 0.851826
O O13 0.143091 0.800696 0.879208
O O14 0.889808 0.804117 0.000000
O O15 0.146291 0.351731 0.000000
#
# Coordination Sequence:
#
# PCOD8225364 Si02
#       7
#     8   4   8   8   8   8   4
#     4   9  16  30  53  75  99 136 175 206 249 303
#     4  12  24  35  50  75 105 132 166 212 261 306
#     4  10  19  34  54  75 102 136 173 208 251 305
#     4   9  18  32  51  75 102 132 168 210 255 302
#     4  10  19  34  54  75 102 136 173 208 251 305
#     4   9  18  32  51  75 102 132 168 210 255 302
#     4  12  24  35  50  75 105 132 166 212 261 306
#
# _framework density 19.275874000000002
#
# number of rings (size 3 to 8) (size 9 to 14) (size 15 to 20)
#    0.000    2.167    1.667    2.500    0.000    4.000 
#    0.000    2.500    0.000    5.000    0.000    0.000 
#    0.000    8.000    0.000    0.000    0.000    0.000 
#
# Total GULP energy -595183.722238 kJ/mol
# GULP energy per Si atom -12399.660880 kJ/mol
# Density = 1.923200 g / cm^3
# Si number density = 19.275874 Si / 1000 Ang^3
#
#
#
# Elastic Constant Matrix: (Units=GPa)
#
#
# Indices 1 2 3 4 5 6 
#
# 1 18.6374 -12.6601 7.2886 0.0000 0.0000 0.0000
# 2 -12.6601 40.1017 20.2729 0.0000 0.0000 0.0000
# 3 7.2886 20.2729 106.9096 0.0000 0.0000 0.0000
# 4 0.0000 0.0000 0.0000 34.5111 0.0000 0.0000
# 5 0.0000 0.0000 0.0000 0.0000 11.2337 0.0000
# 6 0.0000 0.0000 0.0000 0.0000 0.0000 21.1704
#
#
#
# Elastic Compliance Matrix: (Units=1/GPa)
#
#
# Indices 1 2 3 4 5 6 
#
# 1 0.078727 0.030490 -0.011149 0.000000 0.000000 0.000000
# 2 0.030490 0.039389 -0.009548 0.000000 0.000000 0.000000
# 3 -0.011149 -0.009548 0.011924 0.000000 0.000000 0.000000
# 4 0.000000 0.000000 0.000000 0.028976 0.000000 0.000000
# 5 0.000000 0.000000 0.000000 0.000000 0.089018 0.000000
# 6 0.000000 0.000000 0.000000 0.000000 0.000000 0.047236
#
#
# Mechanical properties :
#
#
# Convention : Reuss Voigt Hill
#
# Bulk Modulus (GPa) = 6.68325 21.71682 14.20003
# Shear Modulus (GPa) = 15.35816 23.43286 19.39551
#
# Velocity S-wave (km/s) = 2.82575 3.49041 3.17552
# Velocity P-wave (km/s) = 3.75781 5.24735 4.56376
#
# Compressibility (1/GPa) = 0.14962781
#
# Stress axis : x y z
#
# Youngs Moduli (GPa) = 12.70206 25.38766 83.86221
#
# Poissons Ratio (x) = -0.77408 0.93498
# Poissons Ratio (y) = -0.38729 0.80071
# Poissons Ratio (z) = 0.14162 0.24240
#
# Static dielectric constant tensor:
#      x y z
#    x 3.277360 0.000000 0.000000 
#    y 0.000000 3.672100 0.000000 
#    z 0.000000 0.000000 3.831190 
# 
# 
# High freq. dielectric constant tensor:
#      x y z
#    x 1.729170 0.000000 0.000000 
#    y 0.000000 1.745720 0.000000 
#    z 0.000000 0.000000 1.751470 
# 
# From -- ./inp_files/12265.got.cif
#   From: 2010.03.12/outbox.cif.g09.slc.cpg/sg55_7_cif.got.tgz:12265.got - 2010.04.16 15:19:21.
