data_PCOD8225820
_publ_section_title
;
Structure prediction by ZEFSAII (Michael W. Deem and Ramdas Pophale) SiO2 
 PCOD8225820
Probable space group: P B A M
;
_chemical_formula_sum "Si O2"
_cell_formula_units_Z 64
_cell_length_a 14.735297
_cell_length_b 25.374818
_cell_length_c 9.164026
_cell_angle_alpha 90.000000
_cell_angle_beta 90.000000
_cell_angle_gamma 90.000000
_cell_volume 3426.479536
_symmetry_space_group_name_H-M "P B A M"
_symmetry_group_IT_number 55
_symmetry_cell_setting 'orthorhombic'
loop_
_space_group_symop_operation_xyz
x,y,z
-x,-y,z
1/2+x,1/2-y,-z
1/2-x,1/2+y,-z
-x,-y,-z
x,y,-z
1/2-x,1/2+y,z
1/2+x,1/2-y,z
loop_
_atom_site_type_symbol
_atom_site_label
_atom_site_fract_x
_atom_site_fract_y
_atom_site_fract_z
Si Si1 0.914467 0.291650 0.174570
Si Si2 0.774949 0.981453 0.667554
Si Si3 0.857811 0.071254 0.172706
Si Si4 0.387666 0.661015 0.160351
Si Si5 0.115511 0.279049 0.171768
Si Si6 0.193008 0.811606 0.173174
Si Si7 0.967105 0.925127 0.666137
Si Si8 0.695334 0.891391 0.838259
O O1 0.867051 0.237642 0.233793
O O2 0.864675 0.344465 0.232415
O O3 0.017576 0.296008 0.235815
O O4 0.910145 0.290744 0.000000
O O5 0.749291 0.992006 0.500000
O O6 0.874293 0.956452 0.683302
O O7 0.697638 0.942916 0.734775
O O8 0.776717 0.036399 0.756938
O O9 0.847339 0.132203 0.220960
O O10 0.952860 0.049299 0.237381
O O11 0.855653 0.063550 0.000000
O O12 0.365755 0.718950 0.215365
O O13 0.454210 0.634429 0.276671
O O14 0.296436 0.628907 0.145251
O O15 0.436268 0.662404 0.000000
O O16 0.202998 0.310019 0.234840
O O17 0.110804 0.286892 0.000000
O O18 0.196466 0.806708 0.000000
O O19 0.000788 0.924477 0.500000
O O20 0.658791 0.906966 0.000000
#
# Coordination Sequence:
#
# PCOD8225820 Si02
#       8
#     8   8   8   8   8   8   8   8
#     4   9  15  25  45  73 103 132 160 196 245 295
#     4  10  21  35  50  68  95 132 168 205 252 299
#     4  11  21  32  49  72  99 130 168 208 247 298
#     4   9  15  26  46  71  98 129 161 197 237 284
#     4   9  15  25  45  73 105 134 159 197 251 297
#     4   9  17  29  45  74 109 133 159 199 247 298
#     4  10  20  32  47  69  99 132 165 202 246 298
#     4   9  16  28  48  73  98 123 162 205 237 281
#
# _framework density 18.678063000000002
#
# number of rings (size 3 to 8) (size 9 to 14) (size 15 to 20)
#    0.000    2.500    1.250    2.250    0.000    5.000 
#    0.000    0.000    0.000    6.000    0.000    5.250 
#    0.000    0.000    0.000    0.000    0.000    0.000 
#
# Total GULP energy -793067.039342 kJ/mol
# GULP energy per Si atom -12391.672490 kJ/mol
# Density = 1.863555 g / cm^3
# Si number density = 18.678063 Si / 1000 Ang^3
#
#
#
# Elastic Constant Matrix: (Units=GPa)
#
#
# Indices 1 2 3 4 5 6 
#
# 1 68.4089 19.9387 12.9299 0.0000 0.0000 0.0000
# 2 19.9387 54.5658 21.0873 0.0000 0.0000 0.0000
# 3 12.9299 21.0873 55.4708 0.0000 0.0000 0.0000
# 4 0.0000 0.0000 0.0000 -0.1566 0.0000 0.0000
# 5 0.0000 0.0000 0.0000 0.0000 9.3216 0.0000
# 6 0.0000 0.0000 0.0000 0.0000 0.0000 21.3562
#
#
#
# Elastic Compliance Matrix: (Units=1/GPa)
#
#
# Indices 1 2 3 4 5 6 
#
# 1 0.016516 -0.005330 -0.001823 0.000000 0.000000 0.000000
# 2 -0.005330 0.023203 -0.007578 0.000000 0.000000 0.000000
# 3 -0.001823 -0.007578 0.021333 0.000000 0.000000 0.000000
# 4 0.000000 0.000000 0.000000 -6.384391 0.000000 0.000000
# 5 0.000000 0.000000 0.000000 0.000000 0.107278 0.000000
# 6 0.000000 0.000000 0.000000 0.000000 0.000000 0.046825
#
#
# Mechanical properties :
#
#
# Convention : Reuss Voigt Hill
#
# Bulk Modulus (GPa) = 31.65711 31.81746 31.73729
# Shear Modulus (GPa) = -0.81576 14.40353 6.79389
#
# Velocity S-wave (km/s) = -0.66159 2.77997 1.90926
# Velocity P-wave (km/s) = 4.04994 5.23220 4.67857
#
# Compressibility (1/GPa) = 0.03158848
#
# Stress axis : x y z
#
# Youngs Moduli (GPa) = 60.54633 43.09809 46.87493
#
# Poissons Ratio (x) = 0.22973 0.08547
# Poissons Ratio (y) = 0.32274 0.35522
# Poissons Ratio (z) = 0.11040 0.32660
#
# Static dielectric constant tensor:
#      x y z
#    x 3.463190 0.000000 0.000000 
#    y 0.000000 3.571040 0.000000 
#    z 0.000000 0.000000 3.144950 
# 
# 
# High freq. dielectric constant tensor:
#      x y z
#    x 1.703650 0.000000 0.000000 
#    y 0.000000 1.725390 0.000000 
#    z 0.000000 0.000000 1.679380 
# 
# From -- ./inp_files/6600.got.cif
#   From: 2010.03.12/outbox.cif.g09.slc.cpg/sg55_4_cif.got.tgz:6600.got - 2010.04.16 15:19:21.
