data_PCOD8225313
_publ_section_title
;
Structure prediction by ZEFSAII (Michael W. Deem and Ramdas Pophale) SiO2 
 PCOD8225313
Probable space group: P B A M
;
_chemical_formula_sum "Si O2"
_cell_formula_units_Z 48
_cell_length_a 8.556818
_cell_length_b 13.071693
_cell_length_c 19.082227
_cell_angle_alpha 90.000000
_cell_angle_beta 90.000000
_cell_angle_gamma 90.000000
_cell_volume 2134.387124
_symmetry_space_group_name_H-M "P B A M"
_symmetry_group_IT_number 55
_symmetry_cell_setting 'orthorhombic'
loop_
_space_group_symop_operation_xyz
x,y,z
-x,-y,z
1/2+x,1/2-y,-z
1/2-x,1/2+y,-z
-x,-y,-z
x,y,-z
1/2-x,1/2+y,z
1/2+x,1/2-y,z
loop_
_atom_site_type_symbol
_atom_site_label
_atom_site_fract_x
_atom_site_fract_y
_atom_site_fract_z
Si Si1 0.834568 0.401935 0.000000
Si Si2 0.084524 0.662340 0.249410
Si Si3 0.540734 0.615577 0.417680
Si Si4 0.241226 0.522988 0.150065
Si Si5 0.452834 0.345453 0.852420
Si Si6 0.679125 0.227899 0.344316
Si Si7 0.028233 0.222371 0.000000
O O1 0.819956 0.470099 0.930029
O O2 0.003947 0.345831 0.000000
O O3 0.709252 0.309073 0.000000
O O4 0.111610 0.556103 0.207457
O O5 0.038790 0.742289 0.189964
O O6 0.240635 0.698433 0.288178
O O7 0.946228 0.653936 0.306243
O O8 0.500000 0.500000 0.392142
O O9 0.568248 0.616477 0.500000
O O10 0.403867 0.695603 0.399267
O O11 0.700988 0.651141 0.381427
O O12 0.389711 0.594321 0.162860
O O13 0.295335 0.407830 0.167721
O O14 0.438582 0.324757 0.934254
#
# Coordination Sequence:
#
# PCOD8225313 Si02
#       7
#     4   8   8   8   8   8   4
#     4  10  19  33  57  78 108 156 214 279 331 383
#     4  11  20  37  58  87 127 170 203 262 320 384
#     4  10  22  45  75 103 136 178 215 261 317 374
#     4  10  20  35  58  82 114 163 218 269 327 392
#     4  10  20  35  57  82 114 162 217 268 331 389
#     4  10  23  39  65  99 137 169 219 258 315 389
#     4  10  19  33  57  78 110 150 215 282 327 383
#
# _framework density 22.488890000000001
#
# number of rings (size 3 to 8) (size 9 to 14) (size 15 to 20)
#    0.000    1.833    3.333    1.000    0.000    4.667 
#    0.000    7.500    0.000   10.000    0.000    0.000 
#    0.000    0.000    0.000    0.250    0.000    0.000 
#
# Total GULP energy -595096.757384 kJ/mol
# GULP energy per Si atom -12397.849112 kJ/mol
# Density = 2.243770 g / cm^3
# Si number density = 22.488890 Si / 1000 Ang^3
#
#
#
# Elastic Constant Matrix: (Units=GPa)
#
#
# Indices 1 2 3 4 5 6 
#
# 1 85.6247 44.6425 34.6666 0.0000 0.0000 0.0000
# 2 44.6425 78.6437 33.4996 0.0000 0.0000 0.0000
# 3 34.6666 33.4996 106.7509 0.0000 0.0000 0.0000
# 4 0.0000 0.0000 0.0000 19.3800 0.0000 0.0000
# 5 0.0000 0.0000 0.0000 0.0000 35.5459 0.0000
# 6 0.0000 0.0000 0.0000 0.0000 0.0000 37.1744
#
#
#
# Elastic Compliance Matrix: (Units=1/GPa)
#
#
# Indices 1 2 3 4 5 6 
#
# 1 0.017351 -0.008598 -0.002936 0.000000 0.000000 0.000000
# 2 -0.008598 0.018939 -0.003151 0.000000 0.000000 0.000000
# 3 -0.002936 -0.003151 0.011310 0.000000 0.000000 0.000000
# 4 0.000000 0.000000 0.000000 0.051600 0.000000 0.000000
# 5 0.000000 0.000000 0.000000 0.000000 0.028133 0.000000
# 6 0.000000 0.000000 0.000000 0.000000 0.000000 0.026900
#
#
# Mechanical properties :
#
#
# Convention : Reuss Voigt Hill
#
# Bulk Modulus (GPa) = 54.86021 55.18186 55.02104
# Shear Modulus (GPa) = 26.36032 28.96742 27.66387
#
# Velocity S-wave (km/s) = 3.42738 3.59287 3.51110
# Velocity P-wave (km/s) = 6.33324 6.46547 6.39970
#
# Compressibility (1/GPa) = 0.01822815
#
# Stress axis : x y z
#
# Youngs Moduli (GPa) = 57.63460 52.80186 88.41808
#
# Poissons Ratio (x) = 0.45402 0.25961
# Poissons Ratio (y) = 0.49557 0.27860
# Poissons Ratio (z) = 0.16923 0.16637
#
# Static dielectric constant tensor:
#      x y z
#    x 4.200320 0.000000 0.000000 
#    y 0.000000 3.984630 0.000000 
#    z 0.000000 0.000000 4.051900 
# 
# 
# High freq. dielectric constant tensor:
#      x y z
#    x 1.897350 0.000000 0.000000 
#    y 0.000000 1.879660 0.000000 
#    z 0.000000 0.000000 1.885630 
# 
# From -- ./inp_files/20845.got.cif
#   From: 2010.03.12/outbox.cif.g09.slc.cpg/sg55_11_cif.got.tgz:20845.got - 2010.04.16 15:19:21.
