data_PCOD8225406
_publ_section_title
;
Structure prediction by ZEFSAII (Michael W. Deem and Ramdas Pophale) SiO2 
 PCOD8225406
Probable space group: P B A M
;
_chemical_formula_sum "Si O2"
_cell_formula_units_Z 56
_cell_length_a 19.502750
_cell_length_b 17.484683
_cell_length_c 9.145294
_cell_angle_alpha 90.000000
_cell_angle_beta 90.000000
_cell_angle_gamma 90.000000
_cell_volume 3118.539779
_symmetry_space_group_name_H-M "P B A M"
_symmetry_group_IT_number 55
_symmetry_cell_setting 'orthorhombic'
loop_
_space_group_symop_operation_xyz
x,y,z
-x,-y,z
1/2+x,1/2-y,-z
1/2-x,1/2+y,-z
-x,-y,-z
x,y,-z
1/2-x,1/2+y,z
1/2+x,1/2-y,z
loop_
_atom_site_type_symbol
_atom_site_label
_atom_site_fract_x
_atom_site_fract_y
_atom_site_fract_z
Si Si1 0.097011 0.376256 0.326924
Si Si2 0.620216 0.293317 0.329922
Si Si3 0.569438 0.538401 0.171748
Si Si4 0.038269 0.814057 0.330477
Si Si5 0.553739 0.855806 0.673573
Si Si6 0.330548 0.028710 0.325684
Si Si7 0.191453 0.073892 0.827324
O O1 0.090670 0.379216 0.500000
O O2 0.130084 0.295043 0.281274
O O3 0.144141 0.445476 0.271350
O O4 0.019694 0.384058 0.262773
O O5 0.638471 0.304525 0.500000
O O6 0.542624 0.319109 0.297937
O O7 0.672025 0.342723 0.233078
O O8 0.500000 0.500000 0.232742
O O9 0.579176 0.621442 0.242759
O O10 0.632807 0.485875 0.217622
O O11 0.564675 0.550059 0.000000
O O12 0.053315 0.826912 0.500000
O O13 0.067100 0.731813 0.278171
O O14 0.550175 0.860032 0.500000
O O15 0.614397 0.909339 0.731813
O O16 0.321142 0.032413 0.500000
O O17 0.259926 0.045002 0.247371
O O18 0.201439 0.079340 0.000000
#
# Coordination Sequence:
#
# PCOD8225406 Si02
#       7
#     8   8   8   8   8   8   8
#     4   8  15  30  56  85 106 130 169 215 258 306
#     4   9  17  32  54  79 104 129 166 214 261 307
#     4  10  20  35  53  71  97 136 179 217 256 306
#     4   9  17  30  53  83 106 125 162 215 261 303
#     4   8  15  30  54  84 110 131 163 212 262 308
#     4  10  19  34  56  80 107 139 173 209 257 313
#     4  11  23  37  51  70 104 144 179 216 259 309
#
# _framework density 17.957122999999999
#
# number of rings (size 3 to 8) (size 9 to 14) (size 15 to 20)
#    0.000    2.714    1.429    2.571    0.000    3.143 
#    2.571    1.429    0.000    3.429    0.000    0.000 
#    0.000    0.000    0.000    0.000    0.000    0.000 
#
# Total GULP energy -694292.086920 kJ/mol
# GULP energy per Si atom -12398.072981 kJ/mol
# Density = 1.791625 g / cm^3
# Si number density = 17.957123 Si / 1000 Ang^3
#
#
#
# Elastic Constant Matrix: (Units=GPa)
#
#
# Indices 1 2 3 4 5 6 
#
# 1 129.6987 91.4342 43.6900 0.0000 0.0000 0.0000
# 2 91.4342 167.6142 45.5080 0.0000 0.0000 0.0000
# 3 43.6900 45.5080 36.3619 0.0000 0.0000 0.0000
# 4 0.0000 0.0000 0.0000 2.8760 0.0000 0.0000
# 5 0.0000 0.0000 0.0000 0.0000 19.0535 0.0000
# 6 0.0000 0.0000 0.0000 0.0000 0.0000 24.3101
#
#
#
# Elastic Compliance Matrix: (Units=1/GPa)
#
#
# Indices 1 2 3 4 5 6 
#
# 1 0.015386 -0.005110 -0.012091 0.000000 0.000000 0.000000
# 2 -0.005110 0.010734 -0.007294 0.000000 0.000000 0.000000
# 3 -0.012091 -0.007294 0.051157 0.000000 0.000000 0.000000
# 4 0.000000 0.000000 0.000000 0.347701 0.000000 0.000000
# 5 0.000000 0.000000 0.000000 0.000000 0.052484 0.000000
# 6 0.000000 0.000000 0.000000 0.000000 0.000000 0.041135
#
#
# Mechanical properties :
#
#
# Convention : Reuss Voigt Hill
#
# Bulk Modulus (GPa) = 35.35164 77.21547 56.28355
# Shear Modulus (GPa) = 8.66528 19.45076 14.05802
#
# Velocity S-wave (km/s) = 2.19909 3.29474 2.80101
# Velocity P-wave (km/s) = 5.11639 7.58729 6.47087
#
# Compressibility (1/GPa) = 0.02828723
#
# Stress axis : x y z
#
# Youngs Moduli (GPa) = 64.99580 93.16158 19.54758
#
# Poissons Ratio (x) = 0.47608 0.23634
# Poissons Ratio (y) = 0.33214 0.14258
# Poissons Ratio (z) = 0.78585 0.67951
#
# Static dielectric constant tensor:
#      x y z
#    x 3.291190 0.000000 0.000000 
#    y 0.000000 3.635810 0.000000 
#    z 0.000000 0.000000 2.932480 
# 
# 
# High freq. dielectric constant tensor:
#      x y z
#    x 1.682940 0.000000 0.000000 
#    y 0.000000 1.711710 0.000000 
#    z 0.000000 0.000000 1.657870 
# 
# From -- ./inp_files/8897.got.cif
#   From: 2010.03.12/outbox.cif.g09.slc.cpg/sg55_5_cif.got.tgz:8897.got - 2010.04.16 15:19:21.
