data_PCOD8225285
_publ_section_title
;
Structure prediction by ZEFSAII (Michael W. Deem and Ramdas Pophale) SiO2 
 PCOD8225285
Probable space group: P B A M
;
_chemical_formula_sum "Si O2"
_cell_formula_units_Z 48
_cell_length_a 16.347083
_cell_length_b 17.880059
_cell_length_c 9.186471
_cell_angle_alpha 90.000000
_cell_angle_beta 90.000000
_cell_angle_gamma 90.000000
_cell_volume 2685.084290
_symmetry_space_group_name_H-M "P B A M"
_symmetry_group_IT_number 55
_symmetry_cell_setting 'orthorhombic'
loop_
_space_group_symop_operation_xyz
x,y,z
-x,-y,z
1/2+x,1/2-y,-z
1/2-x,1/2+y,-z
-x,-y,-z
x,y,-z
1/2-x,1/2+y,z
1/2+x,1/2-y,z
loop_
_atom_site_type_symbol
_atom_site_label
_atom_site_fract_x
_atom_site_fract_y
_atom_site_fract_z
Si Si1 0.677027 0.410982 0.333209
Si Si2 0.750628 0.042285 0.166876
Si Si3 0.504300 0.587921 0.666110
Si Si4 0.161957 0.670013 0.327941
Si Si5 0.913953 0.466164 0.170781
Si Si6 0.859579 0.175588 0.169397
O O1 0.690691 0.431825 0.500000
O O2 0.687269 0.489221 0.251758
O O3 0.586594 0.378094 0.306700
O O4 0.744928 0.350798 0.283441
O O5 0.656290 0.027030 0.210837
O O6 0.776194 0.128171 0.197392
O O7 0.764132 0.021867 0.000000
O O8 0.500000 0.500000 0.696088
O O9 0.533060 0.603517 0.500000
O O10 0.563219 0.626933 0.780764
O O11 0.148257 0.672029 0.500000
O O12 0.100155 0.609909 0.259212
O O13 0.142985 0.750309 0.263512
O O14 0.000000 0.500000 0.221623
O O15 0.914339 0.446996 0.000000
O O16 0.869685 0.195720 0.000000
#
# Coordination Sequence:
#
# PCOD8225285 Si02
#       6
#     8   8   8   8   8   8
#     4   9  18  34  55  78 103 138 177 213 261 320
#     4   9  18  32  53  78 104 137 175 216 261 317
#     4  10  19  33  56  82 110 140 175 219 268 321
#     4  10  21  37  56  77 108 143 180 223 270 318
#     4   9  18  36  60  81 106 139 180 225 270 320
#     4  11  22  35  52  78 112 144 180 220 268 321
#
# _framework density 17.876533999999999
#
# number of rings (size 3 to 8) (size 9 to 14) (size 15 to 20)
#    0.000    2.333    1.667    1.000    0.000    2.667 
#    3.000    0.000    0.000    0.000    0.000    0.000 
#    0.000    0.000    0.000    0.000    0.000    0.000 
#
# Total GULP energy -595154.378758 kJ/mol
# GULP energy per Si atom -12399.049557 kJ/mol
# Density = 1.783585 g / cm^3
# Si number density = 17.876534 Si / 1000 Ang^3
#
#
#
# Elastic Constant Matrix: (Units=GPa)
#
#
# Indices 1 2 3 4 5 6 
#
# 1 99.2289 51.4719 35.4749 0.0000 0.0000 0.0000
# 2 51.4719 108.6322 48.0404 0.0000 0.0000 0.0000
# 3 35.4749 48.0404 65.0320 0.0000 0.0000 0.0000
# 4 0.0000 0.0000 0.0000 34.6149 0.0000 0.0000
# 5 0.0000 0.0000 0.0000 0.0000 25.9844 0.0000
# 6 0.0000 0.0000 0.0000 0.0000 0.0000 19.4646
#
#
#
# Elastic Compliance Matrix: (Units=1/GPa)
#
#
# Indices 1 2 3 4 5 6 
#
# 1 0.014055 -0.004855 -0.004080 0.000000 0.000000 0.000000
# 2 -0.004855 0.015349 -0.008690 0.000000 0.000000 0.000000
# 3 -0.004080 -0.008690 0.024022 0.000000 0.000000 0.000000
# 4 0.000000 0.000000 0.000000 0.028889 0.000000 0.000000
# 5 0.000000 0.000000 0.000000 0.000000 0.038485 0.000000
# 6 0.000000 0.000000 0.000000 0.000000 0.000000 0.051375
#
#
# Mechanical properties :
#
#
# Convention : Reuss Voigt Hill
#
# Bulk Modulus (GPa) = 55.02026 60.31861 57.66943
# Shear Modulus (GPa) = 23.42089 25.20650 24.31369
#
# Velocity S-wave (km/s) = 3.62352 3.75911 3.69194
# Velocity P-wave (km/s) = 6.95351 7.25646 7.10660
#
# Compressibility (1/GPa) = 0.01817512
#
# Stress axis : x y z
#
# Youngs Moduli (GPa) = 71.14986 65.15201 41.62774
#
# Poissons Ratio (x) = 0.31631 0.16986
# Poissons Ratio (y) = 0.34543 0.36175
# Poissons Ratio (z) = 0.29033 0.56617
#
# Static dielectric constant tensor:
#      x y z
#    x 3.581980 0.000000 0.000000 
#    y 0.000000 3.189620 0.000000 
#    z 0.000000 0.000000 3.319020 
# 
# 
# High freq. dielectric constant tensor:
#      x y z
#    x 1.696890 0.000000 0.000000 
#    y 0.000000 1.675660 0.000000 
#    z 0.000000 0.000000 1.695680 
# 
# From -- ./inp_files/5542.got.cif
#   From: 2010.03.12/outbox.cif.g09.slc.cpg/sg55_3_cif.got.tgz:5542.got - 2010.04.16 15:19:21.
