data_PCOD8225879
_publ_section_title
;
Structure prediction by ZEFSAII (Michael W. Deem and Ramdas Pophale) SiO2 
 PCOD8225879
Probable space group: P B A M
;
_chemical_formula_sum "Si O2"
_cell_formula_units_Z 64
_cell_length_a 22.213083
_cell_length_b 17.444986
_cell_length_c 8.767453
_cell_angle_alpha 90.000000
_cell_angle_beta 90.000000
_cell_angle_gamma 90.000000
_cell_volume 3397.448725
_symmetry_space_group_name_H-M "P B A M"
_symmetry_group_IT_number 55
_symmetry_cell_setting 'orthorhombic'
loop_
_space_group_symop_operation_xyz
x,y,z
-x,-y,z
1/2+x,1/2-y,-z
1/2-x,1/2+y,-z
-x,-y,-z
x,y,-z
1/2-x,1/2+y,z
1/2+x,1/2-y,z
loop_
_atom_site_type_symbol
_atom_site_label
_atom_site_fract_x
_atom_site_fract_y
_atom_site_fract_z
Si Si1 0.103124 0.741314 0.322178
Si Si2 0.569335 0.085528 0.318596
Si Si3 0.565274 0.919303 0.320029
Si Si4 0.526503 0.634637 0.821123
Si Si5 0.103410 0.122900 0.319188
Si Si6 0.639298 0.531203 0.179662
Si Si7 0.155850 0.284149 0.318233
Si Si8 0.215592 0.841695 0.678615
O O1 0.086759 0.749856 0.500000
O O2 0.106925 0.652137 0.271716
O O3 0.049866 0.781883 0.228563
O O4 0.167417 0.776204 0.282792
O O5 0.572303 0.092070 0.500000
O O6 0.501755 0.096173 0.256238
O O7 0.610752 0.152162 0.248815
O O8 0.591992 0.000842 0.262584
O O9 0.559370 0.925437 0.500000
O O10 0.464803 0.615330 0.737459
O O11 0.576895 0.572542 0.772306
O O12 0.514426 0.632529 0.000000
O O13 0.103322 0.120818 0.500000
O O14 0.135031 0.200795 0.257938
O O15 0.142153 0.051957 0.256697
O O16 0.696642 0.580090 0.237008
O O17 0.643671 0.521875 0.000000
O O18 0.155504 0.283490 0.500000
O O19 0.221840 0.307929 0.258238
O O20 0.219029 0.860184 0.500000
#
# Coordination Sequence:
#
# PCOD8225879 Si02
#       8
#     8   8   8   8   8   8   8   8
#     4   9  16  28  48  73  99 128 166 208 248 296
#     4   8  13  23  40  65  99 127 152 195 253 302
#     4   8  13  22  40  69  96 122 159 201 245 297
#     4  10  20  33  51  76 106 138 170 208 258 310
#     4  11  21  33  53  81 109 135 168 213 263 312
#     4  10  21  37  54  74 103 138 176 215 256 306
#     4   9  18  32  48  73 106 135 165 210 261 307
#     4   9  18  34  52  72 100 132 169 210 253 301
#
# _framework density 18.837664
#
# number of rings (size 3 to 8) (size 9 to 14) (size 15 to 20)
#    0.000    2.750    0.000    3.000    0.000    5.000 
#    2.250    1.250    0.000    0.000    0.000    7.875 
#    0.000    0.000    0.000    0.000    0.000    0.000 
#
# Total GULP energy -793333.951543 kJ/mol
# GULP energy per Si atom -12395.842993 kJ/mol
# Density = 1.879479 g / cm^3
# Si number density = 18.837664 Si / 1000 Ang^3
#
#
#
# Elastic Constant Matrix: (Units=GPa)
#
#
# Indices 1 2 3 4 5 6 
#
# 1 90.4976 63.6056 20.2074 0.0000 0.0000 0.0000
# 2 63.6056 179.4486 29.1454 0.0000 0.0000 0.0000
# 3 20.2074 29.1454 35.7480 0.0000 0.0000 0.0000
# 4 0.0000 0.0000 0.0000 5.9674 0.0000 0.0000
# 5 0.0000 0.0000 0.0000 0.0000 12.5596 0.0000
# 6 0.0000 0.0000 0.0000 0.0000 0.0000 18.2353
#
#
#
# Elastic Compliance Matrix: (Units=1/GPa)
#
#
# Indices 1 2 3 4 5 6 
#
# 1 0.015430 -0.004671 -0.004914 0.000000 0.000000 0.000000
# 2 -0.004671 0.007837 -0.003749 0.000000 0.000000 0.000000
# 3 -0.004914 -0.003749 0.033808 0.000000 0.000000 0.000000
# 4 0.000000 0.000000 0.000000 0.167578 0.000000 0.000000
# 5 0.000000 0.000000 0.000000 0.000000 0.079621 0.000000
# 6 0.000000 0.000000 0.000000 0.000000 0.000000 0.054839
#
#
# Mechanical properties :
#
#
# Convention : Reuss Voigt Hill
#
# Bulk Modulus (GPa) = 32.88719 59.06787 45.97753
# Shear Modulus (GPa) = 12.62890 20.20150 16.41520
#
# Velocity S-wave (km/s) = 2.59203 3.27830 2.95516
# Velocity P-wave (km/s) = 5.14337 6.76417 6.00867
#
# Compressibility (1/GPa) = 0.03040698
#
# Stress axis : x y z
#
# Youngs Moduli (GPa) = 64.80721 127.59542 29.57874
#
# Poissons Ratio (x) = 0.59602 0.14535
# Poissons Ratio (y) = 0.30273 0.11090
# Poissons Ratio (z) = 0.31846 0.47838
#
# Static dielectric constant tensor:
#      x y z
#    x 3.430350 0.000000 0.000000 
#    y 0.000000 3.894710 0.000000 
#    z 0.000000 0.000000 3.041170 
# 
# 
# High freq. dielectric constant tensor:
#      x y z
#    x 1.716400 0.000000 0.000000 
#    y 0.000000 1.748750 0.000000 
#    z 0.000000 0.000000 1.689360 
# 
# From -- ./inp_files/9067.got.cif
#   From: 2010.03.12/outbox.cif.g09.slc.cpg/sg55_5_cif.got.tgz:9067.got - 2010.04.16 15:19:21.
