data_PCOD8225935
_publ_section_title
;
Structure prediction by ZEFSAII (Michael W. Deem and Ramdas Pophale) SiO2 
 PCOD8225935
Probable space group: P B A M
;
_chemical_formula_sum "Si O2"
_cell_formula_units_Z 64
_cell_length_a 9.695580
_cell_length_b 24.274600
_cell_length_c 13.141068
_cell_angle_alpha 90.000000
_cell_angle_beta 90.000000
_cell_angle_gamma 90.000000
_cell_volume 3092.833488
_symmetry_space_group_name_H-M "P B A M"
_symmetry_group_IT_number 55
_symmetry_cell_setting 'orthorhombic'
loop_
_space_group_symop_operation_xyz
x,y,z
-x,-y,z
1/2+x,1/2-y,-z
1/2-x,1/2+y,-z
-x,-y,-z
x,y,-z
1/2-x,1/2+y,z
1/2+x,1/2-y,z
loop_
_atom_site_type_symbol
_atom_site_label
_atom_site_fract_x
_atom_site_fract_y
_atom_site_fract_z
Si Si1 0.399974 0.289125 0.379107
Si Si2 0.159613 0.582119 0.614849
Si Si3 0.851901 0.010949 0.381889
Si Si4 0.488641 0.562674 0.885059
Si Si5 0.202860 0.889363 0.739792
Si Si6 0.984803 0.565961 0.203389
Si Si7 0.724915 0.868406 0.113081
Si Si8 0.786432 0.809767 0.684257
O O1 0.396903 0.303318 0.500000
O O2 0.303596 0.328980 0.309930
O O3 0.558386 0.289050 0.339137
O O4 0.330690 0.230380 0.359880
O O5 0.111889 0.572454 0.500000
O O6 0.242016 0.531119 0.665024
O O7 0.261643 0.633843 0.623317
O O8 0.022381 0.584460 0.681521
O O9 0.859371 0.998132 0.500000
O O10 0.805183 0.072303 0.359514
O O11 0.000000 0.000000 0.330938
O O12 0.500000 0.500000 0.846601
O O13 0.573049 0.603701 0.813356
O O14 0.331694 0.581629 0.877321
O O15 0.545580 0.567564 0.000000
O O16 0.332562 0.908205 0.808657
O O17 0.000000 0.500000 0.182844
O O18 0.078859 0.601308 0.127253
O O19 0.758705 0.820357 0.195187
O O20 0.729281 0.841500 0.000000
#
# Coordination Sequence:
#
# PCOD8225935 Si02
#       8
#     8   8   8   8   8   8   8   8
#     4  12  26  44  69  97 131 173 216 270 328 393
#     4  10  21  38  59  85 128 176 218 264 322 394
#     4  10  20  33  57  89 123 165 212 262 324 394
#     4  10  21  39  67  97 126 168 214 265 330 393
#     4  12  23  38  61  93 135 164 216 271 317 389
#     4  11  23  37  59  97 138 177 214 265 326 389
#     4  10  23  46  70  92 128 173 219 273 334 391
#     4  11  25  46  67  95 126 167 223 274 330 391
#
# _framework density 20.693000000000001
#
# number of rings (size 3 to 8) (size 9 to 14) (size 15 to 20)
#    0.000    1.250    2.500    3.375    7.000    3.000 
#    0.000    1.250    0.000    0.000    0.000    0.000 
#    0.000    0.000    0.000    0.000    0.000    0.000 
#
# Total GULP energy -793282.398263 kJ/mol
# GULP energy per Si atom -12395.037473 kJ/mol
# Density = 2.064590 g / cm^3
# Si number density = 20.693000 Si / 1000 Ang^3
#
#
#
# Elastic Constant Matrix: (Units=GPa)
#
#
# Indices 1 2 3 4 5 6 
#
# 1 93.0395 11.1422 17.5346 0.0000 0.0000 0.0000
# 2 11.1422 55.0867 19.3400 0.0000 0.0000 0.0000
# 3 17.5346 19.3400 112.9766 0.0000 0.0000 0.0000
# 4 0.0000 0.0000 0.0000 27.4231 0.0000 0.0000
# 5 0.0000 0.0000 0.0000 0.0000 -10.7803 0.0000
# 6 0.0000 0.0000 0.0000 0.0000 0.0000 34.7995
#
#
#
# Elastic Compliance Matrix: (Units=1/GPa)
#
#
# Indices 1 2 3 4 5 6 
#
# 1 0.011231 -0.001766 -0.001441 0.000000 0.000000 0.000000
# 2 -0.001766 0.019592 -0.003080 0.000000 0.000000 0.000000
# 3 -0.001441 -0.003080 0.009602 0.000000 0.000000 0.000000
# 4 0.000000 0.000000 0.000000 0.036466 0.000000 0.000000
# 5 0.000000 0.000000 0.000000 0.000000 -0.092762 0.000000
# 6 0.000000 0.000000 0.000000 0.000000 0.000000 0.028736
#
#
# Mechanical properties :
#
#
# Convention : Reuss Voigt Hill
#
# Bulk Modulus (GPa) = 35.90386 39.68181 37.79284
# Shear Modulus (GPa) = 144.00336 24.49421 84.24878
#
# Velocity S-wave (km/s) = 8.35113 3.44422 6.38765
# Velocity P-wave (km/s) = 10.50605 5.91903 8.52678
#
# Compressibility (1/GPa) = 0.02785216
#
# Stress axis : x y z
#
# Youngs Moduli (GPa) = 89.03814 51.04224 104.14255
#
# Poissons Ratio (x) = 0.09013 0.15005
# Poissons Ratio (y) = 0.15723 0.32073
# Poissons Ratio (z) = 0.12829 0.15720
#
# Static dielectric constant tensor:
#      x y z
#    x -0.902300 0.000000 0.000000 
#    y 0.000000 3.583810 0.000000 
#    z 0.000000 0.000000 3.773710 
# 
# 
# High freq. dielectric constant tensor:
#      x y z
#    x 1.817030 0.000000 0.000000 
#    y 0.000000 1.793150 0.000000 
#    z 0.000000 0.000000 1.815260 
# 
# From -- ./inp_files/17828.got.cif
#   From: 2010.03.12/outbox.cif.g09.slc.cpg/sg55_9_cif.got.tgz:17828.got - 2010.04.16 15:19:21.
