data_PCOD8225540
_publ_section_title
;
Structure prediction by ZEFSAII (Michael W. Deem and Ramdas Pophale) SiO2 
 PCOD8225540
Probable space group: P B A M
;
_chemical_formula_sum "Si O2"
_cell_formula_units_Z 56
_cell_length_a 24.992202
_cell_length_b 14.077450
_cell_length_c 9.244418
_cell_angle_alpha 90.000000
_cell_angle_beta 90.000000
_cell_angle_gamma 90.000000
_cell_volume 3252.430990
_symmetry_space_group_name_H-M "P B A M"
_symmetry_group_IT_number 55
_symmetry_cell_setting 'orthorhombic'
loop_
_space_group_symop_operation_xyz
x,y,z
-x,-y,z
1/2+x,1/2-y,-z
1/2-x,1/2+y,-z
-x,-y,-z
x,y,-z
1/2-x,1/2+y,z
1/2+x,1/2-y,z
loop_
_atom_site_type_symbol
_atom_site_label
_atom_site_fract_x
_atom_site_fract_y
_atom_site_fract_z
Si Si1 0.771893 0.171014 0.336255
Si Si2 0.936924 0.486277 0.662977
Si Si3 0.871002 0.150741 0.832401
Si Si4 0.923133 0.670709 0.829930
Si Si5 0.332990 0.723712 0.329420
Si Si6 0.670119 0.491040 0.337447
Si Si7 0.454122 0.193143 0.166045
O O1 0.779531 0.208588 0.500000
O O2 0.821505 0.209696 0.239665
O O3 0.715514 0.208907 0.276302
O O4 0.775003 0.054701 0.330753
O O5 0.913742 0.487979 0.500000
O O6 0.909794 0.569853 0.755695
O O7 0.924388 0.385481 0.736717
O O8 0.000000 0.500000 0.662772
O O9 0.926301 0.205802 0.803764
O O10 0.874399 0.044972 0.761508
O O11 0.858636 0.139081 0.000000
O O12 0.885586 0.749902 0.759520
O O13 0.983530 0.703405 0.795509
O O14 0.912294 0.662119 0.000000
O O15 0.343867 0.735842 0.500000
O O16 0.318091 0.615657 0.285958
O O17 0.647104 0.489201 0.500000
O O18 0.447191 0.161261 0.000000
#
# Coordination Sequence:
#
# PCOD8225540 Si02
#       7
#     8   8   8   8   8   8   8
#     4   8  17  34  53  72  96 128 165 206 256 303
#     4   9  17  30  49  73 100 132 170 208 245 289
#     4   9  17  32  53  75  99 129 169 209 245 294
#     4  10  20  33  50  74 105 138 170 206 255 305
#     4  10  19  35  55  74 101 133 168 209 252 303
#     4   8  17  34  53  72  99 133 164 206 261 298
#     4   9  18  33  51  72 104 141 170 207 255 299
#
# _framework density 17.217890000000001
#
# number of rings (size 3 to 8) (size 9 to 14) (size 15 to 20)
#    0.857    2.143    0.000    0.857    0.000    4.571 
#    2.571    0.714    0.000    4.286    0.000    0.000 
#    0.000    0.000    0.000    0.000    0.000    0.000 
#
# Total GULP energy -693914.460172 kJ/mol
# GULP energy per Si atom -12391.329646 kJ/mol
# Density = 1.717870 g / cm^3
# Si number density = 17.217890 Si / 1000 Ang^3
#
#
#
# Elastic Constant Matrix: (Units=GPa)
#
#
# Indices 1 2 3 4 5 6 
#
# 1 77.6519 52.6645 44.5082 0.0000 0.0000 0.0000
# 2 52.6645 118.8640 53.4267 0.0000 0.0000 0.0000
# 3 44.5082 53.4267 88.2428 0.0000 0.0000 0.0000
# 4 0.0000 0.0000 0.0000 28.7796 0.0000 0.0000
# 5 0.0000 0.0000 0.0000 0.0000 24.4767 0.0000
# 6 0.0000 0.0000 0.0000 0.0000 0.0000 27.6713
#
#
#
# Elastic Compliance Matrix: (Units=1/GPa)
#
#
# Indices 1 2 3 4 5 6 
#
# 1 0.021027 -0.006250 -0.006821 0.000000 0.000000 0.000000
# 2 -0.006250 0.013416 -0.004970 0.000000 0.000000 0.000000
# 3 -0.006821 -0.004970 0.017782 0.000000 0.000000 0.000000
# 4 0.000000 0.000000 0.000000 0.034747 0.000000 0.000000
# 5 0.000000 0.000000 0.000000 0.000000 0.040855 0.000000
# 6 0.000000 0.000000 0.000000 0.000000 0.000000 0.036139
#
#
# Mechanical properties :
#
#
# Convention : Reuss Voigt Hill
#
# Bulk Modulus (GPa) = 61.95240 65.10638 63.52939
# Shear Modulus (GPa) = 24.33913 25.12947 24.73430
#
# Velocity S-wave (km/s) = 3.76386 3.82448 3.79429
# Velocity P-wave (km/s) = 7.41272 7.57612 7.49486
#
# Compressibility (1/GPa) = 0.01614142
#
# Stress axis : x y z
#
# Youngs Moduli (GPa) = 47.55836 74.53606 56.23564
#
# Poissons Ratio (x) = 0.46586 0.38360
# Poissons Ratio (y) = 0.29725 0.27952
# Poissons Ratio (z) = 0.32441 0.37048
#
# Static dielectric constant tensor:
#      x y z
#    x 2.933030 0.000000 0.000000 
#    y 0.000000 3.165200 0.000000 
#    z 0.000000 0.000000 3.272880 
# 
# 
# High freq. dielectric constant tensor:
#      x y z
#    x 1.633600 0.000000 0.000000 
#    y 0.000000 1.655860 0.000000 
#    z 0.000000 0.000000 1.670550 
# 
# From -- ./inp_files/10874.got.cif
#   From: 2010.03.12/outbox.cif.g09.slc.cpg/sg55_6_cif.got.tgz:10874.got - 2010.04.16 15:19:21.
