data_PCOD8225454
_publ_section_title
;
Structure prediction by ZEFSAII (Michael W. Deem and Ramdas Pophale) SiO2 
 PCOD8225454
Probable space group: P B A M
;
_chemical_formula_sum "Si O2"
_cell_formula_units_Z 64
_cell_length_a 31.922599
_cell_length_b 10.891679
_cell_length_c 9.249796
_cell_angle_alpha 90.000000
_cell_angle_beta 90.000000
_cell_angle_gamma 90.000000
_cell_volume 3216.068057
_symmetry_space_group_name_H-M "P B A M"
_symmetry_group_IT_number 55
_symmetry_cell_setting 'orthorhombic'
loop_
_space_group_symop_operation_xyz
x,y,z
-x,-y,z
1/2+x,1/2-y,-z
1/2-x,1/2+y,-z
-x,-y,-z
x,y,-z
1/2-x,1/2+y,z
1/2+x,1/2-y,z
loop_
_atom_site_type_symbol
_atom_site_label
_atom_site_fract_x
_atom_site_fract_y
_atom_site_fract_z
Si Si1 0.570887 0.443662 0.662818
Si Si2 0.143498 0.255380 0.659496
Si Si3 0.482059 0.731156 0.165598
Si Si4 0.429910 0.161089 0.159028
Si Si5 0.781265 0.081773 0.171710
Si Si6 0.428213 0.924283 0.667498
Si Si7 0.775704 0.805315 0.828755
Si Si8 0.625073 0.621242 0.836527
O O1 0.556997 0.475762 0.500000
O O2 0.606864 0.342721 0.665120
O O3 0.530819 0.392404 0.749570
O O4 0.589501 0.562370 0.738231
O O5 0.164578 0.256922 0.500000
O O6 0.120156 0.383773 0.693270
O O7 0.177618 0.226509 0.779499
O O8 0.531934 0.743504 0.177634
O O9 0.460889 0.850198 0.235942
O O10 0.467054 0.720220 0.000000
O O11 0.385942 0.234436 0.165528
O O12 0.431180 0.065092 0.287992
O O13 0.433466 0.097363 0.000000
O O14 0.754526 0.197514 0.234580
O O15 0.828682 0.098485 0.228854
O O16 0.764172 0.945985 0.221916
O O17 0.780440 0.089915 0.000000
O O18 0.440807 0.907967 0.500000
O O19 0.775124 0.801303 0.000000
O O20 0.622973 0.568337 0.000000
#
# Coordination Sequence:
#
# PCOD8225454 Si02
#       8
#     8   8   8   8   8   8   8   8
#     4  10  20  35  56  81 108 142 188 233 276 331
#     4   9  19  35  54  79 107 138 180 224 267 325
#     4  10  20  35  55  80 110 145 187 234 284 334
#     4  10  22  36  53  80 112 147 188 233 281 337
#     4   9  19  34  56  85 113 141 183 233 282 334
#     4  10  21  36  55  80 112 147 185 232 281 334
#     4  10  19  34  57  84 110 142 182 228 278 334
#     4  10  20  37  57  78 109 148 186 229 281 334
#
# _framework density 19.900075000000001
#
# number of rings (size 3 to 8) (size 9 to 14) (size 15 to 20)
#    0.000    2.250    1.250    2.250    0.000    7.000 
#    0.000    6.250    0.000    0.000    0.000    0.000 
#    0.000    0.000    0.000    0.000    0.000    0.000 
#
# Total GULP energy -793326.324889 kJ/mol
# GULP energy per Si atom -12395.723826 kJ/mol
# Density = 1.985478 g / cm^3
# Si number density = 19.900075 Si / 1000 Ang^3
#
#
#
# Elastic Constant Matrix: (Units=GPa)
#
#
# Indices 1 2 3 4 5 6 
#
# 1 58.5826 41.1737 22.1107 0.0000 0.0000 0.0000
# 2 41.1737 88.6866 30.7068 0.0000 0.0000 0.0000
# 3 22.1107 30.7068 79.4819 0.0000 0.0000 0.0000
# 4 0.0000 0.0000 0.0000 21.4465 0.0000 0.0000
# 5 0.0000 0.0000 0.0000 0.0000 17.9165 0.0000
# 6 0.0000 0.0000 0.0000 0.0000 0.0000 25.0277
#
#
#
# Elastic Compliance Matrix: (Units=1/GPa)
#
#
# Indices 1 2 3 4 5 6 
#
# 1 0.025926 -0.011012 -0.002958 0.000000 0.000000 0.000000
# 2 -0.011012 0.017694 -0.003773 0.000000 0.000000 0.000000
# 3 -0.002958 -0.003773 0.014862 0.000000 0.000000 0.000000
# 4 0.000000 0.000000 0.000000 0.046628 0.000000 0.000000
# 5 0.000000 0.000000 0.000000 0.000000 0.055814 0.000000
# 6 0.000000 0.000000 0.000000 0.000000 0.000000 0.039956
#
#
# Mechanical properties :
#
#
# Convention : Reuss Voigt Hill
#
# Bulk Modulus (GPa) = 43.48403 46.08151 44.78277
# Shear Modulus (GPa) = 20.48919 21.72881 21.10900
#
# Velocity S-wave (km/s) = 3.21222 3.30797 3.26045
# Velocity P-wave (km/s) = 5.97130 6.14792 6.06026
#
# Compressibility (1/GPa) = 0.02299695
#
# Stress axis : x y z
#
# Youngs Moduli (GPa) = 38.57114 56.51477 67.28673
#
# Poissons Ratio (x) = 0.62236 0.19902
# Poissons Ratio (y) = 0.42476 0.25384
# Poissons Ratio (z) = 0.11408 0.21320
#
# Static dielectric constant tensor:
#      x y z
#    x 3.598390 0.000000 0.000000 
#    y 0.000000 3.742820 0.000000 
#    z 0.000000 0.000000 3.604120 
# 
# 
# High freq. dielectric constant tensor:
#      x y z
#    x 1.766320 0.000000 0.000000 
#    y 0.000000 1.776520 0.000000 
#    z 0.000000 0.000000 1.762310 
# 
# From -- ./inp_files/10745.got.cif
#   From: 2010.03.12/outbox.cif.g09.slc.cpg/sg55_6_cif.got.tgz:10745.got - 2010.04.16 15:19:21.
