data_PCOD8225278
_publ_section_title
;
Structure prediction by ZEFSAII (Michael W. Deem and Ramdas Pophale) SiO2 
 PCOD8225278
Probable space group: P B A M
;
_chemical_formula_sum "Si O2"
_cell_formula_units_Z 64
_cell_length_a 28.610851
_cell_length_b 12.494677
_cell_length_c 9.536964
_cell_angle_alpha 90.000000
_cell_angle_beta 90.000000
_cell_angle_gamma 90.000000
_cell_volume 3409.305763
_symmetry_space_group_name_H-M "P B A M"
_symmetry_group_IT_number 55
_symmetry_cell_setting 'orthorhombic'
loop_
_space_group_symop_operation_xyz
x,y,z
-x,-y,z
1/2+x,1/2-y,-z
1/2-x,1/2+y,-z
-x,-y,-z
x,y,-z
1/2-x,1/2+y,z
1/2+x,1/2-y,z
loop_
_atom_site_type_symbol
_atom_site_label
_atom_site_fract_x
_atom_site_fract_y
_atom_site_fract_z
Si Si1 0.886433 0.348382 0.662349
Si Si2 0.626855 0.605551 0.339206
Si Si3 0.156937 0.279555 0.663480
Si Si4 0.303972 0.005011 0.336150
Si Si5 0.020368 0.615454 0.163267
Si Si6 0.069198 0.251931 0.839549
Si Si7 0.796761 0.938974 0.333392
Si Si8 0.447535 0.506941 0.161217
O O1 0.897922 0.373185 0.500000
O O2 0.863690 0.231079 0.678964
O O3 0.848061 0.430075 0.726246
O O4 0.933870 0.359977 0.747950
O O5 0.616635 0.575053 0.500000
O O6 0.671239 0.538214 0.283269
O O7 0.581573 0.576729 0.250372
O O8 0.144921 0.267686 0.500000
O O9 0.191231 0.378717 0.692607
O O10 0.108701 0.304046 0.742869
O O11 0.181962 0.172811 0.722221
O O12 0.302925 0.030264 0.500000
O O13 0.255016 0.044329 0.268588
O O14 0.000000 0.500000 0.203032
O O15 0.981542 0.703739 0.203548
O O16 0.033809 0.621678 0.000000
O O17 0.071712 0.125532 0.816553
O O18 0.079660 0.283704 0.000000
O O19 0.793468 0.936992 0.500000
O O20 0.500000 0.500000 0.217243
O O21 0.445016 0.470625 0.000000
#
# Coordination Sequence:
#
# PCOD8225278 Si02
#       8
#     8   8   8   8   8   8   8   8
#     4  10  21  35  53  81 113 143 176 222 272 315
#     4  10  20  34  52  77 108 138 173 219 266 312
#     4  10  19  33  56  81 105 138 179 220 263 314
#     4   9  19  33  53  81 109 139 177 218 267 321
#     4  10  21  37  57  79 106 145 187 220 262 321
#     4  10  20  34  53  77 106 139 175 221 270 316
#     4   9  18  32  52  79 106 136 175 221 266 313
#     4  10  20  34  52  74 102 139 177 214 262 318
#
# _framework density 18.77215
#
# number of rings (size 3 to 8) (size 9 to 14) (size 15 to 20)
#    0.000    2.250    1.250    1.500    1.750    2.500 
#    0.000    0.000    0.000    3.000    0.000    0.000 
#    0.000    0.000    0.000    0.000    0.000    0.000 
#
# Total GULP energy -793695.716759 kJ/mol
# GULP energy per Si atom -12401.495574 kJ/mol
# Density = 1.872942 g / cm^3
# Si number density = 18.772150 Si / 1000 Ang^3
#
#
#
# Elastic Constant Matrix: (Units=GPa)
#
#
# Indices 1 2 3 4 5 6 
#
# 1 149.1311 51.4652 46.0742 0.0000 0.0000 0.0000
# 2 51.4652 99.8410 27.3978 0.0000 0.0000 0.0000
# 3 46.0742 27.3978 41.5536 0.0000 0.0000 0.0000
# 4 0.0000 0.0000 0.0000 18.6114 0.0000 0.0000
# 5 0.0000 0.0000 0.0000 0.0000 0.2717 0.0000
# 6 0.0000 0.0000 0.0000 0.0000 0.0000 32.3497
#
#
#
# Elastic Compliance Matrix: (Units=1/GPa)
#
#
# Indices 1 2 3 4 5 6 
#
# 1 0.010798 -0.002784 -0.010137 0.000000 0.000000 0.000000
# 2 -0.002784 0.012946 -0.005449 0.000000 0.000000 0.000000
# 3 -0.010137 -0.005449 0.038898 0.000000 0.000000 0.000000
# 4 0.000000 0.000000 0.000000 0.053731 0.000000 0.000000
# 5 0.000000 0.000000 0.000000 0.000000 3.680661 0.000000
# 6 0.000000 0.000000 0.000000 0.000000 0.000000 0.030912
#
#
# Mechanical properties :
#
#
# Convention : Reuss Voigt Hill
#
# Bulk Modulus (GPa) = 38.60712 60.04445 49.32579
# Shear Modulus (GPa) = 1.29088 21.28579 11.28834
#
# Velocity S-wave (km/s) = 0.83015 3.37100 2.45487
# Velocity P-wave (km/s) = 4.64001 6.87073 5.86245
#
# Compressibility (1/GPa) = 0.02590195
#
# Stress axis : x y z
#
# Youngs Moduli (GPa) = 92.60702 77.24147 25.70836
#
# Poissons Ratio (x) = 0.21507 0.26061
# Poissons Ratio (y) = 0.25786 0.14008
# Poissons Ratio (z) = 0.93878 0.42086
#
# Static dielectric constant tensor:
#      x y z
#    x 3.537110 0.000000 0.000000 
#    y 0.000000 3.592250 0.000000 
#    z 0.000000 0.000000 3.125580 
# 
# 
# High freq. dielectric constant tensor:
#      x y z
#    x 1.734970 0.000000 0.000000 
#    y 0.000000 1.744090 0.000000 
#    z 0.000000 0.000000 1.690250 
# 
# From -- ./inp_files/16056.got.cif
#   From: 2010.03.12/outbox.cif.g09.slc.cpg/sg55_9_cif.got.tgz:16056.got - 2010.04.16 15:19:21.
