data_PCOD8225761
_publ_section_title
;
Structure prediction by ZEFSAII (Michael W. Deem and Ramdas Pophale) SiO2 
 PCOD8225761
Probable space group: P B A M
;
_chemical_formula_sum "Si O2"
_cell_formula_units_Z 40
_cell_length_a 22.755637
_cell_length_b 10.260626
_cell_length_c 8.890230
_cell_angle_alpha 90.000000
_cell_angle_beta 90.000000
_cell_angle_gamma 90.000000
_cell_volume 2075.753849
_symmetry_space_group_name_H-M "P B A M"
_symmetry_group_IT_number 55
_symmetry_cell_setting 'orthorhombic'
loop_
_space_group_symop_operation_xyz
x,y,z
-x,-y,z
1/2+x,1/2-y,-z
1/2-x,1/2+y,-z
-x,-y,-z
x,y,-z
1/2-x,1/2+y,z
1/2+x,1/2-y,z
loop_
_atom_site_type_symbol
_atom_site_label
_atom_site_fract_x
_atom_site_fract_y
_atom_site_fract_z
Si Si1 0.692571 0.012620 0.823246
Si Si2 0.624821 0.242540 0.323028
Si Si3 0.380194 0.231797 0.177745
Si Si4 0.508014 0.152834 0.172770
Si Si5 0.671441 0.497114 0.176800
O O1 0.655240 0.891958 0.756218
O O2 0.760070 0.986117 0.785457
O O3 0.672705 0.145474 0.745865
O O4 0.681959 0.030900 0.000000
O O5 0.631333 0.240178 0.500000
O O6 0.559194 0.202503 0.279220
O O7 0.636222 0.386707 0.263263
O O8 0.448335 0.224408 0.224237
O O9 0.352587 0.365224 0.239353
O O10 0.372897 0.225692 0.000000
O O11 0.500000 0.000000 0.193850
O O12 0.523738 0.185643 0.000000
O O13 0.659458 0.482267 0.000000
#
# Coordination Sequence:
#
# PCOD8225761 Si02
#       5
#     8   8   8   8   8
#     4  10  19  38  65  89 113 148 198 247 290 341
#     4  12  25  38  56  86 125 160 192 231 291 361
#     4   9  18  34  60  90 111 142 194 251 299 333
#     4  10  19  37  63  84 112 150 200 255 293 339
#     4  10  21  38  62  89 117 149 194 245 291 343
#
# _framework density 19.270109000000001
#
# number of rings (size 3 to 8) (size 9 to 14) (size 15 to 20)
#    0.000    1.800    2.000    3.000    0.000    5.200 
#    0.000    6.000    0.000    0.000    0.000    0.000 
#    0.000    0.000    0.000    0.000    0.000    0.000 
#
# Total GULP energy -496149.393896 kJ/mol
# GULP energy per Si atom -12403.734847 kJ/mol
# Density = 1.922625 g / cm^3
# Si number density = 19.270109 Si / 1000 Ang^3
#
#
#
# Elastic Constant Matrix: (Units=GPa)
#
#
# Indices 1 2 3 4 5 6 
#
# 1 90.2380 31.8865 35.3374 0.0000 0.0000 0.0000
# 2 31.8865 99.1689 28.6116 0.0000 0.0000 0.0000
# 3 35.3374 28.6116 51.5568 0.0000 0.0000 0.0000
# 4 0.0000 0.0000 0.0000 0.0043 0.0000 0.0000
# 5 0.0000 0.0000 0.0000 0.0000 7.3635 0.0000
# 6 0.0000 0.0000 0.0000 0.0000 0.0000 23.0230
#
#
#
# Elastic Compliance Matrix: (Units=1/GPa)
#
#
# Indices 1 2 3 4 5 6 
#
# 1 0.015574 -0.002295 -0.009401 0.000000 0.000000 0.000000
# 2 -0.002295 0.012344 -0.005277 0.000000 0.000000 0.000000
# 3 -0.009401 -0.005277 0.028768 0.000000 0.000000 0.000000
# 4 0.000000 0.000000 0.000000232.892608 0.000000 0.000000
# 5 0.000000 0.000000 0.000000 0.000000 0.135806 0.000000
# 6 0.000000 0.000000 0.000000 0.000000 0.000000 0.043435
#
#
# Mechanical properties :
#
#
# Convention : Reuss Voigt Hill
#
# Bulk Modulus (GPa) = 43.97592 48.07051 46.02322
# Shear Modulus (GPa) = 0.02144 15.75337 7.88740
#
# Velocity S-wave (km/s) = 0.10560 2.86230 2.02533
# Velocity P-wave (km/s) = 4.78385 5.99362 5.42258
#
# Compressibility (1/GPa) = 0.02273972
#
# Stress axis : x y z
#
# Youngs Moduli (GPa) = 64.20827 81.00814 34.76070
#
# Poissons Ratio (x) = 0.18595 0.32678
# Poissons Ratio (y) = 0.14739 0.18344
# Poissons Ratio (z) = 0.60361 0.42750
#
# Static dielectric constant tensor:
#      x y z
#    x 3.760880 0.000000 0.000000 
#    y 0.000000 3.745280 0.000000 
#    z 0.000000 0.000000 3.169810 
# 
# 
# High freq. dielectric constant tensor:
#      x y z
#    x 1.765440 0.000000 0.000000 
#    y 0.000000 1.761810 0.000000 
#    z 0.000000 0.000000 1.710820 
# 
# From -- ./inp_files/2305.got.cif
#   From: 2010.03.12/outbox.cif.g09.slc.cpg/sg55_2_cif.got.tgz:2305.got - 2010.04.16 15:19:21.
