data_PCOD8225282
_publ_section_title
;
Structure prediction by ZEFSAII (Michael W. Deem and Ramdas Pophale) SiO2 
 PCOD8225282
Probable space group: P B A M
;
_chemical_formula_sum "Si O2"
_cell_formula_units_Z 56
_cell_length_a 25.299241
_cell_length_b 12.665906
_cell_length_c 9.135647
_cell_angle_alpha 90.000000
_cell_angle_beta 90.000000
_cell_angle_gamma 90.000000
_cell_volume 2927.406703
_symmetry_space_group_name_H-M "P B A M"
_symmetry_group_IT_number 55
_symmetry_cell_setting 'orthorhombic'
loop_
_space_group_symop_operation_xyz
x,y,z
-x,-y,z
1/2+x,1/2-y,-z
1/2-x,1/2+y,-z
-x,-y,-z
x,y,-z
1/2-x,1/2+y,z
1/2+x,1/2-y,z
loop_
_atom_site_type_symbol
_atom_site_label
_atom_site_fract_x
_atom_site_fract_y
_atom_site_fract_z
Si Si1 0.453896 0.083517 0.335806
Si Si2 0.399007 0.649712 0.831357
Si Si3 0.491701 0.313360 0.327124
Si Si4 0.695561 0.745849 0.825869
Si Si5 0.189677 0.312064 0.174296
Si Si6 0.395746 0.409509 0.168576
Si Si7 0.850356 0.464516 0.826759
O O1 0.430836 0.093223 0.500000
O O2 0.475338 0.195649 0.281197
O O3 0.409904 0.042362 0.226698
O O4 0.500000 0.000000 0.330121
O O5 0.450908 0.663837 0.735881
O O6 0.353549 0.727532 0.770443
O O7 0.377376 0.530551 0.815837
O O8 0.412617 0.675735 0.000000
O O9 0.493594 0.329728 0.500000
O O10 0.449307 0.393960 0.259788
O O11 0.752794 0.716351 0.760781
O O12 0.651102 0.664312 0.767883
O O13 0.682341 0.863514 0.769659
O O14 0.696909 0.740437 0.000000
O O15 0.175504 0.428260 0.234496
O O16 0.191536 0.310168 0.000000
O O17 0.407734 0.380715 0.000000
O O18 0.851436 0.466695 0.000000
#
# Coordination Sequence:
#
# PCOD8225282 Si02
#       7
#     8   8   8   8   8   8   8
#     4  10  21  36  54  76 107 145 179 217 270 323
#     4  10  21  35  54  80 111 143 177 220 267 316
#     4  11  22  36  55  79 108 142 180 223 269 321
#     4   9  18  32  53  81 109 137 174 220 267 313
#     4   9  19  33  53  84 113 139 177 222 267 314
#     4  10  20  35  55  79 108 143 179 219 267 319
#     4  10  19  33  56  82 107 139 178 221 263 310
#
# _framework density 19.129559
#
# number of rings (size 3 to 8) (size 9 to 14) (size 15 to 20)
#    0.000    2.143    1.429    1.714    2.000    3.143 
#    0.000    0.000    0.000    3.429    0.000    0.000 
#    0.000    0.000    0.000    0.000    0.000    0.000 
#
# Total GULP energy -694503.275598 kJ/mol
# GULP energy per Si atom -12401.844207 kJ/mol
# Density = 1.908602 g / cm^3
# Si number density = 19.129559 Si / 1000 Ang^3
#
#
#
# Elastic Constant Matrix: (Units=GPa)
#
#
# Indices 1 2 3 4 5 6 
#
# 1 154.8266 72.1973 34.3679 0.0000 0.0000 0.0000
# 2 72.1973 144.1290 28.4770 0.0000 0.0000 0.0000
# 3 34.3679 28.4770 35.4698 0.0000 0.0000 0.0000
# 4 0.0000 0.0000 0.0000 18.3165 0.0000 0.0000
# 5 0.0000 0.0000 0.0000 0.0000 28.4572 0.0000
# 6 0.0000 0.0000 0.0000 0.0000 0.0000 28.7939
#
#
#
# Elastic Compliance Matrix: (Units=1/GPa)
#
#
# Indices 1 2 3 4 5 6 
#
# 1 0.009513 -0.003499 -0.006408 0.000000 0.000000 0.000000
# 2 -0.003499 0.009533 -0.004263 0.000000 0.000000 0.000000
# 3 -0.006408 -0.004263 0.037825 0.000000 0.000000 0.000000
# 4 0.000000 0.000000 0.000000 0.054596 0.000000 0.000000
# 5 0.000000 0.000000 0.000000 0.000000 0.035140 0.000000
# 6 0.000000 0.000000 0.000000 0.000000 0.000000 0.034730
#
#
# Mechanical properties :
#
#
# Convention : Reuss Voigt Hill
#
# Bulk Modulus (GPa) = 35.05100 67.16774 51.10937
# Shear Modulus (GPa) = 22.81141 28.40574 25.60858
#
# Velocity S-wave (km/s) = 3.45696 3.85764 3.66278
# Velocity P-wave (km/s) = 5.85635 7.41823 6.68307
#
# Compressibility (1/GPa) = 0.02852986
#
# Stress axis : x y z
#
# Youngs Moduli (GPa) = 105.11945 104.89443 26.43751
#
# Poissons Ratio (x) = 0.36704 0.16942
# Poissons Ratio (y) = 0.36783 0.11272
# Poissons Ratio (z) = 0.67362 0.44722
#
# Static dielectric constant tensor:
#      x y z
#    x 3.616800 0.000000 0.000000 
#    y 0.000000 3.799740 0.000000 
#    z 0.000000 0.000000 3.181970 
# 
# 
# High freq. dielectric constant tensor:
#      x y z
#    x 1.748050 0.000000 0.000000 
#    y 0.000000 1.764820 0.000000 
#    z 0.000000 0.000000 1.702510 
# 
# From -- ./inp_files/15313.got.cif
#   From: 2010.03.12/outbox.cif.g09.slc.cpg/sg55_8_cif.got.tgz:15313.got - 2010.04.16 15:19:21.
