data_PCOD8225142
_publ_section_title
;
Structure prediction by ZEFSAII (Michael W. Deem and Ramdas Pophale) SiO2 
 PCOD8225142
Probable space group: P B A M
;
_chemical_formula_sum "Si O2"
_cell_formula_units_Z 48
_cell_length_a 18.400277
_cell_length_b 13.835797
_cell_length_c 8.972214
_cell_angle_alpha 90.000000
_cell_angle_beta 90.000000
_cell_angle_gamma 90.000000
_cell_volume 2284.168647
_symmetry_space_group_name_H-M "P B A M"
_symmetry_group_IT_number 55
_symmetry_cell_setting 'orthorhombic'
loop_
_space_group_symop_operation_xyz
x,y,z
-x,-y,z
1/2+x,1/2-y,-z
1/2-x,1/2+y,-z
-x,-y,-z
x,y,-z
1/2-x,1/2+y,z
1/2+x,1/2-y,z
loop_
_atom_site_type_symbol
_atom_site_label
_atom_site_fract_x
_atom_site_fract_y
_atom_site_fract_z
Si Si1 0.037625 0.371896 0.327852
Si Si2 0.855715 0.133743 0.823908
Si Si3 0.846299 0.938068 0.672702
Si Si4 0.770050 0.322393 0.172092
Si Si5 0.099542 0.539425 0.827159
Si Si6 0.506362 0.342785 0.669201
O O1 0.043382 0.401707 0.500000
O O2 0.099697 0.429250 0.234715
O O3 0.048111 0.258169 0.305427
O O4 0.958685 0.400167 0.266424
O O5 0.808257 0.224873 0.767208
O O6 0.939634 0.147114 0.780488
O O7 0.822569 0.036939 0.752940
O O8 0.851545 0.125059 0.000000
O O9 0.827569 0.946393 0.500000
O O10 0.802975 0.846138 0.737914
O O11 0.932813 0.924373 0.698796
O O12 0.822394 0.413813 0.197504
O O13 0.749767 0.309428 0.000000
O O14 0.077181 0.541253 0.000000
O O15 0.476367 0.350281 0.500000
#
# Coordination Sequence:
#
# PCOD8225142 Si02
#       6
#     8   8   8   8   8   8
#     4  10  19  32  55  87 119 153 197 245 297 356
#     4  11  23  42  67  92 121 160 206 253 306 366
#     4  11  25  42  62  91 125 161 204 253 307 366
#     4  10  23  42  62  88 122 161 206 254 307 368
#     4  10  19  34  55  83 119 155 197 246 300 357
#     4  10  22  40  61  89 125 161 204 254 303 363
#
# _framework density 21.014209000000001
#
# number of rings (size 3 to 8) (size 9 to 14) (size 15 to 20)
#    0.000    1.667    1.667    3.500    0.000    8.000 
#    0.000    3.333    0.000    0.000    0.000    0.000 
#    0.000    0.000    0.000    0.000    0.000    0.000 
#
# Total GULP energy -595283.402094 kJ/mol
# GULP energy per Si atom -12401.737544 kJ/mol
# Density = 2.096638 g / cm^3
# Si number density = 21.014209 Si / 1000 Ang^3
#
#
#
# Elastic Constant Matrix: (Units=GPa)
#
#
# Indices 1 2 3 4 5 6 
#
# 1 77.2455 31.9937 39.2739 0.0000 0.0000 0.0000
# 2 31.9937 101.7190 46.0604 0.0000 0.0000 0.0000
# 3 39.2739 46.0604 96.0789 0.0000 0.0000 0.0000
# 4 0.0000 0.0000 0.0000 35.0213 0.0000 0.0000
# 5 0.0000 0.0000 0.0000 0.0000 27.1307 0.0000
# 6 0.0000 0.0000 0.0000 0.0000 0.0000 28.1851
#
#
#
# Elastic Compliance Matrix: (Units=1/GPa)
#
#
# Indices 1 2 3 4 5 6 
#
# 1 0.016945 -0.002801 -0.005584 0.000000 0.000000 0.000000
# 2 -0.002801 0.013020 -0.005097 0.000000 0.000000 0.000000
# 3 -0.005584 -0.005097 0.015134 0.000000 0.000000 0.000000
# 4 0.000000 0.000000 0.000000 0.028554 0.000000 0.000000
# 5 0.000000 0.000000 0.000000 0.000000 0.036859 0.000000
# 6 0.000000 0.000000 0.000000 0.000000 0.000000 0.035480
#
#
# Mechanical properties :
#
#
# Convention : Reuss Voigt Hill
#
# Bulk Modulus (GPa) = 55.14036 56.63326 55.88681
# Shear Modulus (GPa) = 27.93304 28.58177 28.25740
#
# Velocity S-wave (km/s) = 3.64984 3.69198 3.67097
# Velocity P-wave (km/s) = 6.63764 6.72181 6.67986
#
# Compressibility (1/GPa) = 0.01813553
#
# Stress axis : x y z
#
# Youngs Moduli (GPa) = 59.01504 76.80484 66.07693
#
# Poissons Ratio (x) = 0.21515 0.36894
# Poissons Ratio (y) = 0.16532 0.33678
# Poissons Ratio (z) = 0.32951 0.39145
#
# Static dielectric constant tensor:
#      x y z
#    x 3.518980 0.000000 0.000000 
#    y 0.000000 4.098050 0.000000 
#    z 0.000000 0.000000 3.763340 
# 
# 
# High freq. dielectric constant tensor:
#      x y z
#    x 1.807150 0.000000 0.000000 
#    y 0.000000 1.838230 0.000000 
#    z 0.000000 0.000000 1.825090 
# 
# From -- ./inp_files/7429.got.cif
#   From: 2010.03.12/outbox.cif.g09.slc.cpg/sg55_4_cif.got.tgz:7429.got - 2010.04.16 15:19:21.
