data_PCOD8225697
_publ_section_title
;
Structure prediction by ZEFSAII (Michael W. Deem and Ramdas Pophale) SiO2 
 PCOD8225697
Probable space group: P B A M
;
_chemical_formula_sum "Si O2"
_cell_formula_units_Z 64
_cell_length_a 30.797477
_cell_length_b 12.024521
_cell_length_c 9.013029
_cell_angle_alpha 90.000000
_cell_angle_beta 90.000000
_cell_angle_gamma 90.000000
_cell_volume 3337.749144
_symmetry_space_group_name_H-M "P B A M"
_symmetry_group_IT_number 55
_symmetry_cell_setting 'orthorhombic'
loop_
_space_group_symop_operation_xyz
x,y,z
-x,-y,z
1/2+x,1/2-y,-z
1/2-x,1/2+y,-z
-x,-y,-z
x,y,-z
1/2-x,1/2+y,z
1/2+x,1/2-y,z
loop_
_atom_site_type_symbol
_atom_site_label
_atom_site_fract_x
_atom_site_fract_y
_atom_site_fract_z
Si Si1 0.921842 0.247675 0.174208
Si Si2 0.875589 0.847974 0.823055
Si Si3 0.335526 0.256115 0.330556
Si Si4 0.047388 0.548288 0.668724
Si Si5 0.873712 0.607613 0.323162
Si Si6 0.048635 0.989305 0.823725
Si Si7 0.695815 0.500399 0.324254
Si Si8 0.708334 0.967649 0.670809
O O1 0.874028 0.281461 0.224280
O O2 0.954505 0.339362 0.236450
O O3 0.932783 0.126313 0.239752
O O4 0.925794 0.247098 0.000000
O O5 0.876437 0.725456 0.756812
O O6 0.919811 0.910870 0.771532
O O7 0.834102 0.912871 0.760332
O O8 0.872130 0.843187 0.000000
O O9 0.352075 0.255649 0.500000
O O10 0.318426 0.375711 0.283183
O O11 0.298595 0.163990 0.307165
O O12 0.058332 0.579696 0.500000
O O13 0.083869 0.462172 0.726049
O O14 0.000000 0.500000 0.687001
O O15 0.872774 0.625065 0.500000
O O16 0.830871 0.542461 0.263004
O O17 0.047033 0.986779 0.000000
O O18 0.000000 0.000000 0.758411
O O19 0.693604 0.475923 0.500000
O O20 0.744660 0.492228 0.258933
O O21 0.710611 0.000571 0.500000
#
# Coordination Sequence:
#
# PCOD8225697 Si02
#       8
#     8   8   8   8   8   8   8   8
#     4  11  21  36  61  86 113 149 192 236 282 341
#     4  11  23  39  58  82 118 153 185 234 291 341
#     4  10  19  36  60  84 113 147 188 238 288 332
#     4  10  22  40  61  86 118 152 187 237 293 336
#     4  10  21  39  60  82 114 152 191 234 280 337
#     4   9  20  38  57  79 111 152 190 229 279 333
#     4  10  21  36  61  88 111 147 195 238 280 340
#     4   9  19  36  60  86 111 147 192 237 280 332
#
# _framework density 19.174598
#
# number of rings (size 3 to 8) (size 9 to 14) (size 15 to 20)
#    0.000    2.000    2.500    0.750    3.500    0.750 
#    0.000    1.250    0.000    3.000    0.000    0.000 
#    0.000    0.000    0.000    0.000    0.000    0.000 
#
# Total GULP energy -793537.045574 kJ/mol
# GULP energy per Si atom -12399.016337 kJ/mol
# Density = 1.913096 g / cm^3
# Si number density = 19.174598 Si / 1000 Ang^3
#
#
#
# Elastic Constant Matrix: (Units=GPa)
#
#
# Indices 1 2 3 4 5 6 
#
# 1 134.8271 48.8934 25.0906 0.0000 0.0000 0.0000
# 2 48.8934 136.6131 35.9752 0.0000 0.0000 0.0000
# 3 25.0906 35.9752 41.0140 0.0000 0.0000 0.0000
# 4 0.0000 0.0000 0.0000 29.5150 0.0000 0.0000
# 5 0.0000 0.0000 0.0000 0.0000 7.2358 0.0000
# 6 0.0000 0.0000 0.0000 0.0000 0.0000 24.5001
#
#
#
# Elastic Compliance Matrix: (Units=1/GPa)
#
#
# Indices 1 2 3 4 5 6 
#
# 1 0.008881 -0.002273 -0.003440 0.000000 0.000000 0.000000
# 2 -0.002273 0.010100 -0.007469 0.000000 0.000000 0.000000
# 3 -0.003440 -0.007469 0.033037 0.000000 0.000000 0.000000
# 4 0.000000 0.000000 0.000000 0.033881 0.000000 0.000000
# 5 0.000000 0.000000 0.000000 0.000000 0.138203 0.000000
# 6 0.000000 0.000000 0.000000 0.000000 0.000000 0.040816
#
#
# Mechanical properties :
#
#
# Convention : Reuss Voigt Hill
#
# Bulk Modulus (GPa) = 38.97686 59.15250 49.06468
# Shear Modulus (GPa) = 16.67593 25.74985 21.21289
#
# Velocity S-wave (km/s) = 2.95225 3.66856 3.32972
# Velocity P-wave (km/s) = 5.65619 6.99005 6.35819
#
# Compressibility (1/GPa) = 0.02565625
#
# Stress axis : x y z
#
# Youngs Moduli (GPa) = 112.59760 99.00779 30.26867
#
# Poissons Ratio (x) = 0.22502 0.10411
# Poissons Ratio (y) = 0.25591 0.22608
# Poissons Ratio (z) = 0.38729 0.73949
#
# Static dielectric constant tensor:
#      x y z
#    x 3.779920 0.000000 0.000000 
#    y 0.000000 3.660730 0.000000 
#    z 0.000000 0.000000 3.221500 
# 
# 
# High freq. dielectric constant tensor:
#      x y z
#    x 1.756780 0.000000 0.000000 
#    y 0.000000 1.760990 0.000000 
#    z 0.000000 0.000000 1.712340 
# 
# From -- ./inp_files/10795.got.cif
#   From: 2010.03.12/outbox.cif.g09.slc.cpg/sg55_6_cif.got.tgz:10795.got - 2010.04.16 15:19:21.
