data_PCOD8225171
_publ_section_title
;
Structure prediction by ZEFSAII (Michael W. Deem and Ramdas Pophale) SiO2 
 PCOD8225171
Probable space group: P B A M
;
_chemical_formula_sum "Si O2"
_cell_formula_units_Z 64
_cell_length_a 15.021424
_cell_length_b 24.790089
_cell_length_c 9.042705
_cell_angle_alpha 90.000000
_cell_angle_beta 90.000000
_cell_angle_gamma 90.000000
_cell_volume 3367.344533
_symmetry_space_group_name_H-M "P B A M"
_symmetry_group_IT_number 55
_symmetry_cell_setting 'orthorhombic'
loop_
_space_group_symop_operation_xyz
x,y,z
-x,-y,z
1/2+x,1/2-y,-z
1/2-x,1/2+y,-z
-x,-y,-z
x,y,-z
1/2-x,1/2+y,z
1/2+x,1/2-y,z
loop_
_atom_site_type_symbol
_atom_site_label
_atom_site_fract_x
_atom_site_fract_y
_atom_site_fract_z
Si Si1 0.330968 0.627972 0.669067
Si Si2 0.541251 0.778301 0.828369
Si Si3 0.495769 0.102354 0.829156
Si Si4 0.710118 0.649649 0.327592
Si Si5 0.693935 0.945889 0.173397
Si Si6 0.279420 0.230758 0.668417
Si Si7 0.337294 0.942944 0.323942
Si Si8 0.014405 0.829063 0.673659
O O1 0.315013 0.609051 0.500000
O O2 0.279234 0.588938 0.778846
O O3 0.301691 0.690055 0.690137
O O4 0.435988 0.628298 0.710038
O O5 0.489161 0.834192 0.797874
O O6 0.641687 0.787431 0.774696
O O7 0.493487 0.728985 0.745992
O O8 0.543728 0.764621 0.000000
O O9 0.395667 0.085942 0.784142
O O10 0.562706 0.067591 0.730830
O O11 0.513239 0.088106 0.000000
O O12 0.707171 0.637844 0.500000
O O13 0.751980 0.708422 0.291688
O O14 0.772390 0.603571 0.257192
O O15 0.608375 0.647402 0.265787
O O16 0.698941 0.001316 0.261599
O O17 0.699972 0.957429 0.000000
O O18 0.315541 0.230027 0.500000
O O19 0.337963 0.944784 0.500000
O O20 0.019982 0.818157 0.500000
#
# Coordination Sequence:
#
# PCOD8225171 Si02
#       8
#     8   8   8   8   8   8   8   8
#     4  10  20  34  59  88 111 142 190 234 275 330
#     4  10  19  33  52  80 115 150 185 218 267 337
#     4  10  22  38  54  78 113 152 184 221 282 341
#     4   8  17  35  55  80 114 145 178 228 285 328
#     4  11  23  41  59  77 114 153 185 231 287 339
#     4   9  17  32  54  80 111 143 177 224 276 324
#     4  11  23  37  59  84 108 144 195 241 278 331
#     4   9  19  36  58  83 115 150 183 229 283 329
#
# _framework density 19.006074000000002
#
# number of rings (size 3 to 8) (size 9 to 14) (size 15 to 20)
#    0.000    2.250    1.250    2.250    1.750    4.000 
#    0.000    5.625    0.000    3.750    0.000    0.000 
#    0.000    0.000    0.000    0.000    0.000    0.000 
#
# Total GULP energy -793520.342401 kJ/mol
# GULP energy per Si atom -12398.755350 kJ/mol
# Density = 1.896282 g / cm^3
# Si number density = 19.006074 Si / 1000 Ang^3
#
#
#
# Elastic Constant Matrix: (Units=GPa)
#
#
# Indices 1 2 3 4 5 6 
#
# 1 65.5719 36.0801 23.4551 0.0000 0.0000 0.0000
# 2 36.0801 102.9658 38.1373 0.0000 0.0000 0.0000
# 3 23.4551 38.1373 55.6716 0.0000 0.0000 0.0000
# 4 0.0000 0.0000 0.0000 29.2368 0.0000 0.0000
# 5 0.0000 0.0000 0.0000 0.0000 17.5861 0.0000
# 6 0.0000 0.0000 0.0000 0.0000 0.0000 28.4742
#
#
#
# Elastic Compliance Matrix: (Units=1/GPa)
#
#
# Indices 1 2 3 4 5 6 
#
# 1 0.019811 -0.005160 -0.004812 0.000000 0.000000 0.000000
# 2 -0.005160 0.014358 -0.007662 0.000000 0.000000 0.000000
# 3 -0.004812 -0.007662 0.025239 0.000000 0.000000 0.000000
# 4 0.000000 0.000000 0.000000 0.034203 0.000000 0.000000
# 5 0.000000 0.000000 0.000000 0.000000 0.056863 0.000000
# 6 0.000000 0.000000 0.000000 0.000000 0.000000 0.035119
#
#
# Mechanical properties :
#
#
# Convention : Reuss Voigt Hill
#
# Bulk Modulus (GPa) = 41.42474 46.61716 44.02095
# Shear Modulus (GPa) = 21.84296 23.49520 22.66908
#
# Velocity S-wave (km/s) = 3.39375 3.51977 3.45734
# Velocity P-wave (km/s) = 6.09915 6.41086 6.25695
#
# Compressibility (1/GPa) = 0.02414016
#
# Stress axis : x y z
#
# Youngs Moduli (GPa) = 50.47787 69.64862 39.62191
#
# Poissons Ratio (x) = 0.35935 0.19066
# Poissons Ratio (y) = 0.26044 0.30358
# Poissons Ratio (z) = 0.24290 0.53364
#
# Static dielectric constant tensor:
#      x y z
#    x 3.512600 0.000000 0.000000 
#    y 0.000000 3.536590 0.000000 
#    z 0.000000 0.000000 3.307860 
# 
# 
# High freq. dielectric constant tensor:
#      x y z
#    x 1.733900 0.000000 0.000000 
#    y 0.000000 1.736050 0.000000 
#    z 0.000000 0.000000 1.724510 
# 
# From -- ./inp_files/6685.got.cif
#   From: 2010.03.12/outbox.cif.g09.slc.cpg/sg55_4_cif.got.tgz:6685.got - 2010.04.16 15:19:21.
