data_PCOD8225107
_publ_section_title
;
Structure prediction by ZEFSAII (Michael W. Deem and Ramdas Pophale) SiO2 
 PCOD8225107
Probable space group: P B A M
;
_chemical_formula_sum "Si O2"
_cell_formula_units_Z 64
_cell_length_a 15.272404
_cell_length_b 24.254059
_cell_length_c 9.139333
_cell_angle_alpha 90.000000
_cell_angle_beta 90.000000
_cell_angle_gamma 90.000000
_cell_volume 3385.371511
_symmetry_space_group_name_H-M "P B A M"
_symmetry_group_IT_number 55
_symmetry_cell_setting 'orthorhombic'
loop_
_space_group_symop_operation_xyz
x,y,z
-x,-y,z
1/2+x,1/2-y,-z
1/2-x,1/2+y,-z
-x,-y,-z
x,y,-z
1/2-x,1/2+y,z
1/2+x,1/2-y,z
loop_
_atom_site_type_symbol
_atom_site_label
_atom_site_fract_x
_atom_site_fract_y
_atom_site_fract_z
Si Si1 0.125459 0.462049 0.672280
Si Si2 0.121507 0.696069 0.326814
Si Si3 0.032002 0.902738 0.167593
Si Si4 0.440089 0.078771 0.328116
Si Si5 0.010685 0.222174 0.170292
Si Si6 0.680069 0.307089 0.669143
Si Si7 0.133994 0.068135 0.670010
Si Si8 0.294024 0.465631 0.171004
O O1 0.145424 0.461743 0.500000
O O2 0.107247 0.524050 0.732475
O O3 0.207497 0.437782 0.761074
O O4 0.043205 0.423029 0.709931
O O5 0.105134 0.698926 0.500000
O O6 0.102492 0.634546 0.265297
O O7 0.221799 0.712367 0.288974
O O8 0.054879 0.736552 0.248509
O O9 0.127920 0.923841 0.207714
O O10 0.028690 0.838028 0.199679
O O11 0.964475 0.935547 0.269103
O O12 0.007207 0.915865 0.000000
O O13 0.426953 0.077016 0.500000
O O14 0.108911 0.226365 0.235901
O O15 0.016102 0.236682 0.000000
O O16 0.659413 0.295063 0.500000
O O17 0.674548 0.372086 0.701498
O O18 0.133252 0.053535 0.500000
O O19 0.193817 0.024516 0.752786
O O20 0.282860 0.475097 0.000000
#
# Coordination Sequence:
#
# PCOD8225107 Si02
#       8
#     8   8   8   8   8   8   8   8
#     4   9  17  33  55  78 105 138 174 212 258 315
#     4  10  19  35  59  83 107 137 177 223 272 322
#     4   9  20  37  51  67 103 146 176 211 266 317
#     4   8  16  33  57  80 105 135 168 216 270 312
#     4  10  21  38  56  76 106 144 182 225 268 315
#     4   9  19  36  58  82 107 138 176 224 275 320
#     4  10  19  32  54  81 105 132 175 224 262 310
#     4  11  21  32  48  74 108 145 175 208 261 320
#
# _framework density 18.904866999999999
#
# number of rings (size 3 to 8) (size 9 to 14) (size 15 to 20)
#    0.000    2.500    0.000    3.000    0.000    6.000 
#    2.250    3.750    0.000    0.000    0.000    0.000 
#    0.000    0.000    0.000    0.000    0.000    0.000 
#
# Total GULP energy -793599.954153 kJ/mol
# GULP energy per Si atom -12399.999284 kJ/mol
# Density = 1.886184 g / cm^3
# Si number density = 18.904867 Si / 1000 Ang^3
#
#
#
# Elastic Constant Matrix: (Units=GPa)
#
#
# Indices 1 2 3 4 5 6 
#
# 1 144.9836 40.6327 58.7999 0.0000 0.0000 0.0000
# 2 40.6327 48.0804 26.7703 0.0000 0.0000 0.0000
# 3 58.7999 26.7703 71.8708 0.0000 0.0000 0.0000
# 4 0.0000 0.0000 0.0000 18.9925 0.0000 0.0000
# 5 0.0000 0.0000 0.0000 0.0000 8.1509 0.0000
# 6 0.0000 0.0000 0.0000 0.0000 0.0000 26.6243
#
#
#
# Elastic Compliance Matrix: (Units=1/GPa)
#
#
# Indices 1 2 3 4 5 6 
#
# 1 0.011406 -0.005606 -0.007244 0.000000 0.000000 0.000000
# 2 -0.005606 0.028996 -0.006214 0.000000 0.000000 0.000000
# 3 -0.007244 -0.006214 0.022155 0.000000 0.000000 0.000000
# 4 0.000000 0.000000 0.000000 0.052652 0.000000 0.000000
# 5 0.000000 0.000000 0.000000 0.000000 0.122686 0.000000
# 6 0.000000 0.000000 0.000000 0.000000 0.000000 0.037560
#
#
# Mechanical properties :
#
#
# Convention : Reuss Voigt Hill
#
# Bulk Modulus (GPa) = 40.93388 57.48229 49.20808
# Shear Modulus (GPa) = 15.54121 20.00234 17.77177
#
# Velocity S-wave (km/s) = 2.87029 3.25630 3.06937
# Velocity P-wave (km/s) = 5.71702 6.67908 6.21669
#
# Compressibility (1/GPa) = 0.02442964
#
# Stress axis : x y z
#
# Youngs Moduli (GPa) = 87.67100 34.48745 45.13740
#
# Poissons Ratio (x) = 0.19335 0.32696
# Poissons Ratio (y) = 0.49151 0.28047
# Poissons Ratio (z) = 0.63506 0.21429
#
# Static dielectric constant tensor:
#      x y z
#    x 3.605610 0.000000 0.000000 
#    y 0.000000 3.481040 0.000000 
#    z 0.000000 0.000000 3.351840 
# 
# 
# High freq. dielectric constant tensor:
#      x y z
#    x 1.748290 0.000000 0.000000 
#    y 0.000000 1.717060 0.000000 
#    z 0.000000 0.000000 1.719760 
# 
# From -- ./inp_files/6678.got.cif
#   From: 2010.03.12/outbox.cif.g09.slc.cpg/sg55_4_cif.got.tgz:6678.got - 2010.04.16 15:19:21.
