data_PCOD8225574
_publ_section_title
;
Structure prediction by ZEFSAII (Michael W. Deem and Ramdas Pophale) SiO2 
 PCOD8225574
Probable space group: P B A M
;
_chemical_formula_sum "Si O2"
_cell_formula_units_Z 56
_cell_length_a 19.738351
_cell_length_b 16.546387
_cell_length_c 9.068346
_cell_angle_alpha 90.000000
_cell_angle_beta 90.000000
_cell_angle_gamma 90.000000
_cell_volume 2961.707243
_symmetry_space_group_name_H-M "P B A M"
_symmetry_group_IT_number 55
_symmetry_cell_setting 'orthorhombic'
loop_
_space_group_symop_operation_xyz
x,y,z
-x,-y,z
1/2+x,1/2-y,-z
1/2-x,1/2+y,-z
-x,-y,-z
x,y,-z
1/2-x,1/2+y,z
1/2+x,1/2-y,z
loop_
_atom_site_type_symbol
_atom_site_label
_atom_site_fract_x
_atom_site_fract_y
_atom_site_fract_z
Si Si1 0.253721 0.261615 0.671230
Si Si2 0.196897 0.410118 0.169264
Si Si3 0.043670 0.424004 0.170239
Si Si4 0.483053 0.757232 0.675471
Si Si5 0.666539 0.513862 0.168026
Si Si6 0.636897 0.355872 0.669872
Si Si7 0.115259 0.808284 0.827630
O O1 0.271863 0.274381 0.500000
O O2 0.205412 0.334372 0.723046
O O3 0.211884 0.179470 0.696922
O O4 0.321711 0.256046 0.767175
O O5 0.122565 0.447160 0.192657
O O6 0.253587 0.477417 0.207720
O O7 0.208311 0.380923 0.000000
O O8 0.000000 0.500000 0.225035
O O9 0.022949 0.347990 0.267102
O O10 0.028048 0.403801 0.000000
O O11 0.486601 0.759838 0.500000
O O12 0.419497 0.705004 0.735049
O O13 0.549528 0.715845 0.738581
O O14 0.631109 0.443882 0.259992
O O15 0.629017 0.597644 0.203310
O O16 0.657008 0.488871 0.000000
O O17 0.620946 0.367454 0.500000
O O18 0.106182 0.789586 0.000000
#
# Coordination Sequence:
#
# PCOD8225574 Si02
#       7
#     8   8   8   8   8   8   8
#     4  10  19  35  58  83 111 149 193 239 289 347
#     4   9  18  35  56  80 111 147 189 235 286 341
#     4  10  21  37  59  87 119 155 196 242 293 347
#     4  11  23  40  59  85 119 157 197 239 293 355
#     4   9  20  36  56  83 113 150 198 245 289 340
#     4  10  22  37  56  85 119 152 195 238 287 350
#     4  10  22  40  59  85 117 152 196 245 294 347
#
# _framework density 18.908013
#
# number of rings (size 3 to 8) (size 9 to 14) (size 15 to 20)
#    0.000    2.143    1.429    2.143    0.000    7.143 
#    0.000    4.286    0.000    0.000    0.000    0.000 
#    0.000    0.000    0.000    0.000    0.000    0.000 
#
# Total GULP energy -694484.586491 kJ/mol
# GULP energy per Si atom -12401.510473 kJ/mol
# Density = 1.886498 g / cm^3
# Si number density = 18.908013 Si / 1000 Ang^3
#
#
#
# Elastic Constant Matrix: (Units=GPa)
#
#
# Indices 1 2 3 4 5 6 
#
# 1 115.2090 65.8462 45.9123 0.0000 0.0000 0.0000
# 2 65.8462 102.3957 47.7677 0.0000 0.0000 0.0000
# 3 45.9123 47.7677 66.0846 0.0000 0.0000 0.0000
# 4 0.0000 0.0000 0.0000 25.9396 0.0000 0.0000
# 5 0.0000 0.0000 0.0000 0.0000 30.6900 0.0000
# 6 0.0000 0.0000 0.0000 0.0000 0.0000 25.0852
#
#
#
# Elastic Compliance Matrix: (Units=1/GPa)
#
#
# Indices 1 2 3 4 5 6 
#
# 1 0.014794 -0.007119 -0.005132 0.000000 0.000000 0.000000
# 2 -0.007119 0.018160 -0.008181 0.000000 0.000000 0.000000
# 3 -0.005132 -0.008181 0.024611 0.000000 0.000000 0.000000
# 4 0.000000 0.000000 0.000000 0.038551 0.000000 0.000000
# 5 0.000000 0.000000 0.000000 0.000000 0.032584 0.000000
# 6 0.000000 0.000000 0.000000 0.000000 0.000000 0.039864
#
#
# Mechanical properties :
#
#
# Convention : Reuss Voigt Hill
#
# Bulk Modulus (GPa) = 59.87635 66.97130 63.42383
# Shear Modulus (GPa) = 23.25626 24.62050 23.93838
#
# Velocity S-wave (km/s) = 3.51090 3.61240 3.56201
# Velocity P-wave (km/s) = 6.94054 7.27294 7.10869
#
# Compressibility (1/GPa) = 0.01670108
#
# Stress axis : x y z
#
# Youngs Moduli (GPa) = 67.59483 55.06482 40.63232
#
# Poissons Ratio (x) = 0.39202 0.20853
# Poissons Ratio (y) = 0.48122 0.33240
# Poissons Ratio (z) = 0.34691 0.45047
#
# Static dielectric constant tensor:
#      x y z
#    x 3.612120 0.000000 0.000000 
#    y 0.000000 3.289850 0.000000 
#    z 0.000000 0.000000 3.452660 
# 
# 
# High freq. dielectric constant tensor:
#      x y z
#    x 1.744230 0.000000 0.000000 
#    y 0.000000 1.723440 0.000000 
#    z 0.000000 0.000000 1.736280 
# 
# From -- ./inp_files/6121.got.cif
#   From: 2010.03.12/outbox.cif.g09.slc.cpg/sg55_4_cif.got.tgz:6121.got - 2010.04.16 15:19:21.
