data_PCOD8225602
_publ_section_title
;
Structure prediction by ZEFSAII (Michael W. Deem and Ramdas Pophale) SiO2 
 PCOD8225602
Probable space group: P B A M
;
_chemical_formula_sum "Si O2"
_cell_formula_units_Z 64
_cell_length_a 15.107847
_cell_length_b 24.663824
_cell_length_c 8.815800
_cell_angle_alpha 90.000000
_cell_angle_beta 90.000000
_cell_angle_gamma 90.000000
_cell_volume 3284.919412
_symmetry_space_group_name_H-M "P B A M"
_symmetry_group_IT_number 55
_symmetry_cell_setting 'orthorhombic'
loop_
_space_group_symop_operation_xyz
x,y,z
-x,-y,z
1/2+x,1/2-y,-z
1/2-x,1/2+y,-z
-x,-y,-z
x,y,-z
1/2-x,1/2+y,z
1/2+x,1/2-y,z
loop_
_atom_site_type_symbol
_atom_site_label
_atom_site_fract_x
_atom_site_fract_y
_atom_site_fract_z
Si Si1 0.015693 0.661470 0.678891
Si Si2 0.031151 0.776177 0.174066
Si Si3 0.344914 0.558345 0.175721
Si Si4 0.505095 0.614297 0.677801
Si Si5 0.676241 0.566405 0.824994
Si Si6 0.232964 0.761015 0.173423
Si Si7 0.198189 0.643537 0.819832
Si Si8 0.840076 0.639063 0.820835
O O1 0.022861 0.661155 0.500000
O O2 0.931252 0.626635 0.734092
O O3 0.002611 0.722643 0.737138
O O4 0.102595 0.632862 0.746927
O O5 0.135595 0.786395 0.190258
O O6 0.982319 0.828485 0.242487
O O7 0.002056 0.768915 0.000000
O O8 0.432098 0.570731 0.272013
O O9 0.315967 0.497210 0.207043
O O10 0.263876 0.596012 0.229420
O O11 0.367296 0.568603 0.000000
O O12 0.501294 0.623231 0.500000
O O13 0.601033 0.592289 0.721679
O O14 0.771061 0.591492 0.782285
O O15 0.651923 0.578724 0.000000
O O16 0.236557 0.700779 0.245958
O O17 0.301289 0.803825 0.245526
O O18 0.259607 0.754808 0.000000
O O19 0.184447 0.647335 0.000000
O O20 0.857460 0.642112 0.000000
#
# Coordination Sequence:
#
# PCOD8225602 Si02
#       8
#     8   8   8   8   8   8   8   8
#     4  11  23  37  55  87 124 154 187 236 297 359
#     4  10  19  37  60  83 114 154 195 235 280 338
#     4  10  22  39  62  86 111 151 204 251 288 338
#     4  12  24  36  55  88 125 157 189 233 293 357
#     4  10  21  40  62  85 114 152 202 250 287 335
#     4   8  15  30  55  82 106 139 185 235 282 331
#     4   9  19  38  60  84 111 149 198 244 290 339
#     4  10  19  35  59  85 112 151 199 243 288 339
#
# _framework density 19.482973999999999
#
# number of rings (size 3 to 8) (size 9 to 14) (size 15 to 20)
#    0.000    2.000    1.250    3.750    1.750    3.000 
#    0.000    1.250    0.000    3.750    0.000    0.000 
#    0.000    0.000    0.000    0.000    0.000    0.000 
#
# Total GULP energy -793674.887128 kJ/mol
# GULP energy per Si atom -12401.170111 kJ/mol
# Density = 1.943863 g / cm^3
# Si number density = 19.482974 Si / 1000 Ang^3
#
#
#
# Elastic Constant Matrix: (Units=GPa)
#
#
# Indices 1 2 3 4 5 6 
#
# 1 87.2733 40.2344 33.7677 0.0000 0.0000 0.0000
# 2 40.2344 89.2766 30.7371 0.0000 0.0000 0.0000
# 3 33.7677 30.7371 78.1676 0.0000 0.0000 0.0000
# 4 0.0000 0.0000 0.0000 16.6544 0.0000 0.0000
# 5 0.0000 0.0000 0.0000 0.0000 12.6001 0.0000
# 6 0.0000 0.0000 0.0000 0.0000 0.0000 28.9670
#
#
#
# Elastic Compliance Matrix: (Units=1/GPa)
#
#
# Indices 1 2 3 4 5 6 
#
# 1 0.015805 -0.005519 -0.004657 0.000000 0.000000 0.000000
# 2 -0.005519 0.014882 -0.003468 0.000000 0.000000 0.000000
# 3 -0.004657 -0.003468 0.016169 0.000000 0.000000 0.000000
# 4 0.000000 0.000000 0.000000 0.060044 0.000000 0.000000
# 5 0.000000 0.000000 0.000000 0.000000 0.079364 0.000000
# 6 0.000000 0.000000 0.000000 0.000000 0.000000 0.034522
#
#
# Mechanical properties :
#
#
# Convention : Reuss Voigt Hill
#
# Bulk Modulus (GPa) = 51.10621 51.57730 51.34175
# Shear Modulus (GPa) = 19.63886 21.64285 20.64086
#
# Velocity S-wave (km/s) = 3.17835 3.33657 3.25842
# Velocity P-wave (km/s) = 6.30534 6.43227 6.36912
#
# Compressibility (1/GPa) = 0.01956710
#
# Stress axis : x y z
#
# Youngs Moduli (GPa) = 63.27230 67.19316 61.84865
#
# Poissons Ratio (x) = 0.37086 0.28804
# Poissons Ratio (y) = 0.34922 0.21448
# Poissons Ratio (z) = 0.29467 0.23301
#
# Static dielectric constant tensor:
#      x y z
#    x 3.567830 0.000000 0.000000 
#    y 0.000000 3.609990 0.000000 
#    z 0.000000 0.000000 3.291910 
# 
# 
# High freq. dielectric constant tensor:
#      x y z
#    x 1.761910 0.000000 0.000000 
#    y 0.000000 1.754410 0.000000 
#    z 0.000000 0.000000 1.733530 
# 
# From -- ./inp_files/6628.got.cif
#   From: 2010.03.12/outbox.cif.g09.slc.cpg/sg55_4_cif.got.tgz:6628.got - 2010.04.16 15:19:21.
