data_PCOD8225977
_publ_section_title
;
Structure prediction by ZEFSAII (Michael W. Deem and Ramdas Pophale) SiO2 
 PCOD8225977
Probable space group: P B A M
;
_chemical_formula_sum "Si O2"
_cell_formula_units_Z 48
_cell_length_a 18.942442
_cell_length_b 15.252893
_cell_length_c 9.084109
_cell_angle_alpha 90.000000
_cell_angle_beta 90.000000
_cell_angle_gamma 90.000000
_cell_volume 2624.644733
_symmetry_space_group_name_H-M "P B A M"
_symmetry_group_IT_number 55
_symmetry_cell_setting 'orthorhombic'
loop_
_space_group_symop_operation_xyz
x,y,z
-x,-y,z
1/2+x,1/2-y,-z
1/2-x,1/2+y,-z
-x,-y,-z
x,y,-z
1/2-x,1/2+y,z
1/2+x,1/2-y,z
loop_
_atom_site_type_symbol
_atom_site_label
_atom_site_fract_x
_atom_site_fract_y
_atom_site_fract_z
Si Si1 0.079768 0.995711 0.326283
Si Si2 0.668681 0.648747 0.831434
Si Si3 0.578498 0.001164 0.825222
Si Si4 0.675309 0.342116 0.325691
Si Si5 0.678670 0.847988 0.828717
Si Si6 0.170412 0.336944 0.826423
O O1 0.079373 0.986722 0.500000
O O2 0.117951 0.909579 0.266606
O O3 0.120583 0.083039 0.276132
O O4 0.000000 0.000000 0.264339
O O5 0.649431 0.750308 0.803109
O O6 0.750150 0.633713 0.786550
O O7 0.656422 0.622275 0.000000
O O8 0.618814 0.914230 0.771956
O O9 0.500000 0.000000 0.757319
O O10 0.618733 0.087367 0.768687
O O11 0.575290 0.002975 0.000000
O O12 0.679899 0.332633 0.500000
O O13 0.751588 0.367825 0.263858
O O14 0.648274 0.251202 0.257178
O O15 0.697678 0.862802 0.000000
O O16 0.164108 0.318989 0.000000
#
# Coordination Sequence:
#
# PCOD8225977 Si02
#       6
#     8   8   8   8   8   8
#     4  10  22  37  50  69 101 137 168 203 250 297
#     4   9  18  32  52  77  99 126 166 207 247 289
#     4   9  17  30  51  78 105 133 163 197 243 298
#     4  10  20  34  53  74  96 129 171 208 246 294
#     4   9  18  34  54  76 103 130 161 205 249 291
#     4   9  18  33  54  78 102 129 163 205 249 290
#
# _framework density 18.288191000000001
#
# number of rings (size 3 to 8) (size 9 to 14) (size 15 to 20)
#    0.000    2.667    0.000    2.500    0.000    7.000 
#    0.000    2.500    0.000    2.000    0.000    0.000 
#    0.000    0.000    0.000    0.000    0.000    0.000 
#
# Total GULP energy -595247.093794 kJ/mol
# GULP energy per Si atom -12400.981121 kJ/mol
# Density = 1.824657 g / cm^3
# Si number density = 18.288191 Si / 1000 Ang^3
#
#
#
# Elastic Constant Matrix: (Units=GPa)
#
#
# Indices 1 2 3 4 5 6 
#
# 1 137.9299 102.4144 28.6142 0.0000 0.0000 0.0000
# 2 102.4144 151.3405 36.8967 0.0000 0.0000 0.0000
# 3 28.6142 36.8967 32.8273 0.0000 0.0000 0.0000
# 4 0.0000 0.0000 0.0000 23.8482 0.0000 0.0000
# 5 0.0000 0.0000 0.0000 0.0000 20.8236 0.0000
# 6 0.0000 0.0000 0.0000 0.0000 0.0000 16.7498
#
#
#
# Elastic Compliance Matrix: (Units=1/GPa)
#
#
# Indices 1 2 3 4 5 6 
#
# 1 0.014691 -0.009394 -0.002247 0.000000 0.000000 0.000000
# 2 -0.009394 0.015108 -0.008793 0.000000 0.000000 0.000000
# 3 -0.002247 -0.008793 0.042304 0.000000 0.000000 0.000000
# 4 0.000000 0.000000 0.000000 0.041932 0.000000 0.000000
# 5 0.000000 0.000000 0.000000 0.000000 0.048022 0.000000
# 6 0.000000 0.000000 0.000000 0.000000 0.000000 0.059702
#
#
# Mechanical properties :
#
#
# Convention : Reuss Voigt Hill
#
# Bulk Modulus (GPa) = 32.01481 73.10538 52.56009
# Shear Modulus (GPa) = 18.31226 22.56249 20.43738
#
# Velocity S-wave (km/s) = 3.16779 3.51624 3.34656
# Velocity P-wave (km/s) = 5.56090 7.51972 6.61324
#
# Compressibility (1/GPa) = 0.03123554
#
# Stress axis : x y z
#
# Youngs Moduli (GPa) = 68.06679 66.18836 23.63822
#
# Poissons Ratio (x) = 0.62177 0.05312
# Poissons Ratio (y) = 0.63942 0.20785
# Poissons Ratio (z) = 0.15297 0.58199
#
# Static dielectric constant tensor:
#      x y z
#    x 3.519600 0.000000 0.000000 
#    y 0.000000 3.516160 0.000000 
#    z 0.000000 0.000000 3.100060 
# 
# 
# High freq. dielectric constant tensor:
#      x y z
#    x 1.706800 0.000000 0.000000 
#    y 0.000000 1.722770 0.000000 
#    z 0.000000 0.000000 1.683410 
# 
# From -- ./inp_files/5611.got.cif
#   From: 2010.03.12/outbox.cif.g09.slc.cpg/sg55_3_cif.got.tgz:5611.got - 2010.04.16 15:19:21.
