data_PCOD8225486
_publ_section_title
;
Structure prediction by ZEFSAII (Michael W. Deem and Ramdas Pophale) SiO2 
 PCOD8225486
Probable space group: P B A M
;
_chemical_formula_sum "Si O2"
_cell_formula_units_Z 56
_cell_length_a 18.615668
_cell_length_b 17.468158
_cell_length_c 9.027023
_cell_angle_alpha 90.000000
_cell_angle_beta 90.000000
_cell_angle_gamma 90.000000
_cell_volume 2935.420247
_symmetry_space_group_name_H-M "P B A M"
_symmetry_group_IT_number 55
_symmetry_cell_setting 'orthorhombic'
loop_
_space_group_symop_operation_xyz
x,y,z
-x,-y,z
1/2+x,1/2-y,-z
1/2-x,1/2+y,-z
-x,-y,-z
x,y,-z
1/2-x,1/2+y,z
1/2+x,1/2-y,z
loop_
_atom_site_type_symbol
_atom_site_label
_atom_site_fract_x
_atom_site_fract_y
_atom_site_fract_z
Si Si1 0.104396 0.561360 0.670621
Si Si2 0.348443 0.618470 0.674854
Si Si3 0.537713 0.258548 0.675235
Si Si4 0.561772 0.097480 0.331765
Si Si5 0.102518 0.807042 0.171573
Si Si6 0.791816 0.324230 0.827634
Si Si7 0.918564 0.018996 0.174439
O O1 0.132396 0.566016 0.500000
O O2 0.105201 0.474085 0.738453
O O3 0.151890 0.611774 0.778581
O O4 0.023368 0.588946 0.678457
O O5 0.340411 0.609489 0.500000
O O6 0.417521 0.667685 0.722246
O O7 0.280115 0.663695 0.735377
O O8 0.360478 0.535413 0.746239
O O9 0.529760 0.251208 0.500000
O O10 0.578108 0.181586 0.736920
O O11 0.458606 0.263164 0.739990
O O12 0.587043 0.095266 0.500000
O O13 0.176807 0.761369 0.203159
O O14 0.105618 0.895603 0.221922
O O15 0.081770 0.802882 0.000000
O O16 0.775030 0.335433 0.000000
O O17 0.912334 0.005910 0.000000
O O18 0.000000 0.000000 0.228114
#
# Coordination Sequence:
#
# PCOD8225486 Si02
#       7
#     8   8   8   8   8   8   8
#     4   9  16  31  56  80 108 145 186 227 278 338
#     4  11  24  39  58  85 116 151 195 242 291 347
#     4  10  19  34  58  85 113 145 187 238 284 336
#     4   8  15  29  53  83 110 140 178 227 280 331
#     4  10  21  37  60  88 115 152 195 234 288 354
#     4  11  23  39  57  80 117 157 194 238 293 353
#     4  10  20  38  64  88 116 151 189 238 296 351
#
# _framework density 19.077335999999999
#
# number of rings (size 3 to 8) (size 9 to 14) (size 15 to 20)
#    0.000    2.143    2.857    1.714    0.000    2.000 
#    2.571    2.143    0.000    0.000    0.000    0.000 
#    0.000    0.000    0.000    0.000    0.000    0.000 
#
# Total GULP energy -694020.727278 kJ/mol
# GULP energy per Si atom -12393.227273 kJ/mol
# Density = 1.903391 g / cm^3
# Si number density = 19.077336 Si / 1000 Ang^3
#
#
#
# Elastic Constant Matrix: (Units=GPa)
#
#
# Indices 1 2 3 4 5 6 
#
# 1 63.9273 38.0766 24.5199 0.0000 0.0000 0.0000
# 2 38.0766 151.2179 39.5040 0.0000 0.0000 0.0000
# 3 24.5199 39.5040 39.7233 0.0000 0.0000 0.0000
# 4 0.0000 0.0000 0.0000 25.0159 0.0000 0.0000
# 5 0.0000 0.0000 0.0000 0.0000 26.5761 0.0000
# 6 0.0000 0.0000 0.0000 0.0000 0.0000 28.5526
#
#
#
# Elastic Compliance Matrix: (Units=1/GPa)
#
#
# Indices 1 2 3 4 5 6 
#
# 1 0.021224 -0.002596 -0.010519 0.000000 0.000000 0.000000
# 2 -0.002596 0.009252 -0.007598 0.000000 0.000000 0.000000
# 3 -0.010519 -0.007598 0.039223 0.000000 0.000000 0.000000
# 4 0.000000 0.000000 0.000000 0.039974 0.000000 0.000000
# 5 0.000000 0.000000 0.000000 0.000000 0.037628 0.000000
# 6 0.000000 0.000000 0.000000 0.000000 0.000000 0.035023
#
#
# Mechanical properties :
#
#
# Convention : Reuss Voigt Hill
#
# Bulk Modulus (GPa) = 35.37018 51.00772 43.18895
# Shear Modulus (GPa) = 21.44322 26.21347 23.82835
#
# Velocity S-wave (km/s) = 3.35627 3.71086 3.53801
# Velocity P-wave (km/s) = 5.79656 6.71982 6.27519
#
# Compressibility (1/GPa) = 0.02827241
#
# Stress axis : x y z
#
# Youngs Moduli (GPa) = 47.11707 108.08972 25.49517
#
# Poissons Ratio (x) = 0.28062 0.26818
# Poissons Ratio (y) = 0.12233 0.19371
# Poissons Ratio (z) = 0.49562 0.82126
#
# Static dielectric constant tensor:
#      x y z
#    x 3.062380 0.000000 0.000000 
#    y 0.000000 3.967300 0.000000 
#    z 0.000000 0.000000 3.272620 
# 
# 
# High freq. dielectric constant tensor:
#      x y z
#    x 1.717530 0.000000 0.000000 
#    y 0.000000 1.766820 0.000000 
#    z 0.000000 0.000000 1.721130 
# 
# From -- ./inp_files/7837.got.cif
#   From: 2010.03.12/outbox.cif.g09.slc.cpg/sg55_4_cif.got.tgz:7837.got - 2010.04.16 15:19:21.
