data_PCOD8225506
_publ_section_title
;
Structure prediction by ZEFSAII (Michael W. Deem and Ramdas Pophale) SiO2 
 PCOD8225506
Probable space group: P B A M
;
_chemical_formula_sum "Si O2"
_cell_formula_units_Z 64
_cell_length_a 11.102036
_cell_length_b 31.944228
_cell_length_c 9.100234
_cell_angle_alpha 90.000000
_cell_angle_beta 90.000000
_cell_angle_gamma 90.000000
_cell_volume 3227.361307
_symmetry_space_group_name_H-M "P B A M"
_symmetry_group_IT_number 55
_symmetry_cell_setting 'orthorhombic'
loop_
_space_group_symop_operation_xyz
x,y,z
-x,-y,z
1/2+x,1/2-y,-z
1/2-x,1/2+y,-z
-x,-y,-z
x,y,-z
1/2-x,1/2+y,z
1/2+x,1/2-y,z
loop_
_atom_site_type_symbol
_atom_site_label
_atom_site_fract_x
_atom_site_fract_y
_atom_site_fract_z
Si Si1 0.909210 0.612189 0.165824
Si Si2 0.407462 0.180449 0.834146
Si Si3 0.233736 0.829881 0.671232
Si Si4 0.860739 0.821661 0.830539
Si Si5 0.084909 0.260412 0.328276
Si Si6 0.055075 0.882974 0.168947
Si Si7 0.885516 0.530408 0.666881
Si Si8 0.891504 0.030292 0.328706
O O1 0.828687 0.634381 0.287831
O O2 0.919272 0.564491 0.212595
O O3 0.039088 0.633727 0.170149
O O4 0.854673 0.615265 0.000000
O O5 0.274224 0.175246 0.772193
O O6 0.474768 0.212625 0.730487
O O7 0.411131 0.198198 0.000000
O O8 0.200846 0.833260 0.500000
O O9 0.288868 0.784130 0.709934
O O10 0.119824 0.840683 0.771629
O O11 0.925054 0.785392 0.738715
O O12 0.917003 0.868285 0.809497
O O13 0.867955 0.808253 0.000000
O O14 0.066809 0.256407 0.500000
O O15 0.091319 0.924349 0.255851
O O16 0.087971 0.891000 0.000000
O O17 0.882970 0.547721 0.500000
O O18 0.746883 0.513502 0.701444
O O19 0.000000 0.500000 0.683308
O O20 0.912755 0.036761 0.500000
O O21 0.000000 0.000000 0.268282
#
# Coordination Sequence:
#
# PCOD8225506 Si02
#       8
#     8   8   8   8   8   8   8   8
#     4  10  19  34  59  86 110 143 189 238 287 345
#     4   9  20  39  58  79 112 152 192 237 293 355
#     4  10  20  36  58  83 114 150 189 239 292 348
#     4  10  23  40  57  82 119 159 198 242 298 360
#     4  10  22  37  57  86 116 150 195 247 298 347
#     4  11  23  38  60  89 117 154 202 248 297 357
#     4  10  21  37  58  86 119 154 194 242 300 366
#     4  10  22  41  63  87 120 162 204 249 309 374
#
# _framework density 19.830442000000001
#
# number of rings (size 3 to 8) (size 9 to 14) (size 15 to 20)
#    0.000    2.000    1.250    1.500    1.750    5.000 
#    0.000    0.000    0.000    0.000    0.000    0.000 
#    0.000    0.000    0.000    0.000    0.000    0.000 
#
# Total GULP energy -792961.142357 kJ/mol
# GULP energy per Si atom -12390.017849 kJ/mol
# Density = 1.978531 g / cm^3
# Si number density = 19.830442 Si / 1000 Ang^3
#
#
#
# Elastic Constant Matrix: (Units=GPa)
#
#
# Indices 1 2 3 4 5 6 
#
# 1 129.2611 47.6754 30.7853 0.0000 0.0000 0.0000
# 2 47.6754 79.0569 28.4407 0.0000 0.0000 0.0000
# 3 30.7853 28.4407 53.7950 0.0000 0.0000 0.0000
# 4 0.0000 0.0000 0.0000 23.7280 0.0000 0.0000
# 5 0.0000 0.0000 0.0000 0.0000 21.9556 0.0000
# 6 0.0000 0.0000 0.0000 0.0000 0.0000 24.0211
#
#
#
# Elastic Compliance Matrix: (Units=1/GPa)
#
#
# Indices 1 2 3 4 5 6 
#
# 1 0.010390 -0.005096 -0.003252 0.000000 0.000000 0.000000
# 2 -0.005096 0.018119 -0.006663 0.000000 0.000000 0.000000
# 3 -0.003252 -0.006663 0.023973 0.000000 0.000000 0.000000
# 4 0.000000 0.000000 0.000000 0.042144 0.000000 0.000000
# 5 0.000000 0.000000 0.000000 0.000000 0.045546 0.000000
# 6 0.000000 0.000000 0.000000 0.000000 0.000000 0.041630
#
#
# Mechanical properties :
#
#
# Convention : Reuss Voigt Hill
#
# Bulk Modulus (GPa) = 44.52297 52.87953 48.70125
# Shear Modulus (GPa) = 22.79854 24.28837 23.54346
#
# Velocity S-wave (km/s) = 3.39436 3.50351 3.44937
# Velocity P-wave (km/s) = 6.15328 6.56429 6.36210
#
# Compressibility (1/GPa) = 0.02246032
#
# Stress axis : x y z
#
# Youngs Moduli (GPa) = 96.24329 55.18953 41.71399
#
# Poissons Ratio (x) = 0.28125 0.13565
# Poissons Ratio (y) = 0.49046 0.27795
# Poissons Ratio (z) = 0.31297 0.36774
#
# Static dielectric constant tensor:
#      x y z
#    x 3.998860 0.000000 0.000000 
#    y 0.000000 3.511980 0.000000 
#    z 0.000000 0.000000 3.574640 
# 
# 
# High freq. dielectric constant tensor:
#      x y z
#    x 1.783960 0.000000 0.000000 
#    y 0.000000 1.756600 0.000000 
#    z 0.000000 0.000000 1.775430 
# 
# From -- ./inp_files/4540.got.cif
#   From: 2010.03.12/outbox.cif.g09.slc.cpg/sg55_3_cif.got.tgz:4540.got - 2010.04.16 15:19:21.
