data_PCOD8225868
_publ_section_title
;
Structure prediction by ZEFSAII (Michael W. Deem and Ramdas Pophale) SiO2 
 PCOD8225868
Probable space group: P B A M
;
_chemical_formula_sum "Si O2"
_cell_formula_units_Z 64
_cell_length_a 33.430660
_cell_length_b 10.336253
_cell_length_c 9.812356
_cell_angle_alpha 90.000000
_cell_angle_beta 90.000000
_cell_angle_gamma 90.000000
_cell_volume 3390.637633
_symmetry_space_group_name_H-M "P B A M"
_symmetry_group_IT_number 55
_symmetry_cell_setting 'orthorhombic'
loop_
_space_group_symop_operation_xyz
x,y,z
-x,-y,z
1/2+x,1/2-y,-z
1/2-x,1/2+y,-z
-x,-y,-z
x,y,-z
1/2-x,1/2+y,z
1/2+x,1/2-y,z
loop_
_atom_site_type_symbol
_atom_site_label
_atom_site_fract_x
_atom_site_fract_y
_atom_site_fract_z
Si Si1 0.787031 0.264273 0.162581
Si Si2 0.860968 0.889408 0.841486
Si Si3 0.534060 0.202680 0.342218
Si Si4 0.927212 0.969996 0.652804
Si Si5 0.225925 0.023352 0.838549
Si Si6 0.125742 0.659454 0.155807
Si Si7 0.554364 0.754447 0.346066
Si Si8 0.899488 0.621152 0.153437
O O1 0.760257 0.382265 0.222298
O O2 0.770514 0.124969 0.215391
O O3 0.832720 0.282456 0.212494
O O4 0.786001 0.268471 0.000000
O O5 0.871054 0.740693 0.807375
O O6 0.890034 0.982252 0.756067
O O7 0.816139 0.916182 0.792788
O O8 0.866661 0.923268 0.000000
O O9 0.542069 0.170803 0.500000
O O10 0.544422 0.351031 0.306134
O O11 0.487595 0.177938 0.305531
O O12 0.562112 0.109339 0.252463
O O13 0.910266 0.949868 0.500000
O O14 0.952940 0.100446 0.661868
O O15 0.229389 0.021991 0.000000
O O16 0.088936 0.707034 0.244159
O O17 0.128248 0.504399 0.166931
O O18 0.118546 0.703272 0.000000
O O19 0.566450 0.794529 0.500000
O O20 0.916066 0.636946 0.000000
#
# Coordination Sequence:
#
# PCOD8225868 Si02
#       8
#     8   8   8   8   8   8   8   8
#     4   9  18  30  47  73 102 131 166 206 252 302
#     4   9  17  30  50  74 101 129 165 207 251 299
#     4   9  18  33  52  74  98 127 168 213 252 298
#     4   9  17  31  51  74  99 128 162 205 255 305
#     4   9  17  28  47  74 101 130 165 207 250 298
#     4  10  21  35  50  70 101 135 168 207 254 303
#     4  10  20  33  51  73  98 131 169 209 253 300
#     4   9  19  33  49  71 100 135 168 206 254 302
#
# _framework density 18.875506000000001
#
# number of rings (size 3 to 8) (size 9 to 14) (size 15 to 20)
#    0.000    2.750    0.000    1.125    1.750    4.500 
#    0.000    2.500    0.000    4.500    0.000    0.000 
#    0.000    0.000    0.000    0.000    0.000    0.000 
#
# Total GULP energy -793437.853763 kJ/mol
# GULP energy per Si atom -12397.466465 kJ/mol
# Density = 1.883254 g / cm^3
# Si number density = 18.875506 Si / 1000 Ang^3
#
#
#
# Elastic Constant Matrix: (Units=GPa)
#
#
# Indices 1 2 3 4 5 6 
#
# 1 128.9166 46.1427 42.7796 0.0000 0.0000 0.0000
# 2 46.1427 84.4822 18.7050 0.0000 0.0000 0.0000
# 3 42.7796 18.7050 46.2418 0.0000 0.0000 0.0000
# 4 0.0000 0.0000 0.0000 19.5984 0.0000 0.0000
# 5 0.0000 0.0000 0.0000 0.0000 7.9899 0.0000
# 6 0.0000 0.0000 0.0000 0.0000 0.0000 29.2030
#
#
#
# Elastic Compliance Matrix: (Units=1/GPa)
#
#
# Indices 1 2 3 4 5 6 
#
# 1 0.012734 -0.004775 -0.009850 0.000000 0.000000 0.000000
# 2 -0.004775 0.014791 -0.001566 0.000000 0.000000 0.000000
# 3 -0.009850 -0.001566 0.031371 0.000000 0.000000 0.000000
# 4 0.000000 0.000000 0.000000 0.051025 0.000000 0.000000
# 5 0.000000 0.000000 0.000000 0.000000 0.125158 0.000000
# 6 0.000000 0.000000 0.000000 0.000000 0.000000 0.034243
#
#
# Mechanical properties :
#
#
# Convention : Reuss Voigt Hill
#
# Bulk Modulus (GPa) = 37.71261 52.76612 45.23937
# Shear Modulus (GPa) = 16.10088 21.49247 18.79668
#
# Velocity S-wave (km/s) = 2.92379 3.37804 3.15909
# Velocity P-wave (km/s) = 5.60545 6.57498 6.10948
#
# Compressibility (1/GPa) = 0.02651633
#
# Stress axis : x y z
#
# Youngs Moduli (GPa) = 78.52764 67.60726 31.87643
#
# Poissons Ratio (x) = 0.32279 0.31397
# Poissons Ratio (y) = 0.37493 0.04992
# Poissons Ratio (z) = 0.77347 0.10588
#
# Static dielectric constant tensor:
#      x y z
#    x 3.476830 0.000000 0.000000 
#    y 0.000000 3.654800 0.000000 
#    z 0.000000 0.000000 3.233920 
# 
# 
# High freq. dielectric constant tensor:
#      x y z
#    x 1.728580 0.000000 0.000000 
#    y 0.000000 1.745030 0.000000 
#    z 0.000000 0.000000 1.693670 
# 
# From -- ./inp_files/16058.got.cif
#   From: 2010.03.12/outbox.cif.g09.slc.cpg/sg55_9_cif.got.tgz:16058.got - 2010.04.16 15:19:21.
