data_PCOD8225771
_publ_section_title
;
Structure prediction by ZEFSAII (Michael W. Deem and Ramdas Pophale) SiO2 
 PCOD8225771
Probable space group: P B A M
;
_chemical_formula_sum "Si O2"
_cell_formula_units_Z 48
_cell_length_a 17.952033
_cell_length_b 9.661703
_cell_length_c 13.669550
_cell_angle_alpha 90.000000
_cell_angle_beta 90.000000
_cell_angle_gamma 90.000000
_cell_volume 2370.945324
_symmetry_space_group_name_H-M "P B A M"
_symmetry_group_IT_number 55
_symmetry_cell_setting 'orthorhombic'
loop_
_space_group_symop_operation_xyz
x,y,z
-x,-y,z
1/2+x,1/2-y,-z
1/2-x,1/2+y,-z
-x,-y,-z
x,y,-z
1/2-x,1/2+y,z
1/2+x,1/2-y,z
loop_
_atom_site_type_symbol
_atom_site_label
_atom_site_fract_x
_atom_site_fract_y
_atom_site_fract_z
Si Si1 0.718285 0.984298 0.613900
Si Si2 0.510725 0.655609 0.613847
Si Si3 0.707763 0.793156 0.109568
Si Si4 0.328370 0.298436 0.690149
Si Si5 0.930404 0.598403 0.702293
Si Si6 0.658887 0.096995 0.108677
O O1 0.736286 0.997785 0.500000
O O2 0.782965 0.061057 0.674147
O O3 0.637837 0.048061 0.636448
O O4 0.722094 0.825357 0.647242
O O5 0.500000 0.500000 0.650970
O O6 0.492831 0.671008 0.500000
O O7 0.594450 0.703334 0.633389
O O8 0.451523 0.746522 0.672778
O O9 0.655565 0.726473 0.193881
O O10 0.790484 0.732345 0.126033
O O11 0.709413 0.959106 0.122878
O O12 0.678981 0.753158 0.000000
O O13 0.909504 0.596718 0.816565
O O14 0.000000 0.500000 0.681777
O O15 0.624159 0.099441 0.000000
#
# Coordination Sequence:
#
# PCOD8225771 Si02
#       6
#     8   8   8   8   8   8
#     4  12  25  39  63  93 127 166 212 263 313 375
#     4  11  26  44  63  88 127 172 213 261 320 379
#     4  10  19  37  63  93 125 161 206 263 319 372
#     4  12  23  43  63  94 126 161 215 264 314 376
#     4  12  23  41  64  91 128 170 209 259 318 382
#     4  10  21  38  63  95 127 164 210 261 319 379
#
# _framework density 20.245087999999999
#
# number of rings (size 3 to 8) (size 9 to 14) (size 15 to 20)
#    0.000    0.833    5.000    2.000    2.333    2.333 
#    0.000    0.833    0.000    1.000    0.000    0.000 
#    0.000    0.000    0.000    0.000    0.000    0.000 
#
# Total GULP energy -595339.840204 kJ/mol
# GULP energy per Si atom -12402.913338 kJ/mol
# Density = 2.019901 g / cm^3
# Si number density = 20.245088 Si / 1000 Ang^3
#
#
#
# Elastic Constant Matrix: (Units=GPa)
#
#
# Indices 1 2 3 4 5 6 
#
# 1 36.1627 6.4241 13.0880 0.0000 0.0000 0.0000
# 2 6.4241 89.3138 41.1848 0.0000 0.0000 0.0000
# 3 13.0880 41.1848 126.3184 0.0000 0.0000 0.0000
# 4 0.0000 0.0000 0.0000 29.9301 0.0000 0.0000
# 5 0.0000 0.0000 0.0000 0.0000 35.3597 0.0000
# 6 0.0000 0.0000 0.0000 0.0000 0.0000 35.0173
#
#
#
# Elastic Compliance Matrix: (Units=1/GPa)
#
#
# Indices 1 2 3 4 5 6 
#
# 1 0.028781 -0.000818 -0.002715 0.000000 0.000000 0.000000
# 2 -0.000818 0.013201 -0.004219 0.000000 0.000000 0.000000
# 3 -0.002715 -0.004219 0.009573 0.000000 0.000000 0.000000
# 4 0.000000 0.000000 0.000000 0.033411 0.000000 0.000000
# 5 0.000000 0.000000 0.000000 0.000000 0.028281 0.000000
# 6 0.000000 0.000000 0.000000 0.000000 0.000000 0.028557
#
#
# Mechanical properties :
#
#
# Convention : Reuss Voigt Hill
#
# Bulk Modulus (GPa) = 27.73924 41.46541 34.60232
# Shear Modulus (GPa) = 29.52876 32.80128 31.16502
#
# Velocity S-wave (km/s) = 3.82326 4.02955 3.92776
# Velocity P-wave (km/s) = 5.76378 6.49429 6.13991
#
# Compressibility (1/GPa) = 0.03605002
#
# Stress axis : x y z
#
# Youngs Moduli (GPa) = 34.74537 75.75221 104.45510
#
# Poissons Ratio (x) = 0.06197 0.28363
# Poissons Ratio (y) = 0.02842 0.44072
# Poissons Ratio (z) = 0.09434 0.31962
#
# Static dielectric constant tensor:
#      x y z
#    x 3.405200 0.000000 0.000000 
#    y 0.000000 3.907330 0.000000 
#    z 0.000000 0.000000 3.982480 
# 
# 
# High freq. dielectric constant tensor:
#      x y z
#    x 1.763600 0.000000 0.000000 
#    y 0.000000 1.803860 0.000000 
#    z 0.000000 0.000000 1.809260 
# 
# From -- ./inp_files/17352.got.cif
#   From: 2010.03.12/outbox.cif.g09.slc.cpg/sg55_9_cif.got.tgz:17352.got - 2010.04.16 15:19:21.
