data_PCOD8225667
_publ_section_title
;
Structure prediction by ZEFSAII (Michael W. Deem and Ramdas Pophale) SiO2 
 PCOD8225667
Probable space group: P B A M
;
_chemical_formula_sum "Si O2"
_cell_formula_units_Z 64
_cell_length_a 15.647384
_cell_length_b 24.137673
_cell_length_c 8.739470
_cell_angle_alpha 90.000000
_cell_angle_beta 90.000000
_cell_angle_gamma 90.000000
_cell_volume 3300.822994
_symmetry_space_group_name_H-M "P B A M"
_symmetry_group_IT_number 55
_symmetry_cell_setting 'orthorhombic'
loop_
_space_group_symop_operation_xyz
x,y,z
-x,-y,z
1/2+x,1/2-y,-z
1/2-x,1/2+y,-z
-x,-y,-z
x,y,-z
1/2-x,1/2+y,z
1/2+x,1/2-y,z
loop_
_atom_site_type_symbol
_atom_site_label
_atom_site_fract_x
_atom_site_fract_y
_atom_site_fract_z
Si Si1 0.324568 0.274111 0.179717
Si Si2 0.000502 0.411918 0.818275
Si Si3 0.843719 0.776554 0.319718
Si Si4 0.366803 0.000487 0.817864
Si Si5 0.594236 0.612306 0.818813
Si Si6 0.497378 0.212363 0.181179
Si Si7 0.676447 0.500378 0.182386
Si Si8 0.097869 0.114863 0.818424
O O1 0.241475 0.254930 0.269427
O O2 0.343961 0.337410 0.228919
O O3 0.405624 0.236978 0.226680
O O4 0.305918 0.269553 0.000000
O O5 0.085513 0.444371 0.763841
O O6 0.001032 0.349973 0.752179
O O7 0.917572 0.445379 0.757764
O O8 0.997168 0.409108 0.000000
O O9 0.848073 0.777499 0.500000
O O10 0.927346 0.746774 0.256308
O O11 0.841114 0.839229 0.256720
O O12 0.272001 0.001059 0.749085
O O13 0.364454 0.001941 0.000000
O O14 0.629624 0.554703 0.750186
O O15 0.498668 0.623582 0.758264
O O16 0.589076 0.607581 0.000000
O O17 0.511078 0.215089 0.000000
O O18 0.627379 0.445681 0.237181
O O19 0.678804 0.503426 0.000000
O O20 0.105506 0.120835 0.000000
#
# Coordination Sequence:
#
# PCOD8225667 Si02
#       8
#     8   8   8   8   8   8   8   8
#     4  10  21  37  60  87 116 146 190 240 289 342
#     4   8  15  26  45  74 113 141 170 217 276 335
#     4  12  26  40  56  81 117 157 196 234 285 345
#     4   8  14  25  40  74 115 144 166 210 277 337
#     4   9  17  32  53  84 115 141 177 233 295 340
#     4  10  20  37  62  88 110 145 191 242 292 336
#     4   9  17  26  50  84 113 140 175 229 288 337
#     4  10  19  36  58  82 112 144 187 237 284 334
#
# _framework density 19.389104
#
# number of rings (size 3 to 8) (size 9 to 14) (size 15 to 20)
#    0.000    2.500    1.250    2.250    3.500    2.000 
#    0.000    0.000    0.000    2.250    0.000    1.750 
#    0.000    0.000    0.000    0.000    0.000    0.000 
#
# Total GULP energy -793481.708976 kJ/mol
# GULP energy per Si atom -12398.151703 kJ/mol
# Density = 1.934497 g / cm^3
# Si number density = 19.389104 Si / 1000 Ang^3
#
#
#
# Elastic Constant Matrix: (Units=GPa)
#
#
# Indices 1 2 3 4 5 6 
#
# 1 124.8039 57.1920 29.9491 0.0000 0.0000 0.0000
# 2 57.1920 163.7694 27.3832 0.0000 0.0000 0.0000
# 3 29.9491 27.3832 33.1919 0.0000 0.0000 0.0000
# 4 0.0000 0.0000 0.0000 3.6559 0.0000 0.0000
# 5 0.0000 0.0000 0.0000 0.0000 -0.2679 0.0000
# 6 0.0000 0.0000 0.0000 0.0000 0.0000 28.7118
#
#
#
# Elastic Compliance Matrix: (Units=1/GPa)
#
#
# Indices 1 2 3 4 5 6 
#
# 1 0.011073 -0.002548 -0.007890 0.000000 0.000000 0.000000
# 2 -0.002548 0.007669 -0.004028 0.000000 0.000000 0.000000
# 3 -0.007890 -0.004028 0.040570 0.000000 0.000000 0.000000
# 4 0.000000 0.000000 0.000000 0.273527 0.000000 0.000000
# 5 0.000000 0.000000 0.000000 0.000000 -3.733364 0.000000
# 6 0.000000 0.000000 0.000000 0.000000 0.000000 0.034829
#
#
# Mechanical properties :
#
#
# Convention : Reuss Voigt Hill
#
# Bulk Modulus (GPa) = 32.91501 61.20153 47.05827
# Shear Modulus (GPa) = -1.50302 20.23604 9.36651
#
# Velocity S-wave (km/s) = -0.88140 3.23411 2.20030
# Velocity P-wave (km/s) = 3.99713 6.75125 5.54781
#
# Compressibility (1/GPa) = 0.03038127
#
# Stress axis : x y z
#
# Youngs Moduli (GPa) = 90.30656 130.38676 24.64884
#
# Poissons Ratio (x) = 0.33221 0.19447
# Poissons Ratio (y) = 0.23009 0.09929
# Poissons Ratio (z) = 0.71247 0.52524
#
# Static dielectric constant tensor:
#      x y z
#    x 3.756920 0.000000 0.000000 
#    y 0.000000 3.943030 0.000000 
#    z 0.000000 0.000000 2.894440 
# 
# 
# High freq. dielectric constant tensor:
#      x y z
#    x 1.765960 0.000000 0.000000 
#    y 0.000000 1.774390 0.000000 
#    z 0.000000 0.000000 1.684350 
# 
# From -- ./inp_files/6597.got.cif
#   From: 2010.03.12/outbox.cif.g09.slc.cpg/sg55_4_cif.got.tgz:6597.got - 2010.04.16 15:19:21.
