data_PCOD8225125
_publ_section_title
;
Structure prediction by ZEFSAII (Michael W. Deem and Ramdas Pophale) SiO2 
 PCOD8225125
Probable space group: P B A M
;
_chemical_formula_sum "Si O2"
_cell_formula_units_Z 56
_cell_length_a 15.151429
_cell_length_b 19.853551
_cell_length_c 8.599583
_cell_angle_alpha 90.000000
_cell_angle_beta 90.000000
_cell_angle_gamma 90.000000
_cell_volume 2586.837710
_symmetry_space_group_name_H-M "P B A M"
_symmetry_group_IT_number 55
_symmetry_cell_setting 'orthorhombic'
loop_
_space_group_symop_operation_xyz
x,y,z
-x,-y,z
1/2+x,1/2-y,-z
1/2-x,1/2+y,-z
-x,-y,-z
x,y,-z
1/2-x,1/2+y,z
1/2+x,1/2-y,z
loop_
_atom_site_type_symbol
_atom_site_label
_atom_site_fract_x
_atom_site_fract_y
_atom_site_fract_z
Si Si1 0.100297 0.501106 0.832641
Si Si2 0.645698 0.868356 0.677882
Si Si3 0.167449 0.358538 0.817018
Si Si4 0.324280 0.575860 0.317087
Si Si5 0.329983 0.422078 0.319008
Si Si6 0.001936 0.132490 0.180558
Si Si7 0.989700 0.722665 0.317156
O O1 0.114940 0.555254 0.698573
O O2 0.124445 0.428542 0.766448
O O3 0.000000 0.500000 0.875551
O O4 0.149295 0.516665 0.000000
O O5 0.647934 0.848152 0.500000
O O6 0.747667 0.870871 0.738301
O O7 0.574986 0.817360 0.757805
O O8 0.263882 0.362385 0.737097
O O9 0.104064 0.299736 0.754722
O O10 0.179276 0.348732 0.000000
O O11 0.344534 0.584728 0.500000
O O12 0.293868 0.498099 0.284225
O O13 0.409939 0.591355 0.217269
O O14 0.349229 0.411784 0.500000
O O15 0.420575 0.414938 0.224959
O O16 0.996850 0.199523 0.282941
O O17 0.999208 0.151573 0.000000
O O18 0.984717 0.709310 0.500000
#
# Coordination Sequence:
#
# PCOD8225125 Si02
#       7
#     8   8   8   8   8   8   8
#     4  10  19  32  54  88 129 167 198 245 309 370
#     4  10  21  37  62  94 124 159 205 255 307 369
#     4  11  22  37  61  95 132 166 206 255 313 375
#     4  10  22  42  67  95 125 159 208 264 317 376
#     4  11  23  42  69  96 125 163 207 262 319 375
#     4  12  27  45  64  88 124 167 215 268 318 377
#     4  11  24  42  64  91 128 172 214 256 309 379
#
# _framework density 21.648053000000001
#
# number of rings (size 3 to 8) (size 9 to 14) (size 15 to 20)
#    0.000    1.286    2.857    3.000    0.000    6.000 
#    0.000    4.286    0.000    0.000    0.000    0.000 
#    0.000    0.000    0.000    0.000    0.000    0.000 
#
# Total GULP energy -694041.418775 kJ/mol
# GULP energy per Si atom -12393.596764 kJ/mol
# Density = 2.159878 g / cm^3
# Si number density = 21.648053 Si / 1000 Ang^3
#
#
#
# Elastic Constant Matrix: (Units=GPa)
#
#
# Indices 1 2 3 4 5 6 
#
# 1 128.4923 18.8267 35.0059 0.0000 0.0000 0.0000
# 2 18.8267 67.1754 10.7694 0.0000 0.0000 0.0000
# 3 35.0059 10.7694 59.3691 0.0000 0.0000 0.0000
# 4 0.0000 0.0000 0.0000 29.7622 0.0000 0.0000
# 5 0.0000 0.0000 0.0000 0.0000 30.4222 0.0000
# 6 0.0000 0.0000 0.0000 0.0000 0.0000 14.0899
#
#
#
# Elastic Compliance Matrix: (Units=1/GPa)
#
#
# Indices 1 2 3 4 5 6 
#
# 1 0.009482 -0.001814 -0.005262 0.000000 0.000000 0.000000
# 2 -0.001814 0.015679 -0.001775 0.000000 0.000000 0.000000
# 3 -0.005262 -0.001775 0.020268 0.000000 0.000000 0.000000
# 4 0.000000 0.000000 0.000000 0.033600 0.000000 0.000000
# 5 0.000000 0.000000 0.000000 0.000000 0.032871 0.000000
# 6 0.000000 0.000000 0.000000 0.000000 0.000000 0.070973
#
#
# Mechanical properties :
#
#
# Convention : Reuss Voigt Hill
#
# Bulk Modulus (GPa) = 36.06369 42.69344 39.37857
# Shear Modulus (GPa) = 23.83042 27.55051 25.69046
#
# Velocity S-wave (km/s) = 3.32145 3.57130 3.44864
# Velocity P-wave (km/s) = 5.60398 6.06383 5.83843
#
# Compressibility (1/GPa) = 0.02772872
#
# Stress axis : x y z
#
# Youngs Moduli (GPa) = 105.46497 63.77851 49.33837
#
# Poissons Ratio (x) = 0.11568 0.25961
# Poissons Ratio (y) = 0.19130 0.08756
# Poissons Ratio (z) = 0.55493 0.11319
#
# Static dielectric constant tensor:
#      x y z
#    x 4.158150 0.000000 0.000000 
#    y 0.000000 3.705580 0.000000 
#    z 0.000000 0.000000 3.748340 
# 
# 
# High freq. dielectric constant tensor:
#      x y z
#    x 1.866180 0.000000 0.000000 
#    y 0.000000 1.834930 0.000000 
#    z 0.000000 0.000000 1.842300 
# 
# From -- ./inp_files/6189.got.cif
#   From: 2010.03.12/outbox.cif.g09.slc.cpg/sg55_4_cif.got.tgz:6189.got - 2010.04.16 15:19:21.
