data_PCOD8225150
_publ_section_title
;
Structure prediction by ZEFSAII (Michael W. Deem and Ramdas Pophale) SiO2 
 PCOD8225150
Probable space group: P B A M
;
_chemical_formula_sum "Si O2"
_cell_formula_units_Z 64
_cell_length_a 30.278889
_cell_length_b 14.688888
_cell_length_c 8.578576
_cell_angle_alpha 90.000000
_cell_angle_beta 90.000000
_cell_angle_gamma 90.000000
_cell_volume 3815.434993
_symmetry_space_group_name_H-M "P B A M"
_symmetry_group_IT_number 55
_symmetry_cell_setting 'orthorhombic'
loop_
_space_group_symop_operation_xyz
x,y,z
-x,-y,z
1/2+x,1/2-y,-z
1/2-x,1/2+y,-z
-x,-y,-z
x,y,-z
1/2-x,1/2+y,z
1/2+x,1/2-y,z
loop_
_atom_site_type_symbol
_atom_site_label
_atom_site_fract_x
_atom_site_fract_y
_atom_site_fract_z
Si Si1 0.302374 0.168135 0.186602
Si Si2 0.640688 0.339251 0.319682
Si Si3 0.049227 0.099941 0.315008
Si Si4 0.136288 0.810189 0.315340
Si Si5 0.777639 0.523719 0.825517
Si Si6 0.283202 0.776830 0.816291
Si Si7 0.047245 0.895677 0.684852
Si Si8 0.824663 0.014548 0.824853
O O1 0.346882 0.212724 0.254908
O O2 0.258759 0.221168 0.251055
O O3 0.302224 0.063672 0.250847
O O4 0.302827 0.169893 0.000000
O O5 0.646748 0.313762 0.500000
O O6 0.589173 0.332614 0.264237
O O7 0.670663 0.272651 0.218127
O O8 0.653383 0.444221 0.293963
O O9 0.049717 0.093020 0.500000
O O10 0.001421 0.137452 0.256610
O O11 0.056709 0.997304 0.249249
O O12 0.140351 0.816675 0.500000
O O13 0.085702 0.827047 0.258297
O O14 0.167827 0.884115 0.236153
O O15 0.785150 0.621238 0.740171
O O16 0.726897 0.495348 0.827365
O O17 0.795883 0.534784 0.000000
O O18 0.276569 0.785310 0.000000
O O19 0.047171 0.899059 0.500000
O O20 0.843742 0.002733 0.000000
#
# Coordination Sequence:
#
# PCOD8225150 Si02
#       8
#     8   8   8   8   8   8   8   8
#     4  10  19  33  50  67  91 127 164 190 223 280
#     4  11  20  30  46  73  98 121 157 200 238 271
#     4   8  14  26  44  65  92 125 154 182 227 288
#     4  11  20  30  46  73  98 121 157 200 238 271
#     4   9  18  33  49  64  87 126 168 191 213 271
#     4  10  19  33  50  67  91 127 164 190 223 280
#     4   8  14  26  44  65  92 125 154 182 227 288
#     4  11  19  31  48  66  93 131 165 190 225 279
#
# _framework density 16.773972000000001
#
# number of rings (size 3 to 8) (size 9 to 14) (size 15 to 20)
#    0.000    2.250    3.750    1.875    0.000    0.500 
#    0.000    0.625    0.000    3.750    0.000    0.875 
#    0.000    7.000    0.000    0.000    0.000    0.000 
#
# Total GULP energy -793021.602955 kJ/mol
# GULP energy per Si atom -12390.962546 kJ/mol
# Density = 1.673579 g / cm^3
# Si number density = 16.773972 Si / 1000 Ang^3
#
#
#
# Elastic Constant Matrix: (Units=GPa)
#
#
# Indices 1 2 3 4 5 6 
#
# 1 97.4004 35.2808 7.2602 0.0000 0.0000 0.0000
# 2 35.2808 81.4354 7.4042 0.0000 0.0000 0.0000
# 3 7.2602 7.4042 19.7498 0.0000 0.0000 0.0000
# 4 0.0000 0.0000 0.0000 18.0526 0.0000 0.0000
# 5 0.0000 0.0000 0.0000 0.0000 4.9096 0.0000
# 6 0.0000 0.0000 0.0000 0.0000 0.0000 25.5064
#
#
#
# Elastic Compliance Matrix: (Units=1/GPa)
#
#
# Indices 1 2 3 4 5 6 
#
# 1 0.012307 -0.005094 -0.002614 0.000000 0.000000 0.000000
# 2 -0.005094 0.014822 -0.003684 0.000000 0.000000 0.000000
# 3 -0.002614 -0.003684 0.052976 0.000000 0.000000 0.000000
# 4 0.000000 0.000000 0.000000 0.055394 0.000000 0.000000
# 5 0.000000 0.000000 0.000000 0.000000 0.203681 0.000000
# 6 0.000000 0.000000 0.000000 0.000000 0.000000 0.039206
#
#
# Mechanical properties :
#
#
# Convention : Reuss Voigt Hill
#
# Bulk Modulus (GPa) = 17.44613 33.16401 25.30507
# Shear Modulus (GPa) = 11.89696 19.60311 15.75003
#
# Velocity S-wave (km/s) = 2.66607 3.42228 3.06756
# Velocity P-wave (km/s) = 4.46100 5.95231 5.25978
#
# Compressibility (1/GPa) = 0.05731930
#
# Stress axis : x y z
#
# Youngs Moduli (GPa) = 81.25462 67.46916 18.87658
#
# Poissons Ratio (x) = 0.34370 0.04935
# Poissons Ratio (y) = 0.41392 0.06954
# Poissons Ratio (z) = 0.21243 0.24855
#
# Static dielectric constant tensor:
#      x y z
#    x 3.414610 0.000000 0.000000 
#    y 0.000000 3.155320 0.000000 
#    z 0.000000 0.000000 2.837440 
# 
# 
# High freq. dielectric constant tensor:
#      x y z
#    x 1.640910 0.000000 0.000000 
#    y 0.000000 1.623310 0.000000 
#    z 0.000000 0.000000 1.616610 
# 
# From -- ./inp_files/10905.got.cif
#   From: 2010.03.12/outbox.cif.g09.slc.cpg/sg55_6_cif.got.tgz:10905.got - 2010.04.16 15:19:21.
