data_PCOD8225609
_publ_section_title
;
Structure prediction by ZEFSAII (Michael W. Deem and Ramdas Pophale) SiO2 
 PCOD8225609
Probable space group: P B A M
;
_chemical_formula_sum "Si O2"
_cell_formula_units_Z 64
_cell_length_a 23.567559
_cell_length_b 15.247160
_cell_length_c 9.258846
_cell_angle_alpha 90.000000
_cell_angle_beta 90.000000
_cell_angle_gamma 90.000000
_cell_volume 3327.058379
_symmetry_space_group_name_H-M "P B A M"
_symmetry_group_IT_number 55
_symmetry_cell_setting 'orthorhombic'
loop_
_space_group_symop_operation_xyz
x,y,z
-x,-y,z
1/2+x,1/2-y,-z
1/2-x,1/2+y,-z
-x,-y,-z
x,y,-z
1/2-x,1/2+y,z
1/2+x,1/2-y,z
loop_
_atom_site_type_symbol
_atom_site_label
_atom_site_fract_x
_atom_site_fract_y
_atom_site_fract_z
Si Si1 0.247755 0.833641 0.333776
Si Si2 0.622482 0.606791 0.665313
Si Si3 0.862528 0.578744 0.664936
Si Si4 0.133648 0.592359 0.830614
Si Si5 0.861298 0.909587 0.334203
Si Si6 0.062678 0.254208 0.668155
Si Si7 0.553931 0.748678 0.828737
Si Si8 0.743201 0.344108 0.170896
O O1 0.249615 0.801811 0.500000
O O2 0.187475 0.874417 0.291450
O O3 0.295534 0.907335 0.307044
O O4 0.262540 0.753108 0.231891
O O5 0.611077 0.634527 0.500000
O O6 0.609838 0.504115 0.688392
O O7 0.580167 0.659197 0.767724
O O8 0.874552 0.554449 0.500000
O O9 0.885813 0.498217 0.758488
O O10 0.895435 0.666832 0.708470
O O11 0.092679 0.670124 0.778584
O O12 0.196917 0.615872 0.780199
O O13 0.129521 0.579011 0.000000
O O14 0.841933 0.896546 0.500000
O O15 0.906905 0.836549 0.289736
O O16 0.805993 0.904811 0.234580
O O17 0.045573 0.255070 0.500000
O O18 0.007841 0.264691 0.765903
O O19 0.550792 0.740638 0.000000
O O20 0.737492 0.339911 0.000000
#
# Coordination Sequence:
#
# PCOD8225609 Si02
#       8
#     8   8   8   8   8   8   8   8
#     4  10  19  35  59  89 120 150 189 235 289 346
#     4  10  21  37  63  91 115 152 195 238 291 345
#     4  10  21  38  62  90 117 150 193 243 292 342
#     4  10  23  40  57  84 120 157 192 234 290 346
#     4  10  21  40  63  88 120 152 190 243 294 346
#     4  10  22  41  62  85 115 150 197 248 293 343
#     4  11  24  42  60  81 118 158 197 243 291 347
#     4  11  21  35  58  88 121 157 193 231 287 352
#
# _framework density 19.236211999999998
#
# number of rings (size 3 to 8) (size 9 to 14) (size 15 to 20)
#    0.000    1.750    2.500    1.500    0.000    6.000 
#    0.000    5.000    0.000    0.000    0.000    0.000 
#    0.000    0.000    0.000    0.000    0.000    0.000 
#
# Total GULP energy -793921.024006 kJ/mol
# GULP energy per Si atom -12405.016000 kJ/mol
# Density = 1.919243 g / cm^3
# Si number density = 19.236212 Si / 1000 Ang^3
#
#
#
# Elastic Constant Matrix: (Units=GPa)
#
#
# Indices 1 2 3 4 5 6 
#
# 1 88.7935 28.8662 40.5797 0.0000 0.0000 0.0000
# 2 28.8662 110.6834 35.5220 0.0000 0.0000 0.0000
# 3 40.5797 35.5220 58.1590 0.0000 0.0000 0.0000
# 4 0.0000 0.0000 0.0000 28.9838 0.0000 0.0000
# 5 0.0000 0.0000 0.0000 0.0000 33.6393 0.0000
# 6 0.0000 0.0000 0.0000 0.0000 0.0000 12.3735
#
#
#
# Elastic Compliance Matrix: (Units=1/GPa)
#
#
# Indices 1 2 3 4 5 6 
#
# 1 0.016586 -0.000761 -0.011108 0.000000 0.000000 0.000000
# 2 -0.000761 0.011272 -0.006354 0.000000 0.000000 0.000000
# 3 -0.011108 -0.006354 0.028826 0.000000 0.000000 0.000000
# 4 0.000000 0.000000 0.000000 0.034502 0.000000 0.000000
# 5 0.000000 0.000000 0.000000 0.000000 0.029727 0.000000
# 6 0.000000 0.000000 0.000000 0.000000 0.000000 0.080818
#
#
# Mechanical properties :
#
#
# Convention : Reuss Voigt Hill
#
# Bulk Modulus (GPa) = 49.41119 51.95239 50.68179
# Shear Modulus (GPa) = 20.41460 25.17717 22.79589
#
# Velocity S-wave (km/s) = 3.26123 3.62172 3.44619
# Velocity P-wave (km/s) = 6.31848 6.67498 6.49917
#
# Compressibility (1/GPa) = 0.02023833
#
# Stress axis : x y z
#
# Youngs Moduli (GPa) = 60.29238 88.71201 34.69134
#
# Poissons Ratio (x) = 0.06748 0.38535
# Poissons Ratio (y) = 0.04586 0.22043
# Poissons Ratio (z) = 0.66973 0.56369
#
# Static dielectric constant tensor:
#      x y z
#    x 3.501010 0.000000 0.000000 
#    y 0.000000 3.547670 0.000000 
#    z 0.000000 0.000000 3.434380 
# 
# 
# High freq. dielectric constant tensor:
#      x y z
#    x 1.747300 0.000000 0.000000 
#    y 0.000000 1.757260 0.000000 
#    z 0.000000 0.000000 1.741870 
# 
# From -- ./inp_files/6554.got.cif
#   From: 2010.03.12/outbox.cif.g09.slc.cpg/sg55_4_cif.got.tgz:6554.got - 2010.04.16 15:19:21.
