data_PCOD8225607
_publ_section_title
;
Structure prediction by ZEFSAII (Michael W. Deem and Ramdas Pophale) SiO2 
 PCOD8225607
Probable space group: P B A M
;
_chemical_formula_sum "Si O2"
_cell_formula_units_Z 64
_cell_length_a 8.958673
_cell_length_b 21.194640
_cell_length_c 15.458209
_cell_angle_alpha 90.000000
_cell_angle_beta 90.000000
_cell_angle_gamma 90.000000
_cell_volume 2935.140560
_symmetry_space_group_name_H-M "P B A M"
_symmetry_group_IT_number 55
_symmetry_cell_setting 'orthorhombic'
loop_
_space_group_symop_operation_xyz
x,y,z
-x,-y,z
1/2+x,1/2-y,-z
1/2-x,1/2+y,-z
-x,-y,-z
x,y,-z
1/2-x,1/2+y,z
1/2+x,1/2-y,z
loop_
_atom_site_type_symbol
_atom_site_label
_atom_site_fract_x
_atom_site_fract_y
_atom_site_fract_z
Si Si1 0.071185 0.814724 0.647093
Si Si2 0.567734 0.936870 0.158913
Si Si3 0.587450 0.188925 0.150365
Si Si4 0.930988 0.184389 0.851895
Si Si5 0.937853 0.561247 0.649848
Si Si6 0.599866 0.441224 0.900474
Si Si7 0.389976 0.446926 0.400998
Si Si8 0.905890 0.694699 0.643884
O O1 0.051880 0.818615 0.749328
O O2 0.980509 0.756984 0.605612
O O3 0.019719 0.881067 0.606317
O O4 0.236610 0.800460 0.615935
O O5 0.500216 0.873189 0.115594
O O6 0.518563 0.938999 0.258249
O O7 0.747147 0.936751 0.153774
O O8 0.500000 0.000000 0.113106
O O9 0.510399 0.252068 0.112355
O O10 0.576891 0.190966 0.253390
O O11 0.758422 0.185815 0.119094
O O12 0.007915 0.123328 0.892371
O O13 0.757737 0.555736 0.658877
O O14 0.973814 0.628943 0.604659
O O15 0.000000 0.500000 0.597172
O O16 0.500000 0.500000 0.866196
O O17 0.643108 0.452469 0.000000
O O18 0.500000 0.500000 0.364117
O O19 0.344303 0.461164 0.500000
#
# Coordination Sequence:
#
# PCOD8225607 Si02
#       8
#     8   8   8   8   8   8   8   8
#     4   9  18  32  54  80 110 148 189 232 278 337
#     4  10  20  37  61  89 117 151 198 244 292 357
#     4   9  17  32  56  87 118 150 192 245 297 341
#     4  10  19  35  59  85 117 155 197 243 292 353
#     4   9  19  35  58  87 115 149 195 238 285 349
#     4  11  25  42  59  84 120 157 194 245 307 361
#     4  10  22  39  57  83 122 159 192 239 296 348
#     4   8  16  30  50  81 113 140 179 236 287 326
#
# _framework density 21.804746000000002
#
# number of rings (size 3 to 8) (size 9 to 14) (size 15 to 20)
#    0.000    2.500    0.000    2.250    0.000    9.000 
#    0.000    5.625    0.000    0.000    0.000    0.000 
#    0.000    0.000    0.000    0.000    0.000    0.000 
#
# Total GULP energy -793134.996199 kJ/mol
# GULP energy per Si atom -12392.734316 kJ/mol
# Density = 2.175512 g / cm^3
# Si number density = 21.804746 Si / 1000 Ang^3
#
#
#
# Elastic Constant Matrix: (Units=GPa)
#
#
# Indices 1 2 3 4 5 6 
#
# 1 153.1233 103.6858 23.8894 0.0000 0.0000 0.0000
# 2 103.6858 248.0933 4.6034 0.0000 0.0000 0.0000
# 3 23.8894 4.6034 35.9531 0.0000 0.0000 0.0000
# 4 0.0000 0.0000 0.0000 -0.2561 0.0000 0.0000
# 5 0.0000 0.0000 0.0000 0.0000 -34.7126 0.0000
# 6 0.0000 0.0000 0.0000 0.0000 0.0000 50.9803
#
#
#
# Elastic Compliance Matrix: (Units=1/GPa)
#
#
# Indices 1 2 3 4 5 6 
#
# 1 0.010380 -0.004220 -0.006357 0.000000 0.000000 0.000000
# 2 -0.004220 0.005756 0.002067 0.000000 0.000000 0.000000
# 3 -0.006357 0.002067 0.031773 0.000000 0.000000 0.000000
# 4 0.000000 0.000000 0.000000 -3.904243 0.000000 0.000000
# 5 0.000000 0.000000 0.000000 0.000000 -0.028808 0.000000
# 6 0.000000 0.000000 0.000000 0.000000 0.000000 0.019615
#
#
# Mechanical properties :
#
#
# Convention : Reuss Voigt Hill
#
# Bulk Modulus (GPa) = 32.37324 77.94742 55.16033
# Shear Modulus (GPa) = -1.30269 23.53505 11.11618
#
# Velocity S-wave (km/s) = -0.77378 3.28892 2.26034
# Velocity P-wave (km/s) = 3.75244 7.08859 5.67137
#
# Compressibility (1/GPa) = 0.03088971
#
# Stress axis : x y z
#
# Youngs Moduli (GPa) = 96.33805 173.72744 31.47304
#
# Poissons Ratio (x) = 0.73317 0.20007
# Poissons Ratio (y) = 0.40657 -0.06506
# Poissons Ratio (z) = 0.61240 -0.35912
#
# Static dielectric constant tensor:
#      x y z
#    x 3.904930 0.000000 0.000000 
#    y 0.000000 4.889680 0.000000 
#    z 0.000000 0.000000 3.345600 
# 
# 
# High freq. dielectric constant tensor:
#      x y z
#    x 1.850920 0.000000 0.000000 
#    y 0.000000 1.890470 0.000000 
#    z 0.000000 0.000000 1.810010 
# 
# From -- ./inp_files/21100.got.cif
#   From: 2010.03.12/outbox.cif.g09.slc.cpg/sg55_11_cif.got.tgz:21100.got - 2010.04.16 15:19:21.
