data_PCOD8225124
_publ_section_title
;
Structure prediction by ZEFSAII (Michael W. Deem and Ramdas Pophale) SiO2 
 PCOD8225124
Probable space group: P B A M
;
_chemical_formula_sum "Si O2"
_cell_formula_units_Z 64
_cell_length_a 14.460234
_cell_length_b 24.117559
_cell_length_c 8.872365
_cell_angle_alpha 90.000000
_cell_angle_beta 90.000000
_cell_angle_gamma 90.000000
_cell_volume 3094.197782
_symmetry_space_group_name_H-M "P B A M"
_symmetry_group_IT_number 55
_symmetry_cell_setting 'orthorhombic'
loop_
_space_group_symop_operation_xyz
x,y,z
-x,-y,z
1/2+x,1/2-y,-z
1/2-x,1/2+y,-z
-x,-y,-z
x,y,-z
1/2-x,1/2+y,z
1/2+x,1/2-y,z
loop_
_atom_site_type_symbol
_atom_site_label
_atom_site_fract_x
_atom_site_fract_y
_atom_site_fract_z
Si Si1 0.012110 0.329663 0.177212
Si Si2 0.834636 0.301271 0.325418
Si Si3 0.064116 0.951078 0.821043
Si Si4 0.241477 0.597546 0.832561
Si Si5 0.953113 0.557596 0.322204
Si Si6 0.269370 0.970780 0.824509
Si Si7 0.143528 0.249170 0.676685
Si Si8 0.936479 0.854958 0.830356
O O1 0.994451 0.390956 0.244169
O O2 0.107747 0.303813 0.238569
O O3 0.927316 0.289628 0.229454
O O4 0.017139 0.333221 0.000000
O O5 0.858406 0.294230 0.500000
O O6 0.803045 0.364133 0.294557
O O7 0.750739 0.260597 0.275964
O O8 0.168728 0.954547 0.759325
O O9 0.024751 0.890520 0.775319
O O10 0.065411 0.958159 0.000000
O O11 0.000000 0.000000 0.751458
O O12 0.212376 0.535418 0.797539
O O13 0.352175 0.601532 0.827914
O O14 0.206255 0.615687 0.000000
O O15 0.960143 0.564890 0.500000
O O16 0.846591 0.561258 0.270487
O O17 0.000000 0.500000 0.268700
O O18 0.278791 0.954803 0.000000
O O19 0.134422 0.258460 0.500000
O O20 0.080763 0.196489 0.720731
O O21 0.950738 0.831660 0.000000
#
# Coordination Sequence:
#
# PCOD8225124 Si02
#       8
#     8   8   8   8   8   8   8   8
#     4  12  25  43  68  94 120 154 202 256 306 362
#     4  10  21  38  62  89 118 154 193 240 300 361
#     4   9  15  28  52  84 122 162 202 246 297 352
#     4   9  16  28  52  84 117 153 200 248 286 339
#     4  11  25  44  64  87 120 161 201 248 311 376
#     4  10  19  32  54  86 120 158 201 246 297 351
#     4  10  22  41  63  88 121 157 197 245 301 362
#     4   9  16  30  54  83 116 157 204 249 291 342
#
# _framework density 20.683873999999999
#
# number of rings (size 3 to 8) (size 9 to 14) (size 15 to 20)
#    0.000    2.000    1.250    3.000    0.000    5.000 
#    2.250    0.625    0.000    0.750    0.000    0.000 
#    0.000    0.000    0.000    0.000    0.000    0.000 
#
# Total GULP energy -793617.399284 kJ/mol
# GULP energy per Si atom -12400.271864 kJ/mol
# Density = 2.063680 g / cm^3
# Si number density = 20.683874 Si / 1000 Ang^3
#
#
#
# Elastic Constant Matrix: (Units=GPa)
#
#
# Indices 1 2 3 4 5 6 
#
# 1 114.3382 33.1810 40.4745 0.0000 0.0000 0.0000
# 2 33.1810 74.2916 38.3004 0.0000 0.0000 0.0000
# 3 40.4745 38.3004 88.3060 0.0000 0.0000 0.0000
# 4 0.0000 0.0000 0.0000 28.6005 0.0000 0.0000
# 5 0.0000 0.0000 0.0000 0.0000 29.7941 0.0000
# 6 0.0000 0.0000 0.0000 0.0000 0.0000 32.0849
#
#
#
# Elastic Compliance Matrix: (Units=1/GPa)
#
#
# Indices 1 2 3 4 5 6 
#
# 1 0.010923 -0.002959 -0.003723 0.000000 0.000000 0.000000
# 2 -0.002959 0.018139 -0.006511 0.000000 0.000000 0.000000
# 3 -0.003723 -0.006511 0.015855 0.000000 0.000000 0.000000
# 4 0.000000 0.000000 0.000000 0.034964 0.000000 0.000000
# 5 0.000000 0.000000 0.000000 0.000000 0.033564 0.000000
# 6 0.000000 0.000000 0.000000 0.000000 0.000000 0.031167
#
#
# Mechanical properties :
#
#
# Convention : Reuss Voigt Hill
#
# Bulk Modulus (GPa) = 53.96618 55.64973 54.80795
# Shear Modulus (GPa) = 28.22089 29.09456 28.65773
#
# Velocity S-wave (km/s) = 3.69777 3.75458 3.72628
# Velocity P-wave (km/s) = 6.66175 6.76455 6.71335
#
# Compressibility (1/GPa) = 0.01853012
#
# Stress axis : x y z
#
# Youngs Moduli (GPa) = 91.55359 55.13068 63.07337
#
# Poissons Ratio (x) = 0.16314 0.23481
# Poissons Ratio (y) = 0.27091 0.41067
# Poissons Ratio (z) = 0.34084 0.35895
#
# Static dielectric constant tensor:
#      x y z
#    x 3.962190 0.000000 0.000000 
#    y 0.000000 3.559790 0.000000 
#    z 0.000000 0.000000 3.453600 
# 
# 
# High freq. dielectric constant tensor:
#      x y z
#    x 1.818910 0.000000 0.000000 
#    y 0.000000 1.794860 0.000000 
#    z 0.000000 0.000000 1.787190 
# 
# From -- ./inp_files/6545.got.cif
#   From: 2010.03.12/outbox.cif.g09.slc.cpg/sg55_4_cif.got.tgz:6545.got - 2010.04.16 15:19:21.
