data_PCOD8225618
_publ_section_title
;
Structure prediction by ZEFSAII (Michael W. Deem and Ramdas Pophale) SiO2 
 PCOD8225618
Probable space group: P B A M
;
_chemical_formula_sum "Si O2"
_cell_formula_units_Z 48
_cell_length_a 19.982877
_cell_length_b 14.192578
_cell_length_c 8.769319
_cell_angle_alpha 90.000000
_cell_angle_beta 90.000000
_cell_angle_gamma 90.000000
_cell_volume 2487.053763
_symmetry_space_group_name_H-M "P B A M"
_symmetry_group_IT_number 55
_symmetry_cell_setting 'orthorhombic'
loop_
_space_group_symop_operation_xyz
x,y,z
-x,-y,z
1/2+x,1/2-y,-z
1/2-x,1/2+y,-z
-x,-y,-z
x,y,-z
1/2-x,1/2+y,z
1/2+x,1/2-y,z
loop_
_atom_site_type_symbol
_atom_site_label
_atom_site_fract_x
_atom_site_fract_y
_atom_site_fract_z
Si Si1 0.184661 0.444406 0.678409
Si Si2 0.857354 0.745660 0.819347
Si Si3 0.490357 0.243554 0.818463
Si Si4 0.438652 0.440114 0.818537
Si Si5 0.809129 0.951879 0.180646
Si Si6 0.569044 0.947403 0.169559
O O1 0.193432 0.432910 0.500000
O O2 0.185663 0.340169 0.750993
O O3 0.242462 0.510782 0.742558
O O4 0.115450 0.496256 0.715185
O O5 0.822553 0.843705 0.771035
O O6 0.933524 0.743375 0.754989
O O7 0.857754 0.734101 0.000000
O O8 0.449157 0.333894 0.759959
O O9 0.447092 0.155168 0.760323
O O10 0.495359 0.242063 0.000000
O O11 0.500000 0.500000 0.751916
O O12 0.369494 0.482944 0.757212
O O13 0.439332 0.445336 0.000000
O O14 0.802143 0.959977 0.000000
O O15 0.500000 0.000000 0.151855
O O16 0.602341 0.940601 0.000000
#
# Coordination Sequence:
#
# PCOD8225618 Si02
#       6
#     8   8   8   8   8   8
#     4  12  26  40  56  82 124 164 198 239 291 360
#     4  10  19  37  63  87 112 149 198 246 298 350
#     4   9  16  29  56  91 119 144 180 241 301 343
#     4   9  15  28  55  92 120 137 175 238 301 346
#     4  10  21  37  62  90 118 152 195 246 296 355
#     4  10  19  35  60  86 114 148 197 251 292 341
#
# _framework density 19.299944
#
# number of rings (size 3 to 8) (size 9 to 14) (size 15 to 20)
#    0.000    2.000    3.333    1.500    0.000    2.333 
#    0.000    3.333    0.000    1.500    0.000    0.000 
#    0.000    0.000    0.000    0.000    0.000    0.000 
#
# Total GULP energy -595123.386857 kJ/mol
# GULP energy per Si atom -12398.403893 kJ/mol
# Density = 1.925602 g / cm^3
# Si number density = 19.299944 Si / 1000 Ang^3
#
#
#
# Elastic Constant Matrix: (Units=GPa)
#
#
# Indices 1 2 3 4 5 6 
#
# 1 93.7888 56.5406 24.6051 0.0000 0.0000 0.0000
# 2 56.5406 183.8464 35.2989 0.0000 0.0000 0.0000
# 3 24.6051 35.2989 37.0543 0.0000 0.0000 0.0000
# 4 0.0000 0.0000 0.0000 8.5378 0.0000 0.0000
# 5 0.0000 0.0000 0.0000 0.0000 -11.5883 0.0000
# 6 0.0000 0.0000 0.0000 0.0000 0.0000 34.7524
#
#
#
# Elastic Compliance Matrix: (Units=1/GPa)
#
#
# Indices 1 2 3 4 5 6 
#
# 1 0.014254 -0.003141 -0.006473 0.000000 0.000000 0.000000
# 2 -0.003141 0.007349 -0.004915 0.000000 0.000000 0.000000
# 3 -0.006473 -0.004915 0.035968 0.000000 0.000000 0.000000
# 4 0.000000 0.000000 0.000000 0.117127 0.000000 0.000000
# 5 0.000000 0.000000 0.000000 0.000000 -0.086294 0.000000
# 6 0.000000 0.000000 0.000000 0.000000 0.000000 0.028775
#
#
# Mechanical properties :
#
#
# Convention : Reuss Voigt Hill
#
# Bulk Modulus (GPa) = 35.07190 60.84209 47.95700
# Shear Modulus (GPa) = 32.10463 19.55670 25.83067
#
# Velocity S-wave (km/s) = 4.08297 3.18670 3.66236
# Velocity P-wave (km/s) = 6.35917 6.71811 6.54110
#
# Compressibility (1/GPa) = 0.02851285
#
# Stress axis : x y z
#
# Youngs Moduli (GPa) = 70.15644 136.07278 27.80247
#
# Poissons Ratio (x) = 0.42738 0.17996
# Poissons Ratio (y) = 0.22035 0.13666
# Poissons Ratio (z) = 0.45412 0.66883
#
# Static dielectric constant tensor:
#      x y z
#    x 3.665760 0.000000 0.000000 
#    y 0.000000 3.395990 0.000000 
#    z 0.000000 0.000000 3.043420 
# 
# 
# High freq. dielectric constant tensor:
#      x y z
#    x 1.748850 0.000000 0.000000 
#    y 0.000000 1.773450 0.000000 
#    z 0.000000 0.000000 1.696850 
# 
# From -- ./inp_files/8559.got.cif
#   From: 2010.03.12/outbox.cif.g09.slc.cpg/sg55_5_cif.got.tgz:8559.got - 2010.04.16 15:19:21.
