data_PCOD8225595
_publ_section_title
;
Structure prediction by ZEFSAII (Michael W. Deem and Ramdas Pophale) SiO2 
 PCOD8225595
Probable space group: P B A M
;
_chemical_formula_sum "Si O2"
_cell_formula_units_Z 64
_cell_length_a 19.681428
_cell_length_b 18.613053
_cell_length_c 8.990028
_cell_angle_alpha 90.000000
_cell_angle_beta 90.000000
_cell_angle_gamma 90.000000
_cell_volume 3293.330105
_symmetry_space_group_name_H-M "P B A M"
_symmetry_group_IT_number 55
_symmetry_cell_setting 'orthorhombic'
loop_
_space_group_symop_operation_xyz
x,y,z
-x,-y,z
1/2+x,1/2-y,-z
1/2-x,1/2+y,-z
-x,-y,-z
x,y,-z
1/2-x,1/2+y,z
1/2+x,1/2-y,z
loop_
_atom_site_type_symbol
_atom_site_label
_atom_site_fract_x
_atom_site_fract_y
_atom_site_fract_z
Si Si1 0.446065 0.056686 0.323090
Si Si2 0.628693 0.247834 0.324124
Si Si3 0.118353 0.831230 0.825783
Si Si4 0.525245 0.783656 0.324643
Si Si5 0.771284 0.638222 0.174406
Si Si6 0.299512 0.009408 0.673183
Si Si7 0.328360 0.598458 0.327656
Si Si8 0.576456 0.525486 0.670195
O O1 0.447123 0.055763 0.500000
O O2 0.465676 0.135374 0.265044
O O3 0.372183 0.033810 0.264175
O O4 0.500000 0.000000 0.257896
O O5 0.639250 0.240524 0.500000
O O6 0.549678 0.243034 0.280722
O O7 0.669097 0.183296 0.249307
O O8 0.656943 0.323225 0.258185
O O9 0.082724 0.763248 0.752461
O O10 0.198279 0.827385 0.787232
O O11 0.084589 0.903143 0.764509
O O12 0.105466 0.829152 0.000000
O O13 0.536873 0.778593 0.500000
O O14 0.771638 0.557795 0.236386
O O15 0.784472 0.635576 0.000000
O O16 0.302780 0.987823 0.500000
O O17 0.249768 0.077181 0.698493
O O18 0.347747 0.604037 0.500000
O O19 0.376578 0.536916 0.258387
O O20 0.500000 0.500000 0.679657
O O21 0.598101 0.541873 0.500000
#
# Coordination Sequence:
#
# PCOD8225595 Si02
#       8
#     8   8   8   8   8   8   8   8
#     4   9  18  33  57  88 116 142 182 238 295 345
#     4  10  21  38  62  89 115 147 193 246 300 353
#     4  11  24  39  55  82 121 161 196 233 283 351
#     4  10  21  38  62  90 118 152 196 247 300 355
#     4  11  24  40  57  83 119 160 200 237 288 355
#     4  10  19  35  59  83 109 147 193 242 293 344
#     4   9  18  32  54  86 112 138 185 239 287 340
#     4  10  19  35  60  85 111 144 186 237 287 338
#
# _framework density 19.433218
#
# number of rings (size 3 to 8) (size 9 to 14) (size 15 to 20)
#    0.000    2.000    1.250    2.250    1.750    6.250 
#    0.000    1.875    0.000    1.500    0.000    0.000 
#    0.000    0.000    0.000    0.000    0.000    0.000 
#
# Total GULP energy -793765.058637 kJ/mol
# GULP energy per Si atom -12402.579041 kJ/mol
# Density = 1.938899 g / cm^3
# Si number density = 19.433218 Si / 1000 Ang^3
#
#
#
# Elastic Constant Matrix: (Units=GPa)
#
#
# Indices 1 2 3 4 5 6 
#
# 1 133.6471 57.0956 43.9904 0.0000 0.0000 0.0000
# 2 57.0956 137.5244 37.2859 0.0000 0.0000 0.0000
# 3 43.9904 37.2859 46.6177 0.0000 0.0000 0.0000
# 4 0.0000 0.0000 0.0000 4.1705 0.0000 0.0000
# 5 0.0000 0.0000 0.0000 0.0000 14.1966 0.0000
# 6 0.0000 0.0000 0.0000 0.0000 0.0000 41.3314
#
#
#
# Elastic Compliance Matrix: (Units=1/GPa)
#
#
# Indices 1 2 3 4 5 6 
#
# 1 0.011405 -0.002320 -0.008907 0.000000 0.000000 0.000000
# 2 -0.002320 0.009757 -0.005614 0.000000 0.000000 0.000000
# 3 -0.008907 -0.005614 0.034346 0.000000 0.000000 0.000000
# 4 0.000000 0.000000 0.000000 0.239782 0.000000 0.000000
# 5 0.000000 0.000000 0.000000 0.000000 0.070440 0.000000
# 6 0.000000 0.000000 0.000000 0.000000 0.000000 0.024195
#
#
# Mechanical properties :
#
#
# Convention : Reuss Voigt Hill
#
# Bulk Modulus (GPa) = 45.81709 66.05921 55.93815
# Shear Modulus (GPa) = 11.60411 23.90086 17.75248
#
# Velocity S-wave (km/s) = 2.44627 3.51079 3.02572
# Velocity P-wave (km/s) = 5.62200 7.10640 6.40733
#
# Compressibility (1/GPa) = 0.02182592
#
# Stress axis : x y z
#
# Youngs Moduli (GPa) = 87.67842 102.49163 29.11533
#
# Poissons Ratio (x) = 0.23781 0.25932
# Poissons Ratio (y) = 0.20344 0.16346
# Poissons Ratio (z) = 0.78092 0.57541
#
# Static dielectric constant tensor:
#      x y z
#    x 3.709710 0.000000 0.000000 
#    y 0.000000 3.701970 0.000000 
#    z 0.000000 0.000000 3.218340 
# 
# 
# High freq. dielectric constant tensor:
#      x y z
#    x 1.774060 0.000000 0.000000 
#    y 0.000000 1.769300 0.000000 
#    z 0.000000 0.000000 1.717620 
# 
# From -- ./inp_files/7975.got.cif
#   From: 2010.03.12/outbox.cif.g09.slc.cpg/sg55_4_cif.got.tgz:7975.got - 2010.04.16 15:19:21.
