data_PCOD8225702
_publ_section_title
;
Structure prediction by ZEFSAII (Michael W. Deem and Ramdas Pophale) SiO2 
 PCOD8225702
Probable space group: P B A M
;
_chemical_formula_sum "Si O2"
_cell_formula_units_Z 64
_cell_length_a 12.758553
_cell_length_b 27.513701
_cell_length_c 8.553215
_cell_angle_alpha 90.000000
_cell_angle_beta 90.000000
_cell_angle_gamma 90.000000
_cell_volume 3002.477934
_symmetry_space_group_name_H-M "P B A M"
_symmetry_group_IT_number 55
_symmetry_cell_setting 'orthorhombic'
loop_
_space_group_symop_operation_xyz
x,y,z
-x,-y,z
1/2+x,1/2-y,-z
1/2-x,1/2+y,-z
-x,-y,-z
x,y,-z
1/2-x,1/2+y,z
1/2+x,1/2-y,z
loop_
_atom_site_type_symbol
_atom_site_label
_atom_site_fract_x
_atom_site_fract_y
_atom_site_fract_z
Si Si1 0.370013 0.351841 0.683187
Si Si2 0.813771 0.709372 0.182754
Si Si3 0.465822 0.946373 0.685701
Si Si4 0.765414 0.049977 0.683732
Si Si5 0.765654 0.307909 0.317161
Si Si6 0.914353 0.865900 0.180861
Si Si7 0.022672 0.654197 0.184458
Si Si8 0.901892 0.965368 0.324774
O O1 0.355792 0.340222 0.500000
O O2 0.289800 0.321174 0.784387
O O3 0.348343 0.408063 0.724469
O O4 0.487464 0.338976 0.737099
O O5 0.799231 0.760261 0.269441
O O6 0.916852 0.681003 0.246411
O O7 0.825033 0.719713 0.000000
O O8 0.473966 0.944223 0.500000
O O9 0.348614 0.938185 0.753371
O O10 0.533482 0.901047 0.750531
O O11 0.500000 0.000000 0.745592
O O12 0.752909 0.045754 0.500000
O O13 0.806015 0.997723 0.743231
O O14 0.785945 0.308210 0.500000
O O15 0.693542 0.352540 0.265351
O O16 0.878736 0.313077 0.235904
O O17 0.924602 0.923491 0.201130
O O18 0.911980 0.851278 0.000000
O O19 0.020302 0.650840 0.000000
O O20 0.878799 0.944336 0.500000
O O21 0.000000 0.000000 0.338359
#
# Coordination Sequence:
#
# PCOD8225702 Si02
#       8
#     8   8   8   8   8   8   8   8
#     4  11  21  40  68  97 128 171 224 272 321 392
#     4  11  25  46  71 100 134 170 210 271 342 399
#     4  10  21  38  63  96 132 178 228 273 324 389
#     4   9  18  34  58  90 128 169 219 272 316 372
#     4  12  28  48  72  97 127 174 227 275 327 400
#     4  12  26  43  63  95 137 175 217 277 341 396
#     4  11  25  46  70 100 139 176 216 274 341 401
#     4  10  19  36  60  89 126 173 221 266 317 383
#
# _framework density 21.315728
#
# number of rings (size 3 to 8) (size 9 to 14) (size 15 to 20)
#    0.000    1.250    2.500    3.375    3.500    2.000 
#    0.000    0.625    0.000    0.000    0.000    0.000 
#    0.000    0.000    0.000    0.000    0.000    0.000 
#
# Total GULP energy -793591.724632 kJ/mol
# GULP energy per Si atom -12399.870697 kJ/mol
# Density = 2.126721 g / cm^3
# Si number density = 21.315728 Si / 1000 Ang^3
#
#
#
# Elastic Constant Matrix: (Units=GPa)
#
#
# Indices 1 2 3 4 5 6 
#
# 1 108.8737 32.9686 21.6340 0.0000 0.0000 0.0000
# 2 32.9686 99.6278 26.9925 0.0000 0.0000 0.0000
# 3 21.6340 26.9925 56.6119 0.0000 0.0000 0.0000
# 4 0.0000 0.0000 0.0000 30.6879 0.0000 0.0000
# 5 0.0000 0.0000 0.0000 0.0000 30.0125 0.0000
# 6 0.0000 0.0000 0.0000 0.0000 0.0000 35.8430
#
#
#
# Elastic Compliance Matrix: (Units=1/GPa)
#
#
# Indices 1 2 3 4 5 6 
#
# 1 0.010561 -0.002758 -0.002721 0.000000 0.000000 0.000000
# 2 -0.002758 0.012246 -0.004785 0.000000 0.000000 0.000000
# 3 -0.002721 -0.004785 0.020986 0.000000 0.000000 0.000000
# 4 0.000000 0.000000 0.000000 0.032586 0.000000 0.000000
# 5 0.000000 0.000000 0.000000 0.000000 0.033319 0.000000
# 6 0.000000 0.000000 0.000000 0.000000 0.000000 0.027899
#
#
# Mechanical properties :
#
#
# Convention : Reuss Voigt Hill
#
# Bulk Modulus (GPa) = 42.98286 47.58931 45.28608
# Shear Modulus (GPa) = 30.14227 31.54324 30.84276
#
# Velocity S-wave (km/s) = 3.76451 3.85100 3.80800
# Velocity P-wave (km/s) = 6.25332 6.49215 6.37386
#
# Compressibility (1/GPa) = 0.02326509
#
# Stress axis : x y z
#
# Youngs Moduli (GPa) = 94.69126 81.65696 47.65188
#
# Poissons Ratio (x) = 0.22517 0.12966
# Poissons Ratio (y) = 0.26111 0.22803
# Poissons Ratio (z) = 0.25765 0.39075
#
# Static dielectric constant tensor:
#      x y z
#    x 4.266740 0.000000 0.000000 
#    y 0.000000 4.394630 0.000000 
#    z 0.000000 0.000000 3.611170 
# 
# 
# High freq. dielectric constant tensor:
#      x y z
#    x 1.847860 0.000000 0.000000 
#    y 0.000000 1.841260 0.000000 
#    z 0.000000 0.000000 1.817370 
# 
# From -- ./inp_files/4689.got.cif
#   From: 2010.03.12/outbox.cif.g09.slc.cpg/sg55_3_cif.got.tgz:4689.got - 2010.04.16 15:19:21.
