data_PCOD8225948
_publ_section_title
;
Structure prediction by ZEFSAII (Michael W. Deem and Ramdas Pophale) SiO2 
 PCOD8225948
Probable space group: P B A M
;
_chemical_formula_sum "Si O2"
_cell_formula_units_Z 48
_cell_length_a 10.278538
_cell_length_b 29.517286
_cell_length_c 9.016656
_cell_angle_alpha 90.000000
_cell_angle_beta 90.000000
_cell_angle_gamma 90.000000
_cell_volume 2735.604252
_symmetry_space_group_name_H-M "P B A M"
_symmetry_group_IT_number 55
_symmetry_cell_setting 'orthorhombic'
loop_
_space_group_symop_operation_xyz
x,y,z
-x,-y,z
1/2+x,1/2-y,-z
1/2-x,1/2+y,-z
-x,-y,-z
x,y,-z
1/2-x,1/2+y,z
1/2+x,1/2-y,z
loop_
_atom_site_type_symbol
_atom_site_label
_atom_site_fract_x
_atom_site_fract_y
_atom_site_fract_z
Si Si1 0.486887 0.715600 0.824873
Si Si2 0.220590 0.286202 0.822880
Si Si3 0.766770 0.614563 0.174146
Si Si4 0.361852 0.980298 0.173878
Si Si5 0.124202 0.028729 0.324738
Si Si6 0.023930 0.113288 0.825614
O O1 0.633255 0.725113 0.765001
O O2 0.383962 0.751071 0.754300
O O3 0.439268 0.664975 0.784705
O O4 0.490114 0.721373 0.000000
O O5 0.181907 0.336910 0.765582
O O6 0.217836 0.283539 0.000000
O O7 0.861803 0.573210 0.216621
O O8 0.622171 0.603673 0.233327
O O9 0.752373 0.620444 0.000000
O O10 0.500000 0.000000 0.221072
O O11 0.254149 0.005952 0.266366
O O12 0.333476 0.987070 0.000000
O O13 0.129630 0.031095 0.500000
O O14 0.119245 0.079532 0.260572
O O15 0.000000 0.000000 0.268706
O O16 0.038645 0.104169 0.000000
#
# Coordination Sequence:
#
# PCOD8225948 Si02
#       6
#     8   8   8   8   8   8
#     4   8  14  24  40  64  93 123 152 187 237 291
#     4   8  13  23  38  61  93 123 149 184 235 287
#     4   8  14  26  45  66  96 131 155 189 243 293
#     4  10  20  34  51  74 102 131 165 203 248 299
#     4  11  22  34  51  74  97 128 169 207 247 291
#     4   9  16  29  50  72  95 126 161 199 246 290
#
# _framework density 17.546398
#
# number of rings (size 3 to 8) (size 9 to 14) (size 15 to 20)
#    0.000    3.000    1.667    2.500    0.000    1.000 
#    3.000    0.000    0.000    0.000    0.000    5.833 
#    0.000    0.000    0.000    0.000    0.000    0.000 
#
# Total GULP energy -594872.485522 kJ/mol
# GULP energy per Si atom -12393.176782 kJ/mol
# Density = 1.750646 g / cm^3
# Si number density = 17.546398 Si / 1000 Ang^3
#
#
#
# Elastic Constant Matrix: (Units=GPa)
#
#
# Indices 1 2 3 4 5 6 
#
# 1 108.1719 86.1844 28.1598 0.0000 0.0000 0.0000
# 2 86.1844 156.6379 29.8205 0.0000 0.0000 0.0000
# 3 28.1598 29.8205 26.9581 0.0000 0.0000 0.0000
# 4 0.0000 0.0000 0.0000 1.7608 0.0000 0.0000
# 5 0.0000 0.0000 0.0000 0.0000 11.5545 0.0000
# 6 0.0000 0.0000 0.0000 0.0000 0.0000 38.1334
#
#
#
# Elastic Compliance Matrix: (Units=1/GPa)
#
#
# Indices 1 2 3 4 5 6 
#
# 1 0.018429 -0.008202 -0.010177 0.000000 0.000000 0.000000
# 2 -0.008202 0.011738 -0.004416 0.000000 0.000000 0.000000
# 3 -0.010177 -0.004416 0.052611 0.000000 0.000000 0.000000
# 4 0.000000 0.000000 0.000000 0.567913 0.000000 0.000000
# 5 0.000000 0.000000 0.000000 0.000000 0.086546 0.000000
# 6 0.000000 0.000000 0.000000 0.000000 0.000000 0.026224
#
#
# Mechanical properties :
#
#
# Convention : Reuss Voigt Hill
#
# Bulk Modulus (GPa) = 26.89190 64.45527 45.67358
# Shear Modulus (GPa) = 6.08681 20.12996 13.10839
#
# Velocity S-wave (km/s) = 1.86454 3.39077 2.73622
# Velocity P-wave (km/s) = 4.47155 7.22106 6.00577
#
# Compressibility (1/GPa) = 0.03718592
#
# Stress axis : x y z
#
# Youngs Moduli (GPa) = 54.26193 85.19330 19.00751
#
# Poissons Ratio (x) = 0.69879 0.19345
# Poissons Ratio (y) = 0.44508 0.08394
# Poissons Ratio (z) = 0.55224 0.37624
#
# Static dielectric constant tensor:
#      x y z
#    x 3.346820 0.000000 0.000000 
#    y 0.000000 3.853920 0.000000 
#    z 0.000000 0.000000 2.687680 
# 
# 
# High freq. dielectric constant tensor:
#      x y z
#    x 1.664340 0.000000 0.000000 
#    y 0.000000 1.694840 0.000000 
#    z 0.000000 0.000000 1.619590 
# 
# From -- ./inp_files/2877.got.cif
#   From: 2010.03.12/outbox.cif.g09.slc.cpg/sg55_2_cif.got.tgz:2877.got - 2010.04.16 15:19:21.
