data_PCOD8225291
_publ_section_title
;
Structure prediction by ZEFSAII (Michael W. Deem and Ramdas Pophale) SiO2 
 PCOD8225291
Probable space group: P B A M
;
_chemical_formula_sum "Si O2"
_cell_formula_units_Z 40
_cell_length_a 11.859926
_cell_length_b 20.301927
_cell_length_c 9.021654
_cell_angle_alpha 90.000000
_cell_angle_beta 90.000000
_cell_angle_gamma 90.000000
_cell_volume 2172.228003
_symmetry_space_group_name_H-M "P B A M"
_symmetry_group_IT_number 55
_symmetry_cell_setting 'orthorhombic'
loop_
_space_group_symop_operation_xyz
x,y,z
-x,-y,z
1/2+x,1/2-y,-z
1/2-x,1/2+y,-z
-x,-y,-z
x,y,-z
1/2-x,1/2+y,z
1/2+x,1/2-y,z
loop_
_atom_site_type_symbol
_atom_site_label
_atom_site_fract_x
_atom_site_fract_y
_atom_site_fract_z
Si Si1 0.011867 0.863675 0.675077
Si Si2 0.358101 0.726776 0.167520
Si Si3 0.811322 0.914690 0.168202
Si Si4 0.123191 0.488880 0.826846
Si Si5 0.254857 0.359262 0.172958
O O1 0.013111 0.864134 0.500000
O O2 0.968540 0.791982 0.734703
O O3 0.926931 0.920639 0.736054
O O4 0.135414 0.878754 0.735515
O O5 0.274439 0.662875 0.169236
O O6 0.294297 0.790096 0.233140
O O7 0.398844 0.742291 0.000000
O O8 0.713643 0.959456 0.241439
O O9 0.837181 0.938239 0.000000
O O10 0.160909 0.414407 0.796386
O O11 0.000000 0.500000 0.753607
O O12 0.115365 0.504920 0.000000
O O13 0.286865 0.354819 0.000000
#
# Coordination Sequence:
#
# PCOD8225291 Si02
#       5
#     8   8   8   8   8
#     4  10  20  34  53  77 107 142 181 219 262 317
#     4   8  17  33  53  77 103 137 177 220 266 313
#     4   8  16  34  54  77 106 138 174 215 266 316
#     4   9  18  32  54  83 109 135 174 225 275 317
#     4  10  19  33  56  83 108 136 177 226 269 317
#
# _framework density 18.414273000000001
#
# number of rings (size 3 to 8) (size 9 to 14) (size 15 to 20)
#    1.200    1.800    0.000    1.200    0.000    3.200 
#    0.000   11.000    0.000    2.400    0.000    0.000 
#    0.000    0.000    0.000    0.000    0.000    0.000 
#
# Total GULP energy -495590.985163 kJ/mol
# GULP energy per Si atom -12389.774629 kJ/mol
# Density = 1.837236 g / cm^3
# Si number density = 18.414273 Si / 1000 Ang^3
#
#
#
# Elastic Constant Matrix: (Units=GPa)
#
#
# Indices 1 2 3 4 5 6 
#
# 1 109.6141 23.6707 41.2408 0.0000 0.0000 0.0000
# 2 23.6707 67.7390 14.9858 0.0000 0.0000 0.0000
# 3 41.2408 14.9858 71.5399 0.0000 0.0000 0.0000
# 4 0.0000 0.0000 0.0000 8.2335 0.0000 0.0000
# 5 0.0000 0.0000 0.0000 0.0000 8.8641 0.0000
# 6 0.0000 0.0000 0.0000 0.0000 0.0000 29.9003
#
#
#
# Elastic Compliance Matrix: (Units=1/GPa)
#
#
# Indices 1 2 3 4 5 6 
#
# 1 0.012144 -0.002826 -0.006409 0.000000 0.000000 0.000000
# 2 -0.002826 0.016137 -0.001751 0.000000 0.000000 0.000000
# 3 -0.006409 -0.001751 0.018040 0.000000 0.000000 0.000000
# 4 0.000000 0.000000 0.000000 0.121456 0.000000 0.000000
# 5 0.000000 0.000000 0.000000 0.000000 0.112815 0.000000
# 6 0.000000 0.000000 0.000000 0.000000 0.000000 0.033445
#
#
# Mechanical properties :
#
#
# Convention : Reuss Voigt Hill
#
# Bulk Modulus (GPa) = 41.06918 45.40972 43.23945
# Shear Modulus (GPa) = 14.52958 20.66594 17.59776
#
# Velocity S-wave (km/s) = 2.81203 3.35368 3.09473
# Velocity P-wave (km/s) = 5.73539 6.30157 6.02513
#
# Compressibility (1/GPa) = 0.02434916
#
# Stress axis : x y z
#
# Youngs Moduli (GPa) = 82.34213 61.96757 55.43336
#
# Poissons Ratio (x) = 0.17511 0.35527
# Poissons Ratio (y) = 0.23269 0.09708
# Poissons Ratio (z) = 0.52773 0.10853
#
# Static dielectric constant tensor:
#      x y z
#    x 3.338700 0.000000 0.000000 
#    y 0.000000 3.370540 0.000000 
#    z 0.000000 0.000000 2.974460 
# 
# 
# High freq. dielectric constant tensor:
#      x y z
#    x 1.702830 0.000000 0.000000 
#    y 0.000000 1.709350 0.000000 
#    z 0.000000 0.000000 1.673940 
# 
# From -- ./inp_files/3838.got.cif
#   From: 2010.03.12/outbox.cif.g09.slc.cpg/sg55_2_cif.got.tgz:3838.got - 2010.04.16 15:19:21.
