data_PCOD8225503
_publ_section_title
;
Structure prediction by ZEFSAII (Michael W. Deem and Ramdas Pophale) SiO2 
 PCOD8225503
Probable space group: P B A M
;
_chemical_formula_sum "Si O2"
_cell_formula_units_Z 64
_cell_length_a 19.062050
_cell_length_b 20.300341
_cell_length_c 9.100598
_cell_angle_alpha 90.000000
_cell_angle_beta 90.000000
_cell_angle_gamma 90.000000
_cell_volume 3521.623054
_symmetry_space_group_name_H-M "P B A M"
_symmetry_group_IT_number 55
_symmetry_cell_setting 'orthorhombic'
loop_
_space_group_symop_operation_xyz
x,y,z
-x,-y,z
1/2+x,1/2-y,-z
1/2-x,1/2+y,-z
-x,-y,-z
x,y,-z
1/2-x,1/2+y,z
1/2+x,1/2-y,z
loop_
_atom_site_type_symbol
_atom_site_label
_atom_site_fract_x
_atom_site_fract_y
_atom_site_fract_z
Si Si1 0.029720 0.812601 0.827092
Si Si2 0.681745 0.132920 0.670431
Si Si3 0.332070 0.510590 0.168232
Si Si4 0.320475 0.359872 0.170598
Si Si5 0.967263 0.687148 0.670600
Si Si6 0.457683 0.565882 0.328870
Si Si7 0.037029 0.569488 0.833010
Si Si8 0.324748 0.002235 0.832180
O O1 0.113061 0.813966 0.791122
O O2 0.996954 0.746527 0.765144
O O3 0.992599 0.874566 0.755516
O O4 0.016979 0.816132 0.000000
O O5 0.697107 0.124117 0.500000
O O6 0.751412 0.164429 0.743105
O O7 0.616104 0.181267 0.699047
O O8 0.662658 0.061543 0.733366
O O9 0.339517 0.434471 0.216476
O O10 0.378545 0.556392 0.272518
O O11 0.251930 0.533448 0.191749
O O12 0.356484 0.519696 0.000000
O O13 0.301000 0.357492 0.000000
O O14 0.983189 0.699640 0.500000
O O15 0.006041 0.620778 0.718605
O O16 0.500000 0.500000 0.292485
O O17 0.456513 0.582737 0.500000
O O18 0.119269 0.559204 0.795868
O O19 0.000000 0.500000 0.810748
O O20 0.026663 0.595268 0.000000
O O21 0.333783 0.977871 0.000000
#
# Coordination Sequence:
#
# PCOD8225503 Si02
#       8
#     8   8   8   8   8   8   8   8
#     4  11  23  40  61  83 110 149 193 235 280 332
#     4  10  20  33  54  82 113 148 183 224 279 339
#     4   9  17  32  54  81 113 145 185 233 278 327
#     4   9  19  35  57  83 109 141 186 234 276 328
#     4  11  24  39  55  83 120 152 187 232 283 339
#     4  11  22  35  55  84 116 146 180 226 281 336
#     4  10  19  34  59  85 111 146 190 234 277 327
#     4   9  18  33  54  83 114 145 187 237 279 323
#
# _framework density 18.173438000000001
#
# number of rings (size 3 to 8) (size 9 to 14) (size 15 to 20)
#    0.000    2.000    2.500    2.250    0.000    5.750 
#    0.000    1.250    0.000    1.500    0.000    0.000 
#    0.000    0.000    0.000    0.000    0.000    0.000 
#
# Total GULP energy -793687.543902 kJ/mol
# GULP energy per Si atom -12401.367873 kJ/mol
# Density = 1.813207 g / cm^3
# Si number density = 18.173438 Si / 1000 Ang^3
#
#
#
# Elastic Constant Matrix: (Units=GPa)
#
#
# Indices 1 2 3 4 5 6 
#
# 1 131.6426 48.8461 63.5353 0.0000 0.0000 0.0000
# 2 48.8461 70.3237 45.4978 0.0000 0.0000 0.0000
# 3 63.5353 45.4978 81.5877 0.0000 0.0000 0.0000
# 4 0.0000 0.0000 0.0000 27.2551 0.0000 0.0000
# 5 0.0000 0.0000 0.0000 0.0000 29.6735 0.0000
# 6 0.0000 0.0000 0.0000 0.0000 0.0000 24.9997
#
#
#
# Elastic Compliance Matrix: (Units=1/GPa)
#
#
# Indices 1 2 3 4 5 6 
#
# 1 0.012794 -0.003818 -0.007834 0.000000 0.000000 0.000000
# 2 -0.003818 0.023386 -0.010068 0.000000 0.000000 0.000000
# 3 -0.007834 -0.010068 0.023972 0.000000 0.000000 0.000000
# 4 0.000000 0.000000 0.000000 0.036690 0.000000 0.000000
# 5 0.000000 0.000000 0.000000 0.000000 0.033700 0.000000
# 6 0.000000 0.000000 0.000000 0.000000 0.000000 0.040001
#
#
# Mechanical properties :
#
#
# Convention : Reuss Voigt Hill
#
# Bulk Modulus (GPa) = 59.83888 66.59026 63.21457
# Shear Modulus (GPa) = 22.77359 24.76397 23.76878
#
# Velocity S-wave (km/s) = 3.54379 3.69541 3.62039
# Velocity P-wave (km/s) = 7.05285 7.41142 7.23436
#
# Compressibility (1/GPa) = 0.01671154
#
# Stress axis : x y z
#
# Youngs Moduli (GPa) = 78.16178 42.76120 41.71597
#
# Poissons Ratio (x) = 0.16327 0.32680
# Poissons Ratio (y) = 0.29844 0.41999
# Poissons Ratio (z) = 0.61231 0.43051
#
# Static dielectric constant tensor:
#      x y z
#    x 3.683860 0.000000 0.000000 
#    y 0.000000 1.915770 0.000000 
#    z 0.000000 0.000000 3.376910 
# 
# 
# High freq. dielectric constant tensor:
#      x y z
#    x 1.721950 0.000000 0.000000 
#    y 0.000000 1.671160 0.000000 
#    z 0.000000 0.000000 1.709120 
# 
# From -- ./inp_files/9002.got.cif
#   From: 2010.03.12/outbox.cif.g09.slc.cpg/sg55_5_cif.got.tgz:9002.got - 2010.04.16 15:19:21.
