data_PCOD8225020
_publ_section_title
;
Structure prediction by ZEFSAII (Michael W. Deem and Ramdas Pophale) SiO2 
 PCOD8225020
Probable space group: P B A M
;
_chemical_formula_sum "Si O2"
_cell_formula_units_Z 64
_cell_length_a 18.696004
_cell_length_b 19.915313
_cell_length_c 8.891013
_cell_angle_alpha 90.000000
_cell_angle_beta 90.000000
_cell_angle_gamma 90.000000
_cell_volume 3310.451076
_symmetry_space_group_name_H-M "P B A M"
_symmetry_group_IT_number 55
_symmetry_cell_setting 'orthorhombic'
loop_
_space_group_symop_operation_xyz
x,y,z
-x,-y,z
1/2+x,1/2-y,-z
1/2-x,1/2+y,-z
-x,-y,-z
x,y,-z
1/2-x,1/2+y,z
1/2+x,1/2-y,z
loop_
_atom_site_type_symbol
_atom_site_label
_atom_site_fract_x
_atom_site_fract_y
_atom_site_fract_z
Si Si1 0.243257 0.623041 0.178614
Si Si2 0.407743 0.172129 0.177765
Si Si3 0.943758 0.054040 0.821034
Si Si4 0.825643 0.625431 0.676581
Si Si5 0.018220 0.423974 0.673250
Si Si6 0.487354 0.301100 0.178884
Si Si7 0.354647 0.734536 0.178540
Si Si8 0.283591 0.475653 0.821261
O O1 0.168459 0.650253 0.247247
O O2 0.306638 0.671830 0.231317
O O3 0.257374 0.548031 0.239227
O O4 0.239932 0.621400 0.000000
O O5 0.469078 0.121029 0.222962
O O6 0.429223 0.246496 0.234913
O O7 0.402387 0.172018 0.000000
O O8 0.864941 0.033914 0.767148
O O9 0.964621 0.126932 0.754659
O O10 0.947637 0.055555 0.000000
O O11 0.000000 0.000000 0.756728
O O12 0.813290 0.630432 0.500000
O O13 0.899914 0.589197 0.716678
O O14 0.823155 0.699351 0.745571
O O15 0.762553 0.582739 0.748531
O O16 0.002885 0.406447 0.500000
O O17 0.000000 0.500000 0.711453
O O18 0.565484 0.279717 0.238509
O O19 0.490040 0.304426 0.000000
O O20 0.352464 0.744384 0.000000
O O21 0.276956 0.470461 0.000000
#
# Coordination Sequence:
#
# PCOD8225020 Si02
#       8
#     8   8   8   8   8   8   8   8
#     4   9  19  33  54  83 111 137 177 229 273 322
#     4  10  19  32  51  79 109 136 173 222 268 315
#     4   9  17  30  53  83 113 141 178 227 274 323
#     4  11  23  37  53  78 111 144 182 225 269 322
#     4  10  21  37  55  74 102 141 180 217 262 317
#     4   9  17  29  49  78 106 137 177 221 267 314
#     4  10  19  35  58  79 107 145 183 223 274 327
#     4  10  20  35  57  84 111 145 184 223 276 332
#
# _framework density 19.332712999999998
#
# number of rings (size 3 to 8) (size 9 to 14) (size 15 to 20)
#    0.000    2.250    1.250    1.875    1.750    3.750 
#    0.000    1.250    0.000    1.125    0.000    0.000 
#    0.000    0.000    0.000    0.000    0.000    0.000 
#
# Total GULP energy -793677.474904 kJ/mol
# GULP energy per Si atom -12401.210545 kJ/mol
# Density = 1.928871 g / cm^3
# Si number density = 19.332713 Si / 1000 Ang^3
#
#
#
# Elastic Constant Matrix: (Units=GPa)
#
#
# Indices 1 2 3 4 5 6 
#
# 1 164.8523 94.3724 26.6342 0.0000 0.0000 0.0000
# 2 94.3724 177.2346 21.1960 0.0000 0.0000 0.0000
# 3 26.6342 21.1960 18.6000 0.0000 0.0000 0.0000
# 4 0.0000 0.0000 0.0000 4.2425 0.0000 0.0000
# 5 0.0000 0.0000 0.0000 0.0000 10.1501 0.0000
# 6 0.0000 0.0000 0.0000 0.0000 0.0000 44.0094
#
#
#
# Elastic Compliance Matrix: (Units=1/GPa)
#
#
# Indices 1 2 3 4 5 6 
#
# 1 0.010006 -0.004185 -0.009559 0.000000 0.000000 0.000000
# 2 -0.004185 0.008283 -0.003446 0.000000 0.000000 0.000000
# 3 -0.009559 -0.003446 0.071380 0.000000 0.000000 0.000000
# 4 0.000000 0.000000 0.000000 0.235712 0.000000 0.000000
# 5 0.000000 0.000000 0.000000 0.000000 0.098521 0.000000
# 6 0.000000 0.000000 0.000000 0.000000 0.000000 0.022722
#
#
# Mechanical properties :
#
#
# Convention : Reuss Voigt Hill
#
# Bulk Modulus (GPa) = 18.08735 71.67692 44.88214
# Shear Modulus (GPa) = 10.01133 26.24602 18.12867
#
# Velocity S-wave (km/s) = 2.27809 3.68855 3.06554
# Velocity P-wave (km/s) = 4.03680 7.43616 5.98299
#
# Compressibility (1/GPa) = 0.05528724
#
# Stress axis : x y z
#
# Youngs Moduli (GPa) = 99.93888 120.73427 14.00961
#
# Poissons Ratio (x) = 0.50524 0.13392
# Poissons Ratio (y) = 0.41822 0.04828
# Poissons Ratio (z) = 0.95536 0.41609
#
# Static dielectric constant tensor:
#      x y z
#    x 3.765490 0.000000 0.000000 
#    y 0.000000 3.712760 0.000000 
#    z 0.000000 0.000000 3.017140 
# 
# 
# High freq. dielectric constant tensor:
#      x y z
#    x 1.767250 0.000000 0.000000 
#    y 0.000000 1.771370 0.000000 
#    z 0.000000 0.000000 1.699310 
# 
# From -- ./inp_files/8045.got.cif
#   From: 2010.03.12/outbox.cif.g09.slc.cpg/sg55_5_cif.got.tgz:8045.got - 2010.04.16 15:19:21.
