data_PCOD8225720
_publ_section_title
;
Structure prediction by ZEFSAII (Michael W. Deem and Ramdas Pophale) SiO2 
 PCOD8225720
Probable space group: P B A M
;
_chemical_formula_sum "Si O2"
_cell_formula_units_Z 64
_cell_length_a 15.335887
_cell_length_b 23.660175
_cell_length_c 9.016064
_cell_angle_alpha 90.000000
_cell_angle_beta 90.000000
_cell_angle_gamma 90.000000
_cell_volume 3271.476751
_symmetry_space_group_name_H-M "P B A M"
_symmetry_group_IT_number 55
_symmetry_cell_setting 'orthorhombic'
loop_
_space_group_symop_operation_xyz
x,y,z
-x,-y,z
1/2+x,1/2-y,-z
1/2-x,1/2+y,-z
-x,-y,-z
x,y,-z
1/2-x,1/2+y,z
1/2+x,1/2-y,z
loop_
_atom_site_type_symbol
_atom_site_label
_atom_site_fract_x
_atom_site_fract_y
_atom_site_fract_z
Si Si1 0.403347 0.003220 0.174664
Si Si2 0.837209 0.882749 0.326757
Si Si3 0.338756 0.122439 0.176225
Si Si4 0.996993 0.316309 0.672562
Si Si5 0.099023 0.993941 0.673003
Si Si6 0.149763 0.380888 0.828997
Si Si7 0.653624 0.618117 0.171463
Si Si8 0.005879 0.815144 0.328147
O O1 0.351529 0.946828 0.218564
O O2 0.500000 0.000000 0.244634
O O3 0.355425 0.058818 0.236781
O O4 0.410871 0.010586 0.000000
O O5 0.822336 0.871780 0.500000
O O6 0.754504 0.858192 0.238887
O O7 0.921781 0.849003 0.269631
O O8 0.849412 0.948779 0.290987
O O9 0.413680 0.163090 0.236669
O O10 0.337907 0.126773 0.000000
O O11 0.982767 0.329604 0.500000
O O12 0.085207 0.345908 0.726206
O O13 0.009070 0.250330 0.702945
O O14 0.099913 0.979178 0.500000
O O15 0.145358 0.943572 0.758396
O O16 0.000000 0.000000 0.728975
O O17 0.247961 0.359169 0.805232
O O18 0.119484 0.374626 0.000000
O O19 0.591136 0.664319 0.242920
O O20 0.630661 0.612185 0.000000
O O21 0.021168 0.828751 0.500000
#
# Coordination Sequence:
#
# PCOD8225720 Si02
#       8
#     8   8   8   8   8   8   8   8
#     4   9  16  32  59  84 112 155 188 217 282 358
#     4  10  21  39  62  87 117 155 201 244 288 347
#     4  11  22  38  62  89 121 155 190 240 303 359
#     4  11  24  41  62  86 112 152 205 251 291 349
#     4  10  19  36  62  88 121 162 197 238 295 352
#     4  10  21  39  60  86 121 155 189 238 296 353
#     4  11  23  37  60  93 125 154 194 245 296 355
#     4  10  23  44  63  80 114 160 202 246 296 349
#
# _framework density 19.563032
#
# number of rings (size 3 to 8) (size 9 to 14) (size 15 to 20)
#    0.000    1.750    2.500    1.875    0.000    5.250 
#    0.000    5.625    0.000    0.000    0.000    0.000 
#    0.000    0.000    0.000    0.000    0.000    0.000 
#
# Total GULP energy -793808.386553 kJ/mol
# GULP energy per Si atom -12403.256040 kJ/mol
# Density = 1.951851 g / cm^3
# Si number density = 19.563032 Si / 1000 Ang^3
#
#
#
# Elastic Constant Matrix: (Units=GPa)
#
#
# Indices 1 2 3 4 5 6 
#
# 1 118.8663 26.4420 44.0153 0.0000 0.0000 0.0000
# 2 26.4420 76.1050 35.8436 0.0000 0.0000 0.0000
# 3 44.0153 35.8436 70.0039 0.0000 0.0000 0.0000
# 4 0.0000 0.0000 0.0000 24.7702 0.0000 0.0000
# 5 0.0000 0.0000 0.0000 0.0000 35.2945 0.0000
# 6 0.0000 0.0000 0.0000 0.0000 0.0000 10.7875
#
#
#
# Elastic Compliance Matrix: (Units=1/GPa)
#
#
# Indices 1 2 3 4 5 6 
#
# 1 0.010998 -0.000744 -0.006534 0.000000 0.000000 0.000000
# 2 -0.000744 0.017366 -0.008424 0.000000 0.000000 0.000000
# 3 -0.006534 -0.008424 0.022707 0.000000 0.000000 0.000000
# 4 0.000000 0.000000 0.000000 0.040371 0.000000 0.000000
# 5 0.000000 0.000000 0.000000 0.000000 0.028333 0.000000
# 6 0.000000 0.000000 0.000000 0.000000 0.000000 0.092700
#
#
# Mechanical properties :
#
#
# Convention : Reuss Voigt Hill
#
# Bulk Modulus (GPa) = 50.84826 53.06412 51.95619
# Shear Modulus (GPa) = 19.96539 24.74871 22.35705
#
# Velocity S-wave (km/s) = 3.19810 3.56065 3.38423
# Velocity P-wave (km/s) = 6.29965 6.63987 6.47199
#
# Compressibility (1/GPa) = 0.01966635
#
# Stress axis : x y z
#
# Youngs Moduli (GPa) = 90.92738 57.58497 44.04007
#
# Poissons Ratio (x) = 0.04282 0.28776
# Poissons Ratio (y) = 0.06762 0.37099
# Poissons Ratio (z) = 0.59413 0.48510
#
# Static dielectric constant tensor:
#      x y z
#    x 3.651900 0.000000 0.000000 
#    y 0.000000 3.566880 0.000000 
#    z 0.000000 0.000000 3.428700 
# 
# 
# High freq. dielectric constant tensor:
#      x y z
#    x 1.775800 0.000000 0.000000 
#    y 0.000000 1.761030 0.000000 
#    z 0.000000 0.000000 1.747930 
# 
# From -- ./inp_files/6535.got.cif
#   From: 2010.03.12/outbox.cif.g09.slc.cpg/sg55_4_cif.got.tgz:6535.got - 2010.04.16 15:19:21.
