data_PCOD8225321
_publ_section_title
;
Structure prediction by ZEFSAII (Michael W. Deem and Ramdas Pophale) SiO2 
 PCOD8225321
Probable space group: P B A M
;
_chemical_formula_sum "Si O2"
_cell_formula_units_Z 56
_cell_length_a 21.659059
_cell_length_b 14.500742
_cell_length_c 8.945596
_cell_angle_alpha 90.000000
_cell_angle_beta 90.000000
_cell_angle_gamma 90.000000
_cell_volume 2809.565042
_symmetry_space_group_name_H-M "P B A M"
_symmetry_group_IT_number 55
_symmetry_cell_setting 'orthorhombic'
loop_
_space_group_symop_operation_xyz
x,y,z
-x,-y,z
1/2+x,1/2-y,-z
1/2-x,1/2+y,-z
-x,-y,-z
x,y,-z
1/2-x,1/2+y,z
1/2+x,1/2-y,z
loop_
_atom_site_type_symbol
_atom_site_label
_atom_site_fract_x
_atom_site_fract_y
_atom_site_fract_z
Si Si1 0.579584 0.593058 0.322761
Si Si2 0.299858 0.921449 0.322410
Si Si3 0.809272 0.189003 0.826089
Si Si4 0.059308 0.107305 0.675557
Si Si5 0.475216 0.101541 0.827710
Si Si6 0.664592 0.895774 0.173833
Si Si7 0.914649 0.695384 0.323808
O O1 0.588842 0.609473 0.500000
O O2 0.623439 0.659844 0.229785
O O3 0.594286 0.486293 0.275786
O O4 0.510669 0.613988 0.263918
O O5 0.298928 0.923612 0.500000
O O6 0.240822 0.865908 0.268022
O O7 0.360689 0.869363 0.258138
O O8 0.298146 0.025690 0.262275
O O9 0.801625 0.298468 0.798200
O O10 0.801997 0.165186 0.000000
O O11 0.050923 0.102426 0.500000
O O12 0.098112 0.197959 0.723787
O O13 0.405647 0.109052 0.765794
O O14 0.518154 0.170454 0.736615
O O15 0.500000 0.000000 0.799824
O O16 0.478052 0.130530 0.000000
O O17 0.663977 0.922809 0.000000
O O18 0.916364 0.684417 0.500000
#
# Coordination Sequence:
#
# PCOD8225321 Si02
#       7
#     8   8   8   8   8   8   8
#     4   9  17  34  59  84 112 149 190 229 279 339
#     4  11  24  39  57  82 112 149 195 242 284 336
#     4  11  24  40  59  82 114 153 194 239 288 345
#     4   8  16  32  56  85 116 147 180 229 287 338
#     4  10  19  33  57  85 116 152 185 228 287 346
#     4  10  22  41  61  84 116 153 191 235 291 350
#     4  10  20  34  54  83 115 145 185 236 286 338
#
# _framework density 19.931912000000001
#
# number of rings (size 3 to 8) (size 9 to 14) (size 15 to 20)
#    0.000    2.143    1.429    2.571    0.000    3.714 
#    0.000    3.571    0.000    0.000    0.000    0.000 
#    0.000    0.000    0.000    0.000    0.000    0.000 
#
# Total GULP energy -694331.235245 kJ/mol
# GULP energy per Si atom -12398.772058 kJ/mol
# Density = 1.988655 g / cm^3
# Si number density = 19.931912 Si / 1000 Ang^3
#
#
#
# Elastic Constant Matrix: (Units=GPa)
#
#
# Indices 1 2 3 4 5 6 
#
# 1 65.9480 35.4019 21.8088 0.0000 0.0000 0.0000
# 2 35.4019 120.1863 40.4944 0.0000 0.0000 0.0000
# 3 21.8088 40.4944 46.5340 0.0000 0.0000 0.0000
# 4 0.0000 0.0000 0.0000 24.3385 0.0000 0.0000
# 5 0.0000 0.0000 0.0000 0.0000 27.4501 0.0000
# 6 0.0000 0.0000 0.0000 0.0000 0.0000 31.3913
#
#
#
# Elastic Compliance Matrix: (Units=1/GPa)
#
#
# Indices 1 2 3 4 5 6 
#
# 1 0.019029 -0.003679 -0.005717 0.000000 0.000000 0.000000
# 2 -0.003679 0.012483 -0.009139 0.000000 0.000000 0.000000
# 3 -0.005717 -0.009139 0.032122 0.000000 0.000000 0.000000
# 4 0.000000 0.000000 0.000000 0.041087 0.000000 0.000000
# 5 0.000000 0.000000 0.000000 0.000000 0.036430 0.000000
# 6 0.000000 0.000000 0.000000 0.000000 0.000000 0.031856
#
#
# Mechanical properties :
#
#
# Convention : Reuss Voigt Hill
#
# Bulk Modulus (GPa) = 37.64389 47.56427 42.60408
# Shear Modulus (GPa) = 22.83830 25.63353 24.23592
#
# Velocity S-wave (km/s) = 3.38866 3.59005 3.49081
# Velocity P-wave (km/s) = 5.85132 6.41091 6.13750
#
# Compressibility (1/GPa) = 0.02656474
#
# Stress axis : x y z
#
# Youngs Moduli (GPa) = 52.55161 80.10727 31.13172
#
# Poissons Ratio (x) = 0.29472 0.17797
# Poissons Ratio (y) = 0.19334 0.28451
# Poissons Ratio (z) = 0.30042 0.73209
#
# Static dielectric constant tensor:
#      x y z
#    x 3.557390 0.000000 0.000000 
#    y 0.000000 4.132440 0.000000 
#    z 0.000000 0.000000 3.346640 
# 
# 
# High freq. dielectric constant tensor:
#      x y z
#    x 1.767220 0.000000 0.000000 
#    y 0.000000 1.796110 0.000000 
#    z 0.000000 0.000000 1.754410 
# 
# From -- ./inp_files/8799.got.cif
#   From: 2010.03.12/outbox.cif.g09.slc.cpg/sg55_5_cif.got.tgz:8799.got - 2010.04.16 15:19:21.
