data_PCOD8225533
_publ_section_title
;
Structure prediction by ZEFSAII (Michael W. Deem and Ramdas Pophale) SiO2 
 PCOD8225533
Probable space group: P B A M
;
_chemical_formula_sum "Si O2"
_cell_formula_units_Z 64
_cell_length_a 27.668740
_cell_length_b 9.902755
_cell_length_c 13.503923
_cell_angle_alpha 90.000000
_cell_angle_beta 90.000000
_cell_angle_gamma 90.000000
_cell_volume 3700.031060
_symmetry_space_group_name_H-M "P B A M"
_symmetry_group_IT_number 55
_symmetry_cell_setting 'orthorhombic'
loop_
_space_group_symop_operation_xyz
x,y,z
-x,-y,z
1/2+x,1/2-y,-z
1/2-x,1/2+y,-z
-x,-y,-z
x,y,-z
1/2-x,1/2+y,z
1/2+x,1/2-y,z
loop_
_atom_site_type_symbol
_atom_site_label
_atom_site_fract_x
_atom_site_fract_y
_atom_site_fract_z
Si Si1 0.199771 0.441342 0.882622
Si Si2 0.985003 0.847814 0.610531
Si Si3 0.598321 0.984430 0.199892
Si Si4 0.046908 0.243330 0.805865
Si Si5 0.453942 0.091651 0.610913
Si Si6 0.558981 0.724283 0.885788
Si Si7 0.784804 0.863928 0.116716
Si Si8 0.615701 0.471313 0.113924
O O1 0.152702 0.466834 0.816591
O O2 0.238419 0.552623 0.846904
O O3 0.220253 0.293395 0.854593
O O4 0.188085 0.451668 0.000000
O O5 0.962259 0.838709 0.500000
O O6 0.944933 0.799530 0.690632
O O7 0.031493 0.749070 0.617072
O O8 0.000000 0.000000 0.635592
O O9 0.589885 0.936700 0.313297
O O10 0.587190 0.864375 0.124043
O O11 0.561685 0.104063 0.173403
O O12 0.077960 0.150290 0.877626
O O13 0.990306 0.225885 0.825106
O O14 0.436470 0.054044 0.500000
O O15 0.500000 0.000000 0.640893
O O16 0.592955 0.606907 0.839236
O O17 0.546878 0.695414 0.000000
O O18 0.833431 0.929025 0.164821
O O19 0.789119 0.877448 0.000000
O O20 0.625700 0.501710 0.000000
#
# Coordination Sequence:
#
# PCOD8225533 Si02
#       8
#     8   8   8   8   8   8   8   8
#     4  10  21  36  55  77 104 135 179 230 274 319
#     4  10  20  34  53  76 104 141 183 225 262 302
#     4  12  22  34  51  80 107 141 179 219 268 319
#     4  12  21  34  51  74 109 145 182 213 263 318
#     4  10  19  35  54  75 107 143 179 218 260 316
#     4  11  23  33  47  73 109 149 181 212 255 319
#     4   9  19  36  55  74  99 135 175 226 275 310
#     4  10  21  36  52  72 103 143 183 220 265 318
#
# _framework density 17.297153000000002
#
# number of rings (size 3 to 8) (size 9 to 14) (size 15 to 20)
#    0.000    1.500    3.750    2.250    1.750    3.000 
#    0.000    0.000    0.000    0.000    0.000    1.750 
#    0.000    0.000    0.000    0.000    0.000    0.000 
#
# Total GULP energy -793522.990512 kJ/mol
# GULP energy per Si atom -12398.796727 kJ/mol
# Density = 1.725778 g / cm^3
# Si number density = 17.297153 Si / 1000 Ang^3
#
#
#
# Elastic Constant Matrix: (Units=GPa)
#
#
# Indices 1 2 3 4 5 6 
#
# 1 92.8117 42.8415 30.7949 0.0000 0.0000 0.0000
# 2 42.8415 124.3882 30.8733 0.0000 0.0000 0.0000
# 3 30.7949 30.8733 45.1301 0.0000 0.0000 0.0000
# 4 0.0000 0.0000 0.0000 18.7470 0.0000 0.0000
# 5 0.0000 0.0000 0.0000 0.0000 16.0294 0.0000
# 6 0.0000 0.0000 0.0000 0.0000 0.0000 32.6400
#
#
#
# Elastic Compliance Matrix: (Units=1/GPa)
#
#
# Indices 1 2 3 4 5 6 
#
# 1 0.014879 -0.003137 -0.008007 0.000000 0.000000 0.000000
# 2 -0.003137 0.010345 -0.004936 0.000000 0.000000 0.000000
# 3 -0.008007 -0.004936 0.030998 0.000000 0.000000 0.000000
# 4 0.000000 0.000000 0.000000 0.053342 0.000000 0.000000
# 5 0.000000 0.000000 0.000000 0.000000 0.062385 0.000000
# 6 0.000000 0.000000 0.000000 0.000000 0.000000 0.030637
#
#
# Mechanical properties :
#
#
# Convention : Reuss Voigt Hill
#
# Bulk Modulus (GPa) = 41.55900 52.37216 46.96558
# Shear Modulus (GPa) = 20.59572 24.00464 22.30018
#
# Velocity S-wave (km/s) = 3.45440 3.72933 3.59449
# Velocity P-wave (km/s) = 6.32370 6.99196 6.66621
#
# Compressibility (1/GPa) = 0.02406218
#
# Stress axis : x y z
#
# Youngs Moduli (GPa) = 67.20707 96.66412 32.25966
#
# Poissons Ratio (x) = 0.30328 0.25830
# Poissons Ratio (y) = 0.21086 0.15924
# Poissons Ratio (z) = 0.53811 0.47715
#
# Static dielectric constant tensor:
#      x y z
#    x 3.140200 0.000000 0.000000 
#    y 0.000000 3.546160 0.000000 
#    z 0.000000 0.000000 3.194380 
# 
# 
# High freq. dielectric constant tensor:
#      x y z
#    x 1.639040 0.000000 0.000000 
#    y 0.000000 1.695020 0.000000 
#    z 0.000000 0.000000 1.640860 
# 
# From -- ./inp_files/19956.got.cif
#   From: 2010.03.12/outbox.cif.g09.slc.cpg/sg55_10_cif.got.tgz:19956.got - 2010.04.16 15:19:21.
