data_PCOD8225633
_publ_section_title
;
Structure prediction by ZEFSAII (Michael W. Deem and Ramdas Pophale) SiO2 
 PCOD8225633
Probable space group: P B A M
;
_chemical_formula_sum "Si O2"
_cell_formula_units_Z 64
_cell_length_a 18.376646
_cell_length_b 8.591784
_cell_length_c 20.166563
_cell_angle_alpha 90.000000
_cell_angle_beta 90.000000
_cell_angle_gamma 90.000000
_cell_volume 3184.061789
_symmetry_space_group_name_H-M "P B A M"
_symmetry_group_IT_number 55
_symmetry_cell_setting 'orthorhombic'
loop_
_space_group_symop_operation_xyz
x,y,z
-x,-y,z
1/2+x,1/2-y,-z
1/2-x,1/2+y,-z
-x,-y,-z
x,y,-z
1/2-x,1/2+y,z
1/2+x,1/2-y,z
loop_
_atom_site_type_symbol
_atom_site_label
_atom_site_fract_x
_atom_site_fract_y
_atom_site_fract_z
Si Si1 0.925401 0.093735 0.426138
Si Si2 0.149782 0.390421 0.926699
Si Si3 0.802592 0.999816 0.672390
Si Si4 0.779238 0.908978 0.877461
Si Si5 0.658865 0.153700 0.322176
Si Si6 0.917639 0.486534 0.798902
Si Si7 0.174056 0.803435 0.199183
Si Si8 0.470174 0.834456 0.573466
O O1 0.894025 0.111931 0.500000
O O2 0.861152 0.019306 0.384992
O O3 0.956014 0.255783 0.397082
O O4 0.000000 0.000000 0.423544
O O5 0.173834 0.209875 0.921044
O O6 0.217089 0.509691 0.921308
O O7 0.090829 0.430640 0.870367
O O8 0.115389 0.411472 0.000000
O O9 0.721056 0.040531 0.646938
O O10 0.818433 0.126511 0.728374
O O11 0.807669 0.821992 0.696539
O O12 0.742131 0.809869 0.817831
O O13 0.830506 0.048342 0.850229
O O14 0.596234 0.175415 0.376134
O O15 0.632552 0.075620 0.253902
O O16 0.898103 0.303124 0.804179
O O17 0.000000 0.500000 0.774755
O O18 0.447676 0.763408 0.500000
O O19 0.500000 0.000000 0.559932
#
# Coordination Sequence:
#
# PCOD8225633 Si02
#       8
#     8   8   8   8   8   8   8   8
#     4  10  22  43  63  86 121 163 205 248 302 367
#     4  10  19  35  61  90 122 159 202 248 303 368
#     4  12  24  37  63  92 118 160 197 258 311 363
#     4   9  18  36  59  90 122 155 192 251 306 363
#     4  12  25  40  61  91 124 154 206 254 312 368
#     4  11  25  41  60  85 121 165 204 258 310 371
#     4  10  20  36  59  84 121 151 196 248 307 356
#     4  10  23  43  65  87 120 163 205 250 299 365
#
# _framework density 20.100113
#
# number of rings (size 3 to 8) (size 9 to 14) (size 15 to 20)
#    0.000    1.500    1.250    5.250    5.250    0.750 
#    0.000    2.500    0.000    0.750    0.000    0.000 
#    0.000    0.000    0.000    0.000    0.000    0.000 
#
# Total GULP energy -793054.347482 kJ/mol
# GULP energy per Si atom -12391.474179 kJ/mol
# Density = 2.005436 g / cm^3
# Si number density = 20.100113 Si / 1000 Ang^3
#
#
#
# Elastic Constant Matrix: (Units=GPa)
#
#
# Indices 1 2 3 4 5 6 
#
# 1 87.8386 36.5964 35.1721 0.0000 0.0000 0.0000
# 2 36.5964 133.0951 30.9632 0.0000 0.0000 0.0000
# 3 35.1721 30.9632 104.3225 0.0000 0.0000 0.0000
# 4 0.0000 0.0000 0.0000 17.4122 0.0000 0.0000
# 5 0.0000 0.0000 0.0000 0.0000 19.0167 0.0000
# 6 0.0000 0.0000 0.0000 0.0000 0.0000 26.0055
#
#
#
# Elastic Compliance Matrix: (Units=1/GPa)
#
#
# Indices 1 2 3 4 5 6 
#
# 1 0.014193 -0.002996 -0.003896 0.000000 0.000000 0.000000
# 2 -0.002996 0.008703 -0.001573 0.000000 0.000000 0.000000
# 3 -0.003896 -0.001573 0.011366 0.000000 0.000000 0.000000
# 4 0.000000 0.000000 0.000000 0.057431 0.000000 0.000000
# 5 0.000000 0.000000 0.000000 0.000000 0.052585 0.000000
# 6 0.000000 0.000000 0.000000 0.000000 0.000000 0.038453
#
#
# Mechanical properties :
#
#
# Convention : Reuss Voigt Hill
#
# Bulk Modulus (GPa) = 57.69658 58.96886 58.33272
# Shear Modulus (GPa) = 24.33813 27.32185 25.82999
#
# Velocity S-wave (km/s) = 3.48350 3.69085 3.58867
# Velocity P-wave (km/s) = 6.70422 6.89670 6.80114
#
# Compressibility (1/GPa) = 0.01733205
#
# Stress axis : x y z
#
# Youngs Moduli (GPa) = 70.45844 114.90013 87.98183
#
# Poissons Ratio (x) = 0.34426 0.34276
# Poissons Ratio (y) = 0.21111 0.13839
# Poissons Ratio (z) = 0.27449 0.18074
#
# Static dielectric constant tensor:
#      x y z
#    x 3.413440 0.000000 0.000000 
#    y 0.000000 4.141020 0.000000 
#    z 0.000000 0.000000 3.612790 
# 
# 
# High freq. dielectric constant tensor:
#      x y z
#    x 1.757330 0.000000 0.000000 
#    y 0.000000 1.812430 0.000000 
#    z 0.000000 0.000000 1.779610 
# 
# From -- ./inp_files/23078.got.cif
#   From: 2010.03.12/outbox.cif.g09.slc.cpg/sg55_12_cif.got.tgz:23078.got - 2010.04.16 15:19:21.
