data_PCOD8225288
_publ_section_title
;
Structure prediction by ZEFSAII (Michael W. Deem and Ramdas Pophale) SiO2 
 PCOD8225288
Probable space group: P B A M
;
_chemical_formula_sum "Si O2"
_cell_formula_units_Z 64
_cell_length_a 23.186709
_cell_length_b 15.696421
_cell_length_c 8.689333
_cell_angle_alpha 90.000000
_cell_angle_beta 90.000000
_cell_angle_gamma 90.000000
_cell_volume 3162.468374
_symmetry_space_group_name_H-M "P B A M"
_symmetry_group_IT_number 55
_symmetry_cell_setting 'orthorhombic'
loop_
_space_group_symop_operation_xyz
x,y,z
-x,-y,z
1/2+x,1/2-y,-z
1/2-x,1/2+y,-z
-x,-y,-z
x,y,-z
1/2-x,1/2+y,z
1/2+x,1/2-y,z
loop_
_atom_site_type_symbol
_atom_site_label
_atom_site_fract_x
_atom_site_fract_y
_atom_site_fract_z
Si Si1 0.185202 0.677293 0.822201
Si Si2 0.066050 0.754075 0.818253
Si Si3 0.135748 0.369510 0.175644
Si Si4 0.665713 0.485546 0.817476
Si Si5 0.714424 0.997037 0.677789
Si Si6 0.687443 0.299769 0.821353
Si Si7 0.503697 0.093357 0.825569
Si Si8 0.449228 0.435773 0.317853
O O1 0.133842 0.742190 0.777771
O O2 0.184786 0.591705 0.723562
O O3 0.245756 0.723788 0.789283
O O4 0.179338 0.649516 0.000000
O O5 0.034776 0.668846 0.750786
O O6 0.040311 0.839336 0.741285
O O7 0.055192 0.762867 0.000000
O O8 0.165047 0.435350 0.288795
O O9 0.149655 0.276520 0.244758
O O10 0.068185 0.375874 0.182042
O O11 0.158590 0.380516 0.000000
O O12 0.728146 0.523546 0.772233
O O13 0.667229 0.389274 0.748421
O O14 0.612907 0.534691 0.741762
O O15 0.658475 0.491699 0.000000
O O16 0.730886 0.996005 0.500000
O O17 0.676028 0.311314 0.000000
O O18 0.500000 0.000000 0.742942
O O19 0.481034 0.081609 0.000000
O O20 0.500000 0.500000 0.258680
O O21 0.448706 0.434557 0.500000
#
# Coordination Sequence:
#
# PCOD8225288 Si02
#       8
#     8   8   8   8   8   8   8   8
#     4   9  18  36  58  84 115 149 195 247 301 357
#     4  10  21  37  64  94 118 155 210 261 303 354
#     4  10  19  33  56  82 115 152 193 247 298 352
#     4  10  21  40  65  88 113 150 202 257 302 350
#     4  11  22  36  56  88 124 159 193 234 297 371
#     4   8  17  32  55  85 111 141 186 246 304 349
#     4   9  18  33  56  88 120 152 196 251 304 349
#     4  11  26  44  60  85 125 168 203 247 308 369
#
# _framework density 20.237355000000001
#
# number of rings (size 3 to 8) (size 9 to 14) (size 15 to 20)
#    0.000    2.250    0.000    3.375    3.500    3.500 
#    0.000    3.750    0.000    1.500    0.000    0.000 
#    0.000    0.000    0.000    0.000    0.000    0.000 
#
# Total GULP energy -793303.542308 kJ/mol
# GULP energy per Si atom -12395.367849 kJ/mol
# Density = 2.019129 g / cm^3
# Si number density = 20.237355 Si / 1000 Ang^3
#
#
#
# Elastic Constant Matrix: (Units=GPa)
#
#
# Indices 1 2 3 4 5 6 
#
# 1 83.4285 51.5523 22.2021 0.0000 0.0000 0.0000
# 2 51.5523 104.9043 42.8288 0.0000 0.0000 0.0000
# 3 22.2021 42.8288 43.5924 0.0000 0.0000 0.0000
# 4 0.0000 0.0000 0.0000 14.6337 0.0000 0.0000
# 5 0.0000 0.0000 0.0000 0.0000 7.8455 0.0000
# 6 0.0000 0.0000 0.0000 0.0000 0.0000 39.2091
#
#
#
# Elastic Compliance Matrix: (Units=1/GPa)
#
#
# Indices 1 2 3 4 5 6 
#
# 1 0.017228 -0.008155 -0.000762 0.000000 0.000000 0.000000
# 2 -0.008155 0.019777 -0.015277 0.000000 0.000000 0.000000
# 3 -0.000762 -0.015277 0.038338 0.000000 0.000000 0.000000
# 4 0.000000 0.000000 0.000000 0.068336 0.000000 0.000000
# 5 0.000000 0.000000 0.000000 0.000000 0.127461 0.000000
# 6 0.000000 0.000000 0.000000 0.000000 0.000000 0.025504
#
#
# Mechanical properties :
#
#
# Convention : Reuss Voigt Hill
#
# Bulk Modulus (GPa) = 37.10049 51.67684 44.38866
# Shear Modulus (GPa) = 14.12353 20.02714 17.07533
#
# Velocity S-wave (km/s) = 2.64463 3.14922 2.90789
# Velocity P-wave (km/s) = 5.26288 6.23011 5.76681
#
# Compressibility (1/GPa) = 0.02695382
#
# Stress axis : x y z
#
# Youngs Moduli (GPa) = 58.04348 50.56280 26.08397
#
# Poissons Ratio (x) = 0.41235 0.01988
# Poissons Ratio (y) = 0.47336 0.39849
# Poissons Ratio (z) = 0.04424 0.77247
#
# Static dielectric constant tensor:
#      x y z
#    x 3.820340 0.000000 0.000000 
#    y 0.000000 49.422590 0.000000 
#    z 0.000000 0.000000 3.332370 
# 
# 
# High freq. dielectric constant tensor:
#      x y z
#    x 1.797780 0.000000 0.000000 
#    y 0.000000 1.800690 0.000000 
#    z 0.000000 0.000000 1.749910 
# 
# From -- ./inp_files/9631.got.cif
#   From: 2010.03.12/outbox.cif.g09.slc.cpg/sg55_5_cif.got.tgz:9631.got - 2010.04.16 15:19:21.
