data_PCOD8225641
_publ_section_title
;
Structure prediction by ZEFSAII (Michael W. Deem and Ramdas Pophale) SiO2 
 PCOD8225641
Probable space group: P B A M
;
_chemical_formula_sum "Si O2"
_cell_formula_units_Z 56
_cell_length_a 8.563966
_cell_length_b 19.722281
_cell_length_c 14.471099
_cell_angle_alpha 90.000000
_cell_angle_beta 90.000000
_cell_angle_gamma 90.000000
_cell_volume 2444.182281
_symmetry_space_group_name_H-M "P B A M"
_symmetry_group_IT_number 55
_symmetry_cell_setting 'orthorhombic'
loop_
_space_group_symop_operation_xyz
x,y,z
-x,-y,z
1/2+x,1/2-y,-z
1/2-x,1/2+y,-z
-x,-y,-z
x,y,-z
1/2-x,1/2+y,z
1/2+x,1/2-y,z
loop_
_atom_site_type_symbol
_atom_site_label
_atom_site_fract_x
_atom_site_fract_y
_atom_site_fract_z
Si Si1 0.973659 0.407491 0.101198
Si Si2 0.878693 0.683096 0.661955
Si Si3 0.648152 0.217371 0.136200
Si Si4 0.850186 0.538129 0.268553
Si Si5 0.777060 0.313588 0.397996
Si Si6 0.021613 0.844872 0.101977
Si Si7 0.817553 0.911375 0.236414
O O1 0.045507 0.334416 0.077124
O O2 0.106910 0.448530 0.159560
O O3 0.823972 0.399046 0.165595
O O4 0.937198 0.440821 0.000000
O O5 0.917323 0.716075 0.760122
O O6 0.808784 0.607074 0.676762
O O7 0.758070 0.732950 0.611101
O O8 0.037909 0.676661 0.605718
O O9 0.625127 0.292964 0.097320
O O10 0.829467 0.197794 0.133501
O O11 0.699353 0.488524 0.273924
O O12 0.000000 0.500000 0.314818
O O13 0.721687 0.337293 0.500000
O O14 0.688790 0.358125 0.320757
O O15 0.979325 0.901951 0.178877
O O16 0.044871 0.877524 0.000000
#
# Coordination Sequence:
#
# PCOD8225641 Si02
#       7
#     8   8   8   8   8   8   8
#     4  10  19  35  62  92 129 169 218 269 315 384
#     4  11  22  44  67  95 129 168 207 273 329 383
#     4  11  21  38  57  88 130 172 221 268 328 376
#     4   9  19  39  66  92 133 171 219 257 321 389
#     4  12  24  42  69  99 126 160 213 273 331 392
#     4  12  23  34  57  90 133 178 222 266 314 380
#     4  11  22  40  61  94 131 172 217 264 325 385
#
# _framework density 22.911548
#
# number of rings (size 3 to 8) (size 9 to 14) (size 15 to 20)
#    0.000    1.143    5.714    3.857    0.000    3.143 
#    0.000    5.000    0.000    4.286    0.000    2.000 
#    0.000    0.000    0.000    0.000    0.000    0.000 
#
# Total GULP energy -694033.539861 kJ/mol
# GULP energy per Si atom -12393.456069 kJ/mol
# Density = 2.285940 g / cm^3
# Si number density = 22.911548 Si / 1000 Ang^3
#
#
#
# Elastic Constant Matrix: (Units=GPa)
#
#
# Indices 1 2 3 4 5 6 
#
# 1 28.8946 -8.3662 11.1841 0.0000 0.0000 0.0000
# 2 -8.3662 97.0313 29.8189 0.0000 0.0000 0.0000
# 3 11.1841 29.8189 132.3238 0.0000 0.0000 0.0000
# 4 0.0000 0.0000 0.0000 6.8218 0.0000 0.0000
# 5 0.0000 0.0000 0.0000 0.0000 5.5812 0.0000
# 6 0.0000 0.0000 0.0000 0.0000 0.0000 37.9304
#
#
#
# Elastic Compliance Matrix: (Units=1/GPa)
#
#
# Indices 1 2 3 4 5 6 
#
# 1 0.037542 0.004525 -0.004193 0.000000 0.000000 0.000000
# 2 0.004525 0.011618 -0.003001 0.000000 0.000000 0.000000
# 3 -0.004193 -0.003001 0.008588 0.000000 0.000000 0.000000
# 4 0.000000 0.000000 0.000000 0.146588 0.000000 0.000000
# 5 0.000000 0.000000 0.000000 0.000000 0.179174 0.000000
# 6 0.000000 0.000000 0.000000 0.000000 0.000000 0.026364
#
#
# Mechanical properties :
#
#
# Convention : Reuss Voigt Hill
#
# Bulk Modulus (GPa) = 19.07974 35.94704 27.51339
# Shear Modulus (GPa) = 11.55589 25.10755 18.33172
#
# Velocity S-wave (km/s) = 2.24825 3.31395 2.83169
# Velocity P-wave (km/s) = 3.88396 5.51059 4.76717
#
# Compressibility (1/GPa) = 0.05241162
#
# Stress axis : x y z
#
# Youngs Moduli (GPa) = 26.63705 86.07134 116.44444
#
# Poissons Ratio (x) = -0.38951 0.48823
# Poissons Ratio (y) = -0.12054 0.34941
# Poissons Ratio (z) = 0.11169 0.25827
#
# Static dielectric constant tensor:
#      x y z
#    x 3.872320 0.000000 0.000000 
#    y 0.000000 4.485010 0.000000 
#    z 0.000000 0.000000 4.042870 
# 
# 
# High freq. dielectric constant tensor:
#      x y z
#    x 1.881590 0.000000 0.000000 
#    y 0.000000 1.906670 0.000000 
#    z 0.000000 0.000000 1.887740 
# 
# From -- ./inp_files/17617.got.cif
#   From: 2010.03.12/outbox.cif.g09.slc.cpg/sg55_9_cif.got.tgz:17617.got - 2010.04.16 15:19:21.
