data_PCOD8225187
_publ_section_title
;
Structure prediction by ZEFSAII (Michael W. Deem and Ramdas Pophale) SiO2 
 PCOD8225187
Probable space group: P B A M
;
_chemical_formula_sum "Si O2"
_cell_formula_units_Z 64
_cell_length_a 19.438093
_cell_length_b 20.618955
_cell_length_c 8.848990
_cell_angle_alpha 90.000000
_cell_angle_beta 90.000000
_cell_angle_gamma 90.000000
_cell_volume 3546.614708
_symmetry_space_group_name_H-M "P B A M"
_symmetry_group_IT_number 55
_symmetry_cell_setting 'orthorhombic'
loop_
_space_group_symop_operation_xyz
x,y,z
-x,-y,z
1/2+x,1/2-y,-z
1/2-x,1/2+y,-z
-x,-y,-z
x,y,-z
1/2-x,1/2+y,z
1/2+x,1/2-y,z
loop_
_atom_site_type_symbol
_atom_site_label
_atom_site_fract_x
_atom_site_fract_y
_atom_site_fract_z
Si Si1 0.433865 0.238856 0.325189
Si Si2 0.788811 0.319421 0.673625
Si Si3 0.927811 0.727459 0.820724
Si Si4 0.573585 0.623009 0.178278
Si Si5 0.202809 0.932243 0.321742
Si Si6 0.578640 0.373652 0.177295
Si Si7 0.716191 0.436170 0.821402
Si Si8 0.208074 0.309378 0.678016
O O1 0.447202 0.255286 0.500000
O O2 0.370089 0.190453 0.306079
O O3 0.500367 0.203729 0.252551
O O4 0.415139 0.305029 0.240330
O O5 0.770373 0.334622 0.500000
O O6 0.769191 0.379900 0.777718
O O7 0.747917 0.255528 0.728537
O O8 0.915014 0.800519 0.760318
O O9 0.864863 0.684105 0.762297
O O10 0.934274 0.722677 0.000000
O O11 0.626436 0.573281 0.253068
O O12 0.496464 0.597840 0.218443
O O13 0.585345 0.624333 0.000000
O O14 0.197144 0.935896 0.500000
O O15 0.247451 0.870837 0.269182
O O16 0.238425 0.997078 0.258157
O O17 0.640126 0.417442 0.242804
O O18 0.588760 0.369580 0.000000
O O19 0.717117 0.446170 0.000000
O O20 0.195543 0.310547 0.500000
#
# Coordination Sequence:
#
# PCOD8225187 Si02
#       8
#     8   8   8   8   8   8   8   8
#     4  10  19  34  55  82 114 146 181 224 275 329
#     4  10  20  36  57  82 109 143 185 227 272 324
#     4  10  19  33  54  84 113 140 179 227 278 325
#     4  10  19  33  53  78 109 147 188 229 273 320
#     4  11  23  39  54  77 112 149 189 230 276 333
#     4   8  17  32  49  74 109 144 177 218 265 319
#     4  11  22  37  55  79 110 147 187 229 280 327
#     4  10  20  36  57  80 108 144 185 227 274 325
#
# _framework density 18.045376999999998
#
# number of rings (size 3 to 8) (size 9 to 14) (size 15 to 20)
#    0.000    2.000    2.500    2.625    0.000    2.500 
#    0.000    4.375    0.000    0.750    0.000    5.250 
#    0.000    0.000    0.000    0.000    0.000    0.000 
#
# Total GULP energy -793660.210724 kJ/mol
# GULP energy per Si atom -12400.940793 kJ/mol
# Density = 1.800431 g / cm^3
# Si number density = 18.045377 Si / 1000 Ang^3
#
#
#
# Elastic Constant Matrix: (Units=GPa)
#
#
# Indices 1 2 3 4 5 6 
#
# 1 108.5153 42.9694 41.8321 0.0000 0.0000 0.0000
# 2 42.9694 89.4395 36.8410 0.0000 0.0000 0.0000
# 3 41.8321 36.8410 68.7415 0.0000 0.0000 0.0000
# 4 0.0000 0.0000 0.0000 26.7454 0.0000 0.0000
# 5 0.0000 0.0000 0.0000 0.0000 31.2173 0.0000
# 6 0.0000 0.0000 0.0000 0.0000 0.0000 21.5678
#
#
#
# Elastic Compliance Matrix: (Units=1/GPa)
#
#
# Indices 1 2 3 4 5 6 
#
# 1 0.012987 -0.003829 -0.005851 0.000000 0.000000 0.000000
# 2 -0.003829 0.015477 -0.005965 0.000000 0.000000 0.000000
# 3 -0.005851 -0.005965 0.021304 0.000000 0.000000 0.000000
# 4 0.000000 0.000000 0.000000 0.037390 0.000000 0.000000
# 5 0.000000 0.000000 0.000000 0.000000 0.032033 0.000000
# 6 0.000000 0.000000 0.000000 0.000000 0.000000 0.046365
#
#
# Mechanical properties :
#
#
# Convention : Reuss Voigt Hill
#
# Bulk Modulus (GPa) = 54.11480 56.66459 55.38969
# Shear Modulus (GPa) = 24.62975 25.57638 25.10306
#
# Velocity S-wave (km/s) = 3.69843 3.76884 3.73380
# Velocity P-wave (km/s) = 6.94918 7.09987 7.02493
#
# Compressibility (1/GPa) = 0.01847923
#
# Stress axis : x y z
#
# Youngs Moduli (GPa) = 76.99933 64.61072 46.93873
#
# Poissons Ratio (x) = 0.24742 0.27464
# Poissons Ratio (y) = 0.29486 0.27997
# Poissons Ratio (z) = 0.45052 0.38537
#
# Static dielectric constant tensor:
#      x y z
#    x 3.498620 0.000000 0.000000 
#    y 0.000000 3.145160 0.000000 
#    z 0.000000 0.000000 3.261770 
# 
# 
# High freq. dielectric constant tensor:
#      x y z
#    x 1.703110 0.000000 0.000000 
#    y 0.000000 1.671200 0.000000 
#    z 0.000000 0.000000 1.699020 
# 
# From -- ./inp_files/7969.got.cif
#   From: 2010.03.12/outbox.cif.g09.slc.cpg/sg55_4_cif.got.tgz:7969.got - 2010.04.16 15:19:21.
