data_PCOD8225504
_publ_section_title
;
Structure prediction by ZEFSAII (Michael W. Deem and Ramdas Pophale) SiO2 
 PCOD8225504
Probable space group: P B A M
;
_chemical_formula_sum "Si O2"
_cell_formula_units_Z 64
_cell_length_a 16.760493
_cell_length_b 21.943645
_cell_length_c 8.522032
_cell_angle_alpha 90.000000
_cell_angle_beta 90.000000
_cell_angle_gamma 90.000000
_cell_volume 3134.286689
_symmetry_space_group_name_H-M "P B A M"
_symmetry_group_IT_number 55
_symmetry_cell_setting 'orthorhombic'
loop_
_space_group_symop_operation_xyz
x,y,z
-x,-y,z
1/2+x,1/2-y,-z
1/2-x,1/2+y,-z
-x,-y,-z
x,y,-z
1/2-x,1/2+y,z
1/2+x,1/2-y,z
loop_
_atom_site_type_symbol
_atom_site_label
_atom_site_fract_x
_atom_site_fract_y
_atom_site_fract_z
Si Si1 0.195273 0.632484 0.183986
Si Si2 0.953122 0.315736 0.318129
Si Si3 0.317397 0.718643 0.680273
Si Si4 0.433876 0.624235 0.182262
Si Si5 0.778808 0.105569 0.816063
Si Si6 0.583057 0.678113 0.683947
Si Si7 0.380355 0.835409 0.177967
Si Si8 0.190825 0.027136 0.817488
O O1 0.101708 0.635677 0.224201
O O2 0.232817 0.689396 0.276724
O O3 0.237554 0.570594 0.246050
O O4 0.211653 0.639722 0.000000
O O5 0.932385 0.320307 0.500000
O O6 0.937963 0.246583 0.256834
O O7 0.043766 0.337203 0.291905
O O8 0.317638 0.740200 0.500000
O O9 0.389012 0.671666 0.706772
O O10 0.330180 0.774409 0.796308
O O11 0.526694 0.628533 0.227553
O O12 0.395993 0.557379 0.215935
O O13 0.420429 0.640820 0.000000
O O14 0.826691 0.159233 0.726421
O O15 0.683423 0.111079 0.786218
O O16 0.804658 0.040127 0.742283
O O17 0.798386 0.111810 0.000000
O O18 0.568562 0.673577 0.500000
O O19 0.411668 0.838528 0.000000
O O20 0.205711 0.017713 0.000000
#
# Coordination Sequence:
#
# PCOD8225504 Si02
#       8
#     8   8   8   8   8   8   8   8
#     4  10  20  36  60  85 110 146 193 238 277 337
#     4  11  23  38  57  84 119 152 183 233 294 344
#     4  11  20  33  54  82 117 149 180 227 289 344
#     4  10  19  34  59  85 112 150 192 233 276 335
#     4  10  22  40  60  82 111 150 193 239 283 334
#     4  11  23  37  55  85 121 153 185 229 290 346
#     4  11  22  36  58  84 111 147 192 235 282 343
#     4   8  18  38  60  83 111 147 194 240 284 328
#
# _framework density 20.419319000000002
#
# number of rings (size 3 to 8) (size 9 to 14) (size 15 to 20)
#    0.000    1.750    1.250    4.500    0.000    5.000 
#    0.000    6.875    0.000    3.750    0.000    0.000 
#    0.000    0.000    0.000    0.000    0.000    0.000 
#
# Total GULP energy -793548.929265 kJ/mol
# GULP energy per Si atom -12399.202020 kJ/mol
# Density = 2.037284 g / cm^3
# Si number density = 20.419319 Si / 1000 Ang^3
#
#
#
# Elastic Constant Matrix: (Units=GPa)
#
#
# Indices 1 2 3 4 5 6 
#
# 1 105.7237 25.3301 20.6914 0.0000 0.0000 0.0000
# 2 25.3301 51.3680 13.2477 0.0000 0.0000 0.0000
# 3 20.6914 13.2477 55.4917 0.0000 0.0000 0.0000
# 4 0.0000 0.0000 0.0000 12.6676 0.0000 0.0000
# 5 0.0000 0.0000 0.0000 0.0000 32.6021 0.0000
# 6 0.0000 0.0000 0.0000 0.0000 0.0000 24.9744
#
#
#
# Elastic Compliance Matrix: (Units=1/GPa)
#
#
# Indices 1 2 3 4 5 6 
#
# 1 0.011188 -0.004732 -0.003042 0.000000 0.000000 0.000000
# 2 -0.004732 0.022746 -0.003666 0.000000 0.000000 0.000000
# 3 -0.003042 -0.003666 0.020030 0.000000 0.000000 0.000000
# 4 0.000000 0.000000 0.000000 0.078941 0.000000 0.000000
# 5 0.000000 0.000000 0.000000 0.000000 0.030673 0.000000
# 6 0.000000 0.000000 0.000000 0.000000 0.000000 0.040041
#
#
# Mechanical properties :
#
#
# Convention : Reuss Voigt Hill
#
# Bulk Modulus (GPa) = 32.17056 36.79130 34.48093
# Shear Modulus (GPa) = 21.10946 24.26977 22.68962
#
# Velocity S-wave (km/s) = 3.21876 3.45130 3.33706
# Velocity P-wave (km/s) = 5.44087 5.82572 5.63658
#
# Compressibility (1/GPa) = 0.03108433
#
# Stress axis : x y z
#
# Youngs Moduli (GPa) = 89.38349 43.96312 49.92488
#
# Poissons Ratio (x) = 0.20805 0.15186
# Poissons Ratio (y) = 0.42299 0.18301
# Poissons Ratio (z) = 0.27189 0.16116
#
# Static dielectric constant tensor:
#      x y z
#    x 3.738950 0.000000 0.000000 
#    y 0.000000 3.754220 0.000000 
#    z 0.000000 0.000000 3.465460 
# 
# 
# High freq. dielectric constant tensor:
#      x y z
#    x 1.804610 0.000000 0.000000 
#    y 0.000000 1.776120 0.000000 
#    z 0.000000 0.000000 1.786000 
# 
# From -- ./inp_files/6499.got.cif
#   From: 2010.03.12/outbox.cif.g09.slc.cpg/sg55_4_cif.got.tgz:6499.got - 2010.04.16 15:19:21.
