data_PCOD8225346
_publ_section_title
;
Structure prediction by ZEFSAII (Michael W. Deem and Ramdas Pophale) SiO2 
 PCOD8225346
Probable space group: P B A M
;
_chemical_formula_sum "Si O2"
_cell_formula_units_Z 64
_cell_length_a 17.042708
_cell_length_b 12.688782
_cell_length_c 14.465025
_cell_angle_alpha 90.000000
_cell_angle_beta 90.000000
_cell_angle_gamma 90.000000
_cell_volume 3128.079108
_symmetry_space_group_name_H-M "P B A M"
_symmetry_group_IT_number 55
_symmetry_cell_setting 'orthorhombic'
loop_
_space_group_symop_operation_xyz
x,y,z
-x,-y,z
1/2+x,1/2-y,-z
1/2-x,1/2+y,-z
-x,-y,-z
x,y,-z
1/2-x,1/2+y,z
1/2+x,1/2-y,z
loop_
_atom_site_type_symbol
_atom_site_label
_atom_site_fract_x
_atom_site_fract_y
_atom_site_fract_z
Si Si1 0.681370 0.145712 0.104279
Si Si2 0.036297 0.884589 0.729836
Si Si3 0.256506 0.118797 0.704487
Si Si4 0.637703 0.685483 0.103688
Si Si5 0.809654 0.584720 0.601423
Si Si6 0.688619 0.909292 0.101700
Si Si7 0.113021 0.254596 0.279332
Si Si8 0.343708 0.285822 0.397978
O O1 0.773221 0.154194 0.132143
O O2 0.631774 0.217945 0.172951
O O3 0.650217 0.024940 0.112208
O O4 0.669131 0.188050 0.000000
O O5 0.078045 0.873043 0.828748
O O6 0.097819 0.870677 0.646733
O O7 0.973111 0.792533 0.715735
O O8 0.000000 0.000000 0.723033
O O9 0.250277 0.106380 0.815372
O O10 0.173231 0.169088 0.677389
O O11 0.332188 0.187991 0.672627
O O12 0.268270 0.007804 0.656999
O O13 0.626167 0.813053 0.108769
O O14 0.620122 0.645083 0.000000
O O15 0.840447 0.548193 0.500000
O O16 0.880635 0.638352 0.659291
O O17 0.742157 0.669036 0.587970
O O18 0.730498 0.902492 0.000000
O O19 0.375172 0.251383 0.500000
#
# Coordination Sequence:
#
# PCOD8225346 Si02
#       8
#     8   8   8   8   8   8   8   8
#     4  10  20  36  62  91 117 156 206 250 292 339
#     4  12  26  40  58  87 123 161 195 232 300 367
#     4  11  19  37  66  90 117 149 198 250 297 341
#     4  10  21  40  60  84 123 163 201 243 290 350
#     4  10  21  39  64  90 113 147 202 257 299 341
#     4  10  19  33  62  92 116 150 195 245 294 342
#     4  11  23  36  59  89 124 154 193 248 290 354
#     4  10  22  41  61  85 118 157 199 243 298 359
#
# _framework density 20.45984
#
# number of rings (size 3 to 8) (size 9 to 14) (size 15 to 20)
#    0.000    1.500    3.750    1.875    1.750    2.000 
#    0.000    2.500    0.000    3.750    0.000    0.000 
#    0.000    0.000    0.000    0.000    0.000    0.000 
#
# Total GULP energy -793178.636724 kJ/mol
# GULP energy per Si atom -12393.416199 kJ/mol
# Density = 2.041327 g / cm^3
# Si number density = 20.459840 Si / 1000 Ang^3
#
#
#
# Elastic Constant Matrix: (Units=GPa)
#
#
# Indices 1 2 3 4 5 6 
#
# 1 53.9241 7.5007 26.4707 0.0000 0.0000 0.0000
# 2 7.5007 72.3479 24.5092 0.0000 0.0000 0.0000
# 3 26.4707 24.5092 138.2537 0.0000 0.0000 0.0000
# 4 0.0000 0.0000 0.0000 19.6580 0.0000 0.0000
# 5 0.0000 0.0000 0.0000 0.0000 20.8463 0.0000
# 6 0.0000 0.0000 0.0000 0.0000 0.0000 27.3984
#
#
#
# Elastic Compliance Matrix: (Units=1/GPa)
#
#
# Indices 1 2 3 4 5 6 
#
# 1 0.020517 -0.000847 -0.003778 0.000000 0.000000 0.000000
# 2 -0.000847 0.014740 -0.002451 0.000000 0.000000 0.000000
# 3 -0.003778 -0.002451 0.008391 0.000000 0.000000 0.000000
# 4 0.000000 0.000000 0.000000 0.050870 0.000000 0.000000
# 5 0.000000 0.000000 0.000000 0.000000 0.047970 0.000000
# 6 0.000000 0.000000 0.000000 0.000000 0.000000 0.036499
#
#
# Mechanical properties :
#
#
# Convention : Reuss Voigt Hill
#
# Bulk Modulus (GPa) = 33.90311 42.38744 38.14528
# Shear Modulus (GPa) = 24.63404 27.31687 25.97545
#
# Velocity S-wave (km/s) = 3.47366 3.65793 3.56699
# Velocity P-wave (km/s) = 5.71795 6.21313 5.97068
#
# Compressibility (1/GPa) = 0.02949582
#
# Stress axis : x y z
#
# Youngs Moduli (GPa) = 48.73992 67.84157 119.17612
#
# Poissons Ratio (x) = 0.05748 0.45026
# Poissons Ratio (y) = 0.04129 0.29209
# Poissons Ratio (z) = 0.18414 0.16627
#
# Static dielectric constant tensor:
#      x y z
#    x 3.252290 0.000000 0.000000 
#    y 0.000000 3.899260 0.000000 
#    z 0.000000 0.000000 4.154120 
# 
# 
# High freq. dielectric constant tensor:
#      x y z
#    x 1.743810 0.000000 0.000000 
#    y 0.000000 1.808980 0.000000 
#    z 0.000000 0.000000 1.821040 
# 
# From -- ./inp_files/19501.got.cif
#   From: 2010.03.12/outbox.cif.g09.slc.cpg/sg55_10_cif.got.tgz:19501.got - 2010.04.16 15:19:21.
