data_PCOD8225814
_publ_section_title
;
Structure prediction by ZEFSAII (Michael W. Deem and Ramdas Pophale) SiO2 
 PCOD8225814
Probable space group: P B A M
;
_chemical_formula_sum "Si O2"
_cell_formula_units_Z 56
_cell_length_a 18.050377
_cell_length_b 20.919226
_cell_length_c 9.224731
_cell_angle_alpha 90.000000
_cell_angle_beta 90.000000
_cell_angle_gamma 90.000000
_cell_volume 3483.257649
_symmetry_space_group_name_H-M "P B A M"
_symmetry_group_IT_number 55
_symmetry_cell_setting 'orthorhombic'
loop_
_space_group_symop_operation_xyz
x,y,z
-x,-y,z
1/2+x,1/2-y,-z
1/2-x,1/2+y,-z
-x,-y,-z
x,y,-z
1/2-x,1/2+y,z
1/2+x,1/2-y,z
loop_
_atom_site_type_symbol
_atom_site_label
_atom_site_fract_x
_atom_site_fract_y
_atom_site_fract_z
Si Si1 0.835529 0.373982 0.831089
Si Si2 0.280410 0.690546 0.667790
Si Si3 0.222223 0.812805 0.831849
Si Si4 0.842086 0.622477 0.671334
Si Si5 0.071497 0.250284 0.335360
Si Si6 0.924479 0.249805 0.834132
Si Si7 0.914067 0.506778 0.833238
O O1 0.758976 0.372081 0.736834
O O2 0.889700 0.316811 0.778264
O O3 0.875037 0.440217 0.797821
O O4 0.815708 0.365795 0.000000
O O5 0.257103 0.699263 0.500000
O O6 0.251519 0.747745 0.765221
O O7 0.369866 0.691561 0.680895
O O8 0.260636 0.871365 0.745869
O O9 0.132912 0.809547 0.813674
O O10 0.244501 0.817323 0.000000
O O11 0.830659 0.619469 0.500000
O O12 0.891817 0.683254 0.718389
O O13 0.880672 0.558915 0.726712
O O14 0.046675 0.258936 0.500000
O O15 0.999032 0.232017 0.247688
O O16 0.946403 0.258851 0.000000
O O17 0.000000 0.500000 0.797491
O O18 0.901709 0.527316 0.000000
#
# Coordination Sequence:
#
# PCOD8225814 Si02
#       7
#     8   8   8   8   8   8   8
#     4   9  18  31  45  64  89 119 155 186 217 262
#     4   9  17  29  44  64  89 117 149 184 224 267
#     4   9  17  30  46  64  87 116 150 186 224 267
#     4  10  20  32  45  65  92 122 156 188 222 266
#     4   9  18  29  42  64  92 118 145 180 222 268
#     4   9  17  28  45  68  90 114 147 185 223 265
#     4  10  20  33  48  66  91 124 158 189 221 260
#
# _framework density 16.076903999999999
#
# number of rings (size 3 to 8) (size 9 to 14) (size 15 to 20)
#    0.000    2.714    0.000    3.857    0.000    8.286 
#    0.000    0.000    0.000    0.000    0.000    1.000 
#    0.000    8.000    0.000    0.000    0.000    0.000 
#
# Total GULP energy -694053.181497 kJ/mol
# GULP energy per Si atom -12393.806812 kJ/mol
# Density = 1.604031 g / cm^3
# Si number density = 16.076904 Si / 1000 Ang^3
#
#
#
# Elastic Constant Matrix: (Units=GPa)
#
#
# Indices 1 2 3 4 5 6 
#
# 1 115.1629 48.5499 65.5807 0.0000 0.0000 0.0000
# 2 48.5499 60.4049 38.5464 0.0000 0.0000 0.0000
# 3 65.5807 38.5464 86.7256 0.0000 0.0000 0.0000
# 4 0.0000 0.0000 0.0000 23.3690 0.0000 0.0000
# 5 0.0000 0.0000 0.0000 0.0000 28.8286 0.0000
# 6 0.0000 0.0000 0.0000 0.0000 0.0000 22.9183
#
#
#
# Elastic Compliance Matrix: (Units=1/GPa)
#
#
# Indices 1 2 3 4 5 6 
#
# 1 0.017583 -0.007884 -0.009792 0.000000 0.000000 0.000000
# 2 -0.007884 0.026644 -0.005881 0.000000 0.000000 0.000000
# 3 -0.009792 -0.005881 0.021549 0.000000 0.000000 0.000000
# 4 0.000000 0.000000 0.000000 0.042792 0.000000 0.000000
# 5 0.000000 0.000000 0.000000 0.000000 0.034688 0.000000
# 6 0.000000 0.000000 0.000000 0.000000 0.000000 0.043633
#
#
# Mechanical properties :
#
#
# Convention : Reuss Voigt Hill
#
# Bulk Modulus (GPa) = 53.58153 63.07191 58.32672
# Shear Modulus (GPa) = 20.81397 22.33095 21.57246
#
# Velocity S-wave (km/s) = 3.60203 3.73098 3.66707
# Velocity P-wave (km/s) = 7.12040 7.60768 7.36807
#
# Compressibility (1/GPa) = 0.01866315
#
# Stress axis : x y z
#
# Youngs Moduli (GPa) = 56.87286 37.53176 46.40561
#
# Poissons Ratio (x) = 0.29588 0.45441
# Poissons Ratio (y) = 0.44836 0.27291
# Poissons Ratio (z) = 0.55691 0.22072
#
# Static dielectric constant tensor:
#      x y z
#    x 3.331570 0.000000 0.000000 
#    y 0.000000 2.896800 0.000000 
#    z 0.000000 0.000000 3.158520 
# 
# 
# High freq. dielectric constant tensor:
#      x y z
#    x 1.617940 0.000000 0.000000 
#    y 0.000000 1.577040 0.000000 
#    z 0.000000 0.000000 1.628490 
# 
# From -- ./inp_files/7817.got.cif
#   From: 2010.03.12/outbox.cif.g09.slc.cpg/sg55_4_cif.got.tgz:7817.got - 2010.04.16 15:19:21.
