data_PCOD8225975
_publ_section_title
;
Structure prediction by ZEFSAII (Michael W. Deem and Ramdas Pophale) SiO2 
 PCOD8225975
Probable space group: P B A M
;
_chemical_formula_sum "Si O2"
_cell_formula_units_Z 56
_cell_length_a 14.568004
_cell_length_b 20.767252
_cell_length_c 8.913316
_cell_angle_alpha 90.000000
_cell_angle_beta 90.000000
_cell_angle_gamma 90.000000
_cell_volume 2696.611539
_symmetry_space_group_name_H-M "P B A M"
_symmetry_group_IT_number 55
_symmetry_cell_setting 'orthorhombic'
loop_
_space_group_symop_operation_xyz
x,y,z
-x,-y,z
1/2+x,1/2-y,-z
1/2-x,1/2+y,-z
-x,-y,-z
x,y,-z
1/2-x,1/2+y,z
1/2+x,1/2-y,z
loop_
_atom_site_type_symbol
_atom_site_label
_atom_site_fract_x
_atom_site_fract_y
_atom_site_fract_z
Si Si1 0.568462 0.441428 0.664873
Si Si2 0.724890 0.970425 0.674591
Si Si3 0.243021 0.401965 0.828841
Si Si4 0.438330 0.357408 0.830251
Si Si5 0.183421 0.259648 0.177701
Si Si6 0.012357 0.737325 0.675852
Si Si7 0.660387 0.842313 0.822369
O O1 0.500000 0.500000 0.657677
O O2 0.570558 0.407734 0.500000
O O3 0.668064 0.464888 0.710604
O O4 0.533714 0.392330 0.791101
O O5 0.700593 0.963779 0.500000
O O6 0.675246 0.914885 0.767209
O O7 0.695321 0.041766 0.730922
O O8 0.353408 0.406164 0.811658
O O9 0.213769 0.331224 0.772790
O O10 0.212732 0.412829 0.000000
O O11 0.423307 0.297984 0.717654
O O12 0.443119 0.330675 0.000000
O O13 0.087260 0.246688 0.257464
O O14 0.257643 0.205866 0.231190
O O15 0.171137 0.255239 0.000000
O O16 0.005656 0.726066 0.500000
O O17 0.062108 0.676437 0.751369
O O18 0.651511 0.841039 0.000000
#
# Coordination Sequence:
#
# PCOD8225975 Si02
#       7
#     8   8   8   8   8   8   8
#     4  10  20  34  52  83 123 161 197 241 305 370
#     4  11  23  38  58  88 128 167 205 254 312 373
#     4  10  21  39  62  89 120 159 207 253 303 364
#     4  11  21  36  59  87 119 159 206 252 303 364
#     4  10  22  43  68  93 123 162 212 262 310 369
#     4  12  25  40  63  94 126 160 204 258 318 375
#     4  11  23  43  67  92 125 166 211 261 311 368
#
# _framework density 20.766801000000001
#
# number of rings (size 3 to 8) (size 9 to 14) (size 15 to 20)
#    0.000    1.286    2.857    3.429    0.000    6.000 
#    0.000    0.714    0.000    4.286    0.000    0.000 
#    0.000    0.000    0.000    0.000    0.000    0.000 
#
# Total GULP energy -694361.218557 kJ/mol
# GULP energy per Si atom -12399.307474 kJ/mol
# Density = 2.071954 g / cm^3
# Si number density = 20.766801 Si / 1000 Ang^3
#
#
#
# Elastic Constant Matrix: (Units=GPa)
#
#
# Indices 1 2 3 4 5 6 
#
# 1 43.3001 3.7455 24.5888 0.0000 0.0000 0.0000
# 2 3.7455 108.5058 36.8305 0.0000 0.0000 0.0000
# 3 24.5888 36.8305 83.4518 0.0000 0.0000 0.0000
# 4 0.0000 0.0000 0.0000 34.5605 0.0000 0.0000
# 5 0.0000 0.0000 0.0000 0.0000 27.2330 0.0000
# 6 0.0000 0.0000 0.0000 0.0000 0.0000 30.1676
#
#
#
# Elastic Compliance Matrix: (Units=1/GPa)
#
#
# Indices 1 2 3 4 5 6 
#
# 1 0.028163 0.002169 -0.009256 0.000000 0.000000 0.000000
# 2 0.002169 0.011007 -0.005497 0.000000 0.000000 0.000000
# 3 -0.009256 -0.005497 0.017136 0.000000 0.000000 0.000000
# 4 0.000000 0.000000 0.000000 0.028935 0.000000 0.000000
# 5 0.000000 0.000000 0.000000 0.000000 0.036720 0.000000
# 6 0.000000 0.000000 0.000000 0.000000 0.000000 0.033148
#
#
# Mechanical properties :
#
#
# Convention : Reuss Voigt Hill
#
# Bulk Modulus (GPa) = 32.11323 40.62083 36.36703
# Shear Modulus (GPa) = 26.22529 29.73174 27.97852
#
# Velocity S-wave (km/s) = 3.55751 3.78788 3.67450
# Velocity P-wave (km/s) = 5.68962 6.22364 5.96261
#
# Compressibility (1/GPa) = 0.03113981
#
# Stress axis : x y z
#
# Youngs Moduli (GPa) = 35.50767 90.85041 58.35604
#
# Poissons Ratio (x) = -0.19710 0.54012
# Poissons Ratio (y) = -0.07703 0.32079
# Poissons Ratio (z) = 0.32864 0.49941
#
# Static dielectric constant tensor:
#      x y z
#    x 3.804070 0.000000 0.000000 
#    y 0.000000 3.835100 0.000000 
#    z 0.000000 0.000000 3.737980 
# 
# 
# High freq. dielectric constant tensor:
#      x y z
#    x 1.796360 0.000000 0.000000 
#    y 0.000000 1.817350 0.000000 
#    z 0.000000 0.000000 1.809950 
# 
# From -- ./inp_files/6203.got.cif
#   From: 2010.03.12/outbox.cif.g09.slc.cpg/sg55_4_cif.got.tgz:6203.got - 2010.04.16 15:19:21.
