data_PCOD8225558
_publ_section_title
;
Structure prediction by ZEFSAII (Michael W. Deem and Ramdas Pophale) SiO2 
 PCOD8225558
Probable space group: P B A M
;
_chemical_formula_sum "Si O2"
_cell_formula_units_Z 64
_cell_length_a 28.099440
_cell_length_b 9.093195
_cell_length_c 12.740596
_cell_angle_alpha 90.000000
_cell_angle_beta 90.000000
_cell_angle_gamma 90.000000
_cell_volume 3255.396662
_symmetry_space_group_name_H-M "P B A M"
_symmetry_group_IT_number 55
_symmetry_cell_setting 'orthorhombic'
loop_
_space_group_symop_operation_xyz
x,y,z
-x,-y,z
1/2+x,1/2-y,-z
1/2-x,1/2+y,-z
-x,-y,-z
x,y,-z
1/2-x,1/2+y,z
1/2+x,1/2-y,z
loop_
_atom_site_type_symbol
_atom_site_label
_atom_site_fract_x
_atom_site_fract_y
_atom_site_fract_z
Si Si1 0.215312 0.572460 0.876239
Si Si2 0.410786 0.690371 0.623108
Si Si3 0.493389 0.162390 0.313962
Si Si4 0.322123 0.580636 0.882660
Si Si5 0.356250 0.291958 0.183211
Si Si6 0.904336 0.157555 0.383791
Si Si7 0.638029 0.139803 0.796974
Si Si8 0.564729 0.912233 0.881671
O O1 0.269014 0.579204 0.833217
O O2 0.195042 0.736171 0.856192
O O3 0.183031 0.470530 0.800262
O O4 0.210872 0.529599 0.000000
O O5 0.408161 0.730646 0.500000
O O6 0.458881 0.745010 0.677269
O O7 0.409051 0.515658 0.640861
O O8 0.368547 0.779650 0.683657
O O9 0.454455 0.258659 0.374733
O O10 0.479454 0.137534 0.190948
O O11 0.500000 0.000000 0.366020
O O12 0.356919 0.467293 0.825680
O O13 0.348176 0.736388 0.880905
O O14 0.315293 0.527416 0.000000
O O15 0.367614 0.261137 0.305786
O O16 0.397149 0.219538 0.112255
O O17 0.883996 0.179833 0.500000
O O18 0.589954 0.056195 0.831481
O O19 0.546809 0.944405 0.000000
#
# Coordination Sequence:
#
# PCOD8225558 Si02
#       8
#     8   8   8   8   8   8   8   8
#     4  10  21  36  55  85 122 151 181 228 287 335
#     4  11  23  41  60  82 113 148 190 242 291 330
#     4  11  22  39  59  91 113 145 192 235 276 337
#     4  11  20  33  59  87 113 149 191 231 274 338
#     4  10  19  35  57  82 114 146 191 231 277 337
#     4  10  22  40  62  81 111 151 187 239 295 334
#     4  11  20  37  56  86 114 152 192 232 278 337
#     4  10  21  38  56  80 123 159 181 223 285 341
#
# _framework density 19.659662000000001
#
# number of rings (size 3 to 8) (size 9 to 14) (size 15 to 20)
#    0.000    1.500    2.500    4.500    0.000    4.250 
#    0.000    0.000    0.000    6.000    0.000    0.000 
#    0.000    0.000    0.000    0.000    0.000    0.000 
#
# Total GULP energy -793177.728315 kJ/mol
# GULP energy per Si atom -12393.402005 kJ/mol
# Density = 1.961492 g / cm^3
# Si number density = 19.659662 Si / 1000 Ang^3
#
#
#
# Elastic Constant Matrix: (Units=GPa)
#
#
# Indices 1 2 3 4 5 6 
#
# 1 71.1661 24.6743 39.3775 0.0000 0.0000 0.0000
# 2 24.6743 86.9064 34.5301 0.0000 0.0000 0.0000
# 3 39.3775 34.5301 113.3368 0.0000 0.0000 0.0000
# 4 0.0000 0.0000 0.0000 29.6813 0.0000 0.0000
# 5 0.0000 0.0000 0.0000 0.0000 19.9688 0.0000
# 6 0.0000 0.0000 0.0000 0.0000 0.0000 22.6246
#
#
#
# Elastic Compliance Matrix: (Units=1/GPa)
#
#
# Indices 1 2 3 4 5 6 
#
# 1 0.018057 -0.002997 -0.005361 0.000000 0.000000 0.000000
# 2 -0.002997 0.013589 -0.003099 0.000000 0.000000 0.000000
# 3 -0.005361 -0.003099 0.011630 0.000000 0.000000 0.000000
# 4 0.000000 0.000000 0.000000 0.033691 0.000000 0.000000
# 5 0.000000 0.000000 0.000000 0.000000 0.050078 0.000000
# 6 0.000000 0.000000 0.000000 0.000000 0.000000 0.044200
#
#
# Mechanical properties :
#
#
# Convention : Reuss Voigt Hill
#
# Bulk Modulus (GPa) = 49.10881 52.06365 50.58623
# Shear Modulus (GPa) = 24.88249 25.97676 25.42962
#
# Velocity S-wave (km/s) = 3.56147 3.63894 3.60042
# Velocity P-wave (km/s) = 6.47656 6.64800 6.56284
#
# Compressibility (1/GPa) = 0.02036294
#
# Stress axis : x y z
#
# Youngs Moduli (GPa) = 55.38096 73.59044 85.98560
#
# Poissons Ratio (x) = 0.22053 0.46093
# Poissons Ratio (y) = 0.16596 0.26646
# Poissons Ratio (z) = 0.29687 0.22805
#
# Static dielectric constant tensor:
#      x y z
#    x 3.597190 0.000000 0.000000 
#    y 0.000000 3.780990 0.000000 
#    z 0.000000 0.000000 3.487810 
# 
# 
# High freq. dielectric constant tensor:
#      x y z
#    x 1.755560 0.000000 0.000000 
#    y 0.000000 1.783690 0.000000 
#    z 0.000000 0.000000 1.751810 
# 
# From -- ./inp_files/16216.got.cif
#   From: 2010.03.12/outbox.cif.g09.slc.cpg/sg55_9_cif.got.tgz:16216.got - 2010.04.16 15:19:21.
