data_PCOD8225365
_publ_section_title
;
Structure prediction by ZEFSAII (Michael W. Deem and Ramdas Pophale) SiO2 
 PCOD8225365
Probable space group: P B A M
;
_chemical_formula_sum "Si O2"
_cell_formula_units_Z 48
_cell_length_a 31.356095
_cell_length_b 9.753393
_cell_length_c 8.593342
_cell_angle_alpha 90.000000
_cell_angle_beta 90.000000
_cell_angle_gamma 90.000000
_cell_volume 2628.087325
_symmetry_space_group_name_H-M "P B A M"
_symmetry_group_IT_number 55
_symmetry_cell_setting 'orthorhombic'
loop_
_space_group_symop_operation_xyz
x,y,z
-x,-y,z
1/2+x,1/2-y,-z
1/2-x,1/2+y,-z
-x,-y,-z
x,y,-z
1/2-x,1/2+y,z
1/2+x,1/2-y,z
loop_
_atom_site_type_symbol
_atom_site_label
_atom_site_fract_x
_atom_site_fract_y
_atom_site_fract_z
Si Si1 0.374929 0.581836 0.672077
Si Si2 0.962283 0.897611 0.818126
Si Si3 0.872611 0.593624 0.670295
Si Si4 0.712622 0.407940 0.181824
Si Si5 0.463716 0.898613 0.313847
Si Si6 0.219530 0.387973 0.685770
O O1 0.372142 0.514819 0.500000
O O2 0.418629 0.535209 0.754295
O O3 0.375284 0.743832 0.655788
O O4 0.334118 0.535465 0.772499
O O5 0.974338 0.753464 0.741094
O O6 0.957098 0.874023 0.000000
O O7 0.000000 0.000000 0.774920
O O8 0.871451 0.525593 0.500000
O O9 0.917167 0.549268 0.753586
O O10 0.827119 0.559169 0.750606
O O11 0.725397 0.272192 0.276540
O O12 0.745407 0.527079 0.223734
O O13 0.714047 0.375083 0.000000
O O14 0.461625 0.898809 0.500000
O O15 0.500000 0.000000 0.249611
O O16 0.223099 0.406829 0.500000
#
# Coordination Sequence:
#
# PCOD8225365 Si02
#       6
#     8   8   8   8   8   8
#     4   9  17  32  53  74  97 132 174 209 249 307
#     4  10  20  33  50  74 104 136 169 208 254 300
#     4   7  13  27  48  71  94 124 166 210 245 288
#     4  11  21  34  53  79 107 134 169 216 266 309
#     4   9  17  31  52  76 100 129 169 212 251 297
#     4  10  19  34  54  75 102 139 179 214 253 308
#
# _framework density 18.264233999999998
#
# number of rings (size 3 to 8) (size 9 to 14) (size 15 to 20)
#    0.000    2.667    0.000    5.000    0.000    1.667 
#    0.000    2.500    0.000    6.000    0.000    0.000 
#    0.000    0.000    0.000    0.000    0.000    0.000 
#
# Total GULP energy -594730.676159 kJ/mol
# GULP energy per Si atom -12390.222420 kJ/mol
# Density = 1.822266 g / cm^3
# Si number density = 18.264234 Si / 1000 Ang^3
#
#
#
# Elastic Constant Matrix: (Units=GPa)
#
#
# Indices 1 2 3 4 5 6 
#
# 1 171.2757 50.3158 35.5522 0.0000 0.0000 0.0000
# 2 50.3158 47.0740 10.9807 0.0000 0.0000 0.0000
# 3 35.5522 10.9807 57.7694 0.0000 0.0000 0.0000
# 4 0.0000 0.0000 0.0000 19.4254 0.0000 0.0000
# 5 0.0000 0.0000 0.0000 0.0000 26.5892 0.0000
# 6 0.0000 0.0000 0.0000 0.0000 0.0000 29.9101
#
#
#
# Elastic Compliance Matrix: (Units=1/GPa)
#
#
# Indices 1 2 3 4 5 6 
#
# 1 0.009326 -0.009030 -0.004023 0.000000 0.000000 0.000000
# 2 -0.009030 0.030972 -0.000330 0.000000 0.000000 0.000000
# 3 -0.004023 -0.000330 0.019849 0.000000 0.000000 0.000000
# 4 0.000000 0.000000 0.000000 0.051479 0.000000 0.000000
# 5 0.000000 0.000000 0.000000 0.000000 0.037609 0.000000
# 6 0.000000 0.000000 0.000000 0.000000 0.000000 0.033434
#
#
# Mechanical properties :
#
#
# Convention : Reuss Voigt Hill
#
# Bulk Modulus (GPa) = 29.95709 52.20183 41.07946
# Shear Modulus (GPa) = 22.66928 27.13631 24.90279
#
# Velocity S-wave (km/s) = 3.52687 3.85874 3.69653
# Velocity P-wave (km/s) = 5.74654 6.96395 6.38433
#
# Compressibility (1/GPa) = 0.03338108
#
# Stress axis : x y z
#
# Youngs Moduli (GPa) = 107.22137 32.28692 50.38081
#
# Poissons Ratio (x) = 0.29156 0.20269
# Poissons Ratio (y) = 0.96824 0.01661
# Poissons Ratio (z) = 0.43137 0.01065
#
# Static dielectric constant tensor:
#      x y z
#    x 4.060530 0.000000 0.000000 
#    y 0.000000 2.926350 0.000000 
#    z 0.000000 0.000000 3.284550 
# 
# 
# High freq. dielectric constant tensor:
#      x y z
#    x 1.734190 0.000000 0.000000 
#    y 0.000000 1.660560 0.000000 
#    z 0.000000 0.000000 1.698210 
# 
# From -- ./inp_files/10542.got.cif
#   From: 2010.03.12/outbox.cif.g09.slc.cpg/sg55_6_cif.got.tgz:10542.got - 2010.04.16 15:19:21.
