data_PCOD8225497
_publ_section_title
;
Structure prediction by ZEFSAII (Michael W. Deem and Ramdas Pophale) SiO2 
 PCOD8225497
Probable space group: P B A M
;
_chemical_formula_sum "Si O2"
_cell_formula_units_Z 64
_cell_length_a 17.987213
_cell_length_b 13.102482
_cell_length_c 13.505030
_cell_angle_alpha 90.000000
_cell_angle_beta 90.000000
_cell_angle_gamma 90.000000
_cell_volume 3182.826773
_symmetry_space_group_name_H-M "P B A M"
_symmetry_group_IT_number 55
_symmetry_cell_setting 'orthorhombic'
loop_
_space_group_symop_operation_xyz
x,y,z
-x,-y,z
1/2+x,1/2-y,-z
1/2-x,1/2+y,-z
-x,-y,-z
x,y,-z
1/2-x,1/2+y,z
1/2+x,1/2-y,z
loop_
_atom_site_type_symbol
_atom_site_label
_atom_site_fract_x
_atom_site_fract_y
_atom_site_fract_z
Si Si1 0.976615 0.795481 0.714631
Si Si2 0.789071 0.898592 0.890076
Si Si3 0.387241 0.370768 0.386775
Si Si4 0.875716 0.476947 0.113841
Si Si5 0.340206 0.576360 0.689643
Si Si6 0.387056 0.787559 0.889010
Si Si7 0.950356 0.409977 0.695518
Si Si8 0.194136 0.666275 0.612903
O O1 0.906903 0.847413 0.660187
O O2 0.952753 0.767999 0.826766
O O3 0.046215 0.871967 0.695093
O O4 0.003614 0.690479 0.665382
O O5 0.839244 0.955660 0.806618
O O6 0.810167 0.777584 0.881922
O O7 0.702070 0.918332 0.871237
O O8 0.810474 0.939745 0.000000
O O9 0.417000 0.358618 0.500000
O O10 0.343336 0.476816 0.378107
O O11 0.329511 0.281452 0.361311
O O12 0.869231 0.596527 0.145926
O O13 0.935746 0.422529 0.185754
O O14 0.902733 0.466588 0.000000
O O15 0.265013 0.639553 0.677555
O O16 0.417980 0.789018 0.000000
O O17 0.872212 0.411414 0.638824
O O18 0.000000 0.500000 0.652773
O O19 0.217016 0.652852 0.500000
#
# Coordination Sequence:
#
# PCOD8225497 Si02
#       8
#     8   8   8   8   8   8   8   8
#     4  10  22  37  57  86 118 153 198 246 305 351
#     4   9  19  35  55  86 121 153 191 243 297 349
#     4  10  23  42  62  86 119 153 198 255 305 361
#     4  10  19  34  58  86 120 162 205 244 293 357
#     4  11  21  38  65  87 115 160 201 245 297 364
#     4   9  18  34  58  85 118 156 201 247 292 355
#     4  11  21  37  57  87 123 157 193 247 306 357
#     4  10  23  41  60  88 118 150 198 255 299 354
#
# _framework density 20.107911000000001
#
# number of rings (size 3 to 8) (size 9 to 14) (size 15 to 20)
#    0.000    2.000    2.500    0.750    0.000    5.500 
#    0.000    0.625    0.000    3.000    0.000    0.000 
#    0.000    0.000    0.000    0.000    0.000    0.000 
#
# Total GULP energy -793101.465910 kJ/mol
# GULP energy per Si atom -12392.210405 kJ/mol
# Density = 2.006214 g / cm^3
# Si number density = 20.107911 Si / 1000 Ang^3
#
#
#
# Elastic Constant Matrix: (Units=GPa)
#
#
# Indices 1 2 3 4 5 6 
#
# 1 112.4462 59.2515 35.0420 0.0000 0.0000 0.0000
# 2 59.2515 98.0284 38.1194 0.0000 0.0000 0.0000
# 3 35.0420 38.1194 66.0224 0.0000 0.0000 0.0000
# 4 0.0000 0.0000 0.0000 26.5016 0.0000 0.0000
# 5 0.0000 0.0000 0.0000 0.0000 22.0053 0.0000
# 6 0.0000 0.0000 0.0000 0.0000 0.0000 32.2578
#
#
#
# Elastic Compliance Matrix: (Units=1/GPa)
#
#
# Indices 1 2 3 4 5 6 
#
# 1 0.013547 -0.006953 -0.003175 0.000000 0.000000 0.000000
# 2 -0.006953 0.016723 -0.005965 0.000000 0.000000 0.000000
# 3 -0.003175 -0.005965 0.020276 0.000000 0.000000 0.000000
# 4 0.000000 0.000000 0.000000 0.037734 0.000000 0.000000
# 5 0.000000 0.000000 0.000000 0.000000 0.045444 0.000000
# 6 0.000000 0.000000 0.000000 0.000000 0.000000 0.031000
#
#
# Mechanical properties :
#
#
# Convention : Reuss Voigt Hill
#
# Bulk Modulus (GPa) = 54.47105 60.14698 57.30901
# Shear Modulus (GPa) = 24.62687 25.75855 25.19271
#
# Velocity S-wave (km/s) = 3.50342 3.58301 3.54344
# Velocity P-wave (km/s) = 6.59647 6.86253 6.73082
#
# Compressibility (1/GPa) = 0.01835838
#
# Stress axis : x y z
#
# Youngs Moduli (GPa) = 73.81959 59.79621 49.31974
#
# Poissons Ratio (x) = 0.41577 0.15661
# Poissons Ratio (y) = 0.51328 0.29420
# Poissons Ratio (z) = 0.23441 0.35670
#
# Static dielectric constant tensor:
#      x y z
#    x 3.628830 0.000000 0.000000 
#    y 0.000000 3.689010 0.000000 
#    z 0.000000 0.000000 3.732260 
# 
# 
# High freq. dielectric constant tensor:
#      x y z
#    x 1.779460 0.000000 0.000000 
#    y 0.000000 1.779110 0.000000 
#    z 0.000000 0.000000 1.784080 
# 
# From -- ./inp_files/19487.got.cif
#   From: 2010.03.12/outbox.cif.g09.slc.cpg/sg55_10_cif.got.tgz:19487.got - 2010.04.16 15:19:21.
