data_PCOD8225587
_publ_section_title
;
Structure prediction by ZEFSAII (Michael W. Deem and Ramdas Pophale) SiO2 
 PCOD8225587
Probable space group: P B A M
;
_chemical_formula_sum "Si O2"
_cell_formula_units_Z 64
_cell_length_a 21.258933
_cell_length_b 18.364634
_cell_length_c 8.635929
_cell_angle_alpha 90.000000
_cell_angle_beta 90.000000
_cell_angle_gamma 90.000000
_cell_volume 3371.574836
_symmetry_space_group_name_H-M "P B A M"
_symmetry_group_IT_number 55
_symmetry_cell_setting 'orthorhombic'
loop_
_space_group_symop_operation_xyz
x,y,z
-x,-y,z
1/2+x,1/2-y,-z
1/2-x,1/2+y,-z
-x,-y,-z
x,y,-z
1/2-x,1/2+y,z
1/2+x,1/2-y,z
loop_
_atom_site_type_symbol
_atom_site_label
_atom_site_fract_x
_atom_site_fract_y
_atom_site_fract_z
Si Si1 0.402307 0.840665 0.823422
Si Si2 0.968326 0.074240 0.683211
Si Si3 0.628838 0.775310 0.316324
Si Si4 0.167085 0.882221 0.317470
Si Si5 0.499958 0.725170 0.818138
Si Si6 0.356287 0.082433 0.181511
Si Si7 0.009954 0.582563 0.332434
Si Si8 0.200835 0.437110 0.682402
O O1 0.430964 0.760810 0.781584
O O2 0.460211 0.895044 0.797698
O O3 0.344250 0.868221 0.719280
O O4 0.379805 0.845019 0.000000
O O5 0.975598 0.083749 0.500000
O O6 0.894845 0.072330 0.732525
O O7 0.003365 0.142081 0.761989
O O8 0.000000 0.000000 0.742782
O O9 0.633585 0.784954 0.500000
O O10 0.660170 0.700280 0.257843
O O11 0.554350 0.771956 0.268314
O O12 0.671156 0.838094 0.230428
O O13 0.173076 0.880973 0.500000
O O14 0.230011 0.918852 0.249838
O O15 0.514294 0.728776 0.000000
O O16 0.420857 0.092023 0.270451
O O17 0.317986 0.012893 0.238888
O O18 0.365359 0.074559 0.000000
O O19 0.001993 0.623526 0.500000
O O20 0.000000 0.500000 0.368629
O O21 0.200376 0.449552 0.500000
#
# Coordination Sequence:
#
# PCOD8225587 Si02
#       8
#     8   8   8   8   8   8   8   8
#     4  11  22  34  50  76 114 149 182 224 272 322
#     4   9  18  36  63  89 109 134 178 236 290 336
#     4  10  19  35  59  81 104 136 181 231 277 326
#     4   8  18  37  59  82 106 137 180 232 279 326
#     4  10  20  33  52  81 114 143 172 218 279 333
#     4  12  23  34  51  79 112 144 183 227 275 324
#     4  11  21  32  50  76 106 144 187 224 266 314
#     4  11  22  37  55  76 109 152 193 225 269 331
#
# _framework density 18.982227000000002
#
# number of rings (size 3 to 8) (size 9 to 14) (size 15 to 20)
#    0.000    1.750    2.500    3.750    0.000    2.250 
#    0.000    7.500    0.000    6.000    0.000    0.000 
#    0.000    0.000    0.000    0.000    0.000    0.000 
#
# Total GULP energy -793081.938068 kJ/mol
# GULP energy per Si atom -12391.905282 kJ/mol
# Density = 1.893902 g / cm^3
# Si number density = 18.982227 Si / 1000 Ang^3
#
#
#
# Elastic Constant Matrix: (Units=GPa)
#
#
# Indices 1 2 3 4 5 6 
#
# 1 89.1086 56.9462 3.3956 0.0000 0.0000 0.0000
# 2 56.9462 131.3929 29.5273 0.0000 0.0000 0.0000
# 3 3.3956 29.5273 56.2068 0.0000 0.0000 0.0000
# 4 0.0000 0.0000 0.0000 27.4658 0.0000 0.0000
# 5 0.0000 0.0000 0.0000 0.0000 8.5524 0.0000
# 6 0.0000 0.0000 0.0000 0.0000 0.0000 22.3538
#
#
#
# Elastic Compliance Matrix: (Units=1/GPa)
#
#
# Indices 1 2 3 4 5 6 
#
# 1 0.015963 -0.007599 0.003028 0.000000 0.000000 0.000000
# 2 -0.007599 0.012247 -0.005975 0.000000 0.000000 0.000000
# 3 0.003028 -0.005975 0.020747 0.000000 0.000000 0.000000
# 4 0.000000 0.000000 0.000000 0.036409 0.000000 0.000000
# 5 0.000000 0.000000 0.000000 0.000000 0.116926 0.000000
# 6 0.000000 0.000000 0.000000 0.000000 0.000000 0.044735
#
#
# Mechanical properties :
#
#
# Convention : Reuss Voigt Hill
#
# Bulk Modulus (GPa) = 35.88695 50.71630 43.30163
# Shear Modulus (GPa) = 18.02406 24.13036 21.07721
#
# Velocity S-wave (km/s) = 3.08478 3.56927 3.33583
# Velocity P-wave (km/s) = 5.62445 6.61529 6.13989
#
# Compressibility (1/GPa) = 0.02786528
#
# Stress axis : x y z
#
# Youngs Moduli (GPa) = 62.64481 81.65436 48.19935
#
# Poissons Ratio (x) = 0.62047 -0.14593
# Poissons Ratio (y) = 0.47603 0.28797
# Poissons Ratio (z) = -0.18966 0.48785
#
# Static dielectric constant tensor:
#      x y z
#    x 3.537710 0.000000 0.000000 
#    y 0.000000 3.814610 0.000000 
#    z 0.000000 0.000000 3.420130 
# 
# 
# High freq. dielectric constant tensor:
#      x y z
#    x 1.708880 0.000000 0.000000 
#    y 0.000000 1.747520 0.000000 
#    z 0.000000 0.000000 1.737450 
# 
# From -- ./inp_files/8938.got.cif
#   From: 2010.03.12/outbox.cif.g09.slc.cpg/sg55_5_cif.got.tgz:8938.got - 2010.04.16 15:19:21.
