data_PCOD8225561
_publ_section_title
;
Structure prediction by ZEFSAII (Michael W. Deem and Ramdas Pophale) SiO2 
 PCOD8225561
Probable space group: P B A M
;
_chemical_formula_sum "Si O2"
_cell_formula_units_Z 64
_cell_length_a 14.659105
_cell_length_b 24.630602
_cell_length_c 8.948255
_cell_angle_alpha 90.000000
_cell_angle_beta 90.000000
_cell_angle_gamma 90.000000
_cell_volume 3230.880045
_symmetry_space_group_name_H-M "P B A M"
_symmetry_group_IT_number 55
_symmetry_cell_setting 'orthorhombic'
loop_
_space_group_symop_operation_xyz
x,y,z
-x,-y,z
1/2+x,1/2-y,-z
1/2-x,1/2+y,-z
-x,-y,-z
x,y,-z
1/2-x,1/2+y,z
1/2+x,1/2-y,z
loop_
_atom_site_type_symbol
_atom_site_label
_atom_site_fract_x
_atom_site_fract_y
_atom_site_fract_z
Si Si1 0.140744 0.850718 0.668979
Si Si2 0.560026 0.373075 0.331332
Si Si3 0.996327 0.671772 0.824103
Si Si4 0.658473 0.767093 0.323539
Si Si5 0.752419 0.050553 0.322816
Si Si6 0.436053 0.948732 0.171925
Si Si7 0.097989 0.022387 0.175114
Si Si8 0.868447 0.758045 0.325691
O O1 0.170082 0.837449 0.500000
O O2 0.132116 0.791952 0.745316
O O3 0.217832 0.889785 0.739505
O O4 0.047558 0.884342 0.677069
O O5 0.597136 0.382231 0.500000
O O6 0.608054 0.414305 0.218234
O O7 0.574822 0.311231 0.281302
O O8 0.983115 0.608281 0.782873
O O9 0.911227 0.706787 0.760739
O O10 0.094272 0.688910 0.756415
O O11 0.999662 0.680708 0.000000
O O12 0.639912 0.772854 0.500000
O O13 0.764816 0.773224 0.282550
O O14 0.762143 0.048196 0.500000
O O15 0.650229 0.039571 0.274811
O O16 0.818795 0.006020 0.255736
O O17 0.500000 0.000000 0.202507
O O18 0.404975 0.946577 0.000000
O O19 0.109200 0.014529 0.000000
O O20 0.000000 0.000000 0.230595
O O21 0.877096 0.743993 0.500000
#
# Coordination Sequence:
#
# PCOD8225561 Si02
#       8
#     8   8   8   8   8   8   8   8
#     4   9  17  32  56  84 116 152 191 240 296 345
#     4  10  19  35  57  83 116 155 195 240 294 349
#     4  11  23  39  62  90 120 157 199 246 300 359
#     4  10  20  37  61  88 119 157 197 240 294 352
#     4  11  22  38  64  92 116 153 206 257 301 353
#     4  10  24  46  65  84 118 160 199 247 305 358
#     4  11  23  37  55  84 121 160 198 239 295 359
#     4  10  21  38  62  90 122 158 198 246 297 352
#
# _framework density 19.808843
#
# number of rings (size 3 to 8) (size 9 to 14) (size 15 to 20)
#    0.000    1.750    2.500    1.875    0.000    4.750 
#    0.000    3.750    0.000    0.000    0.000    0.000 
#    0.000    0.000    0.000    0.000    0.000    0.000 
#
# Total GULP energy -793419.990090 kJ/mol
# GULP energy per Si atom -12397.187345 kJ/mol
# Density = 1.976376 g / cm^3
# Si number density = 19.808843 Si / 1000 Ang^3
#
#
#
# Elastic Constant Matrix: (Units=GPa)
#
#
# Indices 1 2 3 4 5 6 
#
# 1 116.7849 58.1989 46.5865 0.0000 0.0000 0.0000
# 2 58.1989 138.9743 50.0938 0.0000 0.0000 0.0000
# 3 46.5865 50.0938 67.6348 0.0000 0.0000 0.0000
# 4 0.0000 0.0000 0.0000 28.5507 0.0000 0.0000
# 5 0.0000 0.0000 0.0000 0.0000 29.6335 0.0000
# 6 0.0000 0.0000 0.0000 0.0000 0.0000 31.8622
#
#
#
# Elastic Compliance Matrix: (Units=1/GPa)
#
#
# Indices 1 2 3 4 5 6 
#
# 1 0.012629 -0.002937 -0.006523 0.000000 0.000000 0.000000
# 2 -0.002937 0.010499 -0.005753 0.000000 0.000000 0.000000
# 3 -0.006523 -0.005753 0.023539 0.000000 0.000000 0.000000
# 4 0.000000 0.000000 0.000000 0.035025 0.000000 0.000000
# 5 0.000000 0.000000 0.000000 0.000000 0.033746 0.000000
# 6 0.000000 0.000000 0.000000 0.000000 0.000000 0.031385
#
#
# Mechanical properties :
#
#
# Convention : Reuss Voigt Hill
#
# Bulk Modulus (GPa) = 61.57476 70.35025 65.96250
# Shear Modulus (GPa) = 27.37265 29.24360 28.30813
#
# Velocity S-wave (km/s) = 3.72134 3.84642 3.78440
# Velocity P-wave (km/s) = 7.04390 7.43763 7.24344
#
# Compressibility (1/GPa) = 0.01624042
#
# Stress axis : x y z
#
# Youngs Moduli (GPa) = 79.18530 95.24348 42.48193
#
# Poissons Ratio (x) = 0.27976 0.27711
# Poissons Ratio (y) = 0.23259 0.24441
# Poissons Ratio (z) = 0.51653 0.54796
#
# Static dielectric constant tensor:
#      x y z
#    x 3.603320 0.000000 0.000000 
#    y 0.000000 3.757030 0.000000 
#    z 0.000000 0.000000 3.391780 
# 
# 
# High freq. dielectric constant tensor:
#      x y z
#    x 1.775510 0.000000 0.000000 
#    y 0.000000 1.783570 0.000000 
#    z 0.000000 0.000000 1.750250 
# 
# From -- ./inp_files/6676.got.cif
#   From: 2010.03.12/outbox.cif.g09.slc.cpg/sg55_4_cif.got.tgz:6676.got - 2010.04.16 15:19:21.
