data_PCOD8225051
_publ_section_title
;
Structure prediction by ZEFSAII (Michael W. Deem and Ramdas Pophale) SiO2 
 PCOD8225051
Probable space group: P B A M
;
_chemical_formula_sum "Si O2"
_cell_formula_units_Z 56
_cell_length_a 19.099496
_cell_length_b 15.874198
_cell_length_c 9.477432
_cell_angle_alpha 90.000000
_cell_angle_beta 90.000000
_cell_angle_gamma 90.000000
_cell_volume 2873.454848
_symmetry_space_group_name_H-M "P B A M"
_symmetry_group_IT_number 55
_symmetry_cell_setting 'orthorhombic'
loop_
_space_group_symop_operation_xyz
x,y,z
-x,-y,z
1/2+x,1/2-y,-z
1/2-x,1/2+y,-z
-x,-y,-z
x,y,-z
1/2-x,1/2+y,z
1/2+x,1/2-y,z
loop_
_atom_site_type_symbol
_atom_site_label
_atom_site_fract_x
_atom_site_fract_y
_atom_site_fract_z
Si Si1 0.725785 0.319466 0.839941
Si Si2 0.630477 0.482257 0.842649
Si Si3 0.119416 0.277590 0.338526
Si Si4 0.856269 0.320724 0.663876
Si Si5 0.630035 0.628049 0.340537
Si Si6 0.529674 0.389025 0.342458
Si Si7 0.498699 0.903639 0.667575
O O1 0.677434 0.400473 0.842706
O O2 0.687482 0.241365 0.758640
O O3 0.794092 0.356174 0.760399
O O4 0.742950 0.290051 0.000000
O O5 0.667924 0.561049 0.763149
O O6 0.559378 0.461145 0.759014
O O7 0.611463 0.510818 0.000000
O O8 0.144820 0.293460 0.500000
O O9 0.069222 0.198433 0.329965
O O10 0.072830 0.356858 0.280992
O O11 0.846246 0.346361 0.500000
O O12 0.844206 0.221729 0.686065
O O13 0.931139 0.355131 0.719958
O O14 0.644882 0.599390 0.500000
O O15 0.548855 0.630784 0.301264
O O16 0.537084 0.425463 0.500000
O O17 0.498222 0.900980 0.500000
O O18 0.500000 0.000000 0.723931
#
# Coordination Sequence:
#
# PCOD8225051 Si02
#       7
#     8   8   8   8   8   8   8
#     4  10  22  39  55  76 111 152 188 228 280 336
#     4  10  21  34  49  74 108 144 181 218 263 324
#     4   9  16  32  58  83 109 142 181 226 276 332
#     4  10  20  37  59  83 111 145 186 232 282 336
#     4  10  19  32  52  79 107 136 175 221 271 324
#     4   9  16  29  51  77 106 137 168 212 265 316
#     4   9  17  33  60  91 116 139 180 240 292 333
#
# _framework density 19.488734999999998
#
# number of rings (size 3 to 8) (size 9 to 14) (size 15 to 20)
#    0.000    2.429    1.429    1.286    0.000    4.571 
#    2.571    0.714    0.000    0.857    0.000    0.000 
#    0.000    0.000    0.000    0.000    0.000    0.000 
#
# Total GULP energy -694027.808223 kJ/mol
# GULP energy per Si atom -12393.353718 kJ/mol
# Density = 1.944438 g / cm^3
# Si number density = 19.488735 Si / 1000 Ang^3
#
#
#
# Elastic Constant Matrix: (Units=GPa)
#
#
# Indices 1 2 3 4 5 6 
#
# 1 72.1681 11.7999 34.2099 0.0000 0.0000 0.0000
# 2 11.7999 58.8597 25.2233 0.0000 0.0000 0.0000
# 3 34.2099 25.2233 94.7754 0.0000 0.0000 0.0000
# 4 0.0000 0.0000 0.0000 18.0429 0.0000 0.0000
# 5 0.0000 0.0000 0.0000 0.0000 -2.4151 0.0000
# 6 0.0000 0.0000 0.0000 0.0000 0.0000 11.9436
#
#
#
# Elastic Compliance Matrix: (Units=1/GPa)
#
#
# Indices 1 2 3 4 5 6 
#
# 1 0.016756 -0.000866 -0.005818 0.000000 0.000000 0.000000
# 2 -0.000866 0.019221 -0.004803 0.000000 0.000000 0.000000
# 3 -0.005818 -0.004803 0.013929 0.000000 0.000000 0.000000
# 4 0.000000 0.000000 0.000000 0.055423 0.000000 0.000000
# 5 0.000000 0.000000 0.000000 0.000000 -0.414061 0.000000
# 6 0.000000 0.000000 0.000000 0.000000 0.000000 0.083727
#
#
# Mechanical properties :
#
#
# Convention : Reuss Voigt Hill
#
# Bulk Modulus (GPa) = 37.12863 40.91882 39.02373
# Shear Modulus (GPa) = -25.89960 15.81897 -5.04031
#
# Velocity S-wave (km/s) = -3.64943 2.85212 -1.60993
# Velocity P-wave (km/s) = 1.15536 5.64693 4.07570
#
# Compressibility (1/GPa) = 0.02693339
#
# Stress axis : x y z
#
# Youngs Moduli (GPa) = 59.68044 52.02534 71.79044
#
# Poissons Ratio (x) = 0.04506 0.41765
# Poissons Ratio (y) = 0.05169 0.34480
# Poissons Ratio (z) = 0.34720 0.24987
#
# Static dielectric constant tensor:
#      x y z
#    x 3.533040 0.000000 0.000000 
#    y 0.000000 3.789440 0.000000 
#    z 0.000000 0.000000 3.602730 
# 
# 
# High freq. dielectric constant tensor:
#      x y z
#    x 1.748640 0.000000 0.000000 
#    y 0.000000 1.759810 0.000000 
#    z 0.000000 0.000000 1.734280 
# 
# From -- ./inp_files/8794.got.cif
#   From: 2010.03.12/outbox.cif.g09.slc.cpg/sg55_5_cif.got.tgz:8794.got - 2010.04.16 15:19:21.
