data_PCOD8225784
_publ_section_title
;
Structure prediction by ZEFSAII (Michael W. Deem and Ramdas Pophale) SiO2 
 PCOD8225784
Probable space group: P B A M
;
_chemical_formula_sum "Si O2"
_cell_formula_units_Z 64
_cell_length_a 18.772479
_cell_length_b 19.915714
_cell_length_c 8.793470
_cell_angle_alpha 90.000000
_cell_angle_beta 90.000000
_cell_angle_gamma 90.000000
_cell_volume 3287.591087
_symmetry_space_group_name_H-M "P B A M"
_symmetry_group_IT_number 55
_symmetry_cell_setting 'orthorhombic'
loop_
_space_group_symop_operation_xyz
x,y,z
-x,-y,z
1/2+x,1/2-y,-z
1/2-x,1/2+y,-z
-x,-y,-z
x,y,-z
1/2-x,1/2+y,z
1/2+x,1/2-y,z
loop_
_atom_site_type_symbol
_atom_site_label
_atom_site_fract_x
_atom_site_fract_y
_atom_site_fract_z
Si Si1 0.815291 0.414845 0.675107
Si Si2 0.040299 0.568490 0.175345
Si Si3 0.193835 0.738331 0.678832
Si Si4 0.296771 0.842596 0.178682
Si Si5 0.545313 0.703625 0.320099
Si Si6 0.444399 0.446149 0.681028
Si Si7 0.284498 0.464738 0.323928
Si Si8 0.447501 0.821845 0.321985
O O1 0.840566 0.418003 0.500000
O O2 0.877601 0.442844 0.781874
O O3 0.795514 0.339295 0.721939
O O4 0.746059 0.460790 0.701882
O O5 0.000000 0.500000 0.208598
O O6 0.009535 0.625485 0.285147
O O7 0.032858 0.590253 0.000000
O O8 0.198592 0.750389 0.500000
O O9 0.258029 0.777887 0.754854
O O10 0.118593 0.764916 0.745482
O O11 0.262586 0.911401 0.235039
O O12 0.378843 0.840242 0.225639
O O13 0.291387 0.840762 0.000000
O O14 0.552872 0.703290 0.500000
O O15 0.534823 0.628036 0.258029
O O16 0.477330 0.748512 0.273162
O O17 0.500000 0.500000 0.749989
O O18 0.447736 0.448128 0.500000
O O19 0.365203 0.464415 0.737993
O O20 0.282873 0.443478 0.500000
O O21 0.429175 0.824595 0.500000
#
# Coordination Sequence:
#
# PCOD8225784 Si02
#       8
#     8   8   8   8   8   8   8   8
#     4  10  21  36  59  88 115 152 202 248 296 355
#     4  11  23  37  54  81 120 159 191 237 297 359
#     4  10  19  38  62  86 116 153 199 249 294 352
#     4  12  25  39  57  87 121 161 202 241 297 363
#     4   9  17  33  59  86 114 147 188 241 299 345
#     4   9  17  31  57  91 119 144 186 243 299 347
#     4  10  20  37  61  88 119 157 199 250 301 354
#     4  11  22  38  61  87 114 151 198 250 297 349
#
# _framework density 19.467141000000002
#
# number of rings (size 3 to 8) (size 9 to 14) (size 15 to 20)
#    0.000    1.750    2.500    2.625    0.000    5.000 
#    0.000    3.750    0.000    0.375    0.000    0.000 
#    0.000    0.000    0.000    0.000    0.000    0.000 
#
# Total GULP energy -793775.808471 kJ/mol
# GULP energy per Si atom -12402.747007 kJ/mol
# Density = 1.942283 g / cm^3
# Si number density = 19.467141 Si / 1000 Ang^3
#
#
#
# Elastic Constant Matrix: (Units=GPa)
#
#
# Indices 1 2 3 4 5 6 
#
# 1 107.0903 60.2342 13.2629 0.0000 0.0000 0.0000
# 2 60.2342 157.1907 30.9766 0.0000 0.0000 0.0000
# 3 13.2629 30.9766 39.2499 0.0000 0.0000 0.0000
# 4 0.0000 0.0000 0.0000 3.0393 0.0000 0.0000
# 5 0.0000 0.0000 0.0000 0.0000 4.7676 0.0000
# 6 0.0000 0.0000 0.0000 0.0000 0.0000 41.2568
#
#
#
# Elastic Compliance Matrix: (Units=1/GPa)
#
#
# Indices 1 2 3 4 5 6 
#
# 1 0.011912 -0.004466 -0.000501 0.000000 0.000000 0.000000
# 2 -0.004466 0.009208 -0.005758 0.000000 0.000000 0.000000
# 3 -0.000501 -0.005758 0.030191 0.000000 0.000000 0.000000
# 4 0.000000 0.000000 0.000000 0.329028 0.000000 0.000000
# 5 0.000000 0.000000 0.000000 0.000000 0.209750 0.000000
# 6 0.000000 0.000000 0.000000 0.000000 0.000000 0.024238
#
#
# Mechanical properties :
#
#
# Convention : Reuss Voigt Hill
#
# Bulk Modulus (GPa) = 33.48730 56.94203 45.21467
# Shear Modulus (GPa) = 7.74318 23.08320 15.41319
#
# Velocity S-wave (km/s) = 1.99655 3.44721 2.81687
# Velocity P-wave (km/s) = 4.74913 6.71998 5.81861
#
# Compressibility (1/GPa) = 0.02986207
#
# Stress axis : x y z
#
# Youngs Moduli (GPa) = 83.95048 108.60575 33.12243
#
# Poissons Ratio (x) = 0.48502 0.01658
# Poissons Ratio (y) = 0.37491 0.19071
# Poissons Ratio (z) = 0.04203 0.62532
#
# Static dielectric constant tensor:
#      x y z
#    x 3.622810 0.000000 0.000000 
#    y 0.000000 3.831940 0.000000 
#    z 0.000000 0.000000 3.226420 
# 
# 
# High freq. dielectric constant tensor:
#      x y z
#    x 1.762590 0.000000 0.000000 
#    y 0.000000 1.772090 0.000000 
#    z 0.000000 0.000000 1.724940 
# 
# From -- ./inp_files/8059.got.cif
#   From: 2010.03.12/outbox.cif.g09.slc.cpg/sg55_5_cif.got.tgz:8059.got - 2010.04.16 15:19:21.
