data_PCOD8225798
_publ_section_title
;
Structure prediction by ZEFSAII (Michael W. Deem and Ramdas Pophale) SiO2 
 PCOD8225798
Probable space group: P B A M
;
_chemical_formula_sum "Si O2"
_cell_formula_units_Z 48
_cell_length_a 14.335606
_cell_length_b 10.750591
_cell_length_c 14.890299
_cell_angle_alpha 90.000000
_cell_angle_beta 90.000000
_cell_angle_gamma 90.000000
_cell_volume 2294.836847
_symmetry_space_group_name_H-M "P B A M"
_symmetry_group_IT_number 55
_symmetry_cell_setting 'orthorhombic'
loop_
_space_group_symop_operation_xyz
x,y,z
-x,-y,z
1/2+x,1/2-y,-z
1/2-x,1/2+y,-z
-x,-y,-z
x,y,-z
1/2-x,1/2+y,z
1/2+x,1/2-y,z
loop_
_atom_site_type_symbol
_atom_site_label
_atom_site_fract_x
_atom_site_fract_y
_atom_site_fract_z
Si Si1 0.564259 0.786925 0.818475
Si Si2 0.611705 0.505934 0.000000
Si Si3 0.871664 0.815096 0.854625
Si Si4 0.094132 0.579124 0.000000
Si Si5 0.000000 0.500000 0.688532
Si Si6 0.283336 0.855591 0.000000
Si Si7 0.737108 0.759142 0.701478
Si Si8 0.692882 0.014724 0.395687
O O1 0.483755 0.689286 0.843395
O O2 0.650671 0.726024 0.766425
O O3 0.518792 0.887275 0.754128
O O4 0.602750 0.840373 0.910906
O O5 0.500000 0.500000 0.000000
O O6 0.648714 0.440538 0.090946
O O7 0.667927 0.639211 0.000000
O O8 0.825513 0.808321 0.757402
O O9 0.828959 0.701709 0.911405
O O10 0.000000 0.500000 0.000000
O O11 0.187167 0.498720 0.000000
O O12 0.915689 0.535365 0.623449
O O13 0.752969 0.628975 0.650904
O O14 0.719355 0.875689 0.635893
O O15 0.715330 0.023852 0.500000
#
# Coordination Sequence:
#
# PCOD8225798 Si02
#       8
#     8   4   8   4   4   4   8   8
#     4  11  21  37  63 100 131 175 229 278 334 391
#     4  11  27  40  59  89 136 189 231 280 328 399
#     4  11  23  41  60  94 128 178 230 272 334 397
#     4  12  18  33  64  94 136 172 225 290 318 380
#     4  10  19  39  70  98 124 172 234 283 327 416
#     4  11  23  39  58  88 132 174 229 275 326 387
#     4  11  26  41  73  99 134 177 220 285 346 421
#     4  11  24  46  71 102 133 171 223 291 358 418
#
# _framework density 20.916519000000001
#
# number of rings (size 3 to 8) (size 9 to 14) (size 15 to 20)
#    0.000    1.000    4.167    2.250    7.000    0.667 
#    0.000    0.000    0.000    1.000    0.000    0.000 
#    0.000    0.000    0.000    0.000    0.000    0.000 
#
# Total GULP energy -594980.352867 kJ/mol
# GULP energy per Si atom -12395.424018 kJ/mol
# Density = 2.086891 g / cm^3
# Si number density = 20.916519 Si / 1000 Ang^3
#
#
#
# Elastic Constant Matrix: (Units=GPa)
#
#
# Indices 1 2 3 4 5 6 
#
# 1 115.0830 47.2895 43.3709 0.0000 0.0000 0.0000
# 2 47.2895 82.8209 42.6158 0.0000 0.0000 0.0000
# 3 43.3709 42.6158 131.9972 0.0000 0.0000 0.0000
# 4 0.0000 0.0000 0.0000 35.1055 0.0000 0.0000
# 5 0.0000 0.0000 0.0000 0.0000 22.8593 0.0000
# 6 0.0000 0.0000 0.0000 0.0000 0.0000 37.3619
#
#
#
# Elastic Compliance Matrix: (Units=1/GPa)
#
#
# Indices 1 2 3 4 5 6 
#
# 1 0.011794 -0.005685 -0.002040 0.000000 0.000000 0.000000
# 2 -0.005685 0.017220 -0.003692 0.000000 0.000000 0.000000
# 3 -0.002040 -0.003692 0.009438 0.000000 0.000000 0.000000
# 4 0.000000 0.000000 0.000000 0.028486 0.000000 0.000000
# 5 0.000000 0.000000 0.000000 0.000000 0.043746 0.000000
# 6 0.000000 0.000000 0.000000 0.000000 0.000000 0.026765
#
#
# Mechanical properties :
#
#
# Convention : Reuss Voigt Hill
#
# Bulk Modulus (GPa) = 64.02275 66.27261 65.14768
# Shear Modulus (GPa) = 30.21384 32.17367 31.19375
#
# Velocity S-wave (km/s) = 3.80478 3.92624 3.86598
# Velocity P-wave (km/s) = 7.06944 7.23235 7.15136
#
# Compressibility (1/GPa) = 0.01561945
#
# Stress axis : x y z
#
# Youngs Moduli (GPa) = 84.78849 58.07341 105.95427
#
# Poissons Ratio (x) = 0.33012 0.21614
# Poissons Ratio (y) = 0.48199 0.39114
# Poissons Ratio (z) = 0.17296 0.21438
#
# Static dielectric constant tensor:
#      x y z
#    x 4.075980 0.000000 0.000000 
#    y 0.000000 3.763200 0.000000 
#    z 0.000000 0.000000 3.765870 
# 
# 
# High freq. dielectric constant tensor:
#      x y z
#    x 1.836380 0.000000 0.000000 
#    y 0.000000 1.817320 0.000000 
#    z 0.000000 0.000000 1.816200 
# 
# From -- ./inp_files/18925.got.cif
#   From: 2010.03.12/outbox.cif.g09.slc.cpg/sg55_10_cif.got.tgz:18925.got - 2010.04.16 15:19:21.
