data_PCOD8225930
_publ_section_title
;
Structure prediction by ZEFSAII (Michael W. Deem and Ramdas Pophale) SiO2 
 PCOD8225930
Probable space group: P B A M
;
_chemical_formula_sum "Si O2"
_cell_formula_units_Z 64
_cell_length_a 13.549264
_cell_length_b 17.402931
_cell_length_c 13.339052
_cell_angle_alpha 90.000000
_cell_angle_beta 90.000000
_cell_angle_gamma 90.000000
_cell_volume 3145.307197
_symmetry_space_group_name_H-M "P B A M"
_symmetry_group_IT_number 55
_symmetry_cell_setting 'orthorhombic'
loop_
_space_group_symop_operation_xyz
x,y,z
-x,-y,z
1/2+x,1/2-y,-z
1/2-x,1/2+y,-z
-x,-y,-z
x,y,-z
1/2-x,1/2+y,z
1/2+x,1/2-y,z
loop_
_atom_site_type_symbol
_atom_site_label
_atom_site_fract_x
_atom_site_fract_y
_atom_site_fract_z
Si Si1 0.993488 0.273194 0.886512
Si Si2 0.348008 0.714762 0.263952
Si Si3 0.831810 0.644109 0.387188
Si Si4 0.837634 0.380056 0.791875
Si Si5 0.754820 0.029289 0.774212
Si Si6 0.460802 0.081159 0.388330
Si Si7 0.421176 0.392925 0.113125
Si Si8 0.563911 0.436749 0.713451
O O1 0.925990 0.346002 0.858372
O O2 0.924420 0.198693 0.877191
O O3 0.088842 0.265345 0.815090
O O4 0.032152 0.284071 0.000000
O O5 0.301535 0.771907 0.345976
O O6 0.260851 0.672313 0.202514
O O7 0.419070 0.651609 0.321720
O O8 0.788654 0.633368 0.500000
O O9 0.793118 0.578062 0.314284
O O10 0.950148 0.641937 0.389475
O O11 0.819885 0.468914 0.828504
O O12 0.872486 0.383974 0.676425
O O13 0.810676 0.083219 0.853404
O O14 0.828692 0.971167 0.720514
O O15 0.418447 0.067509 0.500000
O O16 0.500000 0.000000 0.344640
O O17 0.505699 0.431675 0.180363
O O18 0.440182 0.420380 0.000000
O O19 0.500000 0.500000 0.647707
#
# Coordination Sequence:
#
# PCOD8225930 Si02
#       8
#     8   8   8   8   8   8   8   8
#     4  10  21  38  58  82 117 157 196 242 296 351
#     4  10  21  37  60  87 117 154 198 244 288 352
#     4  11  22  38  59  82 112 152 194 239 291 351
#     4  11  21  36  60  87 117 154 195 241 294 345
#     4  10  20  33  56  87 117 150 197 246 286 347
#     4  10  20  37  62  85 110 149 194 236 289 354
#     4   9  18  35  59  85 117 157 199 244 294 350
#     4   8  17  34  57  84 117 154 192 242 296 338
#
# _framework density 20.347774999999999
#
# number of rings (size 3 to 8) (size 9 to 14) (size 15 to 20)
#    0.000    2.125    2.500    0.750    0.000    3.750 
#    0.000    6.250    0.000    4.875    0.000    0.000 
#    0.000    0.000    0.000    0.000    0.000    0.000 
#
# Total GULP energy -792896.399286 kJ/mol
# GULP energy per Si atom -12389.006239 kJ/mol
# Density = 2.030146 g / cm^3
# Si number density = 20.347775 Si / 1000 Ang^3
#
#
#
# Elastic Constant Matrix: (Units=GPa)
#
#
# Indices 1 2 3 4 5 6 
#
# 1 75.0382 25.9832 36.2741 0.0000 0.0000 0.0000
# 2 25.9832 106.0413 45.0815 0.0000 0.0000 0.0000
# 3 36.2741 45.0815 63.7324 0.0000 0.0000 0.0000
# 4 0.0000 0.0000 0.0000 19.6448 0.0000 0.0000
# 5 0.0000 0.0000 0.0000 0.0000 20.6160 0.0000
# 6 0.0000 0.0000 0.0000 0.0000 0.0000 35.5782
#
#
#
# Elastic Compliance Matrix: (Units=1/GPa)
#
#
# Indices 1 2 3 4 5 6 
#
# 1 0.018385 -0.000080 -0.010407 0.000000 0.000000 0.000000
# 2 -0.000080 0.013486 -0.009494 0.000000 0.000000 0.000000
# 3 -0.010407 -0.009494 0.028329 0.000000 0.000000 0.000000
# 4 0.000000 0.000000 0.000000 0.050904 0.000000 0.000000
# 5 0.000000 0.000000 0.000000 0.000000 0.048506 0.000000
# 6 0.000000 0.000000 0.000000 0.000000 0.000000 0.028107
#
#
# Mechanical properties :
#
#
# Convention : Reuss Voigt Hill
#
# Bulk Modulus (GPa) = 49.41204 51.05440 50.23322
# Shear Modulus (GPa) = 21.32859 24.33268 22.83064
#
# Velocity S-wave (km/s) = 3.24111 3.46184 3.35329
# Velocity P-wave (km/s) = 6.19216 6.41284 6.30347
#
# Compressibility (1/GPa) = 0.02023798
#
# Stress axis : x y z
#
# Youngs Moduli (GPa) = 54.39091 74.15067 35.29891
#
# Poissons Ratio (x) = 0.00597 0.36737
# Poissons Ratio (y) = 0.00438 0.33512
# Poissons Ratio (z) = 0.56607 0.70396
#
# Static dielectric constant tensor:
#      x y z
#    x 3.647250 0.000000 0.000000 
#    y 0.000000 4.127110 0.000000 
#    z 0.000000 0.000000 3.395590 
# 
# 
# High freq. dielectric constant tensor:
#      x y z
#    x 1.788270 0.000000 0.000000 
#    y 0.000000 1.816410 0.000000 
#    z 0.000000 0.000000 1.753460 
# 
# From -- ./inp_files/14425.got.cif
#   From: 2010.03.12/outbox.cif.g09.slc.cpg/sg55_8_cif.got.tgz:14425.got - 2010.04.16 15:19:21.
