data_PCOD8225422
_publ_section_title
;
Structure prediction by ZEFSAII (Michael W. Deem and Ramdas Pophale) SiO2 
 PCOD8225422
Probable space group: P B A M
;
_chemical_formula_sum "Si O2"
_cell_formula_units_Z 64
_cell_length_a 15.079032
_cell_length_b 24.772080
_cell_length_c 9.120057
_cell_angle_alpha 90.000000
_cell_angle_beta 90.000000
_cell_angle_gamma 90.000000
_cell_volume 3406.696853
_symmetry_space_group_name_H-M "P B A M"
_symmetry_group_IT_number 55
_symmetry_cell_setting 'orthorhombic'
loop_
_space_group_symop_operation_xyz
x,y,z
-x,-y,z
1/2+x,1/2-y,-z
1/2-x,1/2+y,-z
-x,-y,-z
x,y,-z
1/2-x,1/2+y,z
1/2+x,1/2-y,z
loop_
_atom_site_type_symbol
_atom_site_label
_atom_site_fract_x
_atom_site_fract_y
_atom_site_fract_z
Si Si1 0.778949 0.755493 0.329461
Si Si2 0.685070 0.559142 0.329825
Si Si3 0.832119 0.358532 0.668774
Si Si4 0.002296 0.336803 0.167076
Si Si5 0.955867 0.783522 0.170067
Si Si6 0.202574 0.352625 0.826263
Si Si7 0.680580 0.436810 0.674042
Si Si8 0.998822 0.114901 0.670189
O O1 0.797696 0.744015 0.500000
O O2 0.698086 0.796819 0.308361
O O3 0.864495 0.783395 0.259169
O O4 0.753470 0.699774 0.249386
O O5 0.711651 0.565924 0.500000
O O6 0.750242 0.593979 0.230179
O O7 0.695690 0.497985 0.274136
O O8 0.583671 0.575715 0.304197
O O9 0.844369 0.372742 0.500000
O O10 0.927185 0.367834 0.742675
O O11 0.759804 0.399672 0.737391
O O12 0.992842 0.272654 0.190752
O O13 0.099354 0.355967 0.219440
O O14 0.987478 0.352969 0.000000
O O15 0.017110 0.830700 0.236351
O O16 0.934465 0.793955 0.000000
O O17 0.213367 0.346190 0.000000
O O18 0.677817 0.433965 0.500000
O O19 0.586171 0.415069 0.731981
O O20 0.008699 0.130761 0.500000
#
# Coordination Sequence:
#
# PCOD8225422 Si02
#       8
#     8   8   8   8   8   8   8   8
#     4  10  19  34  56  83 112 144 184 230 280 335
#     4  10  21  36  60  85 108 148 195 235 282 335
#     4  10  20  34  57  85 111 143 183 233 284 328
#     4   9  21  38  54  76 110 151 188 225 278 337
#     4  10  20  34  52  80 115 152 184 221 277 333
#     4  10  22  40  57  78 114 152 187 234 287 334
#     4   9  18  37  58  83 116 145 184 236 285 334
#     4  10  19  34  56  83 114 150 187 229 277 334
#
# _framework density 18.786525999999999
#
# number of rings (size 3 to 8) (size 9 to 14) (size 15 to 20)
#    0.000    2.250    1.250    2.250    1.750    6.000 
#    0.000    1.875    0.000    5.250    0.000    0.000 
#    0.000    0.000    0.000    0.000    0.000    0.000 
#
# Total GULP energy -793707.891704 kJ/mol
# GULP energy per Si atom -12401.685808 kJ/mol
# Density = 1.874377 g / cm^3
# Si number density = 18.786526 Si / 1000 Ang^3
#
#
#
# Elastic Constant Matrix: (Units=GPa)
#
#
# Indices 1 2 3 4 5 6 
#
# 1 104.3926 63.1474 48.0832 0.0000 0.0000 0.0000
# 2 63.1474 117.3509 43.0385 0.0000 0.0000 0.0000
# 3 48.0832 43.0385 73.9401 0.0000 0.0000 0.0000
# 4 0.0000 0.0000 0.0000 15.8002 0.0000 0.0000
# 5 0.0000 0.0000 0.0000 0.0000 22.7127 0.0000
# 6 0.0000 0.0000 0.0000 0.0000 0.0000 24.6109
#
#
#
# Elastic Compliance Matrix: (Units=1/GPa)
#
#
# Indices 1 2 3 4 5 6 
#
# 1 0.016742 -0.006377 -0.007175 0.000000 0.000000 0.000000
# 2 -0.006377 0.013264 -0.003573 0.000000 0.000000 0.000000
# 3 -0.007175 -0.003573 0.020270 0.000000 0.000000 0.000000
# 4 0.000000 0.000000 0.000000 0.063290 0.000000 0.000000
# 5 0.000000 0.000000 0.000000 0.000000 0.044028 0.000000
# 6 0.000000 0.000000 0.000000 0.000000 0.000000 0.040632
#
#
# Mechanical properties :
#
#
# Convention : Reuss Voigt Hill
#
# Bulk Modulus (GPa) = 62.40491 67.13576 64.77034
# Shear Modulus (GPa) = 21.02437 22.05239 21.53838
#
# Velocity S-wave (km/s) = 3.34895 3.42985 3.38964
# Velocity P-wave (km/s) = 6.94579 7.17627 7.06197
#
# Compressibility (1/GPa) = 0.01602438
#
# Stress axis : x y z
#
# Youngs Moduli (GPa) = 59.73088 75.39401 49.33337
#
# Poissons Ratio (x) = 0.48082 0.35397
# Poissons Ratio (y) = 0.38093 0.17628
# Poissons Ratio (z) = 0.42857 0.26940
#
# Static dielectric constant tensor:
#      x y z
#    x 3.368800 0.000000 0.000000 
#    y 0.000000 3.457480 0.000000 
#    z 0.000000 0.000000 3.301520 
# 
# 
# High freq. dielectric constant tensor:
#      x y z
#    x 1.727700 0.000000 0.000000 
#    y 0.000000 1.723600 0.000000 
#    z 0.000000 0.000000 1.715960 
# 
# From -- ./inp_files/6573.got.cif
#   From: 2010.03.12/outbox.cif.g09.slc.cpg/sg55_4_cif.got.tgz:6573.got - 2010.04.16 15:19:21.
