data_PCOD8225338
_publ_section_title
;
Structure prediction by ZEFSAII (Michael W. Deem and Ramdas Pophale) SiO2 
 PCOD8225338
Probable space group: P B A M
;
_chemical_formula_sum "Si O2"
_cell_formula_units_Z 64
_cell_length_a 10.901208
_cell_length_b 32.483530
_cell_length_c 9.145547
_cell_angle_alpha 90.000000
_cell_angle_beta 90.000000
_cell_angle_gamma 90.000000
_cell_volume 3238.527061
_symmetry_space_group_name_H-M "P B A M"
_symmetry_group_IT_number 55
_symmetry_cell_setting 'orthorhombic'
loop_
_space_group_symop_operation_xyz
x,y,z
-x,-y,z
1/2+x,1/2-y,-z
1/2-x,1/2+y,-z
-x,-y,-z
x,y,-z
1/2-x,1/2+y,z
1/2+x,1/2-y,z
loop_
_atom_site_type_symbol
_atom_site_label
_atom_site_fract_x
_atom_site_fract_y
_atom_site_fract_z
Si Si1 0.269884 0.778607 0.171582
Si Si2 0.613608 0.868182 0.666673
Si Si3 0.242312 0.861230 0.668504
Si Si4 0.930974 0.583259 0.169797
Si Si5 0.553424 0.784656 0.830022
Si Si6 0.703580 0.432406 0.331813
Si Si7 0.428868 0.434228 0.333170
Si Si8 0.240070 0.489878 0.169663
O O1 0.222047 0.815656 0.271415
O O2 0.169329 0.743838 0.214625
O O3 0.414569 0.767648 0.209533
O O4 0.258627 0.789135 0.000000
O O5 0.576675 0.860007 0.500000
O O6 0.548324 0.909126 0.730013
O O7 0.578084 0.827820 0.753434
O O8 0.753092 0.884487 0.684076
O O9 0.289366 0.859979 0.500000
O O10 0.337525 0.881884 0.777582
O O11 0.117878 0.887340 0.679903
O O12 0.881368 0.537377 0.197609
O O13 0.960745 0.590666 0.000000
O O14 0.557800 0.793545 0.000000
O O15 0.713014 0.445929 0.500000
O O16 0.565879 0.433880 0.272461
O O17 0.781848 0.465438 0.238992
O O18 0.420972 0.449418 0.500000
O O19 0.355899 0.466933 0.238279
O O20 0.266153 0.495112 0.000000
#
# Coordination Sequence:
#
# PCOD8225338 Si02
#       8
#     8   8   8   8   8   8   8   8
#     4  10  21  38  60  86 117 153 190 231 285 348
#     4  11  23  38  58  83 111 147 192 238 283 338
#     4  10  19  33  58  87 110 142 189 232 274 330
#     4  10  20  36  57  80 111 148 185 231 286 339
#     4  10  22  40  61  85 117 155 191 232 289 349
#     4  10  22  38  54  77 114 154 188 231 289 343
#     4   9  19  36  56  79 113 154 189 228 285 345
#     4  10  21  35  55  84 112 144 192 243 286 334
#
# _framework density 19.762070999999999
#
# number of rings (size 3 to 8) (size 9 to 14) (size 15 to 20)
#    0.000    2.000    1.250    1.875    0.000    7.000 
#    0.000    2.500    0.000    0.000    0.000    0.000 
#    0.000    0.000    0.000    0.000    0.000    0.000 
#
# Total GULP energy -793068.950508 kJ/mol
# GULP energy per Si atom -12391.702352 kJ/mol
# Density = 1.971709 g / cm^3
# Si number density = 19.762071 Si / 1000 Ang^3
#
#
#
# Elastic Constant Matrix: (Units=GPa)
#
#
# Indices 1 2 3 4 5 6 
#
# 1 72.5941 54.5642 15.0186 0.0000 0.0000 0.0000
# 2 54.5642 100.2367 32.6160 0.0000 0.0000 0.0000
# 3 15.0186 32.6160 34.8041 0.0000 0.0000 0.0000
# 4 0.0000 0.0000 0.0000 35.7275 0.0000 0.0000
# 5 0.0000 0.0000 0.0000 0.0000 17.7612 0.0000
# 6 0.0000 0.0000 0.0000 0.0000 0.0000 24.9006
#
#
#
# Elastic Compliance Matrix: (Units=1/GPa)
#
#
# Indices 1 2 3 4 5 6 
#
# 1 0.023484 -0.013648 0.002656 0.000000 0.000000 0.000000
# 2 -0.013648 0.022285 -0.014994 0.000000 0.000000 0.000000
# 3 0.002656 -0.014994 0.041638 0.000000 0.000000 0.000000
# 4 0.000000 0.000000 0.000000 0.027990 0.000000 0.000000
# 5 0.000000 0.000000 0.000000 0.000000 0.056303 0.000000
# 6 0.000000 0.000000 0.000000 0.000000 0.000000 0.040160
#
#
# Mechanical properties :
#
#
# Convention : Reuss Voigt Hill
#
# Bulk Modulus (GPa) = 28.22138 45.78139 37.00138
# Shear Modulus (GPa) = 18.13950 22.70695 20.42322
#
# Velocity S-wave (km/s) = 3.03296 3.39339 3.21823
# Velocity P-wave (km/s) = 5.15526 6.21048 5.70731
#
# Compressibility (1/GPa) = 0.03543413
#
# Stress axis : x y z
#
# Youngs Moduli (GPa) = 42.58243 44.87398 24.01666
#
# Poissons Ratio (x) = 0.61243 -0.06379
# Poissons Ratio (y) = 0.58116 0.36011
# Poissons Ratio (z) = -0.11310 0.67286
#
# Static dielectric constant tensor:
#      x y z
#    x 4.029980 0.000000 0.000000 
#    y 0.000000 3.565460 0.000000 
#    z 0.000000 0.000000 3.586330 
# 
# 
# High freq. dielectric constant tensor:
#      x y z
#    x 1.774780 0.000000 0.000000 
#    y 0.000000 1.765140 0.000000 
#    z 0.000000 0.000000 1.772300 
# 
# From -- ./inp_files/4547.got.cif
#   From: 2010.03.12/outbox.cif.g09.slc.cpg/sg55_3_cif.got.tgz:4547.got - 2010.04.16 15:19:21.
