data_PCOD8225678
_publ_section_title
;
Structure prediction by ZEFSAII (Michael W. Deem and Ramdas Pophale) SiO2 
 PCOD8225678
Probable space group: P B A M
;
_chemical_formula_sum "Si O2"
_cell_formula_units_Z 64
_cell_length_a 18.792669
_cell_length_b 19.641918
_cell_length_c 9.331495
_cell_angle_alpha 90.000000
_cell_angle_beta 90.000000
_cell_angle_gamma 90.000000
_cell_volume 3444.479353
_symmetry_space_group_name_H-M "P B A M"
_symmetry_group_IT_number 55
_symmetry_cell_setting 'orthorhombic'
loop_
_space_group_symop_operation_xyz
x,y,z
-x,-y,z
1/2+x,1/2-y,-z
1/2-x,1/2+y,-z
-x,-y,-z
x,y,-z
1/2-x,1/2+y,z
1/2+x,1/2-y,z
loop_
_atom_site_type_symbol
_atom_site_label
_atom_site_fract_x
_atom_site_fract_y
_atom_site_fract_z
Si Si1 0.803251 0.410306 0.834868
Si Si2 0.037024 0.569347 0.168817
Si Si3 0.181311 0.746114 0.833165
Si Si4 0.286472 0.842681 0.333446
Si Si5 0.548451 0.705291 0.335566
Si Si6 0.441910 0.447838 0.670117
Si Si7 0.284925 0.484159 0.333411
Si Si8 0.447261 0.822851 0.336715
O O1 0.881328 0.432544 0.780309
O O2 0.791664 0.330429 0.809680
O O3 0.743595 0.449494 0.746097
O O4 0.794019 0.430274 0.000000
O O5 0.000000 0.500000 0.218303
O O6 0.997818 0.631678 0.241123
O O7 0.032173 0.581208 0.000000
O O8 0.237313 0.796136 0.762755
O O9 0.105113 0.754755 0.759834
O O10 0.173404 0.763500 0.000000
O O11 0.274818 0.824052 0.500000
O O12 0.267462 0.921066 0.304004
O O13 0.366675 0.828828 0.282393
O O14 0.575982 0.704383 0.500000
O O15 0.538390 0.628380 0.278690
O O16 0.473199 0.744534 0.323362
O O17 0.500000 0.500000 0.735381
O O18 0.443271 0.451616 0.500000
O O19 0.363425 0.466840 0.726824
O O20 0.288755 0.502010 0.500000
O O21 0.452554 0.848648 0.500000
#
# Coordination Sequence:
#
# PCOD8225678 Si02
#       8
#     8   8   8   8   8   8   8   8
#     4  10  22  37  53  80 115 148 188 235 275 333
#     4  10  20  35  54  76 110 153 188 224 278 337
#     4  11  22  37  58  82 110 154 197 233 282 338
#     4  10  21  38  57  86 119 146 188 240 287 346
#     4  10  19  36  59  83 113 149 186 237 292 336
#     4   9  18  34  58  85 112 145 190 235 283 345
#     4  10  20  35  57  83 113 152 189 234 289 338
#     4  10  21  34  56  86 114 145 185 237 290 336
#
# _framework density 18.580456999999999
#
# number of rings (size 3 to 8) (size 9 to 14) (size 15 to 20)
#    0.000    2.000    2.500    1.125    0.000    3.750 
#    0.000    2.500    0.000    1.500    0.000    0.000 
#    0.000    0.000    0.000    0.000    0.000    0.000 
#
# Total GULP energy -793768.448940 kJ/mol
# GULP energy per Si atom -12402.632015 kJ/mol
# Density = 1.853817 g / cm^3
# Si number density = 18.580457 Si / 1000 Ang^3
#
#
#
# Elastic Constant Matrix: (Units=GPa)
#
#
# Indices 1 2 3 4 5 6 
#
# 1 103.5194 37.8781 28.9237 0.0000 0.0000 0.0000
# 2 37.8781 87.6206 38.1393 0.0000 0.0000 0.0000
# 3 28.9237 38.1393 50.3849 0.0000 0.0000 0.0000
# 4 0.0000 0.0000 0.0000 25.7117 0.0000 0.0000
# 5 0.0000 0.0000 0.0000 0.0000 19.5225 0.0000
# 6 0.0000 0.0000 0.0000 0.0000 0.0000 39.6549
#
#
#
# Elastic Compliance Matrix: (Units=1/GPa)
#
#
# Indices 1 2 3 4 5 6 
#
# 1 0.012111 -0.003295 -0.004458 0.000000 0.000000 0.000000
# 2 -0.003295 0.017918 -0.011671 0.000000 0.000000 0.000000
# 3 -0.004458 -0.011671 0.031241 0.000000 0.000000 0.000000
# 4 0.000000 0.000000 0.000000 0.038893 0.000000 0.000000
# 5 0.000000 0.000000 0.000000 0.000000 0.051223 0.000000
# 6 0.000000 0.000000 0.000000 0.000000 0.000000 0.025218
#
#
# Mechanical properties :
#
#
# Convention : Reuss Voigt Hill
#
# Bulk Modulus (GPa) = 44.60162 50.15636 47.37899
# Shear Modulus (GPa) = 22.42891 26.08340 24.25616
#
# Velocity S-wave (km/s) = 3.47814 3.75081 3.61704
# Velocity P-wave (km/s) = 6.33929 6.76837 6.55734
#
# Compressibility (1/GPa) = 0.02242071
#
# Stress axis : x y z
#
# Youngs Moduli (GPa) = 82.56687 55.81112 32.00894
#
# Poissons Ratio (x) = 0.18390 0.14271
# Poissons Ratio (y) = 0.27207 0.37359
# Poissons Ratio (z) = 0.36811 0.65139
#
# Static dielectric constant tensor:
#      x y z
#    x 3.644300 0.000000 0.000000 
#    y 0.000000 3.496990 0.000000 
#    z 0.000000 0.000000 3.234730 
# 
# 
# High freq. dielectric constant tensor:
#      x y z
#    x 1.725680 0.000000 0.000000 
#    y 0.000000 1.729870 0.000000 
#    z 0.000000 0.000000 1.701520 
# 
# From -- ./inp_files/8066.got.cif
#   From: 2010.03.12/outbox.cif.g09.slc.cpg/sg55_5_cif.got.tgz:8066.got - 2010.04.16 15:19:21.
