data_PCOD8225021
_publ_section_title
;
Structure prediction by ZEFSAII (Michael W. Deem and Ramdas Pophale) SiO2 
 PCOD8225021
Probable space group: P B A M
;
_chemical_formula_sum "Si O2"
_cell_formula_units_Z 64
_cell_length_a 19.366453
_cell_length_b 20.331050
_cell_length_c 9.293790
_cell_angle_alpha 90.000000
_cell_angle_beta 90.000000
_cell_angle_gamma 90.000000
_cell_volume 3659.339888
_symmetry_space_group_name_H-M "P B A M"
_symmetry_group_IT_number 55
_symmetry_cell_setting 'orthorhombic'
loop_
_space_group_symop_operation_xyz
x,y,z
-x,-y,z
1/2+x,1/2-y,-z
1/2-x,1/2+y,-z
-x,-y,-z
x,y,-z
1/2-x,1/2+y,z
1/2+x,1/2-y,z
loop_
_atom_site_type_symbol
_atom_site_label
_atom_site_fract_x
_atom_site_fract_y
_atom_site_fract_z
Si Si1 0.572790 0.120040 0.833410
Si Si2 0.059664 0.617891 0.333258
Si Si3 0.441027 0.269208 0.665546
Si Si4 0.792029 0.177788 0.333039
Si Si5 0.425742 0.727373 0.831367
Si Si6 0.293956 0.065350 0.332276
Si Si7 0.718974 0.063740 0.829628
Si Si8 0.206313 0.193867 0.667477
O O1 0.507038 0.090528 0.750289
O O2 0.584304 0.196083 0.793675
O O3 0.640808 0.081356 0.784912
O O4 0.557158 0.111006 0.000000
O O5 0.043730 0.609389 0.500000
O O6 0.074440 0.693675 0.294320
O O7 0.126497 0.576434 0.287280
O O8 0.463954 0.275111 0.500000
O O9 0.372686 0.310805 0.696376
O O10 0.502251 0.297864 0.764284
O O11 0.778333 0.161514 0.500000
O O12 0.770825 0.116999 0.234859
O O13 0.749368 0.242039 0.286111
O O14 0.363213 0.687881 0.759565
O O15 0.426149 0.713159 0.000000
O O16 0.287952 0.047394 0.500000
O O17 0.251733 0.130618 0.296003
O O18 0.262642 0.006701 0.237632
O O19 0.728907 0.062173 0.000000
O O20 0.186950 0.196919 0.500000
#
# Coordination Sequence:
#
# PCOD8225021 Si02
#       8
#     8   8   8   8   8   8   8   8
#     4   9  19  33  47  70 107 145 178 212 252 308
#     4   9  17  31  52  76 103 136 177 220 257 306
#     4   9  17  32  54  81 107 134 173 220 268 314
#     4  10  19  34  58  82 104 136 178 224 269 311
#     4  10  19  32  51  79 111 141 174 214 261 315
#     4  10  21  37  54  77 107 139 180 224 267 314
#     4  11  23  37  51  74 110 147 181 217 262 317
#     4  10  19  34  57  81 105 136 176 224 269 310
#
# _framework density 17.489494000000001
#
# number of rings (size 3 to 8) (size 9 to 14) (size 15 to 20)
#    0.000    2.250    2.500    0.750    0.000    3.500 
#    0.000    2.500    0.000    0.750    0.000    5.250 
#    0.000    0.000    0.000    0.000    0.000    0.000 
#
# Total GULP energy -793788.345203 kJ/mol
# GULP energy per Si atom -12402.942894 kJ/mol
# Density = 1.744969 g / cm^3
# Si number density = 17.489494 Si / 1000 Ang^3
#
#
#
# Elastic Constant Matrix: (Units=GPa)
#
#
# Indices 1 2 3 4 5 6 
#
# 1 97.8832 32.1232 50.4828 0.0000 0.0000 0.0000
# 2 32.1232 56.4090 30.9782 0.0000 0.0000 0.0000
# 3 50.4828 30.9782 65.4592 0.0000 0.0000 0.0000
# 4 0.0000 0.0000 0.0000 22.3733 0.0000 0.0000
# 5 0.0000 0.0000 0.0000 0.0000 25.2051 0.0000
# 6 0.0000 0.0000 0.0000 0.0000 0.0000 20.1320
#
#
#
# Elastic Compliance Matrix: (Units=1/GPa)
#
#
# Indices 1 2 3 4 5 6 
#
# 1 0.017444 -0.003440 -0.011825 0.000000 0.000000 0.000000
# 2 -0.003440 0.024631 -0.009004 0.000000 0.000000 0.000000
# 3 -0.011825 -0.009004 0.028657 0.000000 0.000000 0.000000
# 4 0.000000 0.000000 0.000000 0.044696 0.000000 0.000000
# 5 0.000000 0.000000 0.000000 0.000000 0.039675 0.000000
# 6 0.000000 0.000000 0.000000 0.000000 0.000000 0.049672
#
#
# Mechanical properties :
#
#
# Convention : Reuss Voigt Hill
#
# Bulk Modulus (GPa) = 45.05495 49.65776 47.35635
# Shear Modulus (GPa) = 19.17837 20.61989 19.89913
#
# Velocity S-wave (km/s) = 3.31503 3.43736 3.37675
# Velocity P-wave (km/s) = 6.36158 6.64895 6.50685
#
# Compressibility (1/GPa) = 0.02219512
#
# Stress axis : x y z
#
# Youngs Moduli (GPa) = 57.32692 40.59905 34.89519
#
# Poissons Ratio (x) = 0.13965 0.41264
# Poissons Ratio (y) = 0.19719 0.31419
# Poissons Ratio (z) = 0.67789 0.36554
#
# Static dielectric constant tensor:
#      x y z
#    x 3.309910 0.000000 0.000000 
#    y 0.000000 3.014670 0.000000 
#    z 0.000000 0.000000 3.176070 
# 
# 
# High freq. dielectric constant tensor:
#      x y z
#    x 1.678280 0.000000 0.000000 
#    y 0.000000 1.652180 0.000000 
#    z 0.000000 0.000000 1.674320 
# 
# From -- ./inp_files/7932.got.cif
#   From: 2010.03.12/outbox.cif.g09.slc.cpg/sg55_4_cif.got.tgz:7932.got - 2010.04.16 15:19:21.
