data_PCOD8225580
_publ_section_title
;
Structure prediction by ZEFSAII (Michael W. Deem and Ramdas Pophale) SiO2 
 PCOD8225580
Probable space group: P B A M
;
_chemical_formula_sum "Si O2"
_cell_formula_units_Z 56
_cell_length_a 22.060833
_cell_length_b 14.647267
_cell_length_c 8.290039
_cell_angle_alpha 90.000000
_cell_angle_beta 90.000000
_cell_angle_gamma 90.000000
_cell_volume 2678.767856
_symmetry_space_group_name_H-M "P B A M"
_symmetry_group_IT_number 55
_symmetry_cell_setting 'orthorhombic'
loop_
_space_group_symop_operation_xyz
x,y,z
-x,-y,z
1/2+x,1/2-y,-z
1/2-x,1/2+y,-z
-x,-y,-z
x,y,-z
1/2-x,1/2+y,z
1/2+x,1/2-y,z
loop_
_atom_site_type_symbol
_atom_site_label
_atom_site_fract_x
_atom_site_fract_y
_atom_site_fract_z
Si Si1 0.810201 0.692358 0.807510
Si Si2 0.059110 0.608276 0.312144
Si Si3 0.428341 0.913932 0.811517
Si Si4 0.920420 0.201660 0.810589
Si Si5 0.660877 0.389258 0.187704
Si Si6 0.970891 0.905870 0.313197
Si Si7 0.193931 0.914573 0.192451
O O1 0.871649 0.644336 0.747582
O O2 0.809036 0.796727 0.740211
O O3 0.753097 0.636304 0.737120
O O4 0.808265 0.691749 0.000000
O O5 0.073687 0.600200 0.500000
O O6 0.085221 0.520230 0.220259
O O7 0.094069 0.694125 0.235392
O O8 0.986981 0.617975 0.287145
O O9 0.440679 0.897714 0.000000
O O10 0.865300 0.139470 0.747680
O O11 0.981477 0.174529 0.717558
O O12 0.930462 0.190199 0.000000
O O13 0.589049 0.386135 0.212462
O O14 0.690209 0.481739 0.262545
O O15 0.674187 0.390795 0.000000
O O16 0.953386 0.911639 0.500000
O O17 0.000000 0.000000 0.250361
O O18 0.195869 0.915159 0.000000
#
# Coordination Sequence:
#
# PCOD8225580 Si02
#       7
#     8   8   8   8   8   8   8
#     4   9  19  34  56  85 113 144 188 239 287 334
#     4  11  22  36  56  82 116 151 185 231 288 341
#     4  10  19  35  58  85 113 145 190 237 281 335
#     4  11  21  35  57  85 114 147 191 236 283 340
#     4  10  19  35  59  84 113 150 191 235 283 343
#     4  11  22  35  55  83 117 151 183 232 294 347
#     4   9  19  34  54  83 113 145 185 234 285 333
#
# _framework density 20.905134
#
# number of rings (size 3 to 8) (size 9 to 14) (size 15 to 20)
#    0.000    1.857    1.429    4.286    0.000    2.857 
#    0.000    5.000    0.000    9.429    0.000    0.000 
#    0.000    0.000    0.000    0.000    0.000    0.000 
#
# Total GULP energy -694476.931612 kJ/mol
# GULP energy per Si atom -12401.373779 kJ/mol
# Density = 2.085755 g / cm^3
# Si number density = 20.905134 Si / 1000 Ang^3
#
#
#
# Elastic Constant Matrix: (Units=GPa)
#
#
# Indices 1 2 3 4 5 6 
#
# 1 101.1739 73.7925 1.3764 0.0000 0.0000 0.0000
# 2 73.7925 184.7952 4.9926 0.0000 0.0000 0.0000
# 3 1.3764 4.9926 28.3258 0.0000 0.0000 0.0000
# 4 0.0000 0.0000 0.0000 18.1055 0.0000 0.0000
# 5 0.0000 0.0000 0.0000 0.0000 2.8468 0.0000
# 6 0.0000 0.0000 0.0000 0.0000 0.0000 33.8647
#
#
#
# Elastic Compliance Matrix: (Units=1/GPa)
#
#
# Indices 1 2 3 4 5 6 
#
# 1 0.013948 -0.005578 0.000305 0.000000 0.000000 0.000000
# 2 -0.005578 0.007668 -0.001080 0.000000 0.000000 0.000000
# 3 0.000305 -0.001080 0.035479 0.000000 0.000000 0.000000
# 4 0.000000 0.000000 0.000000 0.055232 0.000000 0.000000
# 5 0.000000 0.000000 0.000000 0.000000 0.351270 0.000000
# 6 0.000000 0.000000 0.000000 0.000000 0.000000 0.029529
#
#
# Mechanical properties :
#
#
# Convention : Reuss Voigt Hill
#
# Bulk Modulus (GPa) = 22.52808 52.73533 37.63170
# Shear Modulus (GPa) = 9.60377 26.57230 18.08803
#
# Velocity S-wave (km/s) = 2.14568 3.56910 2.94469
# Velocity P-wave (km/s) = 4.11562 6.50119 5.44076
#
# Compressibility (1/GPa) = 0.04438904
#
# Stress axis : x y z
#
# Youngs Moduli (GPa) = 71.69360 130.41170 28.18562
#
# Poissons Ratio (x) = 0.72745 -0.00861
# Poissons Ratio (y) = 0.39991 0.03045
# Poissons Ratio (z) = -0.02190 0.14091
#
# Static dielectric constant tensor:
#      x y z
#    x 3.709640 0.000000 0.000000 
#    y 0.000000 4.253990 0.000000 
#    z 0.000000 0.000000 3.338660 
# 
# 
# High freq. dielectric constant tensor:
#      x y z
#    x 1.803250 0.000000 0.000000 
#    y 0.000000 1.841520 0.000000 
#    z 0.000000 0.000000 1.785070 
# 
# From -- ./inp_files/8668.got.cif
#   From: 2010.03.12/outbox.cif.g09.slc.cpg/sg55_5_cif.got.tgz:8668.got - 2010.04.16 15:19:21.
