data_PCOD8225620
_publ_section_title
;
Structure prediction by ZEFSAII (Michael W. Deem and Ramdas Pophale) SiO2 
 PCOD8225620
Probable space group: P B A M
;
_chemical_formula_sum "Si O2"
_cell_formula_units_Z 48
_cell_length_a 21.232360
_cell_length_b 14.934772
_cell_length_c 7.531584
_cell_angle_alpha 90.000000
_cell_angle_beta 90.000000
_cell_angle_gamma 90.000000
_cell_volume 2388.268718
_symmetry_space_group_name_H-M "P B A M"
_symmetry_group_IT_number 55
_symmetry_cell_setting 'orthorhombic'
loop_
_space_group_symop_operation_xyz
x,y,z
-x,-y,z
1/2+x,1/2-y,-z
1/2-x,1/2+y,-z
-x,-y,-z
x,y,-z
1/2-x,1/2+y,z
1/2+x,1/2-y,z
loop_
_atom_site_type_symbol
_atom_site_label
_atom_site_fract_x
_atom_site_fract_y
_atom_site_fract_z
Si Si1 0.685361 0.989470 0.289105
Si Si2 0.976833 0.869005 0.000000
Si Si3 0.987160 0.260226 0.297539
Si Si4 0.654004 0.794436 0.708071
Si Si5 0.554727 0.057185 0.702606
Si Si6 0.693762 0.599289 0.710123
Si Si7 0.103827 0.973855 0.000000
O O1 0.687813 0.991737 0.500000
O O2 0.686690 0.885855 0.217742
O O3 0.622655 0.036994 0.210983
O O4 0.743521 0.049403 0.220302
O O5 0.979551 0.813666 0.180521
O O6 0.035663 0.933013 0.000000
O O7 0.909341 0.919630 0.000000
O O8 0.980676 0.226048 0.500000
O O9 0.036702 0.340243 0.284199
O O10 0.917834 0.285254 0.220052
O O11 0.648720 0.806452 0.500000
O O12 0.695019 0.706065 0.757427
O O13 0.559651 0.023223 0.500000
O O14 0.500000 0.000000 0.799326
O O15 0.681756 0.585913 0.500000
O O16 0.637677 0.554342 0.818526
#
# Coordination Sequence:
#
# PCOD8225620 Si02
#       7
#     8   4   8   8   8   8   4
#     4   9  17  32  57  88 120 155 194 241 293 346
#     4  11  24  40  59  84 114 146 194 248 290 342
#     4  10  19  35  60  86 115 152 192 236 293 353
#     4   9  16  31  58  86 111 151 199 232 279 351
#     4   9  15  28  56  90 120 149 187 242 297 344
#     4  10  21  39  61  85 117 156 200 239 285 353
#     4  11  24  42  60  82 113 150 195 247 293 333
#
# _framework density 20.098241999999999
#
# number of rings (size 3 to 8) (size 9 to 14) (size 15 to 20)
#    0.000    2.333    3.333    0.000    0.000    0.667 
#    3.000    4.583    0.000    0.000    0.000    0.000 
#    0.000    0.000    0.000    0.000    0.000    0.000 
#
# Total GULP energy -594773.463819 kJ/mol
# GULP energy per Si atom -12391.113830 kJ/mol
# Density = 2.005250 g / cm^3
# Si number density = 20.098242 Si / 1000 Ang^3
#
#
#
# Elastic Constant Matrix: (Units=GPa)
#
#
# Indices 1 2 3 4 5 6 
#
# 1 115.7897 80.7448 24.3556 0.0000 0.0000 0.0000
# 2 80.7448 149.0009 31.5902 0.0000 0.0000 0.0000
# 3 24.3556 31.5902 58.8096 0.0000 0.0000 0.0000
# 4 0.0000 0.0000 0.0000 28.0061 0.0000 0.0000
# 5 0.0000 0.0000 0.0000 0.0000 16.0424 0.0000
# 6 0.0000 0.0000 0.0000 0.0000 0.0000 43.8255
#
#
#
# Elastic Compliance Matrix: (Units=1/GPa)
#
#
# Indices 1 2 3 4 5 6 
#
# 1 0.014079 -0.007215 -0.001955 0.000000 0.000000 0.000000
# 2 -0.007215 0.011271 -0.003067 0.000000 0.000000 0.000000
# 3 -0.001955 -0.003067 0.019461 0.000000 0.000000 0.000000
# 4 0.000000 0.000000 0.000000 0.035706 0.000000 0.000000
# 5 0.000000 0.000000 0.000000 0.000000 0.062335 0.000000
# 6 0.000000 0.000000 0.000000 0.000000 0.000000 0.022818
#
#
# Mechanical properties :
#
#
# Convention : Reuss Voigt Hill
#
# Bulk Modulus (GPa) = 49.16890 66.33126 57.75008
# Shear Modulus (GPa) = 25.39070 30.03545 27.71307
#
# Velocity S-wave (km/s) = 3.55819 3.86998 3.71736
# Velocity P-wave (km/s) = 6.43416 7.28314 6.87177
#
# Compressibility (1/GPa) = 0.02033806
#
# Stress axis : x y z
#
# Youngs Moduli (GPa) = 71.02858 88.72063 51.38510
#
# Poissons Ratio (x) = 0.64011 0.10046
# Poissons Ratio (y) = 0.51247 0.15757
# Poissons Ratio (z) = 0.13887 0.27206
#
# Static dielectric constant tensor:
#      x y z
#    x 3.827280 0.000000 0.000000 
#    y 0.000000 4.057600 0.000000 
#    z 0.000000 0.000000 3.330960 
# 
# 
# High freq. dielectric constant tensor:
#      x y z
#    x 1.773200 0.000000 0.000000 
#    y 0.000000 1.788880 0.000000 
#    z 0.000000 0.000000 1.763310 
# 
# From -- ./inp_files/7467.got.cif
#   From: 2010.03.12/outbox.cif.g09.slc.cpg/sg55_4_cif.got.tgz:7467.got - 2010.04.16 15:19:21.
