data_PCOD8225260
_publ_section_title
;
Structure prediction by ZEFSAII (Michael W. Deem and Ramdas Pophale) SiO2 
 PCOD8225260
Probable space group: P B A M
;
_chemical_formula_sum "Si O2"
_cell_formula_units_Z 64
_cell_length_a 28.792488
_cell_length_b 12.429496
_cell_length_c 9.229142
_cell_angle_alpha 90.000000
_cell_angle_beta 90.000000
_cell_angle_gamma 90.000000
_cell_volume 3302.889478
_symmetry_space_group_name_H-M "P B A M"
_symmetry_group_IT_number 55
_symmetry_cell_setting 'orthorhombic'
loop_
_space_group_symop_operation_xyz
x,y,z
-x,-y,z
1/2+x,1/2-y,-z
1/2-x,1/2+y,-z
-x,-y,-z
x,y,-z
1/2-x,1/2+y,z
1/2+x,1/2-y,z
loop_
_atom_site_type_symbol
_atom_site_label
_atom_site_fract_x
_atom_site_fract_y
_atom_site_fract_z
Si Si1 0.940634 0.240328 0.163850
Si Si2 0.878358 0.840840 0.667706
Si Si3 0.339329 0.288487 0.171279
Si Si4 0.947760 0.489435 0.835802
Si Si5 0.866868 0.592709 0.331621
Si Si6 0.017113 0.117045 0.670990
Si Si7 0.695206 0.485197 0.170176
Si Si8 0.700669 0.935414 0.828153
O O1 0.892321 0.190574 0.223742
O O2 0.931706 0.367049 0.170085
O O3 0.983586 0.206643 0.262102
O O4 0.951210 0.202721 0.000000
O O5 0.876039 0.872610 0.500000
O O6 0.861782 0.719476 0.693713
O O7 0.930685 0.860586 0.725820
O O8 0.844021 0.916647 0.753627
O O9 0.308693 0.390248 0.220326
O O10 0.317692 0.178365 0.234937
O O11 0.339598 0.274897 0.000000
O O12 0.916806 0.559215 0.728764
O O13 0.000000 0.500000 0.779292
O O14 0.943320 0.534479 0.000000
O O15 0.864119 0.562272 0.500000
O O16 0.826007 0.533524 0.246153
O O17 0.013696 0.129335 0.500000
O O18 0.000000 0.000000 0.723209
O O19 0.745539 0.442633 0.215483
O O20 0.686773 0.474916 0.000000
O O21 0.693429 0.946818 0.000000
#
# Coordination Sequence:
#
# PCOD8225260 Si02
#       8
#     8   8   8   8   8   8   8   8
#     4  10  19  33  55  81 113 148 182 237 295 336
#     4  10  23  41  57  82 124 160 189 239 293 341
#     4   9  18  36  57  85 119 143 181 242 298 342
#     4  10  20  35  56  83 113 150 194 239 292 347
#     4  11  23  38  57  83 118 158 196 236 288 351
#     4  10  21  37  57  81 113 155 199 237 283 343
#     4  10  22  37  63  91 110 146 195 240 293 356
#     4  10  21  39  62  86 116 150 189 247 301 346
#
# _framework density 19.376973
#
# number of rings (size 3 to 8) (size 9 to 14) (size 15 to 20)
#    0.000    2.000    1.250    1.875    1.750    3.000 
#    0.000    0.625    0.000    0.000    0.000    0.000 
#    0.000    0.000    0.000    0.000    0.000    0.000 
#
# Total GULP energy -793744.879812 kJ/mol
# GULP energy per Si atom -12402.263747 kJ/mol
# Density = 1.933287 g / cm^3
# Si number density = 19.376973 Si / 1000 Ang^3
#
#
#
# Elastic Constant Matrix: (Units=GPa)
#
#
# Indices 1 2 3 4 5 6 
#
# 1 150.1905 62.3490 44.3579 0.0000 0.0000 0.0000
# 2 62.3490 99.3353 36.8289 0.0000 0.0000 0.0000
# 3 44.3579 36.8289 45.0576 0.0000 0.0000 0.0000
# 4 0.0000 0.0000 0.0000 24.6351 0.0000 0.0000
# 5 0.0000 0.0000 0.0000 0.0000 23.3688 0.0000
# 6 0.0000 0.0000 0.0000 0.0000 0.0000 37.6150
#
#
#
# Elastic Compliance Matrix: (Units=1/GPa)
#
#
# Indices 1 2 3 4 5 6 
#
# 1 0.010343 -0.003898 -0.006996 0.000000 0.000000 0.000000
# 2 -0.003898 0.015913 -0.009170 0.000000 0.000000 0.000000
# 3 -0.006996 -0.009170 0.036576 0.000000 0.000000 0.000000
# 4 0.000000 0.000000 0.000000 0.040592 0.000000 0.000000
# 5 0.000000 0.000000 0.000000 0.000000 0.042792 0.000000
# 6 0.000000 0.000000 0.000000 0.000000 0.000000 0.026585
#
#
# Mechanical properties :
#
#
# Convention : Reuss Voigt Hill
#
# Bulk Modulus (GPa) = 44.04329 64.62834 54.33581
# Shear Modulus (GPa) = 22.67609 27.19363 24.93486
#
# Velocity S-wave (km/s) = 3.42462 3.75026 3.59113
# Velocity P-wave (km/s) = 6.19810 7.22345 6.73033
#
# Compressibility (1/GPa) = 0.02270494
#
# Stress axis : x y z
#
# Youngs Moduli (GPa) = 96.68791 62.84123 27.34023
#
# Poissons Ratio (x) = 0.24495 0.19127
# Poissons Ratio (y) = 0.37688 0.25070
# Poissons Ratio (z) = 0.67642 0.57623
#
# Static dielectric constant tensor:
#      x y z
#    x 3.663200 0.000000 0.000000 
#    y 0.000000 3.655660 0.000000 
#    z 0.000000 0.000000 3.317190 
# 
# 
# High freq. dielectric constant tensor:
#      x y z
#    x 1.768360 0.000000 0.000000 
#    y 0.000000 1.762850 0.000000 
#    z 0.000000 0.000000 1.729920 
# 
# From -- ./inp_files/10798.got.cif
#   From: 2010.03.12/outbox.cif.g09.slc.cpg/sg55_6_cif.got.tgz:10798.got - 2010.04.16 15:19:21.
