data_PCOD8225940
_publ_section_title
;
Structure prediction by ZEFSAII (Michael W. Deem and Ramdas Pophale) SiO2 
 PCOD8225940
Probable space group: P B A M
;
_chemical_formula_sum "Si O2"
_cell_formula_units_Z 56
_cell_length_a 13.592865
_cell_length_b 24.121490
_cell_length_c 9.156433
_cell_angle_alpha 90.000000
_cell_angle_beta 90.000000
_cell_angle_gamma 90.000000
_cell_volume 3002.212691
_symmetry_space_group_name_H-M "P B A M"
_symmetry_group_IT_number 55
_symmetry_cell_setting 'orthorhombic'
loop_
_space_group_symop_operation_xyz
x,y,z
-x,-y,z
1/2+x,1/2-y,-z
1/2-x,1/2+y,-z
-x,-y,-z
x,y,-z
1/2-x,1/2+y,z
1/2+x,1/2-y,z
loop_
_atom_site_type_symbol
_atom_site_label
_atom_site_fract_x
_atom_site_fract_y
_atom_site_fract_z
Si Si1 0.227939 0.556484 0.672663
Si Si2 0.912817 0.661172 0.172741
Si Si3 0.635374 0.839271 0.826402
Si Si4 0.699175 0.054093 0.831476
Si Si5 0.230679 0.773018 0.173736
Si Si6 0.045720 0.057306 0.671830
Si Si7 0.608684 0.623785 0.832196
O O1 0.214343 0.558389 0.500000
O O2 0.169507 0.606255 0.745188
O O3 0.182438 0.499547 0.732254
O O4 0.341367 0.561128 0.719654
O O5 0.877559 0.600481 0.225986
O O6 0.838805 0.709040 0.233456
O O7 0.023451 0.673537 0.222707
O O8 0.902663 0.661282 0.000000
O O9 0.702042 0.788043 0.770398
O O10 0.642831 0.848013 0.000000
O O11 0.809575 0.076396 0.811189
O O12 0.679267 0.038477 0.000000
O O13 0.150182 0.817786 0.227962
O O14 0.229927 0.774027 0.000000
O O15 0.032431 0.061392 0.500000
O O16 0.988587 0.108801 0.742438
O O17 0.000000 0.000000 0.731501
O O18 0.577482 0.629257 0.000000
#
# Coordination Sequence:
#
# PCOD8225940 Si02
#       7
#     8   8   8   8   8   8   8
#     4  11  23  36  50  72 107 140 173 219 263 308
#     4   8  16  32  54  79 106 135 167 210 258 306
#     4  10  20  35  56  79 105 138 173 210 258 310
#     4   9  17  32  53  76 103 135 174 213 255 307
#     4   8  16  32  54  81 108 134 170 214 257 305
#     4  10  20  34  50  72 106 144 173 205 264 323
#     4   9  17  30  53  82 106 132 174 222 255 297
#
# _framework density 18.652908
#
# number of rings (size 3 to 8) (size 9 to 14) (size 15 to 20)
#    0.000    2.714    1.429    2.143    0.000    3.143 
#    0.000    7.143    0.000    2.571    0.000    0.000 
#    0.000    0.000    0.000    0.000    0.000    0.000 
#
# Total GULP energy -694282.975992 kJ/mol
# GULP energy per Si atom -12397.910286 kJ/mol
# Density = 1.861045 g / cm^3
# Si number density = 18.652908 Si / 1000 Ang^3
#
#
#
# Elastic Constant Matrix: (Units=GPa)
#
#
# Indices 1 2 3 4 5 6 
#
# 1 113.4618 62.1971 30.0109 0.0000 0.0000 0.0000
# 2 62.1971 128.4774 29.9809 0.0000 0.0000 0.0000
# 3 30.0109 29.9809 31.3807 0.0000 0.0000 0.0000
# 4 0.0000 0.0000 0.0000 4.2145 0.0000 0.0000
# 5 0.0000 0.0000 0.0000 0.0000 18.7887 0.0000
# 6 0.0000 0.0000 0.0000 0.0000 0.0000 28.2013
#
#
#
# Elastic Compliance Matrix: (Units=1/GPa)
#
#
# Indices 1 2 3 4 5 6 
#
# 1 0.013605 -0.004569 -0.008646 0.000000 0.000000 0.000000
# 2 -0.004569 0.011551 -0.006666 0.000000 0.000000 0.000000
# 3 -0.008646 -0.006666 0.046504 0.000000 0.000000 0.000000
# 4 0.000000 0.000000 0.000000 0.237277 0.000000 0.000000
# 5 0.000000 0.000000 0.000000 0.000000 0.053224 0.000000
# 6 0.000000 0.000000 0.000000 0.000000 0.000000 0.035459
#
#
# Mechanical properties :
#
#
# Convention : Reuss Voigt Hill
#
# Bulk Modulus (GPa) = 31.35009 57.52196 44.43603
# Shear Modulus (GPa) = 11.16033 20.31630 15.73832
#
# Velocity S-wave (km/s) = 2.44870 3.30385 2.90788
# Velocity P-wave (km/s) = 4.98382 6.74232 5.92863
#
# Compressibility (1/GPa) = 0.03189784
#
# Stress axis : x y z
#
# Youngs Moduli (GPa) = 73.50309 86.57401 21.50332
#
# Poissons Ratio (x) = 0.39552 0.18592
# Poissons Ratio (y) = 0.33581 0.14335
# Poissons Ratio (z) = 0.63552 0.57713
#
# Static dielectric constant tensor:
#      x y z
#    x 3.667460 0.000000 0.000000 
#    y 0.000000 3.523420 0.000000 
#    z 0.000000 0.000000 3.014530 
# 
# 
# High freq. dielectric constant tensor:
#      x y z
#    x 1.725650 0.000000 0.000000 
#    y 0.000000 1.727360 0.000000 
#    z 0.000000 0.000000 1.683150 
# 
# From -- ./inp_files/6100.got.cif
#   From: 2010.03.12/outbox.cif.g09.slc.cpg/sg55_4_cif.got.tgz:6100.got - 2010.04.16 15:19:21.
