data_PCOD8225149
_publ_section_title
;
Structure prediction by ZEFSAII (Michael W. Deem and Ramdas Pophale) SiO2 
 PCOD8225149
Probable space group: P B A M
;
_chemical_formula_sum "Si O2"
_cell_formula_units_Z 56
_cell_length_a 18.307952
_cell_length_b 21.005842
_cell_length_c 8.803623
_cell_angle_alpha 90.000000
_cell_angle_beta 90.000000
_cell_angle_gamma 90.000000
_cell_volume 3385.644045
_symmetry_space_group_name_H-M "P B A M"
_symmetry_group_IT_number 55
_symmetry_cell_setting 'orthorhombic'
loop_
_space_group_symop_operation_xyz
x,y,z
-x,-y,z
1/2+x,1/2-y,-z
1/2-x,1/2+y,-z
-x,-y,-z
x,y,-z
1/2-x,1/2+y,z
1/2+x,1/2-y,z
loop_
_atom_site_type_symbol
_atom_site_label
_atom_site_fract_x
_atom_site_fract_y
_atom_site_fract_z
Si Si1 0.084048 0.999202 0.677473
Si Si2 0.345740 0.621104 0.181306
Si Si3 0.355907 0.374256 0.178097
Si Si4 0.565671 0.755939 0.180822
Si Si5 0.297406 0.176719 0.165672
Si Si6 0.086500 0.243840 0.322312
Si Si7 0.286936 0.807830 0.166018
O O1 0.092625 0.012987 0.500000
O O2 0.118445 0.931917 0.718300
O O3 0.126408 0.052895 0.769811
O O4 0.000000 0.000000 0.728015
O O5 0.262306 0.630802 0.247595
O O6 0.398311 0.676345 0.242921
O O7 0.345038 0.627061 0.000000
O O8 0.406762 0.314642 0.222004
O O9 0.270635 0.361632 0.220102
O O10 0.363913 0.390577 0.000000
O O11 0.624274 0.808986 0.244895
O O12 0.490492 0.770468 0.264734
O O13 0.557138 0.762884 0.000000
O O14 0.259260 0.244403 0.146787
O O15 0.313890 0.147550 0.000000
O O16 0.084551 0.232213 0.500000
O O17 0.147057 0.297536 0.283739
O O18 0.319586 0.825811 0.000000
#
# Coordination Sequence:
#
# PCOD8225149 Si02
#       7
#     8   8   8   8   8   8   8
#     4  11  23  34  44  65  97 127 154 185 222 266
#     4  10  19  33  50  65  86 120 160 194 223 261
#     4   9  18  32  50  68  87 119 161 195 222 261
#     4   9  16  29  48  68  91 118 148 184 227 269
#     4   7  13  27  47  67  84 108 147 191 226 260
#     4  11  20  28  42  69  99 122 147 181 227 275
#     4   8  15  30  48  65  86 115 153 190 224 265
#
# _framework density 16.540427999999999
#
# number of rings (size 3 to 8) (size 9 to 14) (size 15 to 20)
#    0.000    2.714    0.000    5.571    0.000    4.571 
#    0.000    6.429    0.000    0.000    0.000    1.000 
#    0.000    8.000    0.000    0.000    0.000    0.000 
#
# Total GULP energy -693863.273896 kJ/mol
# GULP energy per Si atom -12390.415605 kJ/mol
# Density = 1.650278 g / cm^3
# Si number density = 16.540428 Si / 1000 Ang^3
#
#
#
# Elastic Constant Matrix: (Units=GPa)
#
#
# Indices 1 2 3 4 5 6 
#
# 1 121.3640 44.8006 38.5112 0.0000 0.0000 0.0000
# 2 44.8006 57.5488 22.5283 0.0000 0.0000 0.0000
# 3 38.5112 22.5283 59.2539 0.0000 0.0000 0.0000
# 4 0.0000 0.0000 0.0000 18.3692 0.0000 0.0000
# 5 0.0000 0.0000 0.0000 0.0000 13.3387 0.0000
# 6 0.0000 0.0000 0.0000 0.0000 0.0000 26.5460
#
#
#
# Elastic Compliance Matrix: (Units=1/GPa)
#
#
# Indices 1 2 3 4 5 6 
#
# 1 0.012859 -0.007917 -0.005347 0.000000 0.000000 0.000000
# 2 -0.007917 0.025290 -0.004469 0.000000 0.000000 0.000000
# 3 -0.005347 -0.004469 0.022051 0.000000 0.000000 0.000000
# 4 0.000000 0.000000 0.000000 0.054439 0.000000 0.000000
# 5 0.000000 0.000000 0.000000 0.000000 0.074970 0.000000
# 6 0.000000 0.000000 0.000000 0.000000 0.000000 0.037670
#
#
# Mechanical properties :
#
#
# Convention : Reuss Voigt Hill
#
# Bulk Modulus (GPa) = 40.43377 49.98300 45.20839
# Shear Modulus (GPa) = 18.45076 20.47255 19.46165
#
# Velocity S-wave (km/s) = 3.34353 3.52195 3.43390
# Velocity P-wave (km/s) = 6.27726 6.84274 6.56609
#
# Compressibility (1/GPa) = 0.02473180
#
# Stress axis : x y z
#
# Youngs Moduli (GPa) = 77.76578 39.54192 45.34884
#
# Poissons Ratio (x) = 0.31306 0.24250
# Poissons Ratio (y) = 0.61569 0.20268
# Poissons Ratio (z) = 0.41585 0.17673
#
# Static dielectric constant tensor:
#      x y z
#    x 3.476880 0.000000 0.000000 
#    y 0.000000 2.894000 0.000000 
#    z 0.000000 0.000000 2.937740 
# 
# 
# High freq. dielectric constant tensor:
#      x y z
#    x 1.646010 0.000000 0.000000 
#    y 0.000000 1.596850 0.000000 
#    z 0.000000 0.000000 1.623070 
# 
# From -- ./inp_files/7828.got.cif
#   From: 2010.03.12/outbox.cif.g09.slc.cpg/sg55_4_cif.got.tgz:7828.got - 2010.04.16 15:19:21.
