data_PCOD8225737
_publ_section_title
;
Structure prediction by ZEFSAII (Michael W. Deem and Ramdas Pophale) SiO2 
 PCOD8225737
Probable space group: P B A M
;
_chemical_formula_sum "Si O2"
_cell_formula_units_Z 44
_cell_length_a 13.936065
_cell_length_b 8.185791
_cell_length_c 18.371257
_cell_angle_alpha 90.000000
_cell_angle_beta 90.000000
_cell_angle_gamma 90.000000
_cell_volume 2095.751029
_symmetry_space_group_name_H-M "P B A M"
_symmetry_group_IT_number 55
_symmetry_cell_setting 'orthorhombic'
loop_
_space_group_symop_operation_xyz
x,y,z
-x,-y,z
1/2+x,1/2-y,-z
1/2-x,1/2+y,-z
-x,-y,-z
x,y,-z
1/2-x,1/2+y,z
1/2+x,1/2-y,z
loop_
_atom_site_type_symbol
_atom_site_label
_atom_site_fract_x
_atom_site_fract_y
_atom_site_fract_z
Si Si1 0.000000 0.500000 0.870326
Si Si2 0.116862 0.709112 0.237730
Si Si3 0.389672 0.764326 0.500000
Si Si4 0.810924 0.090694 0.500000
Si Si5 0.540097 0.680356 0.384097
Si Si6 0.666405 0.200267 0.081302
Si Si7 0.792704 0.984955 0.178485
O O1 0.042674 0.644479 0.821425
O O2 0.075805 0.417953 0.923612
O O3 0.064807 0.704238 0.315611
O O4 0.212253 0.595993 0.231351
O O5 0.139844 0.901343 0.227218
O O6 0.305265 0.898802 0.500000
O O7 0.330318 0.599377 0.500000
O O8 0.457819 0.776049 0.429207
O O9 0.860870 0.168350 0.571005
O O10 0.500000 0.500000 0.363773
O O11 0.645372 0.348085 0.137001
O O12 0.753600 0.097385 0.113541
O O13 0.692061 0.262062 0.000000
#
# Coordination Sequence:
#
# PCOD8225737 Si02
#       7
#     4   8   4   4   8   8   8
#     4  10  23  36  54  85 122 150 196 244 294 367
#     4  10  21  40  57  86 118 154 199 243 301 357
#     4   9  19  41  60  86 120 156 200 245 293 351
#     4   9  19  39  58  88 118 150 206 236 289 364
#     4   9  20  37  62  85 119 163 194 246 303 351
#     4  10  19  37  58  84 115 154 195 247 303 356
#     4   9  21  37  60  84 115 153 202 247 294 363
#
# _framework density 20.994859999999999
#
# number of rings (size 3 to 8) (size 9 to 14) (size 15 to 20)
#    0.000    2.545    0.000    1.909    2.545    2.909 
#    9.818    4.545    0.000    0.000    0.000    0.000 
#    0.000    0.000    0.000    0.000    0.000    0.000 
#
# Total GULP energy -545382.740239 kJ/mol
# GULP energy per Si atom -12395.062278 kJ/mol
# Density = 2.094707 g / cm^3
# Si number density = 20.994860 Si / 1000 Ang^3
#
#
#
# Elastic Constant Matrix: (Units=GPa)
#
#
# Indices 1 2 3 4 5 6 
#
# 1 85.7963 26.3346 49.7370 0.0000 0.0000 0.0000
# 2 26.3346 75.7744 36.7971 0.0000 0.0000 0.0000
# 3 49.7370 36.7971 109.8385 0.0000 0.0000 0.0000
# 4 0.0000 0.0000 0.0000 14.7805 0.0000 0.0000
# 5 0.0000 0.0000 0.0000 0.0000 7.8153 0.0000
# 6 0.0000 0.0000 0.0000 0.0000 0.0000 30.7662
#
#
#
# Elastic Compliance Matrix: (Units=1/GPa)
#
#
# Indices 1 2 3 4 5 6 
#
# 1 0.016181 -0.002467 -0.006501 0.000000 0.000000 0.000000
# 2 -0.002467 0.016137 -0.004289 0.000000 0.000000 0.000000
# 3 -0.006501 -0.004289 0.013485 0.000000 0.000000 0.000000
# 4 0.000000 0.000000 0.000000 0.067657 0.000000 0.000000
# 5 0.000000 0.000000 0.000000 0.000000 0.127954 0.000000
# 6 0.000000 0.000000 0.000000 0.000000 0.000000 0.032503
#
#
# Mechanical properties :
#
#
# Convention : Reuss Voigt Hill
#
# Bulk Modulus (GPa) = 51.84047 55.23852 53.53950
# Shear Modulus (GPa) = 16.29404 21.24177 18.76790
#
# Velocity S-wave (km/s) = 2.78887 3.18427 2.99311
# Velocity P-wave (km/s) = 5.92588 6.31562 6.12385
#
# Compressibility (1/GPa) = 0.01928995
#
# Stress axis : x y z
#
# Youngs Moduli (GPa) = 61.80000 61.96850 74.15716
#
# Poissons Ratio (x) = 0.15286 0.48208
# Poissons Ratio (y) = 0.15245 0.31807
# Poissons Ratio (z) = 0.40175 0.26579
#
# Static dielectric constant tensor:
#      x y z
#    x 3.848680 0.000000 0.000000 
#    y 0.000000 3.871580 0.000000 
#    z 0.000000 0.000000 3.631690 
# 
# 
# High freq. dielectric constant tensor:
#      x y z
#    x 1.818700 0.000000 0.000000 
#    y 0.000000 1.821010 0.000000 
#    z 0.000000 0.000000 1.815180 
# 
# From -- ./inp_files/21477.got.cif
#   From: 2010.03.12/outbox.cif.g09.slc.cpg/sg55_11_cif.got.tgz:21477.got - 2010.04.16 15:19:21.
