data_PCOD8225608
_publ_section_title
;
Structure prediction by ZEFSAII (Michael W. Deem and Ramdas Pophale) SiO2 
 PCOD8225608
Probable space group: P B A M
;
_chemical_formula_sum "Si O2"
_cell_formula_units_Z 48
_cell_length_a 14.358607
_cell_length_b 20.166382
_cell_length_c 8.831123
_cell_angle_alpha 90.000000
_cell_angle_beta 90.000000
_cell_angle_gamma 90.000000
_cell_volume 2557.150165
_symmetry_space_group_name_H-M "P B A M"
_symmetry_group_IT_number 55
_symmetry_cell_setting 'orthorhombic'
loop_
_space_group_symop_operation_xyz
x,y,z
-x,-y,z
1/2+x,1/2-y,-z
1/2-x,1/2+y,-z
-x,-y,-z
x,y,-z
1/2-x,1/2+y,z
1/2+x,1/2-y,z
loop_
_atom_site_type_symbol
_atom_site_label
_atom_site_fract_x
_atom_site_fract_y
_atom_site_fract_z
Si Si1 0.510617 0.625847 0.677877
Si Si2 0.982296 0.265835 0.824806
Si Si3 0.293235 0.435480 0.677793
Si Si4 0.825933 0.671566 0.824420
Si Si5 0.332058 0.571942 0.179740
Si Si6 0.278974 0.198408 0.178955
O O1 0.496170 0.619883 0.500000
O O2 0.494770 0.701023 0.728538
O O3 0.612825 0.602201 0.727877
O O4 0.436596 0.577690 0.757429
O O5 0.886568 0.299565 0.769220
O O6 0.063630 0.319432 0.800944
O O7 0.976034 0.243700 0.000000
O O8 0.290047 0.447982 0.500000
O O9 0.205292 0.391694 0.728192
O O10 0.284853 0.505122 0.762153
O O11 0.773189 0.736374 0.759647
O O12 0.800877 0.659936 0.000000
O O13 0.270082 0.632785 0.244687
O O14 0.335376 0.571692 0.000000
O O15 0.269584 0.196592 0.000000
#
# Coordination Sequence:
#
# PCOD8225608 Si02
#       6
#     8   8   8   8   8   8
#     4  11  22  35  54  83 118 148 180 227 284 338
#     4  10  19  35  59  86 114 142 183 234 278 326
#     4  11  24  39  54  81 118 153 186 229 282 338
#     4  10  19  35  60  85 109 145 188 230 274 329
#     4  11  22  38  59  84 112 150 191 232 281 333
#     4   9  18  34  58  86 112 139 185 236 276 325
#
# _framework density 18.770897000000001
#
# number of rings (size 3 to 8) (size 9 to 14) (size 15 to 20)
#    0.000    1.667    3.333    2.000    0.000    4.667 
#    0.000    2.500    0.000    5.000    0.000    0.000 
#    0.000    0.000    0.000    0.000    0.000    0.000 
#
# Total GULP energy -595415.899004 kJ/mol
# GULP energy per Si atom -12404.497896 kJ/mol
# Density = 1.872817 g / cm^3
# Si number density = 18.770897 Si / 1000 Ang^3
#
#
#
# Elastic Constant Matrix: (Units=GPa)
#
#
# Indices 1 2 3 4 5 6 
#
# 1 97.6933 19.9707 22.9538 0.0000 0.0000 0.0000
# 2 19.9707 84.4965 27.0508 0.0000 0.0000 0.0000
# 3 22.9538 27.0508 53.8871 0.0000 0.0000 0.0000
# 4 0.0000 0.0000 0.0000 21.7402 0.0000 0.0000
# 5 0.0000 0.0000 0.0000 0.0000 20.5612 0.0000
# 6 0.0000 0.0000 0.0000 0.0000 0.0000 29.5113
#
#
#
# Elastic Compliance Matrix: (Units=1/GPa)
#
#
# Indices 1 2 3 4 5 6 
#
# 1 0.011506 -0.001371 -0.004213 0.000000 0.000000 0.000000
# 2 -0.001371 0.014264 -0.006577 0.000000 0.000000 0.000000
# 3 -0.004213 -0.006577 0.023653 0.000000 0.000000 0.000000
# 4 0.000000 0.000000 0.000000 0.045998 0.000000 0.000000
# 5 0.000000 0.000000 0.000000 0.000000 0.048635 0.000000
# 6 0.000000 0.000000 0.000000 0.000000 0.000000 0.033885
#
#
# Mechanical properties :
#
#
# Convention : Reuss Voigt Hill
#
# Bulk Modulus (GPa) = 39.83608 41.78085 40.80847
# Shear Modulus (GPa) = 23.73825 25.43600 24.58712
#
# Velocity S-wave (km/s) = 3.56002 3.68513 3.62312
# Velocity P-wave (km/s) = 6.17792 6.35716 6.26818
#
# Compressibility (1/GPa) = 0.02510287
#
# Stress axis : x y z
#
# Youngs Moduli (GPa) = 86.90952 70.10545 42.27732
#
# Poissons Ratio (x) = 0.09609 0.17812
# Poissons Ratio (y) = 0.11913 0.27804
# Poissons Ratio (z) = 0.36616 0.46106
#
# Static dielectric constant tensor:
#      x y z
#    x 3.617620 0.000000 0.000000 
#    y 0.000000 3.436160 0.000000 
#    z 0.000000 0.000000 3.238600 
# 
# 
# High freq. dielectric constant tensor:
#      x y z
#    x 1.732510 0.000000 0.000000 
#    y 0.000000 1.725140 0.000000 
#    z 0.000000 0.000000 1.713260 
# 
# From -- ./inp_files/5551.got.cif
#   From: 2010.03.12/outbox.cif.g09.slc.cpg/sg55_3_cif.got.tgz:5551.got - 2010.04.16 15:19:21.
