data_PCOD8225616
_publ_section_title
;
Structure prediction by ZEFSAII (Michael W. Deem and Ramdas Pophale) SiO2 
 PCOD8225616
Probable space group: P B A M
;
_chemical_formula_sum "Si O2"
_cell_formula_units_Z 64
_cell_length_a 10.644531
_cell_length_b 32.810892
_cell_length_c 8.755393
_cell_angle_alpha 90.000000
_cell_angle_beta 90.000000
_cell_angle_gamma 90.000000
_cell_volume 3057.878415
_symmetry_space_group_name_H-M "P B A M"
_symmetry_group_IT_number 55
_symmetry_cell_setting 'orthorhombic'
loop_
_space_group_symop_operation_xyz
x,y,z
-x,-y,z
1/2+x,1/2-y,-z
1/2-x,1/2+y,-z
-x,-y,-z
x,y,-z
1/2-x,1/2+y,z
1/2+x,1/2-y,z
loop_
_atom_site_type_symbol
_atom_site_label
_atom_site_fract_x
_atom_site_fract_y
_atom_site_fract_z
Si Si1 0.080286 0.933625 0.179150
Si Si2 0.334464 0.130715 0.171779
Si Si3 0.572795 0.079286 0.828775
Si Si4 0.675994 0.430784 0.674731
Si Si5 0.072515 0.717403 0.180959
Si Si6 0.205449 0.486620 0.324034
Si Si7 0.727009 0.634295 0.320356
Si Si8 0.212553 0.279503 0.818138
O O1 0.109283 0.887922 0.239633
O O2 0.937613 0.944264 0.217773
O O3 0.167299 0.965814 0.265238
O O4 0.102540 0.936947 0.000000
O O5 0.430418 0.093203 0.170627
O O6 0.222362 0.114451 0.277919
O O7 0.396358 0.171720 0.239959
O O8 0.284295 0.139020 0.000000
O O9 0.648326 0.108779 0.715847
O O10 0.587286 0.032711 0.768383
O O11 0.629510 0.082524 0.000000
O O12 0.631098 0.429415 0.500000
O O13 0.784902 0.464741 0.698852
O O14 0.186021 0.746063 0.240560
O O15 0.931612 0.730348 0.237930
O O16 0.069948 0.717704 0.000000
O O17 0.186460 0.475421 0.500000
O O18 0.704438 0.636977 0.500000
O O19 0.739861 0.678929 0.252574
O O20 0.214296 0.283020 0.000000
#
# Coordination Sequence:
#
# PCOD8225616 Si02
#       8
#     8   8   8   8   8   8   8   8
#     4  11  22  37  60  86 114 152 198 246 292 349
#     4  10  21  38  58  83 115 153 198 248 295 348
#     4  10  19  35  60  85 113 148 197 247 285 339
#     4  11  24  39  55  81 119 158 193 241 299 358
#     4   9  19  36  61  89 120 154 200 251 303 356
#     4  10  21  37  57  83 117 154 195 241 297 355
#     4  11  21  35  58  87 117 152 192 235 291 354
#     4  10  19  37  62  89 118 155 199 248 298 358
#
# _framework density 20.929542000000001
#
# number of rings (size 3 to 8) (size 9 to 14) (size 15 to 20)
#    0.000    1.750    1.250    5.250    0.000    6.000 
#    0.000    6.250    0.000    0.000    0.000    0.000 
#    0.000    0.000    0.000    0.000    0.000    0.000 
#
# Total GULP energy -793331.466802 kJ/mol
# GULP energy per Si atom -12395.804169 kJ/mol
# Density = 2.088191 g / cm^3
# Si number density = 20.929542 Si / 1000 Ang^3
#
#
#
# Elastic Constant Matrix: (Units=GPa)
#
#
# Indices 1 2 3 4 5 6 
#
# 1 41.9276 32.1518 10.3195 0.0000 0.0000 0.0000
# 2 32.1518 99.3765 24.1446 0.0000 0.0000 0.0000
# 3 10.3195 24.1446 49.7415 0.0000 0.0000 0.0000
# 4 0.0000 0.0000 0.0000 26.0152 0.0000 0.0000
# 5 0.0000 0.0000 0.0000 0.0000 -1.0048 0.0000
# 6 0.0000 0.0000 0.0000 0.0000 0.0000 29.3300
#
#
#
# Elastic Compliance Matrix: (Units=1/GPa)
#
#
# Indices 1 2 3 4 5 6 
#
# 1 0.031865 -0.009867 -0.001821 0.000000 0.000000 0.000000
# 2 -0.009867 0.014463 -0.004974 0.000000 0.000000 0.000000
# 3 -0.001821 -0.004974 0.022896 0.000000 0.000000 0.000000
# 4 0.000000 0.000000 0.000000 0.038439 0.000000 0.000000
# 5 0.000000 0.000000 0.000000 0.000000 -0.995207 0.000000
# 6 0.000000 0.000000 0.000000 0.000000 0.000000 0.034095
#
#
# Mechanical properties :
#
#
# Convention : Reuss Voigt Hill
#
# Bulk Modulus (GPa) = 27.85449 36.03083 31.94266
# Shear Modulus (GPa) = -6.18692 19.16338 6.48823
#
# Velocity S-wave (km/s) = -1.72119 3.02919 1.76260
# Velocity P-wave (km/s) = 3.06392 5.43023 4.40880
#
# Compressibility (1/GPa) = 0.03590085
#
# Stress axis : x y z
#
# Youngs Moduli (GPa) = 31.38195 69.13970 43.67582
#
# Poissons Ratio (x) = 0.68221 0.07955
# Poissons Ratio (y) = 0.30965 0.21722
# Poissons Ratio (z) = 0.05716 0.34387
#
# Static dielectric constant tensor:
#      x y z
#    x 3.817200 0.000000 0.000000 
#    y 0.000000 3.944800 0.000000 
#    z 0.000000 0.000000 3.653650 
# 
# 
# High freq. dielectric constant tensor:
#      x y z
#    x 1.816630 0.000000 0.000000 
#    y 0.000000 1.818670 0.000000 
#    z 0.000000 0.000000 1.806200 
# 
# From -- ./inp_files/4594.got.cif
#   From: 2010.03.12/outbox.cif.g09.slc.cpg/sg55_3_cif.got.tgz:4594.got - 2010.04.16 15:19:21.
