data_PCOD8225215
_publ_section_title
;
Structure prediction by ZEFSAII (Michael W. Deem and Ramdas Pophale) SiO2 
 PCOD8225215
Probable space group: P B A M
;
_chemical_formula_sum "Si O2"
_cell_formula_units_Z 64
_cell_length_a 14.161942
_cell_length_b 19.631966
_cell_length_c 12.617412
_cell_angle_alpha 90.000000
_cell_angle_beta 90.000000
_cell_angle_gamma 90.000000
_cell_volume 3507.978226
_symmetry_space_group_name_H-M "P B A M"
_symmetry_group_IT_number 55
_symmetry_cell_setting 'orthorhombic'
loop_
_space_group_symop_operation_xyz
x,y,z
-x,-y,z
1/2+x,1/2-y,-z
1/2-x,1/2+y,-z
-x,-y,-z
x,y,-z
1/2-x,1/2+y,z
1/2+x,1/2-y,z
loop_
_atom_site_type_symbol
_atom_site_label
_atom_site_fract_x
_atom_site_fract_y
_atom_site_fract_z
Si Si1 0.952328 0.605894 0.876471
Si Si2 0.778409 0.540783 0.757715
Si Si3 0.770767 0.667911 0.623068
Si Si4 0.399228 0.231783 0.374986
Si Si5 0.896480 0.993353 0.118577
Si Si6 0.576501 0.236426 0.758878
Si Si7 0.361160 0.101541 0.244913
Si Si8 0.690536 0.347158 0.118335
O O1 0.857077 0.569685 0.837496
O O2 0.948645 0.687332 0.857484
O O3 0.042033 0.577647 0.811206
O O4 0.966026 0.590159 0.000000
O O5 0.754574 0.590766 0.661138
O O6 0.679958 0.536921 0.819045
O O7 0.810150 0.466929 0.712506
O O8 0.786719 0.665690 0.500000
O O9 0.687114 0.719046 0.654330
O O10 0.867006 0.693291 0.673262
O O11 0.422639 0.233991 0.500000
O O12 0.484006 0.261881 0.303714
O O13 0.378398 0.153229 0.342558
O O14 0.869809 0.914911 0.116245
O O15 0.900513 0.023739 0.000000
O O16 0.000000 0.000000 0.172131
O O17 0.637423 0.298465 0.800587
O O18 0.296551 0.139260 0.157897
O O19 0.697220 0.315639 0.000000
#
# Coordination Sequence:
#
# PCOD8225215 Si02
#       8
#     8   8   8   8   8   8   8   8
#     4  10  20  34  54  82 115 146 182 224 274 329
#     4  10  21  34  56  82 110 145 184 230 274 328
#     4  10  21  38  57  79 108 143 181 231 283 326
#     4  10  21  37  58  79 105 142 186 229 279 331
#     4   9  19  34  52  77 109 147 185 219 266 324
#     4  10  20  35  56  80 109 142 186 228 274 326
#     4  10  20  36  55  83 111 144 181 228 276 330
#     4  10  19  33  54  79 110 146 181 220 268 326
#
# _framework density 18.244126000000001
#
# number of rings (size 3 to 8) (size 9 to 14) (size 15 to 20)
#    0.000    2.125    1.250    1.875    1.750    2.500 
#    0.000    0.000    0.000    4.875    0.000    0.000 
#    0.000    0.000    0.000    0.000    0.000    0.000 
#
# Total GULP energy -793565.058442 kJ/mol
# GULP energy per Si atom -12399.454038 kJ/mol
# Density = 1.820260 g / cm^3
# Si number density = 18.244126 Si / 1000 Ang^3
#
#
#
# Elastic Constant Matrix: (Units=GPa)
#
#
# Indices 1 2 3 4 5 6 
#
# 1 100.1848 14.9085 26.3205 0.0000 0.0000 0.0000
# 2 14.9085 54.7573 33.0419 0.0000 0.0000 0.0000
# 3 26.3205 33.0419 70.8642 0.0000 0.0000 0.0000
# 4 0.0000 0.0000 0.0000 23.9599 0.0000 0.0000
# 5 0.0000 0.0000 0.0000 0.0000 24.5334 0.0000
# 6 0.0000 0.0000 0.0000 0.0000 0.0000 25.4473
#
#
#
# Elastic Compliance Matrix: (Units=1/GPa)
#
#
# Indices 1 2 3 4 5 6 
#
# 1 0.011083 -0.000742 -0.003770 0.000000 0.000000 0.000000
# 2 -0.000742 0.025462 -0.011597 0.000000 0.000000 0.000000
# 3 -0.003770 -0.011597 0.020919 0.000000 0.000000 0.000000
# 4 0.000000 0.000000 0.000000 0.041736 0.000000 0.000000
# 5 0.000000 0.000000 0.000000 0.000000 0.040761 0.000000
# 6 0.000000 0.000000 0.000000 0.000000 0.000000 0.039297
#
#
# Mechanical properties :
#
#
# Convention : Reuss Voigt Hill
#
# Bulk Modulus (GPa) = 39.61101 41.59425 40.60263
# Shear Modulus (GPa) = 22.73855 24.89048 23.81451
#
# Velocity S-wave (km/s) = 3.53420 3.69765 3.61685
# Velocity P-wave (km/s) = 6.19781 6.40924 6.30441
#
# Compressibility (1/GPa) = 0.02524551
#
# Stress axis : x y z
#
# Youngs Moduli (GPa) = 90.23219 39.27397 47.80357
#
# Poissons Ratio (x) = 0.02916 0.18023
# Poissons Ratio (y) = 0.06699 0.55436
# Poissons Ratio (z) = 0.34019 0.45544
#
# Static dielectric constant tensor:
#      x y z
#    x 3.497990 0.000000 0.000000 
#    y 0.000000 3.385610 0.000000 
#    z 0.000000 0.000000 3.247970 
# 
# 
# High freq. dielectric constant tensor:
#      x y z
#    x 1.722580 0.000000 0.000000 
#    y 0.000000 1.705540 0.000000 
#    z 0.000000 0.000000 1.694520 
# 
# From -- ./inp_files/14397.got.cif
#   From: 2010.03.12/outbox.cif.g09.slc.cpg/sg55_8_cif.got.tgz:14397.got - 2010.04.16 15:19:21.
