data_PCOD8225872
_publ_section_title
;
Structure prediction by ZEFSAII (Michael W. Deem and Ramdas Pophale) SiO2 
 PCOD8225872
Probable space group: P B A M
;
_chemical_formula_sum "Si O2"
_cell_formula_units_Z 64
_cell_length_a 12.572082
_cell_length_b 9.017410
_cell_length_c 29.017895
_cell_angle_alpha 90.000000
_cell_angle_beta 90.000000
_cell_angle_gamma 90.000000
_cell_volume 3289.689634
_symmetry_space_group_name_H-M "P B A M"
_symmetry_group_IT_number 55
_symmetry_cell_setting 'orthorhombic'
loop_
_space_group_symop_operation_xyz
x,y,z
-x,-y,z
1/2+x,1/2-y,-z
1/2-x,1/2+y,-z
-x,-y,-z
x,y,-z
1/2-x,1/2+y,z
1/2+x,1/2-y,z
loop_
_atom_site_type_symbol
_atom_site_label
_atom_site_fract_x
_atom_site_fract_y
_atom_site_fract_z
Si Si1 0.791364 0.472178 0.553282
Si Si2 0.439858 0.149237 0.374385
Si Si3 0.122785 0.018930 0.736751
Si Si4 0.877787 0.485220 0.945730
Si Si5 0.121326 0.014668 0.845535
Si Si6 0.852826 0.763434 0.402262
Si Si7 0.265177 0.255241 0.311911
Si Si8 0.250370 0.265463 0.895331
O O1 0.785403 0.430440 0.500000
O O2 0.873707 0.362393 0.578397
O O3 0.680306 0.426535 0.579000
O O4 0.828104 0.642132 0.558065
O O5 0.524985 0.278236 0.386072
O O6 0.372305 0.171379 0.327829
O O7 0.500000 0.000000 0.363267
O O8 0.128175 0.032016 0.791183
O O9 0.175633 0.163753 0.715015
O O10 0.198231 0.886191 0.720955
O O11 0.000000 0.000000 0.720302
O O12 0.814825 0.631457 0.930269
O O13 0.832158 0.335880 0.923433
O O14 0.000000 0.500000 0.930360
O O15 0.865959 0.469685 0.000000
O O16 0.168842 0.163030 0.867565
O O17 0.184692 0.867479 0.859906
O O18 0.000000 0.000000 0.862399
O O19 0.787447 0.692811 0.359519
#
# Coordination Sequence:
#
# PCOD8225872 Si02
#       8
#     8   8   8   8   8   8   8   8
#     4  10  20  33  51  74  99 130 166 205 250 308
#     4   9  19  34  54  76 100 135 175 212 260 318
#     4  11  23  37  58  84 111 143 183 231 277 328
#     4  10  20  34  55  84 113 146 191 237 281 330
#     4  10  21  37  55  80 110 146 188 226 277 336
#     4  10  20  35  53  74 101 132 169 211 261 315
#     4  11  21  37  57  79 108 138 176 224 275 326
#     4  10  20  36  57  78 112 153 186 230 282 332
#
# _framework density 19.454722
#
# number of rings (size 3 to 8) (size 9 to 14) (size 15 to 20)
#    0.000    1.875    0.000    5.250    0.000    2.750 
#    0.000    1.875    0.000   17.250    0.000    0.000 
#    0.000    0.000    0.000    0.000    0.000    0.000 
#
# Total GULP energy -793270.357010 kJ/mol
# GULP energy per Si atom -12394.849328 kJ/mol
# Density = 1.941044 g / cm^3
# Si number density = 19.454722 Si / 1000 Ang^3
#
#
#
# Elastic Constant Matrix: (Units=GPa)
#
#
# Indices 1 2 3 4 5 6 
#
# 1 101.6135 27.5482 25.0669 0.0000 0.0000 0.0000
# 2 27.5482 74.6689 16.1122 0.0000 0.0000 0.0000
# 3 25.0669 16.1122 64.9562 0.0000 0.0000 0.0000
# 4 0.0000 0.0000 0.0000 27.0098 0.0000 0.0000
# 5 0.0000 0.0000 0.0000 0.0000 24.0872 0.0000
# 6 0.0000 0.0000 0.0000 0.0000 0.0000 32.7615
#
#
#
# Elastic Compliance Matrix: (Units=1/GPa)
#
#
# Indices 1 2 3 4 5 6 
#
# 1 0.011696 -0.003530 -0.003638 0.000000 0.000000 0.000000
# 2 -0.003530 0.015215 -0.002412 0.000000 0.000000 0.000000
# 3 -0.003638 -0.002412 0.017397 0.000000 0.000000 0.000000
# 4 0.000000 0.000000 0.000000 0.037024 0.000000 0.000000
# 5 0.000000 0.000000 0.000000 0.000000 0.041516 0.000000
# 6 0.000000 0.000000 0.000000 0.000000 0.000000 0.030524
#
#
# Mechanical properties :
#
#
# Convention : Reuss Voigt Hill
#
# Bulk Modulus (GPa) = 39.76354 42.07702 40.92028
# Shear Modulus (GPa) = 27.63757 28.27246 27.95501
#
# Velocity S-wave (km/s) = 3.77319 3.81628 3.79479
# Velocity P-wave (km/s) = 6.28220 6.41044 6.34664
#
# Compressibility (1/GPa) = 0.02514866
#
# Stress axis : x y z
#
# Youngs Moduli (GPa) = 85.50205 65.72354 57.48089
#
# Poissons Ratio (x) = 0.23200 0.20910
# Poissons Ratio (y) = 0.30182 0.13864
# Poissons Ratio (z) = 0.31104 0.15852
#
# Static dielectric constant tensor:
#      x y z
#    x 4.119490 0.000000 0.000000 
#    y 0.000000 3.678360 0.000000 
#    z 0.000000 0.000000 3.429480 
# 
# 
# High freq. dielectric constant tensor:
#      x y z
#    x 1.773920 0.000000 0.000000 
#    y 0.000000 1.755330 0.000000 
#    z 0.000000 0.000000 1.755970 
# 
# From -- ./inp_files/24158.got.cif
#   From: 2010.03.12/outbox.cif.g09.slc.cpg/sg55_13_cif.got.tgz:24158.got - 2010.04.16 15:19:21.
