data_PCOD8225329
_publ_section_title
;
Structure prediction by ZEFSAII (Michael W. Deem and Ramdas Pophale) SiO2 
 PCOD8225329
Probable space group: P B A M
;
_chemical_formula_sum "Si O2"
_cell_formula_units_Z 48
_cell_length_a 9.427038
_cell_length_b 20.089602
_cell_length_c 12.681939
_cell_angle_alpha 90.000000
_cell_angle_beta 90.000000
_cell_angle_gamma 90.000000
_cell_volume 2401.774616
_symmetry_space_group_name_H-M "P B A M"
_symmetry_group_IT_number 55
_symmetry_cell_setting 'orthorhombic'
loop_
_space_group_symop_operation_xyz
x,y,z
-x,-y,z
1/2+x,1/2-y,-z
1/2-x,1/2+y,-z
-x,-y,-z
x,y,-z
1/2-x,1/2+y,z
1/2+x,1/2-y,z
loop_
_atom_site_type_symbol
_atom_site_label
_atom_site_fract_x
_atom_site_fract_y
_atom_site_fract_z
Si Si1 0.806169 0.187420 0.379200
Si Si2 0.492509 0.781293 0.277007
Si Si3 0.045912 0.170232 0.117591
Si Si4 0.837271 0.504255 0.118174
Si Si5 0.909232 0.063915 0.250913
Si Si6 0.852477 0.356271 0.114567
O O1 0.762219 0.178137 0.500000
O O2 0.666151 0.205103 0.312787
O O3 0.912285 0.251456 0.372172
O O4 0.878503 0.117829 0.343085
O O5 0.525260 0.726947 0.186872
O O6 0.548128 0.847713 0.217662
O O7 0.212348 0.188506 0.122890
O O8 0.006327 0.097631 0.161955
O O9 0.985323 0.175070 0.000000
O O10 0.742436 0.544894 0.200696
O O11 0.782894 0.429169 0.114959
O O12 0.000000 0.500000 0.157423
O O13 0.829309 0.536338 0.000000
O O14 0.000000 0.000000 0.293697
O O15 0.930144 0.344256 0.000000
#
# Coordination Sequence:
#
# PCOD8225329 Si02
#       6
#     8   8   8   8   8   8
#     4  11  25  42  63  85 110 151 201 256 300 341
#     4  11  21  41  61  87 119 151 195 239 299 352
#     4  10  20  34  57  90 124 156 189 226 279 355
#     4  10  20  34  54  86 124 159 192 229 281 349
#     4  11  22  38  61  86 117 159 198 244 290 350
#     4  10  19  33  57  88 123 153 183 227 281 351
#
# _framework density 19.985223000000001
#
# number of rings (size 3 to 8) (size 9 to 14) (size 15 to 20)
#    0.000    1.500    3.333    2.500    0.000    1.000 
#    0.000    1.667    0.000    5.500    0.000    0.000 
#    0.000    0.000    0.000    0.000    0.000    0.000 
#
# Total GULP energy -594748.023684 kJ/mol
# GULP energy per Si atom -12390.583827 kJ/mol
# Density = 1.993974 g / cm^3
# Si number density = 19.985223 Si / 1000 Ang^3
#
#
#
# Elastic Constant Matrix: (Units=GPa)
#
#
# Indices 1 2 3 4 5 6 
#
# 1 100.8527 23.9622 28.5284 0.0000 0.0000 0.0000
# 2 23.9622 69.9243 34.4842 0.0000 0.0000 0.0000
# 3 28.5284 34.4842 96.1519 0.0000 0.0000 0.0000
# 4 0.0000 0.0000 0.0000 19.9268 0.0000 0.0000
# 5 0.0000 0.0000 0.0000 0.0000 20.2246 0.0000
# 6 0.0000 0.0000 0.0000 0.0000 0.0000 32.3443
#
#
#
# Elastic Compliance Matrix: (Units=1/GPa)
#
#
# Indices 1 2 3 4 5 6 
#
# 1 0.011222 -0.002677 -0.002369 0.000000 0.000000 0.000000
# 2 -0.002677 0.018013 -0.005666 0.000000 0.000000 0.000000
# 3 -0.002369 -0.005666 0.013135 0.000000 0.000000 0.000000
# 4 0.000000 0.000000 0.000000 0.050184 0.000000 0.000000
# 5 0.000000 0.000000 0.000000 0.000000 0.049445 0.000000
# 6 0.000000 0.000000 0.000000 0.000000 0.000000 0.030917
#
#
# Mechanical properties :
#
#
# Convention : Reuss Voigt Hill
#
# Bulk Modulus (GPa) = 47.74380 48.98648 48.36514
# Shear Modulus (GPa) = 24.83584 26.49607 25.66596
#
# Velocity S-wave (km/s) = 3.52903 3.64508 3.58753
# Velocity P-wave (km/s) = 6.36764 6.50231 6.43533
#
# Compressibility (1/GPa) = 0.02094513
#
# Stress axis : x y z
#
# Youngs Moduli (GPa) = 89.11274 55.51611 76.13108
#
# Poissons Ratio (x) = 0.14862 0.18038
# Poissons Ratio (y) = 0.23856 0.43135
# Poissons Ratio (z) = 0.21114 0.31455
#
# Static dielectric constant tensor:
#      x y z
#    x 3.467710 0.000000 0.000000 
#    y 0.000000 3.748750 0.000000 
#    z 0.000000 0.000000 3.433390 
# 
# 
# High freq. dielectric constant tensor:
#      x y z
#    x 1.786400 0.000000 0.000000 
#    y 0.000000 1.780070 0.000000 
#    z 0.000000 0.000000 1.753810 
# 
# From -- ./inp_files/12224.got.cif
#   From: 2010.03.12/outbox.cif.g09.slc.cpg/sg55_7_cif.got.tgz:12224.got - 2010.04.16 15:19:21.
