data_PCOD8225960
_publ_section_title
;
Structure prediction by ZEFSAII (Michael W. Deem and Ramdas Pophale) SiO2 
 PCOD8225960
Probable space group: P B A M
;
_chemical_formula_sum "Si O2"
_cell_formula_units_Z 56
_cell_length_a 21.822529
_cell_length_b 14.627167
_cell_length_c 9.070401
_cell_angle_alpha 90.000000
_cell_angle_beta 90.000000
_cell_angle_gamma 90.000000
_cell_volume 2895.288109
_symmetry_space_group_name_H-M "P B A M"
_symmetry_group_IT_number 55
_symmetry_cell_setting 'orthorhombic'
loop_
_space_group_symop_operation_xyz
x,y,z
-x,-y,z
1/2+x,1/2-y,-z
1/2-x,1/2+y,-z
-x,-y,-z
x,y,-z
1/2-x,1/2+y,z
1/2+x,1/2-y,z
loop_
_atom_site_type_symbol
_atom_site_label
_atom_site_fract_x
_atom_site_fract_y
_atom_site_fract_z
Si Si1 0.069547 0.503539 0.825244
Si Si2 0.352640 0.480430 0.667609
Si Si3 0.641762 0.170368 0.826276
Si Si4 0.411305 0.638107 0.826159
Si Si5 0.110255 0.702638 0.172472
Si Si6 0.033605 0.849383 0.332333
Si Si7 0.720541 0.670033 0.173285
O O1 0.109247 0.419679 0.757873
O O2 0.104599 0.596834 0.780216
O O3 0.000000 0.500000 0.761896
O O4 0.066289 0.493988 0.000000
O O5 0.333272 0.500518 0.500000
O O6 0.358621 0.575109 0.755642
O O7 0.416680 0.428378 0.675653
O O8 0.300732 0.420781 0.744420
O O9 0.601839 0.257559 0.781784
O O10 0.710802 0.187022 0.768304
O O11 0.644978 0.158849 0.000000
O O12 0.476546 0.612208 0.758605
O O13 0.411632 0.622041 0.000000
O O14 0.058297 0.756539 0.260470
O O15 0.177749 0.742232 0.212452
O O16 0.096055 0.715223 0.000000
O O17 0.014087 0.828946 0.500000
O O18 0.717771 0.650563 0.000000
#
# Coordination Sequence:
#
# PCOD8225960 Si02
#       7
#     8   8   8   8   8   8   8
#     4   9  16  28  49  76 103 132 169 215 264 311
#     4  10  21  36  53  75 105 140 175 211 256 310
#     4   9  19  33  51  78 107 133 169 219 266 309
#     4  11  21  33  53  80 107 136 172 214 260 309
#     4   9  17  30  52  77  99 130 171 212 255 307
#     4  10  20  34  52  75 106 139 169 208 258 310
#     4   9  18  34  54  77 103 131 169 214 259 309
#
# _framework density 19.341771000000001
#
# number of rings (size 3 to 8) (size 9 to 14) (size 15 to 20)
#    0.000    2.429    0.000    2.571    0.000    6.857 
#    0.000    5.714    0.000    9.000    0.000    0.000 
#    0.000    0.000    0.000    0.000    0.000    0.000 
#
# Total GULP energy -694388.481565 kJ/mol
# GULP energy per Si atom -12399.794314 kJ/mol
# Density = 1.929775 g / cm^3
# Si number density = 19.341771 Si / 1000 Ang^3
#
#
#
# Elastic Constant Matrix: (Units=GPa)
#
#
# Indices 1 2 3 4 5 6 
#
# 1 92.9396 22.8300 16.7470 0.0000 0.0000 0.0000
# 2 22.8300 106.0575 25.0758 0.0000 0.0000 0.0000
# 3 16.7470 25.0758 60.5528 0.0000 0.0000 0.0000
# 4 0.0000 0.0000 0.0000 8.0856 0.0000 0.0000
# 5 0.0000 0.0000 0.0000 0.0000 11.4718 0.0000
# 6 0.0000 0.0000 0.0000 0.0000 0.0000 20.5209
#
#
#
# Elastic Compliance Matrix: (Units=1/GPa)
#
#
# Indices 1 2 3 4 5 6 
#
# 1 0.011673 -0.001939 -0.002425 0.000000 0.000000 0.000000
# 2 -0.001939 0.010774 -0.003925 0.000000 0.000000 0.000000
# 3 -0.002425 -0.003925 0.018811 0.000000 0.000000 0.000000
# 4 0.000000 0.000000 0.000000 0.123677 0.000000 0.000000
# 5 0.000000 0.000000 0.000000 0.000000 0.087171 0.000000
# 6 0.000000 0.000000 0.000000 0.000000 0.000000 0.048731
#
#
# Mechanical properties :
#
#
# Convention : Reuss Voigt Hill
#
# Bulk Modulus (GPa) = 40.52170 43.20618 41.86394
# Shear Modulus (GPa) = 15.35424 21.00879 18.18152
#
# Velocity S-wave (km/s) = 2.82057 3.29931 3.06929
# Velocity P-wave (km/s) = 5.62168 6.07460 5.85252
#
# Compressibility (1/GPa) = 0.02467814
#
# Stress axis : x y z
#
# Youngs Moduli (GPa) = 85.66720 92.81231 53.16075
#
# Poissons Ratio (x) = 0.17999 0.12893
# Poissons Ratio (y) = 0.16614 0.20868
# Poissons Ratio (z) = 0.20777 0.36433
#
# Static dielectric constant tensor:
#      x y z
#    x 3.618170 0.000000 0.000000 
#    y 0.000000 3.647130 0.000000 
#    z 0.000000 0.000000 3.312180 
# 
# 
# High freq. dielectric constant tensor:
#      x y z
#    x 1.751320 0.000000 0.000000 
#    y 0.000000 1.759360 0.000000 
#    z 0.000000 0.000000 1.721410 
# 
# From -- ./inp_files/6016.got.cif
#   From: 2010.03.12/outbox.cif.g09.slc.cpg/sg55_4_cif.got.tgz:6016.got - 2010.04.16 15:19:21.
