data_PCOD8225838
_publ_section_title
;
Structure prediction by ZEFSAII (Michael W. Deem and Ramdas Pophale) SiO2 
 PCOD8225838
Probable space group: P B A M
;
_chemical_formula_sum "Si O2"
_cell_formula_units_Z 40
_cell_length_a 9.214960
_cell_length_b 29.397284
_cell_length_c 7.726312
_cell_angle_alpha 90.000000
_cell_angle_beta 90.000000
_cell_angle_gamma 90.000000
_cell_volume 2093.017714
_symmetry_space_group_name_H-M "P B A M"
_symmetry_group_IT_number 55
_symmetry_cell_setting 'orthorhombic'
loop_
_space_group_symop_operation_xyz
x,y,z
-x,-y,z
1/2+x,1/2-y,-z
1/2-x,1/2+y,-z
-x,-y,-z
x,y,-z
1/2-x,1/2+y,z
1/2+x,1/2-y,z
loop_
_atom_site_type_symbol
_atom_site_label
_atom_site_fract_x
_atom_site_fract_y
_atom_site_fract_z
Si Si1 0.920364 0.797775 0.000000
Si Si2 0.405227 0.956781 0.796462
Si Si3 0.387500 0.120930 0.193536
Si Si4 0.426774 0.633150 0.302988
Si Si5 0.577713 0.543590 0.302681
Si Si6 0.414788 0.204118 0.000000
O O1 0.960349 0.825206 0.174121
O O2 0.001770 0.750481 0.000000
O O3 0.753965 0.784427 0.000000
O O4 0.489154 0.911829 0.727550
O O5 0.250425 0.959940 0.706654
O O6 0.500000 0.000000 0.741316
O O7 0.378756 0.954373 0.000000
O O8 0.243529 0.120059 0.309126
O O9 0.342742 0.103210 0.000000
O O10 0.449339 0.172817 0.170931
O O11 0.473605 0.646004 0.500000
O O12 0.518574 0.590863 0.224358
O O13 0.500000 0.500000 0.211248
O O14 0.526189 0.544206 0.500000
#
# Coordination Sequence:
#
# PCOD8225838 Si02
#       6
#     4   8   8   8   8   4
#     4  10  20  38  57  80 109 140 179 226 270 324
#     4  10  20  32  52  82 109 139 181 223 263 319
#     4   8  17  35  54  79 106 141 180 216 271 325
#     4  10  20  36  58  81 108 144 183 223 268 320
#     4  10  22  36  50  76 110 146 183 219 268 322
#     4   8  18  34  57  76 103 146 171 212 282 322
#
# _framework density 19.111162
#
# number of rings (size 3 to 8) (size 9 to 14) (size 15 to 20)
#    0.600    2.000    1.000    1.200    1.400    3.200 
#    0.000    4.000    0.000    0.000    0.000    0.000 
#    0.000    0.000    0.000    0.000    0.000    0.000 
#
# Total GULP energy -495664.387474 kJ/mol
# GULP energy per Si atom -12391.609687 kJ/mol
# Density = 1.906766 g / cm^3
# Si number density = 19.111162 Si / 1000 Ang^3
#
#
#
# Elastic Constant Matrix: (Units=GPa)
#
#
# Indices 1 2 3 4 5 6 
#
# 1 105.0246 91.1306 12.3891 0.0000 0.0000 0.0000
# 2 91.1306 181.9441 32.0424 0.0000 0.0000 0.0000
# 3 12.3891 32.0424 54.8016 0.0000 0.0000 0.0000
# 4 0.0000 0.0000 0.0000 -19.3295 0.0000 0.0000
# 5 0.0000 0.0000 0.0000 0.0000 21.4997 0.0000
# 6 0.0000 0.0000 0.0000 0.0000 0.0000 44.6387
#
#
#
# Elastic Compliance Matrix: (Units=1/GPa)
#
#
# Indices 1 2 3 4 5 6 
#
# 1 0.016918 -0.008696 0.001260 0.000000 0.000000 0.000000
# 2 -0.008696 0.010597 -0.004230 0.000000 0.000000 0.000000
# 3 0.001260 -0.004230 0.020436 0.000000 0.000000 0.000000
# 4 0.000000 0.000000 0.000000 -0.051734 0.000000 0.000000
# 5 0.000000 0.000000 0.000000 0.000000 0.046512 0.000000
# 6 0.000000 0.000000 0.000000 0.000000 0.000000 0.022402
#
#
# Mechanical properties :
#
#
# Convention : Reuss Voigt Hill
#
# Bulk Modulus (GPa) = 40.61919 68.09939 54.35929
# Shear Modulus (GPa) = 51.72269 23.10900 37.41585
#
# Velocity S-wave (km/s) = 5.20796 3.48111 4.42950
# Velocity P-wave (km/s) = 7.58051 7.20196 7.39366
#
# Compressibility (1/GPa) = 0.02461891
#
# Stress axis : x y z
#
# Youngs Moduli (GPa) = 59.10743 94.37002 48.93300
#
# Poissons Ratio (x) = 0.82062 -0.06164
# Poissons Ratio (y) = 0.51398 0.20698
# Poissons Ratio (z) = -0.07445 0.39918
#
# Static dielectric constant tensor:
#      x y z
#    x 3.338490 0.000000 0.000000 
#    y 0.000000 3.577580 0.000000 
#    z 0.000000 0.000000 3.194650 
# 
# 
# High freq. dielectric constant tensor:
#      x y z
#    x 1.737530 0.000000 0.000000 
#    y 0.000000 1.741530 0.000000 
#    z 0.000000 0.000000 1.721210 
# 
# From -- ./inp_files/2635.got.cif
#   From: 2010.03.12/outbox.cif.g09.slc.cpg/sg55_2_cif.got.tgz:2635.got - 2010.04.16 15:19:21.
