data_PCOD8225753
_publ_section_title
;
Structure prediction by ZEFSAII (Michael W. Deem and Ramdas Pophale) SiO2 
 PCOD8225753
Probable space group: P B A M
;
_chemical_formula_sum "Si O2"
_cell_formula_units_Z 56
_cell_length_a 19.650826
_cell_length_b 16.089362
_cell_length_c 8.925956
_cell_angle_alpha 90.000000
_cell_angle_beta 90.000000
_cell_angle_gamma 90.000000
_cell_volume 2822.112842
_symmetry_space_group_name_H-M "P B A M"
_symmetry_group_IT_number 55
_symmetry_cell_setting 'orthorhombic'
loop_
_space_group_symop_operation_xyz
x,y,z
-x,-y,z
1/2+x,1/2-y,-z
1/2-x,1/2+y,-z
-x,-y,-z
x,y,-z
1/2-x,1/2+y,z
1/2+x,1/2-y,z
loop_
_atom_site_type_symbol
_atom_site_label
_atom_site_fract_x
_atom_site_fract_y
_atom_site_fract_z
Si Si1 0.804715 0.935861 0.173084
Si Si2 0.489637 0.735084 0.176613
Si Si3 0.125383 0.710144 0.673833
Si Si4 0.942762 0.934081 0.323606
Si Si5 0.119744 0.369355 0.174051
Si Si6 0.168220 0.525662 0.325614
Si Si7 0.258993 0.748371 0.171089
O O1 0.871683 0.967717 0.258022
O O2 0.739224 0.982812 0.238271
O O3 0.798814 0.837348 0.198512
O O4 0.811137 0.959887 0.000000
O O5 0.566143 0.751390 0.227045
O O6 0.460721 0.654220 0.255043
O O7 0.443895 0.813614 0.224799
O O8 0.485870 0.720442 0.000000
O O9 0.110334 0.726769 0.500000
O O10 0.131760 0.612661 0.710821
O O11 0.194942 0.756527 0.718831
O O12 0.935843 0.924375 0.500000
O O13 0.000000 0.000000 0.277935
O O14 0.117596 0.453586 0.270186
O O15 0.189849 0.322162 0.209790
O O16 0.114344 0.392264 0.000000
O O17 0.183638 0.516938 0.500000
O O18 0.233175 0.752602 0.000000
#
# Coordination Sequence:
#
# PCOD8225753 Si02
#       7
#     8   8   8   8   8   8   8
#     4  10  19  37  62  85 113 150 195 245 294 348
#     4  11  23  41  63  88 118 158 204 248 300 360
#     4  10  22  39  58  86 122 158 199 246 298 356
#     4  11  24  40  60  88 122 158 196 243 301 364
#     4  10  21  38  60  88 118 152 202 249 297 358
#     4  10  22  38  58  88 121 157 200 245 299 355
#     4   9  18  36  60  84 111 148 196 246 294 351
#
# _framework density 19.843288999999999
#
# number of rings (size 3 to 8) (size 9 to 14) (size 15 to 20)
#    0.000    1.857    1.429    2.143    0.000    6.857 
#    0.000    2.857    0.000    0.000    0.000    0.000 
#    0.000    0.000    0.000    0.000    0.000    0.000 
#
# Total GULP energy -694711.000022 kJ/mol
# GULP energy per Si atom -12405.553572 kJ/mol
# Density = 1.979812 g / cm^3
# Si number density = 19.843289 Si / 1000 Ang^3
#
#
#
# Elastic Constant Matrix: (Units=GPa)
#
#
# Indices 1 2 3 4 5 6 
#
# 1 79.2492 -0.0386 24.2675 0.0000 0.0000 0.0000
# 2 -0.0386 7.8815 6.2265 0.0000 0.0000 0.0000
# 3 24.2675 6.2265 60.8348 0.0000 0.0000 0.0000
# 4 0.0000 0.0000 0.0000 33.0115 0.0000 0.0000
# 5 0.0000 0.0000 0.0000 0.0000 32.5268 0.0000
# 6 0.0000 0.0000 0.0000 0.0000 0.0000 24.4349
#
#
#
# Elastic Compliance Matrix: (Units=1/GPa)
#
#
# Indices 1 2 3 4 5 6 
#
# 1 0.014558 0.005069 -0.006326 0.000000 0.000000 0.000000
# 2 0.005069 0.139806 -0.016332 0.000000 0.000000 0.000000
# 3 -0.006326 -0.016332 0.020633 0.000000 0.000000 0.000000
# 4 0.000000 0.000000 0.000000 0.030292 0.000000 0.000000
# 5 0.000000 0.000000 0.000000 0.000000 0.030744 0.000000
# 6 0.000000 0.000000 0.000000 0.000000 0.000000 0.040925
#
#
# Mechanical properties :
#
#
# Convention : Reuss Voigt Hill
#
# Bulk Modulus (GPa) = 7.15204 23.20847 15.18026
# Shear Modulus (GPa) = 13.93758 25.82865 19.88311
#
# Velocity S-wave (km/s) = 2.65312 3.61173 3.16888
# Velocity P-wave (km/s) = 3.60521 5.39574 4.58866
#
# Compressibility (1/GPa) = 0.13982018
#
# Stress axis : x y z
#
# Youngs Moduli (GPa) = 68.69031 7.15277 48.46583
#
# Poissons Ratio (x) = -0.03626 0.30660
# Poissons Ratio (y) = -0.34820 0.79152
# Poissons Ratio (z) = 0.43455 0.11682
#
# Static dielectric constant tensor:
#      x y z
#    x 3.646730 0.000000 0.000000 
#    y 0.000000 3.544820 0.000000 
#    z 0.000000 0.000000 3.610200 
# 
# 
# High freq. dielectric constant tensor:
#      x y z
#    x 1.778980 0.000000 0.000000 
#    y 0.000000 1.768560 0.000000 
#    z 0.000000 0.000000 1.779660 
# 
# From -- ./inp_files/6084.got.cif
#   From: 2010.03.12/outbox.cif.g09.slc.cpg/sg55_4_cif.got.tgz:6084.got - 2010.04.16 15:19:21.
