data_PCOD8225053
_publ_section_title
;
Structure prediction by ZEFSAII (Michael W. Deem and Ramdas Pophale) SiO2 
 PCOD8225053
Probable space group: P B A M
;
_chemical_formula_sum "Si O2"
_cell_formula_units_Z 56
_cell_length_a 14.437489
_cell_length_b 21.852308
_cell_length_c 9.163417
_cell_angle_alpha 90.000000
_cell_angle_beta 90.000000
_cell_angle_gamma 90.000000
_cell_volume 2890.988938
_symmetry_space_group_name_H-M "P B A M"
_symmetry_group_IT_number 55
_symmetry_cell_setting 'orthorhombic'
loop_
_space_group_symop_operation_xyz
x,y,z
-x,-y,z
1/2+x,1/2-y,-z
1/2-x,1/2+y,-z
-x,-y,-z
x,y,-z
1/2-x,1/2+y,z
1/2+x,1/2-y,z
loop_
_atom_site_type_symbol
_atom_site_label
_atom_site_fract_x
_atom_site_fract_y
_atom_site_fract_z
Si Si1 0.093075 0.352808 0.667454
Si Si2 0.405449 0.712285 0.671942
Si Si3 0.213797 0.118286 0.169000
Si Si4 0.590191 0.712466 0.827970
Si Si5 0.794521 0.115240 0.671448
Si Si6 0.607905 0.505372 0.830912
Si Si7 0.415510 0.146537 0.166936
O O1 0.066465 0.355757 0.500000
O O2 0.111953 0.282740 0.714067
O O3 0.184653 0.392351 0.702269
O O4 0.003926 0.380814 0.748895
O O5 0.417990 0.702470 0.500000
O O6 0.318876 0.673605 0.729239
O O7 0.495805 0.687438 0.756035
O O8 0.323024 0.107619 0.201162
O O9 0.158034 0.057606 0.209375
O O10 0.199345 0.136813 0.000000
O O11 0.674224 0.675950 0.755840
O O12 0.604474 0.783338 0.788747
O O13 0.587169 0.699598 0.000000
O O14 0.813707 0.123579 0.500000
O O15 0.848176 0.056689 0.729747
O O16 0.500000 0.500000 0.793270
O O17 0.622881 0.522896 0.000000
O O18 0.443810 0.142507 0.000000
#
# Coordination Sequence:
#
# PCOD8225053 Si02
#       7
#     8   8   8   8   8   8   8
#     4   9  20  36  53  78 111 142 173 216 265 314
#     4  10  19  32  53  81 111 142 175 212 262 319
#     4  10  20  35  54  78 108 139 177 223 267 312
#     4  10  19  32  52  79 110 141 174 214 264 317
#     4  11  22  36  55  79 107 140 180 221 263 314
#     4  10  22  39  57  77 104 139 176 217 267 318
#     4   9  19  34  54  80 107 139 178 218 260 314
#
# _framework density 19.370532999999998
#
# number of rings (size 3 to 8) (size 9 to 14) (size 15 to 20)
#    0.000    2.143    0.000    3.000    0.000    4.857 
#    0.000    0.714    0.000    4.286    0.000    0.000 
#    0.000    0.000    0.000    0.000    0.000    0.000 
#
# Total GULP energy -694523.137703 kJ/mol
# GULP energy per Si atom -12402.198888 kJ/mol
# Density = 1.932645 g / cm^3
# Si number density = 19.370533 Si / 1000 Ang^3
#
#
#
# Elastic Constant Matrix: (Units=GPa)
#
#
# Indices 1 2 3 4 5 6 
#
# 1 143.8156 49.7292 58.8873 0.0000 0.0000 0.0000
# 2 49.7292 53.8942 33.2724 0.0000 0.0000 0.0000
# 3 58.8873 33.2724 82.4945 0.0000 0.0000 0.0000
# 4 0.0000 0.0000 0.0000 22.5804 0.0000 0.0000
# 5 0.0000 0.0000 0.0000 0.0000 35.4563 0.0000
# 6 0.0000 0.0000 0.0000 0.0000 0.0000 31.4612
#
#
#
# Elastic Compliance Matrix: (Units=1/GPa)
#
#
# Indices 1 2 3 4 5 6 
#
# 1 0.011750 -0.007542 -0.005346 0.000000 0.000000 0.000000
# 2 -0.007542 0.029548 -0.006534 0.000000 0.000000 0.000000
# 3 -0.005346 -0.006534 0.018573 0.000000 0.000000 0.000000
# 4 0.000000 0.000000 0.000000 0.044286 0.000000 0.000000
# 5 0.000000 0.000000 0.000000 0.000000 0.028204 0.000000
# 6 0.000000 0.000000 0.000000 0.000000 0.000000 0.031785
#
#
# Mechanical properties :
#
#
# Convention : Reuss Voigt Hill
#
# Bulk Modulus (GPa) = 47.55517 62.66467 55.10992
# Shear Modulus (GPa) = 23.80974 27.12061 25.46517
#
# Velocity S-wave (km/s) = 3.50976 3.74585 3.62972
# Velocity P-wave (km/s) = 6.40532 7.15047 6.78813
#
# Compressibility (1/GPa) = 0.02102821
#
# Stress axis : x y z
#
# Youngs Moduli (GPa) = 85.10602 33.84377 53.84065
#
# Poissons Ratio (x) = 0.25524 0.28782
# Poissons Ratio (y) = 0.64184 0.35179
# Poissons Ratio (z) = 0.45496 0.22113
#
# Static dielectric constant tensor:
#      x y z
#    x 3.726030 0.000000 0.000000 
#    y 0.000000 3.300100 0.000000 
#    z 0.000000 0.000000 3.512700 
# 
# 
# High freq. dielectric constant tensor:
#      x y z
#    x 1.767650 0.000000 0.000000 
#    y 0.000000 1.727340 0.000000 
#    z 0.000000 0.000000 1.755300 
# 
# From -- ./inp_files/6044.got.cif
#   From: 2010.03.12/outbox.cif.g09.slc.cpg/sg55_4_cif.got.tgz:6044.got - 2010.04.16 15:19:21.
