data_PCOD8225759
_publ_section_title
;
Structure prediction by ZEFSAII (Michael W. Deem and Ramdas Pophale) SiO2 
 PCOD8225759
Probable space group: P B A M
;
_chemical_formula_sum "Si O2"
_cell_formula_units_Z 52
_cell_length_a 8.180172
_cell_length_b 14.553515
_cell_length_c 20.687558
_cell_angle_alpha 90.000000
_cell_angle_beta 90.000000
_cell_angle_gamma 90.000000
_cell_volume 2462.859074
_symmetry_space_group_name_H-M "P B A M"
_symmetry_group_IT_number 55
_symmetry_cell_setting 'orthorhombic'
loop_
_space_group_symop_operation_xyz
x,y,z
-x,-y,z
1/2+x,1/2-y,-z
1/2-x,1/2+y,-z
-x,-y,-z
x,y,-z
1/2-x,1/2+y,z
1/2+x,1/2-y,z
loop_
_atom_site_type_symbol
_atom_site_label
_atom_site_fract_x
_atom_site_fract_y
_atom_site_fract_z
Si Si1 0.303843 0.661816 0.927586
Si Si2 0.556258 0.201895 0.572969
Si Si3 0.500000 0.500000 0.882837
Si Si4 0.822090 0.543470 0.340500
Si Si5 0.205862 0.115931 0.572956
Si Si6 0.291063 0.378526 0.210210
Si Si7 0.983075 0.287449 0.156692
O O1 0.405150 0.568328 0.929746
O O2 0.420510 0.742234 0.902574
O O3 0.155596 0.651194 0.877119
O O4 0.243565 0.685403 0.000000
O O5 0.624615 0.191859 0.500000
O O6 0.661726 0.134899 0.617492
O O7 0.369762 0.174764 0.577113
O O8 0.569376 0.309359 0.594463
O O9 0.636725 0.549575 0.840089
O O10 0.711140 0.470266 0.379205
O O11 0.713524 0.571418 0.278968
O O12 0.000000 0.500000 0.323400
O O13 0.178041 0.078675 0.500000
O O14 0.403762 0.286598 0.206677
O O15 0.102399 0.353887 0.195855
#
# Coordination Sequence:
#
# PCOD8225759 Si02
#       7
#     8   8   4   8   8   8   8
#     4  10  19  37  62  90 118 153 197 244 298 361
#     4   9  18  35  56  82 114 147 193 247 300 354
#     4  10  23  38  56  86 123 158 190 246 300 346
#     4  10  21  35  58  86 112 159 204 244 297 362
#     4   9  18  36  58  82 114 151 193 249 305 353
#     4  10  22  41  58  84 119 160 198 246 292 362
#     4   9  21  39  62  85 118 158 197 246 299 350
#
# _framework density 21.113674
#
# number of rings (size 3 to 8) (size 9 to 14) (size 15 to 20)
#    0.000    2.462    0.000    1.154    2.154    4.308 
#    8.308    3.077    0.000    3.692    0.000    0.000 
#    0.000    0.000    0.000    0.000    0.000    0.000 
#
# Total GULP energy -644678.080648 kJ/mol
# GULP energy per Si atom -12397.655397 kJ/mol
# Density = 2.106562 g / cm^3
# Si number density = 21.113674 Si / 1000 Ang^3
#
#
#
# Elastic Constant Matrix: (Units=GPa)
#
#
# Indices 1 2 3 4 5 6 
#
# 1 65.3711 27.0504 31.2926 0.0000 0.0000 0.0000
# 2 27.0504 86.2285 52.5917 0.0000 0.0000 0.0000
# 3 31.2926 52.5917 109.5223 0.0000 0.0000 0.0000
# 4 0.0000 0.0000 0.0000 17.7954 0.0000 0.0000
# 5 0.0000 0.0000 0.0000 0.0000 13.9335 0.0000
# 6 0.0000 0.0000 0.0000 0.0000 0.0000 32.9882
#
#
#
# Elastic Compliance Matrix: (Units=1/GPa)
#
#
# Indices 1 2 3 4 5 6 
#
# 1 0.018498 -0.003648 -0.003534 0.000000 0.000000 0.000000
# 2 -0.003648 0.017120 -0.007178 0.000000 0.000000 0.000000
# 3 -0.003534 -0.007178 0.013587 0.000000 0.000000 0.000000
# 4 0.000000 0.000000 0.000000 0.056194 0.000000 0.000000
# 5 0.000000 0.000000 0.000000 0.000000 0.071769 0.000000
# 6 0.000000 0.000000 0.000000 0.000000 0.000000 0.030314
#
#
# Mechanical properties :
#
#
# Convention : Reuss Voigt Hill
#
# Bulk Modulus (GPa) = 48.81549 53.66569 51.24059
# Shear Modulus (GPa) = 20.57352 22.95591 21.76471
#
# Velocity S-wave (km/s) = 3.12495 3.30093 3.21415
# Velocity P-wave (km/s) = 6.01589 6.32462 6.17219
#
# Compressibility (1/GPa) = 0.02048530
#
# Stress axis : x y z
#
# Youngs Moduli (GPa) = 54.05916 58.41240 73.59842
#
# Poissons Ratio (x) = 0.21308 0.26007
# Poissons Ratio (y) = 0.19720 0.52832
# Poissons Ratio (z) = 0.19103 0.41931
#
# Static dielectric constant tensor:
#      x y z
#    x 3.881340 0.000000 0.000000 
#    y 0.000000 3.929810 0.000000 
#    z 0.000000 0.000000 3.642280 
# 
# 
# High freq. dielectric constant tensor:
#      x y z
#    x 1.827820 0.000000 0.000000 
#    y 0.000000 1.830920 0.000000 
#    z 0.000000 0.000000 1.816660 
# 
# From -- ./inp_files/22577.got.cif
#   From: 2010.03.12/outbox.cif.g09.slc.cpg/sg55_12_cif.got.tgz:22577.got - 2010.04.16 15:19:21.
