data_PCOD8225161
_publ_section_title
;
Structure prediction by ZEFSAII (Michael W. Deem and Ramdas Pophale) SiO2 
 PCOD8225161
Probable space group: P B A M
;
_chemical_formula_sum "Si O2"
_cell_formula_units_Z 48
_cell_length_a 13.538966
_cell_length_b 23.717039
_cell_length_c 8.650784
_cell_angle_alpha 90.000000
_cell_angle_beta 90.000000
_cell_angle_gamma 90.000000
_cell_volume 2777.802943
_symmetry_space_group_name_H-M "P B A M"
_symmetry_group_IT_number 55
_symmetry_cell_setting 'orthorhombic'
loop_
_space_group_symop_operation_xyz
x,y,z
-x,-y,z
1/2+x,1/2-y,-z
1/2-x,1/2+y,-z
-x,-y,-z
x,y,-z
1/2-x,1/2+y,z
1/2+x,1/2-y,z
loop_
_atom_site_type_symbol
_atom_site_label
_atom_site_fract_x
_atom_site_fract_y
_atom_site_fract_z
Si Si1 0.093277 0.227408 0.177666
Si Si2 0.211677 0.338760 0.179412
Si Si3 0.898171 0.560912 0.319791
Si Si4 0.793238 0.329552 0.820985
Si Si5 0.887314 0.224268 0.321280
Si Si6 0.607973 0.944069 0.819500
O O1 0.134645 0.289195 0.218579
O O2 0.178012 0.181361 0.212785
O O3 0.001680 0.212541 0.285956
O O4 0.059437 0.224979 0.000000
O O5 0.184615 0.393517 0.278380
O O6 0.321430 0.319137 0.223512
O O7 0.209545 0.354528 0.000000
O O8 0.922595 0.562700 0.500000
O O9 0.857906 0.499002 0.275127
O O10 0.997384 0.574491 0.225061
O O11 0.862234 0.288677 0.721008
O O12 0.817317 0.393767 0.776754
O O13 0.817639 0.316781 0.000000
O O14 0.866131 0.213703 0.500000
O O15 0.610919 0.958342 0.000000
#
# Coordination Sequence:
#
# PCOD8225161 Si02
#       6
#     8   8   8   8   8   8
#     4   9  18  33  51  71  96 127 162 198 238 285
#     4  10  20  35  53  71  96 132 169 202 238 287
#     4  11  21  32  48  74 104 130 160 202 251 293
#     4   9  19  34  52  72  96 130 168 202 236 283
#     4  11  21  31  48  75 103 129 158 197 246 292
#     4  10  19  33  52  73  98 132 170 201 238 290
#
# _framework density 17.279843
#
# number of rings (size 3 to 8) (size 9 to 14) (size 15 to 20)
#    0.000    2.000    0.000    7.000    0.000    8.667 
#    0.000    0.000    0.000    1.000    0.000    7.000 
#    0.000    0.000    0.000    0.000    0.000    0.000 
#
# Total GULP energy -595385.113025 kJ/mol
# GULP energy per Si atom -12403.856521 kJ/mol
# Density = 1.724051 g / cm^3
# Si number density = 17.279843 Si / 1000 Ang^3
#
#
#
# Elastic Constant Matrix: (Units=GPa)
#
#
# Indices 1 2 3 4 5 6 
#
# 1 88.0702 49.1268 20.0790 0.0000 0.0000 0.0000
# 2 49.1268 105.0870 29.5229 0.0000 0.0000 0.0000
# 3 20.0790 29.5229 60.0419 0.0000 0.0000 0.0000
# 4 0.0000 0.0000 0.0000 21.6650 0.0000 0.0000
# 5 0.0000 0.0000 0.0000 0.0000 17.1007 0.0000
# 6 0.0000 0.0000 0.0000 0.0000 0.0000 26.3159
#
#
#
# Elastic Compliance Matrix: (Units=1/GPa)
#
#
# Indices 1 2 3 4 5 6 
#
# 1 0.015542 -0.006736 -0.001885 0.000000 0.000000 0.000000
# 2 -0.006736 0.013961 -0.004612 0.000000 0.000000 0.000000
# 3 -0.001885 -0.004612 0.019553 0.000000 0.000000 0.000000
# 4 0.000000 0.000000 0.000000 0.046157 0.000000 0.000000
# 5 0.000000 0.000000 0.000000 0.000000 0.058477 0.000000
# 6 0.000000 0.000000 0.000000 0.000000 0.000000 0.038000
#
#
# Mechanical properties :
#
#
# Convention : Reuss Voigt Hill
#
# Bulk Modulus (GPa) = 44.26876 50.07293 47.17085
# Shear Modulus (GPa) = 22.15468 23.31434 22.73451
#
# Velocity S-wave (km/s) = 3.58454 3.67716 3.63115
# Velocity P-wave (km/s) = 6.54265 6.86070 6.70356
#
# Compressibility (1/GPa) = 0.02258929
#
# Stress axis : x y z
#
# Youngs Moduli (GPa) = 64.34253 71.63051 51.14249
#
# Poissons Ratio (x) = 0.48250 0.09642
# Poissons Ratio (y) = 0.43341 0.23586
# Poissons Ratio (z) = 0.12131 0.33035
#
# Static dielectric constant tensor:
#      x y z
#    x 3.094400 0.000000 0.000000 
#    y 0.000000 3.216320 0.000000 
#    z 0.000000 0.000000 3.236630 
# 
# 
# High freq. dielectric constant tensor:
#      x y z
#    x 1.653150 0.000000 0.000000 
#    y 0.000000 1.658250 0.000000 
#    z 0.000000 0.000000 1.674840 
# 
# From -- ./inp_files/4088.got.cif
#   From: 2010.03.12/outbox.cif.g09.slc.cpg/sg55_3_cif.got.tgz:4088.got - 2010.04.16 15:19:21.
