data_PCOD8225106
_publ_section_title
;
Structure prediction by ZEFSAII (Michael W. Deem and Ramdas Pophale) SiO2 
 PCOD8225106
Probable space group: P B A M
;
_chemical_formula_sum "Si O2"
_cell_formula_units_Z 64
_cell_length_a 19.771003
_cell_length_b 19.139287
_cell_length_c 9.384138
_cell_angle_alpha 90.000000
_cell_angle_beta 90.000000
_cell_angle_gamma 90.000000
_cell_volume 3550.985040
_symmetry_space_group_name_H-M "P B A M"
_symmetry_group_IT_number 55
_symmetry_cell_setting 'orthorhombic'
loop_
_space_group_symop_operation_xyz
x,y,z
-x,-y,z
1/2+x,1/2-y,-z
1/2-x,1/2+y,-z
-x,-y,-z
x,y,-z
1/2-x,1/2+y,z
1/2+x,1/2-y,z
loop_
_atom_site_type_symbol
_atom_site_label
_atom_site_fract_x
_atom_site_fract_y
_atom_site_fract_z
Si Si1 0.395974 0.185995 0.665889
Si Si2 0.989506 0.794710 0.333649
Si Si3 0.221584 0.744743 0.164916
Si Si4 0.151396 0.275556 0.664393
Si Si5 0.068653 0.530419 0.332796
Si Si6 0.813576 0.566581 0.334293
Si Si7 0.533545 0.573314 0.167190
Si Si8 0.314190 0.403988 0.836229
O O1 0.376649 0.191879 0.500000
O O2 0.448189 0.245890 0.711494
O O3 0.328625 0.191028 0.759133
O O4 0.429572 0.112028 0.701473
O O5 0.992002 0.812425 0.500000
O O6 0.921639 0.753478 0.293327
O O7 0.992365 0.866620 0.247756
O O8 0.294521 0.736231 0.237204
O O9 0.191809 0.821595 0.189331
O O10 0.228168 0.725143 0.000000
O O11 0.168923 0.260237 0.500000
O O12 0.153116 0.358093 0.695257
O O13 0.067688 0.514765 0.500000
O O14 0.134400 0.490599 0.271218
O O15 0.000000 0.500000 0.263175
O O16 0.798360 0.555167 0.500000
O O17 0.742396 0.556050 0.254639
O O18 0.500000 0.500000 0.208441
O O19 0.611833 0.571897 0.216162
O O20 0.528492 0.589128 0.000000
O O21 0.302399 0.423827 0.000000
#
# Coordination Sequence:
#
# PCOD8225106 Si02
#       8
#     8   8   8   8   8   8   8   8
#     4  10  19  32  54  80 108 140 172 214 263 309
#     4  10  20  34  55  82 108 136 172 217 268 314
#     4  10  19  33  53  76 101 135 177 216 256 308
#     4   9  18  33  53  79 109 137 171 217 262 307
#     4   9  17  31  52  79 109 140 175 212 255 310
#     4   9  17  31  54  80 105 139 178 213 251 304
#     4  10  21  38  57  75 101 138 177 218 269 322
#     4   9  18  34  54  74 100 135 174 216 258 308
#
# _framework density 18.023168999999999
#
# number of rings (size 3 to 8) (size 9 to 14) (size 15 to 20)
#    0.000    2.500    1.250    1.125    0.000    4.750 
#    2.250    0.625    0.000    3.000    0.000    0.000 
#    0.000    0.000    0.000    0.000    0.000    0.000 
#
# Total GULP energy -793736.214270 kJ/mol
# GULP energy per Si atom -12402.128348 kJ/mol
# Density = 1.798215 g / cm^3
# Si number density = 18.023169 Si / 1000 Ang^3
#
#
#
# Elastic Constant Matrix: (Units=GPa)
#
#
# Indices 1 2 3 4 5 6 
#
# 1 111.9186 40.1648 45.0257 0.0000 0.0000 0.0000
# 2 40.1648 78.2762 34.0768 0.0000 0.0000 0.0000
# 3 45.0257 34.0768 55.7535 0.0000 0.0000 0.0000
# 4 0.0000 0.0000 0.0000 18.0058 0.0000 0.0000
# 5 0.0000 0.0000 0.0000 0.0000 22.8650 0.0000
# 6 0.0000 0.0000 0.0000 0.0000 0.0000 32.8881
#
#
#
# Elastic Compliance Matrix: (Units=1/GPa)
#
#
# Indices 1 2 3 4 5 6 
#
# 1 0.013741 -0.003025 -0.009249 0.000000 0.000000 0.000000
# 2 -0.003025 0.018073 -0.008604 0.000000 0.000000 0.000000
# 3 -0.009249 -0.008604 0.030664 0.000000 0.000000 0.000000
# 4 0.000000 0.000000 0.000000 0.055538 0.000000 0.000000
# 5 0.000000 0.000000 0.000000 0.000000 0.043735 0.000000
# 6 0.000000 0.000000 0.000000 0.000000 0.000000 0.030406
#
#
# Mechanical properties :
#
#
# Convention : Reuss Voigt Hill
#
# Bulk Modulus (GPa) = 48.25276 53.83143 51.04210
# Shear Modulus (GPa) = 20.76258 23.19718 21.97988
#
# Velocity S-wave (km/s) = 3.39779 3.59148 3.49597
# Velocity P-wave (km/s) = 6.49800 6.86520 6.68412
#
# Compressibility (1/GPa) = 0.02072420
#
# Stress axis : x y z
#
# Youngs Moduli (GPa) = 72.77324 55.33208 32.61191
#
# Poissons Ratio (x) = 0.16736 0.30162
# Poissons Ratio (y) = 0.22011 0.28058
# Poissons Ratio (z) = 0.67305 0.47605
#
# Static dielectric constant tensor:
#      x y z
#    x 3.458930 0.000000 0.000000 
#    y 0.000000 3.181220 0.000000 
#    z 0.000000 0.000000 3.165690 
# 
# 
# High freq. dielectric constant tensor:
#      x y z
#    x 1.709760 0.000000 0.000000 
#    y 0.000000 1.686140 0.000000 
#    z 0.000000 0.000000 1.678430 
# 
# From -- ./inp_files/7931.got.cif
#   From: 2010.03.12/outbox.cif.g09.slc.cpg/sg55_4_cif.got.tgz:7931.got - 2010.04.16 15:19:21.
