data_PCOD8225372
_publ_section_title
;
Structure prediction by ZEFSAII (Michael W. Deem and Ramdas Pophale) SiO2 
 PCOD8225372
Probable space group: P B A M
;
_chemical_formula_sum "Si O2"
_cell_formula_units_Z 64
_cell_length_a 26.469814
_cell_length_b 12.660037
_cell_length_c 9.559391
_cell_angle_alpha 90.000000
_cell_angle_beta 90.000000
_cell_angle_gamma 90.000000
_cell_volume 3203.436282
_symmetry_space_group_name_H-M "P B A M"
_symmetry_group_IT_number 55
_symmetry_cell_setting 'orthorhombic'
loop_
_space_group_symop_operation_xyz
x,y,z
-x,-y,z
1/2+x,1/2-y,-z
1/2-x,1/2+y,-z
-x,-y,-z
x,y,-z
1/2-x,1/2+y,z
1/2+x,1/2-y,z
loop_
_atom_site_type_symbol
_atom_site_label
_atom_site_fract_x
_atom_site_fract_y
_atom_site_fract_z
Si Si1 0.857497 0.971072 0.348600
Si Si2 0.717490 0.094809 0.831832
Si Si3 0.811176 0.180577 0.661419
Si Si4 0.836879 0.802247 0.150100
Si Si5 0.340597 0.082311 0.662594
Si Si6 0.942506 0.532617 0.659377
Si Si7 0.054031 0.271398 0.846888
Si Si8 0.528189 0.400178 0.656808
O O1 0.832898 0.951014 0.500000
O O2 0.821895 0.902203 0.245643
O O3 0.913289 0.926540 0.346691
O O4 0.857276 0.096977 0.319053
O O5 0.769982 0.131681 0.765468
O O6 0.680228 0.190072 0.789612
O O7 0.695147 0.989977 0.759329
O O8 0.721585 0.077882 0.000000
O O9 0.792086 0.183643 0.500000
O O10 0.830264 0.296321 0.707250
O O11 0.896858 0.799940 0.131453
O O12 0.810543 0.822377 0.000000
O O13 0.326696 0.063038 0.500000
O O14 0.400645 0.058831 0.686047
O O15 0.938240 0.574267 0.500000
O O16 0.929333 0.623751 0.767564
O O17 0.000000 0.500000 0.691208
O O18 0.015739 0.202200 0.751981
O O19 0.030237 0.297091 0.000000
O O20 0.500000 0.500000 0.723760
O O21 0.507891 0.376771 0.500000
#
# Coordination Sequence:
#
# PCOD8225372 Si02
#       8
#     8   8   8   8   8   8   8   8
#     4   9  19  35  56  82 113 147 185 233 287 346
#     4  11  23  39  60  85 114 150 195 243 292 348
#     4  10  23  40  57  84 119 156 195 239 297 355
#     4   9  19  35  55  79 108 143 183 236 288 336
#     4  10  22  41  63  88 122 159 198 247 298 356
#     4  10  21  37  60  89 118 155 200 244 294 352
#     4  10  19  34  54  79 112 149 190 239 291 345
#     4   9  18  33  56  84 112 148 193 242 291 341
#
# _framework density 19.978546999999999
#
# number of rings (size 3 to 8) (size 9 to 14) (size 15 to 20)
#    0.000    2.250    1.250    0.750    1.750    4.000 
#    0.000    3.750    0.000    1.500    0.000    0.000 
#    0.000    0.000    0.000    0.000    0.000    0.000 
#
# Total GULP energy -792976.763672 kJ/mol
# GULP energy per Si atom -12390.261932 kJ/mol
# Density = 1.993307 g / cm^3
# Si number density = 19.978547 Si / 1000 Ang^3
#
#
#
# Elastic Constant Matrix: (Units=GPa)
#
#
# Indices 1 2 3 4 5 6 
#
# 1 48.5697 22.6562 30.4923 0.0000 0.0000 0.0000
# 2 22.6562 149.9397 74.7871 0.0000 0.0000 0.0000
# 3 30.4923 74.7871 106.7687 0.0000 0.0000 0.0000
# 4 0.0000 0.0000 0.0000 16.9016 0.0000 0.0000
# 5 0.0000 0.0000 0.0000 0.0000 10.6518 0.0000
# 6 0.0000 0.0000 0.0000 0.0000 0.0000 32.0750
#
#
#
# Elastic Compliance Matrix: (Units=1/GPa)
#
#
# Indices 1 2 3 4 5 6 
#
# 1 0.025098 -0.000334 -0.006934 0.000000 0.000000 0.000000
# 2 -0.000334 0.010255 -0.007088 0.000000 0.000000 0.000000
# 3 -0.006934 -0.007088 0.016311 0.000000 0.000000 0.000000
# 4 0.000000 0.000000 0.000000 0.059166 0.000000 0.000000
# 5 0.000000 0.000000 0.000000 0.000000 0.093881 0.000000
# 6 0.000000 0.000000 0.000000 0.000000 0.000000 0.031177
#
#
# Mechanical properties :
#
#
# Convention : Reuss Voigt Hill
#
# Bulk Modulus (GPa) = 43.56785 62.34992 52.95889
# Shear Modulus (GPa) = 18.36546 23.74850 21.05698
#
# Velocity S-wave (km/s) = 3.03522 3.45149 3.25003
# Velocity P-wave (km/s) = 5.84278 6.86731 6.37566
#
# Compressibility (1/GPa) = 0.02295270
#
# Stress axis : x y z
#
# Youngs Moduli (GPa) = 39.84404 97.51216 61.30783
#
# Poissons Ratio (x) = 0.03255 0.42510
# Poissons Ratio (y) = 0.01330 0.43455
# Poissons Ratio (z) = 0.27627 0.69116
#
# Static dielectric constant tensor:
#      x y z
#    x 3.776250 0.000000 0.000000 
#    y 0.000000 3.769820 0.000000 
#    z 0.000000 0.000000 4.090480 
# 
# 
# High freq. dielectric constant tensor:
#      x y z
#    x 1.755070 0.000000 0.000000 
#    y 0.000000 1.784160 0.000000 
#    z 0.000000 0.000000 1.782980 
# 
# From -- ./inp_files/10715.got.cif
#   From: 2010.03.12/outbox.cif.g09.slc.cpg/sg55_6_cif.got.tgz:10715.got - 2010.04.16 15:19:21.
