data_PCOD8225403
_publ_section_title
;
Structure prediction by ZEFSAII (Michael W. Deem and Ramdas Pophale) SiO2 
 PCOD8225403
Probable space group: P B A M
;
_chemical_formula_sum "Si O2"
_cell_formula_units_Z 56
_cell_length_a 20.929746
_cell_length_b 14.946087
_cell_length_c 9.556798
_cell_angle_alpha 90.000000
_cell_angle_beta 90.000000
_cell_angle_gamma 90.000000
_cell_volume 2989.536569
_symmetry_space_group_name_H-M "P B A M"
_symmetry_group_IT_number 55
_symmetry_cell_setting 'orthorhombic'
loop_
_space_group_symop_operation_xyz
x,y,z
-x,-y,z
1/2+x,1/2-y,-z
1/2-x,1/2+y,-z
-x,-y,-z
x,y,-z
1/2-x,1/2+y,z
1/2+x,1/2-y,z
loop_
_atom_site_type_symbol
_atom_site_label
_atom_site_fract_x
_atom_site_fract_y
_atom_site_fract_z
Si Si1 0.573617 0.512477 0.335450
Si Si2 0.401341 0.965262 0.334876
Si Si3 0.181193 0.064736 0.839079
Si Si4 0.216303 0.420058 0.844275
Si Si5 0.978595 0.366510 0.664084
Si Si6 0.110286 0.787510 0.664308
Si Si7 0.269460 0.228731 0.160615
O O1 0.500000 0.500000 0.291351
O O2 0.582328 0.496044 0.500000
O O3 0.616853 0.439798 0.253871
O O4 0.596786 0.611227 0.290435
O O5 0.390679 0.964415 0.500000
O O6 0.332919 0.954981 0.267788
O O7 0.449006 0.885088 0.283588
O O8 0.430130 0.058443 0.277888
O O9 0.227704 0.144396 0.786830
O O10 0.216864 0.970300 0.819323
O O11 0.161365 0.081163 0.000000
O O12 0.225136 0.315001 0.823463
O O13 0.190869 0.441491 0.000000
O O14 0.980047 0.381836 0.500000
O O15 0.953970 0.267904 0.703831
O O16 0.125434 0.780563 0.500000
O O17 0.168381 0.741301 0.744750
O O18 0.291443 0.214853 0.000000
#
# Coordination Sequence:
#
# PCOD8225403 Si02
#       7
#     8   8   8   8   8   8   8
#     4  10  22  38  56  81 113 146 184 233 280 324
#     4   9  17  31  52  76 104 138 174 212 262 321
#     4  10  21  38  58  79 107 146 184 226 280 330
#     4  10  20  34  51  75 108 135 165 219 268 309
#     4   8  16  31  50  75 105 136 173 218 261 310
#     4  10  19  34  56  79 106 144 186 224 271 327
#     4  10  21  36  55  79 107 139 180 225 273 326
#
# _framework density 18.731999999999999
#
# number of rings (size 3 to 8) (size 9 to 14) (size 15 to 20)
#    0.000    2.429    1.429    1.714    0.000    3.143 
#    0.000    3.571    0.000    0.000    0.000    0.000 
#    0.000    0.000    0.000    0.000    0.000    0.000 
#
# Total GULP energy -694239.746360 kJ/mol
# GULP energy per Si atom -12397.138328 kJ/mol
# Density = 1.868937 g / cm^3
# Si number density = 18.732000 Si / 1000 Ang^3
#
#
#
# Elastic Constant Matrix: (Units=GPa)
#
#
# Indices 1 2 3 4 5 6 
#
# 1 100.2027 30.6411 46.8598 0.0000 0.0000 0.0000
# 2 30.6411 85.7379 25.0100 0.0000 0.0000 0.0000
# 3 46.8598 25.0100 51.6739 0.0000 0.0000 0.0000
# 4 0.0000 0.0000 0.0000 22.7641 0.0000 0.0000
# 5 0.0000 0.0000 0.0000 0.0000 86.2455 0.0000
# 6 0.0000 0.0000 0.0000 0.0000 0.0000 28.8459
#
#
#
# Elastic Compliance Matrix: (Units=1/GPa)
#
#
# Indices 1 2 3 4 5 6 
#
# 1 0.017591 -0.001902 -0.015032 0.000000 0.000000 0.000000
# 2 -0.001902 0.013786 -0.004948 0.000000 0.000000 0.000000
# 3 -0.015032 -0.004948 0.035378 0.000000 0.000000 0.000000
# 4 0.000000 0.000000 0.000000 0.043929 0.000000 0.000000
# 5 0.000000 0.000000 0.000000 0.000000 0.011595 0.000000
# 6 0.000000 0.000000 0.000000 0.000000 0.000000 0.034667
#
#
# Mechanical properties :
#
#
# Convention : Reuss Voigt Hill
#
# Bulk Modulus (GPa) = 43.49199 49.18179 46.33689
# Shear Modulus (GPa) = 23.99545 36.57800 30.28673
#
# Velocity S-wave (km/s) = 3.58297 4.42373 4.02536
# Velocity P-wave (km/s) = 6.35495 7.23913 6.81140
#
# Compressibility (1/GPa) = 0.02299274
#
# Stress axis : x y z
#
# Youngs Moduli (GPa) = 56.84772 72.53491 28.26612
#
# Poissons Ratio (x) = 0.13795 0.42488
# Poissons Ratio (y) = 0.10812 0.13986
# Poissons Ratio (z) = 0.85451 0.35889
#
# Static dielectric constant tensor:
#      x y z
#    x 3.377480 0.000000 0.000000 
#    y 0.000000 3.596880 0.000000 
#    z 0.000000 0.000000 3.236950 
# 
# 
# High freq. dielectric constant tensor:
#      x y z
#    x 1.725150 0.000000 0.000000 
#    y 0.000000 1.733660 0.000000 
#    z 0.000000 0.000000 1.705500 
# 
# From -- ./inp_files/8779.got.cif
#   From: 2010.03.12/outbox.cif.g09.slc.cpg/sg55_5_cif.got.tgz:8779.got - 2010.04.16 15:19:21.
