data_PCOD8225101
_publ_section_title
;
Structure prediction by ZEFSAII (Michael W. Deem and Ramdas Pophale) SiO2 
 PCOD8225101
Probable space group: P B A M
;
_chemical_formula_sum "Si O2"
_cell_formula_units_Z 64
_cell_length_a 23.596951
_cell_length_b 8.375564
_cell_length_c 17.168305
_cell_angle_alpha 90.000000
_cell_angle_beta 90.000000
_cell_angle_gamma 90.000000
_cell_volume 3393.105572
_symmetry_space_group_name_H-M "P B A M"
_symmetry_group_IT_number 55
_symmetry_cell_setting 'orthorhombic'
loop_
_space_group_symop_operation_xyz
x,y,z
-x,-y,z
1/2+x,1/2-y,-z
1/2-x,1/2+y,-z
-x,-y,-z
x,y,-z
1/2-x,1/2+y,z
1/2+x,1/2-y,z
loop_
_atom_site_type_symbol
_atom_site_label
_atom_site_fract_x
_atom_site_fract_y
_atom_site_fract_z
Si Si1 0.561905 0.067202 0.910775
Si Si2 0.098286 0.112474 0.414609
Si Si3 0.954130 0.868671 0.821536
Si Si4 0.743636 0.972826 0.696620
Si Si5 0.781193 0.725610 0.414102
Si Si6 0.369829 0.062507 0.772211
Si Si7 0.368635 0.425717 0.270667
Si Si8 0.542279 0.140595 0.685583
O O1 0.562649 0.257968 0.894861
O O2 0.500000 0.000000 0.889790
O O3 0.608526 0.973710 0.859364
O O4 0.577940 0.035488 0.000000
O O5 0.080511 0.047867 0.500000
O O6 0.156776 0.204895 0.420064
O O7 0.051685 0.241396 0.386997
O O8 0.104532 0.963222 0.355921
O O9 0.981257 0.749972 0.756424
O O10 0.897365 0.953981 0.790807
O O11 0.000000 0.000000 0.847013
O O12 0.721191 0.043771 0.613759
O O13 0.801659 0.042470 0.731646
O O14 0.750284 0.795194 0.663018
O O15 0.697250 0.973908 0.765561
O O16 0.751844 0.739817 0.500000
O O17 0.383534 0.244779 0.750400
O O18 0.399267 0.941240 0.712136
O O19 0.500000 0.000000 0.661722
#
# Coordination Sequence:
#
# PCOD8225101 Si02
#       8
#     8   8   8   8   8   8   8   8
#     4  10  22  39  62  91 117 141 174 225 284 336
#     4   9  19  34  49  71 109 147 186 239 286 325
#     4  10  19  35  59  85 113 143 181 225 278 329
#     4  11  20  33  53  82 108 151 192 233 283 334
#     4  10  19  33  49  76 112 145 189 243 289 320
#     4  11  20  36  57  81 113 145 189 228 280 340
#     4  10  21  34  55  81 108 149 191 232 273 331
#     4  10  19  32  54  77 104 144 193 235 279 334
#
# _framework density 18.861777
#
# number of rings (size 3 to 8) (size 9 to 14) (size 15 to 20)
#    0.000    1.875    2.500    3.375    1.750    1.000 
#    0.000    1.250    0.000   15.750    0.000    0.000 
#    0.000    0.000    0.000    0.000    0.000    0.000 
#
# Total GULP energy -793122.811866 kJ/mol
# GULP energy per Si atom -12392.543935 kJ/mol
# Density = 1.881885 g / cm^3
# Si number density = 18.861777 Si / 1000 Ang^3
#
#
#
# Elastic Constant Matrix: (Units=GPa)
#
#
# Indices 1 2 3 4 5 6 
#
# 1 65.1269 28.0996 46.3686 0.0000 0.0000 0.0000
# 2 28.0996 96.0601 37.2995 0.0000 0.0000 0.0000
# 3 46.3686 37.2995 108.7619 0.0000 0.0000 0.0000
# 4 0.0000 0.0000 0.0000 2144.5886 0.0000 0.0000
# 5 0.0000 0.0000 0.0000 0.0000 23.3192 0.0000
# 6 0.0000 0.0000 0.0000 0.0000 0.0000 21.0000
#
#
#
# Elastic Compliance Matrix: (Units=1/GPa)
#
#
# Indices 1 2 3 4 5 6 
#
# 1 0.022951 -0.003362 -0.008632 0.000000 0.000000 0.000000
# 2 -0.003362 0.012502 -0.002854 0.000000 0.000000 0.000000
# 3 -0.008632 -0.002854 0.013853 0.000000 0.000000 0.000000
# 4 0.000000 0.000000 0.000000 0.000466 0.000000 0.000000
# 5 0.000000 0.000000 0.000000 0.000000 0.042883 0.000000
# 6 0.000000 0.000000 0.000000 0.000000 0.000000 0.047619
#
#
# Mechanical properties :
#
#
# Convention : Reuss Voigt Hill
#
# Bulk Modulus (GPa) = 50.99387 54.83158 52.91273
# Shear Modulus (GPa) = 28.32760 448.32696 238.32728
#
# Velocity S-wave (km/s) = 3.87958 15.43395 11.25295
# Velocity P-wave (km/s) = 6.86749 18.62102 14.03397
#
# Compressibility (1/GPa) = 0.01961020
#
# Stress axis : x y z
#
# Youngs Moduli (GPa) = 43.57176 79.98815 72.18584
#
# Poissons Ratio (x) = 0.26892 0.62308
# Poissons Ratio (y) = 0.14649 0.20603
# Poissons Ratio (z) = 0.37609 0.22830
#
# Static dielectric constant tensor:
#      x y z
#    x 3.344300 0.000000 0.000000 
#    y 0.000000 3.689920 0.000000 
#    z 0.000000 0.000000 4.144390 
# 
# 
# High freq. dielectric constant tensor:
#      x y z
#    x 1.722090 0.000000 0.000000 
#    y 0.000000 1.750250 0.000000 
#    z 0.000000 0.000000 1.703210 
# 
# From -- ./inp_files/22043.got.cif
#   From: 2010.03.12/outbox.cif.g09.slc.cpg/sg55_12_cif.got.tgz:22043.got - 2010.04.16 15:19:21.
