data_PCOD8225777
_publ_section_title
;
Structure prediction by ZEFSAII (Michael W. Deem and Ramdas Pophale) SiO2 
 PCOD8225777
Probable space group: P B A M
;
_chemical_formula_sum "Si O2"
_cell_formula_units_Z 40
_cell_length_a 15.226616
_cell_length_b 15.197420
_cell_length_c 8.850883
_cell_angle_alpha 90.000000
_cell_angle_beta 90.000000
_cell_angle_gamma 90.000000
_cell_volume 2048.141046
_symmetry_space_group_name_H-M "P B A M"
_symmetry_group_IT_number 55
_symmetry_cell_setting 'orthorhombic'
loop_
_space_group_symop_operation_xyz
x,y,z
-x,-y,z
1/2+x,1/2-y,-z
1/2-x,1/2+y,-z
-x,-y,-z
x,y,-z
1/2-x,1/2+y,z
1/2+x,1/2-y,z
loop_
_atom_site_type_symbol
_atom_site_label
_atom_site_fract_x
_atom_site_fract_y
_atom_site_fract_z
Si Si1 0.253862 0.484074 0.323017
Si Si2 0.562986 0.582124 0.328794
Si Si3 0.532144 0.757293 0.177499
Si Si4 0.357947 0.817687 0.323364
Si Si5 0.711287 0.822722 0.320566
O O1 0.269437 0.495546 0.500000
O O2 0.344107 0.445529 0.255067
O O3 0.176413 0.415726 0.287602
O O4 0.233036 0.580185 0.255181
O O5 0.500000 0.500000 0.328675
O O6 0.575476 0.618344 0.500000
O O7 0.518985 0.656488 0.226466
O O8 0.447379 0.810957 0.230988
O O9 0.618995 0.794954 0.253071
O O10 0.541150 0.765488 0.000000
O O11 0.377634 0.804712 0.500000
O O12 0.287023 0.745148 0.269011
O O13 0.702234 0.822784 0.500000
#
# Coordination Sequence:
#
# PCOD8225777 Si02
#       5
#     8   8   8   8   8
#     4   9  18  34  61  92 113 145 198 255 305 346
#     4  10  19  37  65  93 117 148 201 258 305 349
#     4  12  25  38  56  86 127 166 198 236 299 370
#     4  10  20  38  62  86 117 155 203 256 299 349
#     4  10  20  39  65  89 116 151 201 257 302 349
#
# _framework density 19.529906
#
# number of rings (size 3 to 8) (size 9 to 14) (size 15 to 20)
#    0.000    1.800    2.000    3.000    0.000    5.200 
#    0.000    6.000    0.000    0.000    0.000    0.000 
#    0.000    0.000    0.000    0.000    0.000    0.000 
#
# Total GULP energy -496078.482997 kJ/mol
# GULP energy per Si atom -12401.962075 kJ/mol
# Density = 1.948545 g / cm^3
# Si number density = 19.529906 Si / 1000 Ang^3
#
#
#
# Elastic Constant Matrix: (Units=GPa)
#
#
# Indices 1 2 3 4 5 6 
#
# 1 92.7911 2.3149 24.3337 0.0000 0.0000 0.0000
# 2 2.3149 88.9982 10.2518 0.0000 0.0000 0.0000
# 3 24.3337 10.2518 38.5332 0.0000 0.0000 0.0000
# 4 0.0000 0.0000 0.0000 10.2950 0.0000 0.0000
# 5 0.0000 0.0000 0.0000 0.0000 -8.5146 0.0000
# 6 0.0000 0.0000 0.0000 0.0000 0.0000 30.4200
#
#
#
# Elastic Compliance Matrix: (Units=1/GPa)
#
#
# Indices 1 2 3 4 5 6 
#
# 1 0.012949 0.000624 -0.008344 0.000000 0.000000 0.000000
# 2 0.000624 0.011622 -0.003486 0.000000 0.000000 0.000000
# 3 -0.008344 -0.003486 0.032148 0.000000 0.000000 0.000000
# 4 0.000000 0.000000 0.000000 0.097135 0.000000 0.000000
# 5 0.000000 0.000000 0.000000 0.000000 -0.117446 0.000000
# 6 0.000000 0.000000 0.000000 0.000000 0.000000 0.032873
#
#
# Mechanical properties :
#
#
# Convention : Reuss Voigt Hill
#
# Bulk Modulus (GPa) = 29.14768 32.68037 30.91403
# Shear Modulus (GPa) = 48.48349 18.66823 33.57586
#
# Velocity S-wave (km/s) = 4.98790 3.09508 4.15082
# Velocity P-wave (km/s) = 6.93752 5.43531 6.23185
#
# Compressibility (1/GPa) = 0.03430804
#
# Stress axis : x y z
#
# Youngs Moduli (GPa) = 77.22388 86.04729 31.10605
#
# Poissons Ratio (x) = -0.05372 0.25954
# Poissons Ratio (y) = -0.04821 0.10844
# Poissons Ratio (z) = 0.64433 0.29997
#
# Static dielectric constant tensor:
#      x y z
#    x 3.666360 0.000000 0.000000 
#    y 0.000000 3.825170 0.000000 
#    z 0.000000 0.000000 3.237900 
# 
# 
# High freq. dielectric constant tensor:
#      x y z
#    x 1.774140 0.000000 0.000000 
#    y 0.000000 1.774110 0.000000 
#    z 0.000000 0.000000 1.718210 
# 
# From -- ./inp_files/3620.got.cif
#   From: 2010.03.12/outbox.cif.g09.slc.cpg/sg55_2_cif.got.tgz:3620.got - 2010.04.16 15:19:21.
