data_PCOD8225520
_publ_section_title
;
Structure prediction by ZEFSAII (Michael W. Deem and Ramdas Pophale) SiO2 
 PCOD8225520
Probable space group: P B A M
;
_chemical_formula_sum "Si O2"
_cell_formula_units_Z 56
_cell_length_a 16.413989
_cell_length_b 20.086461
_cell_length_c 8.341852
_cell_angle_alpha 90.000000
_cell_angle_beta 90.000000
_cell_angle_gamma 90.000000
_cell_volume 2750.299845
_symmetry_space_group_name_H-M "P B A M"
_symmetry_group_IT_number 55
_symmetry_cell_setting 'orthorhombic'
loop_
_space_group_symop_operation_xyz
x,y,z
-x,-y,z
1/2+x,1/2-y,-z
1/2-x,1/2+y,-z
-x,-y,-z
x,y,-z
1/2-x,1/2+y,z
1/2+x,1/2-y,z
loop_
_atom_site_type_symbol
_atom_site_label
_atom_site_fract_x
_atom_site_fract_y
_atom_site_fract_z
Si Si1 0.641319 0.138464 0.689329
Si Si2 0.244257 0.979394 0.690536
Si Si3 0.824095 0.778533 0.813290
Si Si4 0.505550 0.308210 0.688402
Si Si5 0.302783 0.122620 0.314038
Si Si6 0.565192 0.552535 0.690879
Si Si7 0.532691 0.832901 0.184821
O O1 0.628640 0.135747 0.500000
O O2 0.694433 0.077027 0.754768
O O3 0.688130 0.206056 0.735475
O O4 0.553608 0.134571 0.772359
O O5 0.242529 0.976877 0.500000
O O6 0.154084 0.965569 0.759700
O O7 0.274788 0.050861 0.751880
O O8 0.742580 0.820408 0.786253
O O9 0.899170 0.816500 0.729178
O O10 0.843119 0.769955 0.000000
O O11 0.495061 0.296722 0.500000
O O12 0.458697 0.373688 0.748684
O O13 0.467180 0.245655 0.779418
O O14 0.280486 0.130441 0.500000
O O15 0.399067 0.130186 0.289353
O O16 0.500000 0.500000 0.760641
O O17 0.564710 0.549386 0.500000
O O18 0.552475 0.844706 0.000000
#
# Coordination Sequence:
#
# PCOD8225520 Si02
#       7
#     8   8   8   8   8   8   8
#     4  10  20  38  62  87 115 152 201 247 297 353
#     4   9  20  36  58  89 117 148 195 253 298 344
#     4  11  22  37  57  85 122 157 193 240 297 350
#     4  10  19  34  60  88 114 152 199 239 288 350
#     4  11  22  39  62  86 114 151 200 246 294 352
#     4   9  17  31  55  88 121 148 186 240 294 343
#     4  11  23  39  57  83 119 153 194 244 301 354
#
# _framework density 20.361416999999999
#
# number of rings (size 3 to 8) (size 9 to 14) (size 15 to 20)
#    0.000    1.857    0.000    6.429    2.000    2.857 
#    0.000    5.714    0.000    9.429    0.000    0.000 
#    0.000    0.000    0.000    0.000    0.000    0.000 
#
# Total GULP energy -694646.429483 kJ/mol
# GULP energy per Si atom -12404.400526 kJ/mol
# Density = 2.031507 g / cm^3
# Si number density = 20.361417 Si / 1000 Ang^3
#
#
#
# Elastic Constant Matrix: (Units=GPa)
#
#
# Indices 1 2 3 4 5 6 
#
# 1 138.4235 82.6311 5.2226 0.0000 0.0000 0.0000
# 2 82.6311 114.7257 13.4330 0.0000 0.0000 0.0000
# 3 5.2226 13.4330 52.8348 0.0000 0.0000 0.0000
# 4 0.0000 0.0000 0.0000 1.4106 0.0000 0.0000
# 5 0.0000 0.0000 0.0000 0.0000 19.9776 0.0000
# 6 0.0000 0.0000 0.0000 0.0000 0.0000 42.2986
#
#
#
# Elastic Compliance Matrix: (Units=1/GPa)
#
#
# Indices 1 2 3 4 5 6 
#
# 1 0.012735 -0.009302 0.001106 0.000000 0.000000 0.000000
# 2 -0.009302 0.015778 -0.003092 0.000000 0.000000 0.000000
# 3 0.001106 -0.003092 0.019604 0.000000 0.000000 0.000000
# 4 0.000000 0.000000 0.000000 0.708931 0.000000 0.000000
# 5 0.000000 0.000000 0.000000 0.000000 0.050056 0.000000
# 6 0.000000 0.000000 0.000000 0.000000 0.000000 0.023641
#
#
# Mechanical properties :
#
#
# Convention : Reuss Voigt Hill
#
# Bulk Modulus (GPa) = 39.15227 56.50639 47.82933
# Shear Modulus (GPa) = 5.80157 26.38386 16.09272
#
# Velocity S-wave (km/s) = 1.68982 3.60360 2.81437
# Velocity P-wave (km/s) = 4.80393 6.71762 5.83970
#
# Compressibility (1/GPa) = 0.02554130
#
# Stress axis : x y z
#
# Youngs Moduli (GPa) = 78.52191 63.37815 51.01072
#
# Poissons Ratio (x) = 0.58955 -0.05643
# Poissons Ratio (y) = 0.73042 0.15773
# Poissons Ratio (z) = -0.08686 0.19597
#
# Static dielectric constant tensor:
#      x y z
#    x 3.771870 0.000000 0.000000 
#    y 0.000000 3.814280 0.000000 
#    z 0.000000 0.000000 3.372160 
# 
# 
# High freq. dielectric constant tensor:
#      x y z
#    x 1.802780 0.000000 0.000000 
#    y 0.000000 1.800390 0.000000 
#    z 0.000000 0.000000 1.775000 
# 
# From -- ./inp_files/6193.got.cif
#   From: 2010.03.12/outbox.cif.g09.slc.cpg/sg55_4_cif.got.tgz:6193.got - 2010.04.16 15:19:21.
