data_PCOD8225289
_publ_section_title
;
Structure prediction by ZEFSAII (Michael W. Deem and Ramdas Pophale) SiO2 
 PCOD8225289
Probable space group: P B A M
;
_chemical_formula_sum "Si O2"
_cell_formula_units_Z 64
_cell_length_a 12.892791
_cell_length_b 28.449454
_cell_length_c 9.307218
_cell_angle_alpha 90.000000
_cell_angle_beta 90.000000
_cell_angle_gamma 90.000000
_cell_volume 3413.821151
_symmetry_space_group_name_H-M "P B A M"
_symmetry_group_IT_number 55
_symmetry_cell_setting 'orthorhombic'
loop_
_space_group_symop_operation_xyz
x,y,z
-x,-y,z
1/2+x,1/2-y,-z
1/2-x,1/2+y,-z
-x,-y,-z
x,y,-z
1/2-x,1/2+y,z
1/2+x,1/2-y,z
loop_
_atom_site_type_symbol
_atom_site_label
_atom_site_fract_x
_atom_site_fract_y
_atom_site_fract_z
Si Si1 0.069014 0.922171 0.838789
Si Si2 0.683052 0.930657 0.169698
Si Si3 0.960596 0.605519 0.170201
Si Si4 0.281680 0.962104 0.830524
Si Si5 0.545586 0.288477 0.665327
Si Si6 0.637782 0.684386 0.158237
Si Si7 0.370731 0.797388 0.832751
Si Si8 0.621126 0.393698 0.332559
O O1 0.165398 0.951588 0.771386
O O2 0.104002 0.868946 0.844926
O O3 0.967889 0.926748 0.737848
O O4 0.039830 0.939819 0.000000
O O5 0.572497 0.911491 0.225053
O O6 0.770445 0.902701 0.255214
O O7 0.686962 0.985318 0.210319
O O8 0.699052 0.922464 0.000000
O O9 0.868849 0.572781 0.236056
O O10 0.945845 0.659921 0.215729
O O11 0.955201 0.600296 0.000000
O O12 0.276757 0.953835 0.000000
O O13 0.538238 0.275415 0.500000
O O14 0.429770 0.286366 0.728909
O O15 0.613069 0.249509 0.743530
O O16 0.597023 0.338968 0.691769
O O17 0.756100 0.685603 0.204957
O O18 0.622248 0.706936 0.000000
O O19 0.385630 0.785783 0.000000
O O20 0.628218 0.406431 0.500000
#
# Coordination Sequence:
#
# PCOD8225289 Si02
#       8
#     8   8   8   8   8   8   8   8
#     4   9  16  31  57  81 103 133 176 223 264 310
#     4  10  20  33  55  83 112 146 180 214 260 324
#     4   9  17  32  54  83 114 139 172 219 269 319
#     4   9  16  30  55  86 112 137 173 221 270 315
#     4  10  22  37  53  75 104 141 181 222 271 324
#     4   9  17  32  54  77 102 134 171 219 269 314
#     4  10  19  33  56  83 107 135 175 222 272 321
#     4  10  22  39  53  70 106 148 182 223 273 319
#
# _framework density 18.747320999999999
#
# number of rings (size 3 to 8) (size 9 to 14) (size 15 to 20)
#    0.000    2.500    1.250    1.125    0.000    5.000 
#    0.000    7.500    0.000    3.000    0.000    0.000 
#    0.000    0.000    0.000    0.000    0.000    0.000 
#
# Total GULP energy -793501.520149 kJ/mol
# GULP energy per Si atom -12398.461252 kJ/mol
# Density = 1.870465 g / cm^3
# Si number density = 18.747321 Si / 1000 Ang^3
#
#
#
# Elastic Constant Matrix: (Units=GPa)
#
#
# Indices 1 2 3 4 5 6 
#
# 1 124.0006 46.0724 51.4179 0.0000 0.0000 0.0000
# 2 46.0724 48.7748 37.1510 0.0000 0.0000 0.0000
# 3 51.4179 37.1510 72.2172 0.0000 0.0000 0.0000
# 4 0.0000 0.0000 0.0000 15.3241 0.0000 0.0000
# 5 0.0000 0.0000 0.0000 0.0000 -3.2420 0.0000
# 6 0.0000 0.0000 0.0000 0.0000 0.0000 18.7018
#
#
#
# Elastic Compliance Matrix: (Units=1/GPa)
#
#
# Indices 1 2 3 4 5 6 
#
# 1 0.013439 -0.008889 -0.004995 0.000000 0.000000 0.000000
# 2 -0.008889 0.039592 -0.014038 0.000000 0.000000 0.000000
# 3 -0.004995 -0.014038 0.024625 0.000000 0.000000 0.000000
# 4 0.000000 0.000000 0.000000 0.065257 0.000000 0.000000
# 5 0.000000 0.000000 0.000000 0.000000 -0.308454 0.000000
# 6 0.000000 0.000000 0.000000 0.000000 0.000000 0.053471
#
#
# Mechanical properties :
#
#
# Convention : Reuss Voigt Hill
#
# Bulk Modulus (GPa) = 45.84982 57.14167 51.49575
# Shear Modulus (GPa) = -102.13408 13.51356 -44.31026
#
# Velocity S-wave (km/s) = -7.38902 2.68773 -4.86691
# Velocity P-wave (km/s) = 6.94888 6.33861 2.01357
#
# Compressibility (1/GPa) = 0.02181034
#
# Stress axis : x y z
#
# Youngs Moduli (GPa) = 74.41274 25.25768 40.60835
#
# Poissons Ratio (x) = 0.22452 0.20285
# Poissons Ratio (y) = 0.66147 0.57008
# Poissons Ratio (z) = 0.37171 0.35458
#
# Static dielectric constant tensor:
#      x y z
#    x 3.681060 0.000000 0.000000 
#    y 0.000000 3.442460 0.000000 
#    z 0.000000 0.000000 3.256380 
# 
# 
# High freq. dielectric constant tensor:
#      x y z
#    x 1.740270 0.000000 0.000000 
#    y 0.000000 1.725890 0.000000 
#    z 0.000000 0.000000 1.690400 
# 
# From -- ./inp_files/4569.got.cif
#   From: 2010.03.12/outbox.cif.g09.slc.cpg/sg55_3_cif.got.tgz:4569.got - 2010.04.16 15:19:21.
