data_PCOD8225512
_publ_section_title
;
Structure prediction by ZEFSAII (Michael W. Deem and Ramdas Pophale) SiO2 
 PCOD8225512
Probable space group: P B A M
;
_chemical_formula_sum "Si O2"
_cell_formula_units_Z 64
_cell_length_a 12.750718
_cell_length_b 15.511529
_cell_length_c 16.403464
_cell_angle_alpha 90.000000
_cell_angle_beta 90.000000
_cell_angle_gamma 90.000000
_cell_volume 3244.328486
_symmetry_space_group_name_H-M "P B A M"
_symmetry_group_IT_number 55
_symmetry_cell_setting 'orthorhombic'
loop_
_space_group_symop_operation_xyz
x,y,z
-x,-y,z
1/2+x,1/2-y,-z
1/2-x,1/2+y,-z
-x,-y,-z
x,y,-z
1/2-x,1/2+y,z
1/2+x,1/2-y,z
loop_
_atom_site_type_symbol
_atom_site_label
_atom_site_fract_x
_atom_site_fract_y
_atom_site_fract_z
Si Si1 0.680205 0.294323 0.092493
Si Si2 0.274609 0.076175 0.408274
Si Si3 0.519268 0.693088 0.193735
Si Si4 0.408741 0.565327 0.306017
Si Si5 0.582948 0.074573 0.410764
Si Si6 0.726851 0.955559 0.183435
Si Si7 0.071571 0.638725 0.285151
Si Si8 0.299727 0.383583 0.906298
O O1 0.564137 0.279261 0.126220
O O2 0.746311 0.367786 0.136697
O O3 0.737041 0.203986 0.101834
O O4 0.669629 0.323855 0.000000
O O5 0.297113 0.102900 0.500000
O O6 0.151129 0.087593 0.389953
O O7 0.340069 0.145422 0.355159
O O8 0.308353 0.975516 0.391242
O O9 0.459608 0.650259 0.268902
O O10 0.576098 0.776837 0.229579
O O11 0.597896 0.625326 0.150827
O O12 0.500000 0.500000 0.326400
O O13 0.319301 0.525459 0.247748
O O14 0.590786 0.124039 0.500000
O O15 0.542087 0.128583 0.331206
O O16 0.500000 0.000000 0.423428
O O17 0.612824 0.941522 0.227557
O O18 0.725344 0.037760 0.123417
O O19 0.333225 0.401031 0.000000
#
# Coordination Sequence:
#
# PCOD8225512 Si02
#       8
#     8   8   8   8   8   8   8   8
#     4  10  22  38  57  84 119 155 195 241 294 354
#     4   9  19  36  59  85 117 156 191 230 292 353
#     4  11  22  38  57  85 116 153 197 244 297 342
#     4  10  20  36  57  82 113 147 195 241 279 346
#     4   8  15  31  56  86 114 148 190 226 280 348
#     4  10  20  37  60  86 115 152 199 240 293 349
#     4  10  19  34  59  89 116 152 189 247 292 346
#     4  11  22  38  60  85 117 155 196 243 296 359
#
# _framework density 19.726731000000001
#
# number of rings (size 3 to 8) (size 9 to 14) (size 15 to 20)
#    0.000    2.125    2.500    1.875    0.000    4.250 
#    0.000    3.125    0.000    3.000    0.000    0.000 
#    0.000    0.000    0.000    0.000    0.000    0.000 
#
# Total GULP energy -792906.681188 kJ/mol
# GULP energy per Si atom -12389.166894 kJ/mol
# Density = 1.968183 g / cm^3
# Si number density = 19.726731 Si / 1000 Ang^3
#
#
#
# Elastic Constant Matrix: (Units=GPa)
#
#
# Indices 1 2 3 4 5 6 
#
# 1 80.9729 15.8797 40.7243 0.0000 0.0000 0.0000
# 2 15.8797 58.3112 41.1773 0.0000 0.0000 0.0000
# 3 40.7243 41.1773 111.9479 0.0000 0.0000 0.0000
# 4 0.0000 0.0000 0.0000 -53.0782 0.0000 0.0000
# 5 0.0000 0.0000 0.0000 0.0000 3637.6690 0.0000
# 6 0.0000 0.0000 0.0000 0.0000 0.0000 22.9542
#
#
#
# Elastic Compliance Matrix: (Units=1/GPa)
#
#
# Indices 1 2 3 4 5 6 
#
# 1 0.015120 -0.000315 -0.005384 0.000000 0.000000 0.000000
# 2 -0.000315 0.023173 -0.008409 0.000000 0.000000 0.000000
# 3 -0.005384 -0.008409 0.013984 0.000000 0.000000 0.000000
# 4 0.000000 0.000000 0.000000 -0.018840 0.000000 0.000000
# 5 0.000000 0.000000 0.000000 0.000000 0.000275 0.000000
# 6 0.000000 0.000000 0.000000 0.000000 0.000000 0.043565
#
#
# Mechanical properties :
#
#
# Convention : Reuss Voigt Hill
#
# Bulk Modulus (GPa) = 41.56231 49.64385 45.60308
# Shear Modulus (GPa) = 44.04717 731.73904 387.89311
#
# Velocity S-wave (km/s) = 4.73045 19.28064 14.03781
# Velocity P-wave (km/s) = 7.13799 22.82275 16.90900
#
# Compressibility (1/GPa) = 0.02406026
#
# Stress axis : x y z
#
# Youngs Moduli (GPa) = 66.13942 43.15282 71.50792
#
# Poissons Ratio (x) = 0.01361 0.38501
# Poissons Ratio (y) = 0.02086 0.60132
# Poissons Ratio (z) = 0.35611 0.36288
#
# Static dielectric constant tensor:
#      x y z
#    x 3.905310 0.000000 0.000000 
#    y 0.000000 3.342500 0.000000 
#    z 0.000000 0.000000 3.944430 
# 
# 
# High freq. dielectric constant tensor:
#      x y z
#    x 1.761920 0.000000 0.000000 
#    y 0.000000 1.738310 0.000000 
#    z 0.000000 0.000000 1.780920 
# 
# From -- ./inp_files/21334.got.cif
#   From: 2010.03.12/outbox.cif.g09.slc.cpg/sg55_11_cif.got.tgz:21334.got - 2010.04.16 15:19:21.
