data_PCOD8225425
_publ_section_title
;
Structure prediction by ZEFSAII (Michael W. Deem and Ramdas Pophale) SiO2 
 PCOD8225425
Probable space group: P B A M
;
_chemical_formula_sum "Si O2"
_cell_formula_units_Z 64
_cell_length_a 15.581705
_cell_length_b 23.058603
_cell_length_c 9.157598
_cell_angle_alpha 90.000000
_cell_angle_beta 90.000000
_cell_angle_gamma 90.000000
_cell_volume 3290.254903
_symmetry_space_group_name_H-M "P B A M"
_symmetry_group_IT_number 55
_symmetry_cell_setting 'orthorhombic'
loop_
_space_group_symop_operation_xyz
x,y,z
-x,-y,z
1/2+x,1/2-y,-z
1/2-x,1/2+y,-z
-x,-y,-z
x,y,-z
1/2-x,1/2+y,z
1/2+x,1/2-y,z
loop_
_atom_site_type_symbol
_atom_site_label
_atom_site_fract_x
_atom_site_fract_y
_atom_site_fract_z
Si Si1 0.091583 0.250137 0.164744
Si Si2 0.465002 0.346489 0.161838
Si Si3 0.260138 0.066795 0.175144
Si Si4 0.431729 0.546585 0.172983
Si Si5 0.901153 0.512069 0.328489
Si Si6 0.373860 0.857014 0.664106
Si Si7 0.814791 0.192606 0.661081
Si Si8 0.758512 0.811904 0.673580
O O1 0.074099 0.313953 0.229923
O O2 0.151021 0.210563 0.266263
O O3 0.000098 0.218778 0.162890
O O4 0.129503 0.254554 0.000000
O O5 0.534288 0.391069 0.229437
O O6 0.375001 0.347112 0.241746
O O7 0.444686 0.368778 0.000000
O O8 0.167482 0.040012 0.226199
O O9 0.337656 0.028176 0.235741
O O10 0.271586 0.130717 0.242949
O O11 0.265882 0.071126 0.000000
O O12 0.500000 0.500000 0.237790
O O13 0.429833 0.542213 0.000000
O O14 0.883224 0.501877 0.500000
O O15 0.882452 0.577712 0.279708
O O16 0.000000 0.500000 0.289015
O O17 0.411212 0.851717 0.500000
O O18 0.276212 0.837912 0.669634
O O19 0.853444 0.189873 0.500000
O O20 0.809061 0.260150 0.708250
O O21 0.766322 0.822984 0.500000
#
# Coordination Sequence:
#
# PCOD8225425 Si02
#       8
#     8   8   8   8   8   8   8   8
#     4  10  19  34  56  83 114 145 187 240 286 338
#     4  10  20  34  54  84 119 150 187 232 285 345
#     4  11  22  38  63  90 120 154 197 251 295 347
#     4   9  19  36  56  82 120 159 192 231 289 355
#     4  10  23  43  63  84 115 155 201 250 299 356
#     4   9  20  39  59  80 112 152 193 237 291 351
#     4   9  20  35  53  81 113 146 186 232 279 341
#     4  10  20  37  58  81 113 154 194 232 289 351
#
# _framework density 19.451381999999999
#
# number of rings (size 3 to 8) (size 9 to 14) (size 15 to 20)
#    0.000    2.250    1.250    1.875    1.750    5.250 
#    0.000    3.750    0.000    1.875    0.000    0.000 
#    0.000    0.000    0.000    0.000    0.000    0.000 
#
# Total GULP energy -793243.422589 kJ/mol
# GULP energy per Si atom -12394.428478 kJ/mol
# Density = 1.940711 g / cm^3
# Si number density = 19.451382 Si / 1000 Ang^3
#
#
#
# Elastic Constant Matrix: (Units=GPa)
#
#
# Indices 1 2 3 4 5 6 
#
# 1 89.9049 52.3157 36.0761 0.0000 0.0000 0.0000
# 2 52.3157 146.9606 49.2824 0.0000 0.0000 0.0000
# 3 36.0761 49.2824 74.7379 0.0000 0.0000 0.0000
# 4 0.0000 0.0000 0.0000 28.8158 0.0000 0.0000
# 5 0.0000 0.0000 0.0000 0.0000 22.5266 0.0000
# 6 0.0000 0.0000 0.0000 0.0000 0.0000 25.3122
#
#
#
# Elastic Compliance Matrix: (Units=1/GPa)
#
#
# Indices 1 2 3 4 5 6 
#
# 1 0.015295 -0.003812 -0.004869 0.000000 0.000000 0.000000
# 2 -0.003812 0.009686 -0.004547 0.000000 0.000000 0.000000
# 3 -0.004869 -0.004547 0.018729 0.000000 0.000000 0.000000
# 4 0.000000 0.000000 0.000000 0.034703 0.000000 0.000000
# 5 0.000000 0.000000 0.000000 0.000000 0.044392 0.000000
# 6 0.000000 0.000000 0.000000 0.000000 0.000000 0.039507
#
#
# Mechanical properties :
#
#
# Convention : Reuss Voigt Hill
#
# Bulk Modulus (GPa) = 57.95950 65.21688 61.58819
# Shear Modulus (GPa) = 25.70429 26.92621 26.31525
#
# Velocity S-wave (km/s) = 3.63914 3.72463 3.68213
# Velocity P-wave (km/s) = 6.89344 7.21790 7.05754
#
# Compressibility (1/GPa) = 0.01725343
#
# Stress axis : x y z
#
# Youngs Moduli (GPa) = 65.38129 103.23757 53.39313
#
# Poissons Ratio (x) = 0.39353 0.25999
# Poissons Ratio (y) = 0.24922 0.24279
# Poissons Ratio (z) = 0.31836 0.46945
#
# Static dielectric constant tensor:
#      x y z
#    x 3.424490 0.000000 0.000000 
#    y 0.000000 3.732880 0.000000 
#    z 0.000000 0.000000 3.545640 
# 
# 
# High freq. dielectric constant tensor:
#      x y z
#    x 1.747680 0.000000 0.000000 
#    y 0.000000 1.765880 0.000000 
#    z 0.000000 0.000000 1.745080 
# 
# From -- ./inp_files/6638.got.cif
#   From: 2010.03.12/outbox.cif.g09.slc.cpg/sg55_4_cif.got.tgz:6638.got - 2010.04.16 15:19:21.
