data_PCOD8225375
_publ_section_title
;
Structure prediction by ZEFSAII (Michael W. Deem and Ramdas Pophale) SiO2 
 PCOD8225375
Probable space group: P B A M
;
_chemical_formula_sum "Si O2"
_cell_formula_units_Z 20
_cell_length_a 4.866156
_cell_length_b 16.763976
_cell_length_c 9.980615
_cell_angle_alpha 90.000000
_cell_angle_beta 90.000000
_cell_angle_gamma 90.000000
_cell_volume 814.179871
_symmetry_space_group_name_H-M "P B A M"
_symmetry_group_IT_number 55
_symmetry_cell_setting 'orthorhombic'
loop_
_space_group_symop_operation_xyz
x,y,z
-x,-y,z
1/2+x,1/2-y,-z
1/2-x,1/2+y,-z
-x,-y,-z
x,y,-z
1/2-x,1/2+y,z
1/2+x,1/2-y,z
loop_
_atom_site_type_symbol
_atom_site_label
_atom_site_fract_x
_atom_site_fract_y
_atom_site_fract_z
Si Si1 0.121968 0.304253 0.652095
Si Si2 0.898668 0.084290 0.148554
Si Si3 0.753588 0.804504 0.000000
O O1 0.156376 0.335153 0.500000
O O2 0.320557 0.229296 0.680524
O O3 0.179120 0.378627 0.749678
O O4 0.160747 0.144408 0.131439
O O5 0.761044 0.070625 0.000000
O O6 0.000000 0.000000 0.208003
O O7 0.933476 0.720934 0.000000
#
# Coordination Sequence:
#
# PCOD8225375 Si02
#       3
#     8   8   4
#     4  10  21  38  60  84 110 147 192 231 273 331
#     4   9  20  37  56  86 116 147 184 230 282 334
#     4  10  19  34  55  76 104 142 180 220 265 316
#
# _framework density 24.564598
#
# number of rings (size 3 to 8) (size 9 to 14) (size 15 to 20)
#    1.200    1.200    0.000    2.400    0.000    0.800 
#    0.000   10.000    0.000    7.200    0.000    0.000 
#    0.000    0.000    0.000    0.000    0.000    0.000 
#
# Total GULP energy -247880.508811 kJ/mol
# GULP energy per Si atom -12394.025441 kJ/mol
# Density = 2.450869 g / cm^3
# Si number density = 24.564598 Si / 1000 Ang^3
#
#
#
# Elastic Constant Matrix: (Units=GPa)
#
#
# Indices 1 2 3 4 5 6 
#
# 1 56.8068 0.4839 19.8888 0.0000 0.0000 0.0000
# 2 0.4839 102.7233 27.4507 0.0000 0.0000 0.0000
# 3 19.8888 27.4507 82.4703 0.0000 0.0000 0.0000
# 4 0.0000 0.0000 0.0000 39.0443 0.0000 0.0000
# 5 0.0000 0.0000 0.0000 0.0000 65.5899 0.0000
# 6 0.0000 0.0000 0.0000 0.0000 0.0000 9.7065
#
#
#
# Elastic Compliance Matrix: (Units=1/GPa)
#
#
# Indices 1 2 3 4 5 6 
#
# 1 0.019377 0.001270 -0.005096 0.000000 0.000000 0.000000
# 2 0.001270 0.010769 -0.003891 0.000000 0.000000 0.000000
# 3 -0.005096 -0.003891 0.014650 0.000000 0.000000 0.000000
# 4 0.000000 0.000000 0.000000 0.025612 0.000000 0.000000
# 5 0.000000 0.000000 0.000000 0.000000 0.015246 0.000000
# 6 0.000000 0.000000 0.000000 0.000000 0.000000 0.103023
#
#
# Mechanical properties :
#
#
# Convention : Reuss Voigt Hill
#
# Bulk Modulus (GPa) = 34.05679 37.51635 35.78657
# Shear Modulus (GPa) = 23.37580 35.81328 29.59454
#
# Velocity S-wave (km/s) = 3.08816 3.82242 3.47474
# Velocity P-wave (km/s) = 5.15848 5.89804 5.54061
#
# Compressibility (1/GPa) = 0.02936272
#
# Stress axis : x y z
#
# Youngs Moduli (GPa) = 51.60796 92.86221 68.26134
#
# Poissons Ratio (x) = -0.11798 0.34785
# Poissons Ratio (y) = -0.06557 0.26559
# Poissons Ratio (z) = 0.26299 0.36131
#
# Static dielectric constant tensor:
#      x y z
#    x 4.049440 0.000000 0.000000 
#    y 0.000000 4.225130 0.000000 
#    z 0.000000 0.000000 4.540660 
# 
# 
# High freq. dielectric constant tensor:
#      x y z
#    x 1.964030 0.000000 0.000000 
#    y 0.000000 1.963320 0.000000 
#    z 0.000000 0.000000 1.972660 
# 
# From -- ./inp_files/10982.got.cif
#   From: 2010.03.12/outbox.cif.g09.slc.cpg/sg55_6_cif.got.tgz:10982.got - 2010.04.16 15:19:21.
