data_PCOD8225442
_publ_section_title
;
Structure prediction by ZEFSAII (Michael W. Deem and Ramdas Pophale) SiO2 
 PCOD8225442
Probable space group: P B A M
;
_chemical_formula_sum "Si O2"
_cell_formula_units_Z 56
_cell_length_a 16.132224
_cell_length_b 13.534466
_cell_length_c 13.273705
_cell_angle_alpha 90.000000
_cell_angle_beta 90.000000
_cell_angle_gamma 90.000000
_cell_volume 2898.194518
_symmetry_space_group_name_H-M "P B A M"
_symmetry_group_IT_number 55
_symmetry_cell_setting 'orthorhombic'
loop_
_space_group_symop_operation_xyz
x,y,z
-x,-y,z
1/2+x,1/2-y,-z
1/2-x,1/2+y,-z
-x,-y,-z
x,y,-z
1/2-x,1/2+y,z
1/2+x,1/2-y,z
loop_
_atom_site_type_symbol
_atom_site_label
_atom_site_fract_x
_atom_site_fract_y
_atom_site_fract_z
Si Si1 0.360833 0.100454 0.886124
Si Si2 0.200855 0.995003 0.805273
Si Si3 0.064045 0.577845 0.315536
Si Si4 0.542019 0.400648 0.255292
Si Si5 0.065522 0.282759 0.617931
Si Si6 0.398350 0.323801 0.113641
Si Si7 0.301208 0.949382 0.384403
O O1 0.272566 0.051973 0.863824
O O2 0.426509 0.060021 0.804718
O O3 0.357144 0.217461 0.867608
O O4 0.389084 0.074264 0.000000
O O5 0.122412 0.067548 0.807250
O O6 0.177278 0.898086 0.867636
O O7 0.224004 0.957848 0.691801
O O8 0.149981 0.554296 0.373151
O O9 0.000000 0.500000 0.360957
O O10 0.025540 0.684009 0.341898
O O11 0.500000 0.500000 0.302139
O O12 0.577443 0.327368 0.340307
O O13 0.477451 0.343957 0.183878
O O14 0.063520 0.275588 0.500000
O O15 0.139626 0.357691 0.650611
O O16 0.431165 0.333686 0.000000
O O17 0.270600 0.936630 0.500000
#
# Coordination Sequence:
#
# PCOD8225442 Si02
#       7
#     8   8   8   8   8   8   8
#     4  10  20  35  57  85 114 145 183 231 284 336
#     4  10  22  36  59  80 116 148 186 239 278 333
#     4   9  17  33  57  82 112 143 181 229 276 335
#     4  10  22  38  57  82 111 148 189 229 277 328
#     4  10  19  34  57  81 111 146 186 226 274 336
#     4  10  21  39  60  82 112 150 191 228 277 344
#     4   9  19  35  57  84 111 147 186 228 281 336
#
# _framework density 19.322374
#
# number of rings (size 3 to 8) (size 9 to 14) (size 15 to 20)
#    0.000    2.286    1.429    0.857    2.000    6.000 
#    0.000    2.143    0.000    0.000    0.000    0.000 
#    0.000    0.000    0.000    0.000    0.000    0.000 
#
# Total GULP energy -694012.828592 kJ/mol
# GULP energy per Si atom -12393.086225 kJ/mol
# Density = 1.927839 g / cm^3
# Si number density = 19.322374 Si / 1000 Ang^3
#
#
#
# Elastic Constant Matrix: (Units=GPa)
#
#
# Indices 1 2 3 4 5 6 
#
# 1 52.3655 20.4100 18.9744 0.0000 0.0000 0.0000
# 2 20.4100 71.6145 24.2249 0.0000 0.0000 0.0000
# 3 18.9744 24.2249 85.6014 0.0000 0.0000 0.0000
# 4 0.0000 0.0000 0.0000 29.0286 0.0000 0.0000
# 5 0.0000 0.0000 0.0000 0.0000 20.7506 0.0000
# 6 0.0000 0.0000 0.0000 0.0000 0.0000 12.2638
#
#
#
# Elastic Compliance Matrix: (Units=1/GPa)
#
#
# Indices 1 2 3 4 5 6 
#
# 1 0.022388 -0.005200 -0.003491 0.000000 0.000000 0.000000
# 2 -0.005200 0.016650 -0.003559 0.000000 0.000000 0.000000
# 3 -0.003491 -0.003559 0.013463 0.000000 0.000000 0.000000
# 4 0.000000 0.000000 0.000000 0.034449 0.000000 0.000000
# 5 0.000000 0.000000 0.000000 0.000000 0.048191 0.000000
# 6 0.000000 0.000000 0.000000 0.000000 0.000000 0.081541
#
#
# Mechanical properties :
#
#
# Convention : Reuss Voigt Hill
#
# Bulk Modulus (GPa) = 35.71313 37.42223 36.56768
# Shear Modulus (GPa) = 19.95885 22.14008 21.04946
#
# Velocity S-wave (km/s) = 3.21743 3.38868 3.30416
# Velocity P-wave (km/s) = 5.68554 5.89238 5.78988
#
# Compressibility (1/GPa) = 0.02800091
#
# Stress axis : x y z
#
# Youngs Moduli (GPa) = 44.66655 60.06186 74.27695
#
# Poissons Ratio (x) = 0.31230 0.25931
# Poissons Ratio (y) = 0.23225 0.26437
# Poissons Ratio (z) = 0.15593 0.21377
#
# Static dielectric constant tensor:
#      x y z
#    x 3.469160 0.000000 0.000000 
#    y 0.000000 3.699550 0.000000 
#    z 0.000000 0.000000 3.483690 
# 
# 
# High freq. dielectric constant tensor:
#      x y z
#    x 1.740850 0.000000 0.000000 
#    y 0.000000 1.753590 0.000000 
#    z 0.000000 0.000000 1.749990 
# 
# From -- ./inp_files/14242.got.cif
#   From: 2010.03.12/outbox.cif.g09.slc.cpg/sg55_8_cif.got.tgz:14242.got - 2010.04.16 15:19:21.
