data_PCOD8225698
_publ_section_title
;
Structure prediction by ZEFSAII (Michael W. Deem and Ramdas Pophale) SiO2 
 PCOD8225698
Probable space group: P B A M
;
_chemical_formula_sum "Si O2"
_cell_formula_units_Z 48
_cell_length_a 9.574479
_cell_length_b 28.664882
_cell_length_c 8.660516
_cell_angle_alpha 90.000000
_cell_angle_beta 90.000000
_cell_angle_gamma 90.000000
_cell_volume 2376.889968
_symmetry_space_group_name_H-M "P B A M"
_symmetry_group_IT_number 55
_symmetry_cell_setting 'orthorhombic'
loop_
_space_group_symop_operation_xyz
x,y,z
-x,-y,z
1/2+x,1/2-y,-z
1/2-x,1/2+y,-z
-x,-y,-z
x,y,-z
1/2-x,1/2+y,z
1/2+x,1/2-y,z
loop_
_atom_site_type_symbol
_atom_site_label
_atom_site_fract_x
_atom_site_fract_y
_atom_site_fract_z
Si Si1 0.013418 0.295238 0.817327
Si Si2 0.302274 0.709840 0.816633
Si Si3 0.504437 0.367288 0.320335
Si Si4 0.145018 0.481313 0.184124
Si Si5 0.790048 0.622094 0.182830
Si Si6 0.104948 0.041940 0.171309
O O1 0.113014 0.254381 0.750729
O O2 0.079974 0.344999 0.770225
O O3 0.856345 0.290642 0.749400
O O4 0.006816 0.290479 0.000000
O O5 0.380779 0.663578 0.764698
O O6 0.296198 0.711209 0.000000
O O7 0.507385 0.356330 0.500000
O O8 0.350154 0.356822 0.256397
O O9 0.544599 0.420728 0.289492
O O10 0.179303 0.429680 0.248734
O O11 0.254185 0.520086 0.241068
O O12 0.000000 0.500000 0.251237
O O13 0.144104 0.478380 0.000000
O O14 0.767022 0.621329 0.000000
O O15 0.128624 0.064259 0.000000
O O16 0.000000 0.000000 0.152461
#
# Coordination Sequence:
#
# PCOD8225698 Si02
#       6
#     8   8   8   8   8   8
#     4   9  19  35  64  95 116 141 186 243 294 339
#     4  10  20  38  62  90 116 146 187 238 292 346
#     4  12  25  38  55  83 118 159 198 236 283 338
#     4   9  18  31  55  89 118 143 182 234 288 340
#     4  10  19  37  61  88 118 150 190 239 287 340
#     4  10  19  36  60  85 111 149 194 238 285 334
#
# _framework density 20.194455999999999
#
# number of rings (size 3 to 8) (size 9 to 14) (size 15 to 20)
#    0.000    2.000    1.667    2.500    2.333    3.000 
#    0.000    4.167    0.000    1.000    0.000    0.000 
#    0.000    0.000    0.000    0.000    0.000    0.000 
#
# Total GULP energy -595167.560219 kJ/mol
# GULP energy per Si atom -12399.324171 kJ/mol
# Density = 2.014849 g / cm^3
# Si number density = 20.194456 Si / 1000 Ang^3
#
#
#
# Elastic Constant Matrix: (Units=GPa)
#
#
# Indices 1 2 3 4 5 6 
#
# 1 183.5491 50.1816 15.3556 0.0000 0.0000 0.0000
# 2 50.1816 86.6733 9.4280 0.0000 0.0000 0.0000
# 3 15.3556 9.4280 19.5052 0.0000 0.0000 0.0000
# 4 0.0000 0.0000 0.0000 9.0214 0.0000 0.0000
# 5 0.0000 0.0000 0.0000 0.0000 6.0218 0.0000
# 6 0.0000 0.0000 0.0000 0.0000 0.0000 42.0632
#
#
#
# Elastic Compliance Matrix: (Units=1/GPa)
#
#
# Indices 1 2 3 4 5 6 
#
# 1 0.006703 -0.003490 -0.003590 0.000000 0.000000 0.000000
# 2 -0.003490 0.013995 -0.004017 0.000000 0.000000 0.000000
# 3 -0.003590 -0.004017 0.056036 0.000000 0.000000 0.000000
# 4 0.000000 0.000000 0.000000 0.110847 0.000000 0.000000
# 5 0.000000 0.000000 0.000000 0.000000 0.166062 0.000000
# 6 0.000000 0.000000 0.000000 0.000000 0.000000 0.023774
#
#
# Mechanical properties :
#
#
# Convention : Reuss Voigt Hill
#
# Bulk Modulus (GPa) = 18.33510 48.85086 33.59298
# Shear Modulus (GPa) = 11.96770 25.73879 18.85325
#
# Velocity S-wave (km/s) = 2.43703 3.57395 3.05878
# Velocity P-wave (km/s) = 4.12526 6.42445 5.39868
#
# Compressibility (1/GPa) = 0.05454020
#
# Stress axis : x y z
#
# Youngs Moduli (GPa) = 149.19481 71.45273 17.84563
#
# Poissons Ratio (x) = 0.24938 0.06406
# Poissons Ratio (y) = 0.52072 0.07169
# Poissons Ratio (z) = 0.53556 0.28703
#
# Static dielectric constant tensor:
#      x y z
#    x 3.800760 0.000000 0.000000 
#    y 0.000000 4.118950 0.000000 
#    z 0.000000 0.000000 3.114240 
# 
# 
# High freq. dielectric constant tensor:
#      x y z
#    x 1.807380 0.000000 0.000000 
#    y 0.000000 1.797360 0.000000 
#    z 0.000000 0.000000 1.729400 
# 
# From -- ./inp_files/2785.got.cif
#   From: 2010.03.12/outbox.cif.g09.slc.cpg/sg55_2_cif.got.tgz:2785.got - 2010.04.16 15:19:21.
