data_PCOD8225634
_publ_section_title
;
Structure prediction by ZEFSAII (Michael W. Deem and Ramdas Pophale) SiO2 
 PCOD8225634
Probable space group: P B A M
;
_chemical_formula_sum "Si O2"
_cell_formula_units_Z 64
_cell_length_a 18.584312
_cell_length_b 12.314902
_cell_length_c 13.586972
_cell_angle_alpha 90.000000
_cell_angle_beta 90.000000
_cell_angle_gamma 90.000000
_cell_volume 3109.568502
_symmetry_space_group_name_H-M "P B A M"
_symmetry_group_IT_number 55
_symmetry_cell_setting 'orthorhombic'
loop_
_space_group_symop_operation_xyz
x,y,z
-x,-y,z
1/2+x,1/2-y,-z
1/2-x,1/2+y,-z
-x,-y,-z
x,y,-z
1/2-x,1/2+y,z
1/2+x,1/2-y,z
loop_
_atom_site_type_symbol
_atom_site_label
_atom_site_fract_x
_atom_site_fract_y
_atom_site_fract_z
Si Si1 0.599482 0.187381 0.816391
Si Si2 0.444592 0.214061 0.112880
Si Si3 0.840188 0.456368 0.803209
Si Si4 0.714630 0.039841 0.391487
Si Si5 0.374737 0.510188 0.390521
Si Si6 0.616941 0.236322 0.607961
Si Si7 0.688480 0.387235 0.885220
Si Si8 0.573542 0.550498 0.190781
O O1 0.530725 0.201737 0.885595
O O2 0.570287 0.196357 0.702317
O O3 0.658385 0.281351 0.830643
O O4 0.639502 0.075788 0.842866
O O5 0.408308 0.119287 0.175985
O O6 0.419630 0.325591 0.161162
O O7 0.418965 0.208917 0.000000
O O8 0.826668 0.463228 0.686095
O O9 0.771025 0.408888 0.858377
O O10 0.700587 0.989724 0.500000
O O11 0.798701 0.045269 0.367957
O O12 0.689592 0.164993 0.386534
O O13 0.403483 0.480580 0.500000
O O14 0.362990 0.638516 0.379395
O O15 0.429341 0.462765 0.309633
O O16 0.579217 0.217219 0.500000
O O17 0.642205 0.491062 0.854176
O O18 0.681760 0.366454 0.000000
O O19 0.500000 0.500000 0.147016
#
# Coordination Sequence:
#
# PCOD8225634 Si02
#       8
#     8   8   8   8   8   8   8   8
#     4  11  23  44  68  94 131 174 214 270 329 396
#     4  12  27  45  66  92 130 178 222 269 330 393
#     4  11  25  43  67  98 131 165 222 277 325 383
#     4   9  18  35  61  92 126 167 208 258 327 393
#     4  10  19  35  61  93 128 165 207 262 323 387
#     4   9  17  33  60  91 123 163 207 255 322 389
#     4  12  25  41  64  94 125 168 220 275 326 376
#     4  12  24  43  64  91 129 169 218 267 323 390
#
# _framework density 20.581634000000001
#
# number of rings (size 3 to 8) (size 9 to 14) (size 15 to 20)
#    0.000    1.250    3.750    1.500    1.750    4.250 
#    0.000    3.125    0.000    3.000    0.000    0.000 
#    0.000    0.000    0.000    0.000    0.000    0.000 
#
# Total GULP energy -793514.505607 kJ/mol
# GULP energy per Si atom -12398.664150 kJ/mol
# Density = 2.053479 g / cm^3
# Si number density = 20.581634 Si / 1000 Ang^3
#
#
#
# Elastic Constant Matrix: (Units=GPa)
#
#
# Indices 1 2 3 4 5 6 
#
# 1 72.0278 40.0090 18.1058 0.0000 0.0000 0.0000
# 2 40.0090 120.5115 36.1421 0.0000 0.0000 0.0000
# 3 18.1058 36.1421 121.3175 0.0000 0.0000 0.0000
# 4 0.0000 0.0000 0.0000 19.2612 0.0000 0.0000
# 5 0.0000 0.0000 0.0000 0.0000 27.5114 0.0000
# 6 0.0000 0.0000 0.0000 0.0000 0.0000 31.9242
#
#
#
# Elastic Compliance Matrix: (Units=1/GPa)
#
#
# Indices 1 2 3 4 5 6 
#
# 1 0.017121 -0.005400 -0.000946 0.000000 0.000000 0.000000
# 2 -0.005400 0.010815 -0.002416 0.000000 0.000000 0.000000
# 3 -0.000946 -0.002416 0.009104 0.000000 0.000000 0.000000
# 4 0.000000 0.000000 0.000000 0.051918 0.000000 0.000000
# 5 0.000000 0.000000 0.000000 0.000000 0.036349 0.000000
# 6 0.000000 0.000000 0.000000 0.000000 0.000000 0.031324
#
#
# Mechanical properties :
#
#
# Convention : Reuss Voigt Hill
#
# Bulk Modulus (GPa) = 51.24300 55.81894 53.53097
# Shear Modulus (GPa) = 27.67609 30.37935 29.02772
#
# Velocity S-wave (km/s) = 3.67099 3.84610 3.75956
# Velocity P-wave (km/s) = 6.55131 6.84857 6.70159
#
# Compressibility (1/GPa) = 0.01951486
#
# Stress axis : x y z
#
# Youngs Moduli (GPa) = 58.40748 92.46063 109.84343
#
# Poissons Ratio (x) = 0.49931 0.10396
# Poissons Ratio (y) = 0.31542 0.26539
# Poissons Ratio (z) = 0.05528 0.22339
#
# Static dielectric constant tensor:
#      x y z
#    x 3.517840 0.000000 0.000000 
#    y 0.000000 3.718300 0.000000 
#    z 0.000000 0.000000 4.184310 
# 
# 
# High freq. dielectric constant tensor:
#      x y z
#    x 1.786600 0.000000 0.000000 
#    y 0.000000 1.804550 0.000000 
#    z 0.000000 0.000000 1.826250 
# 
# From -- ./inp_files/19489.got.cif
#   From: 2010.03.12/outbox.cif.g09.slc.cpg/sg55_10_cif.got.tgz:19489.got - 2010.04.16 15:19:21.
