data_PCOD8225235
_publ_section_title
;
Structure prediction by ZEFSAII (Michael W. Deem and Ramdas Pophale) SiO2 
 PCOD8225235
Probable space group: P B A M
;
_chemical_formula_sum "Si O2"
_cell_formula_units_Z 56
_cell_length_a 16.486021
_cell_length_b 19.761281
_cell_length_c 9.391494
_cell_angle_alpha 90.000000
_cell_angle_beta 90.000000
_cell_angle_gamma 90.000000
_cell_volume 3059.606873
_symmetry_space_group_name_H-M "P B A M"
_symmetry_group_IT_number 55
_symmetry_cell_setting 'orthorhombic'
loop_
_space_group_symop_operation_xyz
x,y,z
-x,-y,z
1/2+x,1/2-y,-z
1/2-x,1/2+y,-z
-x,-y,-z
x,y,-z
1/2-x,1/2+y,z
1/2+x,1/2-y,z
loop_
_atom_site_type_symbol
_atom_site_label
_atom_site_fract_x
_atom_site_fract_y
_atom_site_fract_z
Si Si1 0.737395 0.479310 0.166236
Si Si2 0.839993 0.350206 0.835630
Si Si3 0.429309 0.698924 0.336901
Si Si4 0.747393 0.243494 0.334920
Si Si5 0.981884 0.680107 0.162337
Si Si6 0.923814 0.954006 0.332748
Si Si7 0.687816 0.121932 0.165490
O O1 0.791985 0.416286 0.216563
O O2 0.653988 0.482321 0.251521
O O3 0.789572 0.545450 0.202566
O O4 0.716635 0.474707 0.000000
O O5 0.817534 0.286413 0.739149
O O6 0.936082 0.362721 0.814268
O O7 0.819523 0.334010 0.000000
O O8 0.454597 0.707114 0.500000
O O9 0.335551 0.715979 0.311563
O O10 0.485595 0.750061 0.249708
O O11 0.443889 0.622444 0.283815
O O12 0.768385 0.232939 0.500000
O O13 0.743984 0.170623 0.259941
O O14 0.906430 0.632920 0.208321
O O15 0.972048 0.702760 0.000000
O O16 0.904508 0.956318 0.500000
O O17 0.000000 0.000000 0.291265
O O18 0.702973 0.138592 0.000000
#
# Coordination Sequence:
#
# PCOD8225235 Si02
#       7
#     8   8   8   8   8   8   8
#     4  10  21  36  56  81 111 146 182 224 274 327
#     4  10  20  34  54  82 111 143 184 224 270 327
#     4   9  18  34  53  75 103 135 177 223 269 321
#     4  10  19  33  55  78 102 141 184 226 273 322
#     4   9  19  34  54  79 107 142 180 222 269 317
#     4  10  21  37  56  78 108 144 181 225 276 329
#     4   9  19  36  55  79 112 145 180 225 272 323
#
# _framework density 18.303004999999999
#
# number of rings (size 3 to 8) (size 9 to 14) (size 15 to 20)
#    0.000    2.429    1.429    0.429    0.000    4.286 
#    0.000    5.714    0.000    0.000    0.000    6.000 
#    0.000    0.000    0.000    0.000    0.000    0.000 
#
# Total GULP energy -694523.926850 kJ/mol
# GULP energy per Si atom -12402.212979 kJ/mol
# Density = 1.826135 g / cm^3
# Si number density = 18.303005 Si / 1000 Ang^3
#
#
#
# Elastic Constant Matrix: (Units=GPa)
#
#
# Indices 1 2 3 4 5 6 
#
# 1 104.3471 58.4368 44.4657 0.0000 0.0000 0.0000
# 2 58.4368 98.8597 44.0775 0.0000 0.0000 0.0000
# 3 44.4657 44.0775 63.2721 0.0000 0.0000 0.0000
# 4 0.0000 0.0000 0.0000 26.3192 0.0000 0.0000
# 5 0.0000 0.0000 0.0000 0.0000 23.2189 0.0000
# 6 0.0000 0.0000 0.0000 0.0000 0.0000 25.7783
#
#
#
# Elastic Compliance Matrix: (Units=1/GPa)
#
#
# Indices 1 2 3 4 5 6 
#
# 1 0.016120 -0.006495 -0.006804 0.000000 0.000000 0.000000
# 2 -0.006495 0.017290 -0.007480 0.000000 0.000000 0.000000
# 3 -0.006804 -0.007480 0.025797 0.000000 0.000000 0.000000
# 4 0.000000 0.000000 0.000000 0.037995 0.000000 0.000000
# 5 0.000000 0.000000 0.000000 0.000000 0.043068 0.000000
# 6 0.000000 0.000000 0.000000 0.000000 0.000000 0.038792
#
#
# Mechanical properties :
#
#
# Convention : Reuss Voigt Hill
#
# Bulk Modulus (GPa) = 56.66116 62.27097 59.46606
# Shear Modulus (GPa) = 22.07462 23.02988 22.55225
#
# Velocity S-wave (km/s) = 3.47661 3.55104 3.51402
# Velocity P-wave (km/s) = 6.86588 7.13508 7.00177
#
# Compressibility (1/GPa) = 0.01764877
#
# Stress axis : x y z
#
# Youngs Moduli (GPa) = 62.03364 57.83781 38.76374
#
# Poissons Ratio (x) = 0.37567 0.26375
# Poissons Ratio (y) = 0.40292 0.28995
# Poissons Ratio (z) = 0.42208 0.43263
#
# Static dielectric constant tensor:
#      x y z
#    x 3.313530 0.000000 0.000000 
#    y 0.000000 3.396620 0.000000 
#    z 0.000000 0.000000 3.362480 
# 
# 
# High freq. dielectric constant tensor:
#      x y z
#    x 1.705790 0.000000 0.000000 
#    y 0.000000 1.709760 0.000000 
#    z 0.000000 0.000000 1.705240 
# 
# From -- ./inp_files/6026.got.cif
#   From: 2010.03.12/outbox.cif.g09.slc.cpg/sg55_4_cif.got.tgz:6026.got - 2010.04.16 15:19:21.
