data_PCOD8225926
_publ_section_title
;
Structure prediction by ZEFSAII (Michael W. Deem and Ramdas Pophale) SiO2 
 PCOD8225926
Probable space group: P B A M
;
_chemical_formula_sum "Si O2"
_cell_formula_units_Z 64
_cell_length_a 14.655269
_cell_length_b 25.751937
_cell_length_c 9.186517
_cell_angle_alpha 90.000000
_cell_angle_beta 90.000000
_cell_angle_gamma 90.000000
_cell_volume 3467.005884
_symmetry_space_group_name_H-M "P B A M"
_symmetry_group_IT_number 55
_symmetry_cell_setting 'orthorhombic'
loop_
_space_group_symop_operation_xyz
x,y,z
-x,-y,z
1/2+x,1/2-y,-z
1/2-x,1/2+y,-z
-x,-y,-z
x,y,-z
1/2-x,1/2+y,z
1/2+x,1/2-y,z
loop_
_atom_site_type_symbol
_atom_site_label
_atom_site_fract_x
_atom_site_fract_y
_atom_site_fract_z
Si Si1 0.487018 0.321696 0.330669
Si Si2 0.602688 0.496598 0.326566
Si Si3 0.349203 0.130099 0.170081
Si Si4 0.330969 0.614530 0.669468
Si Si5 0.522783 0.942669 0.332509
Si Si6 0.823670 0.104583 0.672671
Si Si7 0.500103 0.785411 0.829651
Si Si8 0.870659 0.641653 0.668342
O O1 0.475961 0.307408 0.500000
O O2 0.581248 0.350569 0.300450
O O3 0.405797 0.358734 0.276267
O O4 0.480727 0.270365 0.236171
O O5 0.500000 0.500000 0.264151
O O6 0.597769 0.496213 0.500000
O O7 0.650608 0.443808 0.272398
O O8 0.659622 0.546156 0.267955
O O9 0.251267 0.140176 0.241499
O O10 0.393572 0.078539 0.238113
O O11 0.412075 0.179494 0.206018
O O12 0.337421 0.121286 0.000000
O O13 0.305245 0.614127 0.500000
O O14 0.554660 0.943323 0.500000
O O15 0.432841 0.908673 0.309932
O O16 0.500000 0.000000 0.276356
O O17 0.819423 0.101862 0.500000
O O18 0.728596 0.127346 0.732713
O O19 0.409764 0.809828 0.757675
O O20 0.482000 0.780722 0.000000
O O21 0.865589 0.658467 0.500000
#
# Coordination Sequence:
#
# PCOD8225926 Si02
#       8
#     8   8   8   8   8   8   8   8
#     4  10  20  35  56  83 109 137 177 224 272 318
#     4   9  15  28  52  82 115 143 169 211 264 319
#     4  10  22  38  54  75 108 148 186 224 270 321
#     4  10  20  33  56  86 112 141 179 220 267 322
#     4   9  18  32  53  82 110 139 179 225 270 318
#     4   9  17  30  52  83 113 140 171 212 264 319
#     4  10  22  40  57  73 101 144 185 225 273 320
#     4   9  18  33  54  81 110 138 174 221 267 314
#
# _framework density 18.459731999999999
#
# number of rings (size 3 to 8) (size 9 to 14) (size 15 to 20)
#    0.000    2.500    1.250    0.750    1.750    3.250 
#    0.000    4.375    0.000    1.125    0.000    0.000 
#    0.000    0.000    0.000    0.000    0.000    0.000 
#
# Total GULP energy -793712.193260 kJ/mol
# GULP energy per Si atom -12401.753020 kJ/mol
# Density = 1.841772 g / cm^3
# Si number density = 18.459732 Si / 1000 Ang^3
#
#
#
# Elastic Constant Matrix: (Units=GPa)
#
#
# Indices 1 2 3 4 5 6 
#
# 1 125.6606 40.0678 45.3582 0.0000 0.0000 0.0000
# 2 40.0678 121.7816 45.5689 0.0000 0.0000 0.0000
# 3 45.3582 45.5689 58.4472 0.0000 0.0000 0.0000
# 4 0.0000 0.0000 0.0000 14.0223 0.0000 0.0000
# 5 0.0000 0.0000 0.0000 0.0000 10.7128 0.0000
# 6 0.0000 0.0000 0.0000 0.0000 0.0000 9.4854
#
#
#
# Elastic Compliance Matrix: (Units=1/GPa)
#
#
# Indices 1 2 3 4 5 6 
#
# 1 0.011086 -0.000605 -0.008132 0.000000 0.000000 0.000000
# 2 -0.000605 0.011627 -0.008596 0.000000 0.000000 0.000000
# 3 -0.008132 -0.008596 0.030122 0.000000 0.000000 0.000000
# 4 0.000000 0.000000 0.000000 0.071315 0.000000 0.000000
# 5 0.000000 0.000000 0.000000 0.000000 0.093347 0.000000
# 6 0.000000 0.000000 0.000000 0.000000 0.000000 0.105425
#
#
# Mechanical properties :
#
#
# Convention : Reuss Voigt Hill
#
# Bulk Modulus (GPa) = 55.03501 63.09767 59.06634
# Shear Modulus (GPa) = 13.74977 18.50374 16.12675
#
# Velocity S-wave (km/s) = 2.73216 3.16948 2.95891
# Velocity P-wave (km/s) = 6.31120 6.90287 6.61365
#
# Compressibility (1/GPa) = 0.01817025
#
# Stress axis : x y z
#
# Youngs Moduli (GPa) = 90.20367 86.00878 33.19832
#
# Poissons Ratio (x) = 0.05200 0.26997
# Poissons Ratio (y) = 0.05454 0.28536
# Poissons Ratio (z) = 0.73353 0.73930
#
# Static dielectric constant tensor:
#      x y z
#    x 3.522130 0.000000 0.000000 
#    y 0.000000 3.459270 0.000000 
#    z 0.000000 0.000000 3.078730 
# 
# 
# High freq. dielectric constant tensor:
#      x y z
#    x 1.724550 0.000000 0.000000 
#    y 0.000000 1.722360 0.000000 
#    z 0.000000 0.000000 1.680220 
# 
# From -- ./inp_files/6608.got.cif
#   From: 2010.03.12/outbox.cif.g09.slc.cpg/sg55_4_cif.got.tgz:6608.got - 2010.04.16 15:19:21.
