data_PCOD8225173
_publ_section_title
;
Structure prediction by ZEFSAII (Michael W. Deem and Ramdas Pophale) SiO2 
 PCOD8225173
Probable space group: P B A M
;
_chemical_formula_sum "Si O2"
_cell_formula_units_Z 48
_cell_length_a 16.668759
_cell_length_b 18.492119
_cell_length_c 8.669661
_cell_angle_alpha 90.000000
_cell_angle_beta 90.000000
_cell_angle_gamma 90.000000
_cell_volume 2672.342159
_symmetry_space_group_name_H-M "P B A M"
_symmetry_group_IT_number 55
_symmetry_cell_setting 'orthorhombic'
loop_
_space_group_symop_operation_xyz
x,y,z
-x,-y,z
1/2+x,1/2-y,-z
1/2-x,1/2+y,-z
-x,-y,-z
x,y,-z
1/2-x,1/2+y,z
1/2+x,1/2-y,z
loop_
_atom_site_type_symbol
_atom_site_label
_atom_site_fract_x
_atom_site_fract_y
_atom_site_fract_z
Si Si1 0.830696 0.840784 0.184782
Si Si2 0.516270 0.919093 0.815159
Si Si3 0.416745 0.793902 0.168313
Si Si4 0.980772 0.917487 0.319865
Si Si5 0.338858 0.167132 0.682186
Si Si6 0.077804 0.796669 0.829476
O O1 0.854092 0.760030 0.251746
O O2 0.898125 0.898046 0.233988
O O3 0.746389 0.861909 0.257990
O O4 0.826461 0.839753 0.000000
O O5 0.440963 0.870043 0.751243
O O6 0.598477 0.891920 0.742272
O O7 0.500000 0.000000 0.759567
O O8 0.522285 0.912286 0.000000
O O9 0.499119 0.750689 0.153052
O O10 0.381485 0.811848 0.000000
O O11 0.968416 0.903995 0.500000
O O12 0.056436 0.869562 0.263368
O O13 0.000000 0.000000 0.280516
O O14 0.340628 0.168859 0.500000
O O15 0.355306 0.248413 0.743188
O O16 0.110307 0.817293 0.000000
#
# Coordination Sequence:
#
# PCOD8225173 Si02
#       6
#     8   8   8   8   8   8
#     4  10  19  33  53  74 100 136 179 219 254 302
#     4   9  17  32  54  77 102 133 169 207 252 312
#     4   7  13  27  48  72  93 119 160 206 243 283
#     4  10  20  34  53  79 110 139 169 210 262 315
#     4  11  21  33  51  75 104 135 171 218 269 310
#     4   9  17  32  53  74  97 130 174 212 246 300
#
# _framework density 17.961770999999999
#
# number of rings (size 3 to 8) (size 9 to 14) (size 15 to 20)
#    0.000    2.667    0.000    5.000    0.000    1.667 
#    0.000    2.500    0.000    6.000    0.000    0.000 
#    0.000    0.000    0.000    0.000    0.000    0.000 
#
# Total GULP energy -594726.625642 kJ/mol
# GULP energy per Si atom -12390.138034 kJ/mol
# Density = 1.792089 g / cm^3
# Si number density = 17.961771 Si / 1000 Ang^3
#
#
#
# Elastic Constant Matrix: (Units=GPa)
#
#
# Indices 1 2 3 4 5 6 
#
# 1 89.5644 45.5293 32.9666 0.0000 0.0000 0.0000
# 2 45.5293 133.2294 40.2501 0.0000 0.0000 0.0000
# 3 32.9666 40.2501 80.0817 0.0000 0.0000 0.0000
# 4 0.0000 0.0000 0.0000 24.7156 0.0000 0.0000
# 5 0.0000 0.0000 0.0000 0.0000 22.8140 0.0000
# 6 0.0000 0.0000 0.0000 0.0000 0.0000 17.5298
#
#
#
# Elastic Compliance Matrix: (Units=1/GPa)
#
#
# Indices 1 2 3 4 5 6 
#
# 1 0.014583 -0.003737 -0.004125 0.000000 0.000000 0.000000
# 2 -0.003737 0.009807 -0.003391 0.000000 0.000000 0.000000
# 3 -0.004125 -0.003391 0.015890 0.000000 0.000000 0.000000
# 4 0.000000 0.000000 0.000000 0.040460 0.000000 0.000000
# 5 0.000000 0.000000 0.000000 0.000000 0.043833 0.000000
# 6 0.000000 0.000000 0.000000 0.000000 0.000000 0.057046
#
#
# Mechanical properties :
#
#
# Convention : Reuss Voigt Hill
#
# Bulk Modulus (GPa) = 56.26178 60.04083 58.15131
# Shear Modulus (GPa) = 23.80383 25.28717 24.54550
#
# Velocity S-wave (km/s) = 3.64435 3.75618 3.70069
# Velocity P-wave (km/s) = 7.00710 7.23266 7.12077
#
# Compressibility (1/GPa) = 0.01777405
#
# Stress axis : x y z
#
# Youngs Moduli (GPa) = 68.57134 101.96302 62.93439
#
# Poissons Ratio (x) = 0.38108 0.25960
# Poissons Ratio (y) = 0.25628 0.21340
# Poissons Ratio (z) = 0.28285 0.34573
#
# Static dielectric constant tensor:
#      x y z
#    x 3.274670 0.000000 0.000000 
#    y 0.000000 3.549680 0.000000 
#    z 0.000000 0.000000 3.253110 
# 
# 
# High freq. dielectric constant tensor:
#      x y z
#    x 1.675880 0.000000 0.000000 
#    y 0.000000 1.691560 0.000000 
#    z 0.000000 0.000000 1.687450 
# 
# From -- ./inp_files/7565.got.cif
#   From: 2010.03.12/outbox.cif.g09.slc.cpg/sg55_4_cif.got.tgz:7565.got - 2010.04.16 15:19:21.
