data_PCOD8225543
_publ_section_title
;
Structure prediction by ZEFSAII (Michael W. Deem and Ramdas Pophale) SiO2 
 PCOD8225543
Probable space group: P B A M
;
_chemical_formula_sum "Si O2"
_cell_formula_units_Z 64
_cell_length_a 23.686111
_cell_length_b 15.286202
_cell_length_c 8.620564
_cell_angle_alpha 90.000000
_cell_angle_beta 90.000000
_cell_angle_gamma 90.000000
_cell_volume 3121.253447
_symmetry_space_group_name_H-M "P B A M"
_symmetry_group_IT_number 55
_symmetry_cell_setting 'orthorhombic'
loop_
_space_group_symop_operation_xyz
x,y,z
-x,-y,z
1/2+x,1/2-y,-z
1/2-x,1/2+y,-z
-x,-y,-z
x,y,-z
1/2-x,1/2+y,z
1/2+x,1/2-y,z
loop_
_atom_site_type_symbol
_atom_site_label
_atom_site_fract_x
_atom_site_fract_y
_atom_site_fract_z
Si Si1 0.867105 0.509619 0.677106
Si Si2 0.665694 0.578348 0.315096
Si Si3 0.756173 0.235329 0.681150
Si Si4 0.859087 0.686361 0.820778
Si Si5 0.540377 0.578706 0.183763
Si Si6 0.747257 0.429460 0.321413
Si Si7 0.037391 0.583594 0.181189
Si Si8 0.024323 0.247211 0.183743
O O1 0.879772 0.535386 0.500000
O O2 0.883180 0.589098 0.791796
O O3 0.802269 0.487073 0.701149
O O4 0.903680 0.425869 0.727905
O O5 0.669396 0.579037 0.500000
O O6 0.697022 0.666992 0.250331
O O7 0.601414 0.574060 0.261254
O O8 0.696762 0.489844 0.250980
O O9 0.767998 0.242675 0.500000
O O10 0.694000 0.197964 0.709653
O O11 0.756513 0.333344 0.757976
O O12 0.909138 0.753485 0.771982
O O13 0.841860 0.698234 0.000000
O O14 0.500000 0.500000 0.235154
O O15 0.507605 0.663022 0.249248
O O16 0.549063 0.580966 0.000000
O O17 0.733557 0.411083 0.500000
O O18 0.000000 0.500000 0.219604
O O19 0.006747 0.668042 0.252748
O O20 0.049832 0.594096 0.000000
O O21 0.020194 0.251003 0.000000
#
# Coordination Sequence:
#
# PCOD8225543 Si02
#       8
#     8   8   8   8   8   8   8   8
#     4  11  21  36  57  84 118 153 190 233 283 346
#     4  10  21  40  62  86 119 153 191 240 295 351
#     4  10  21  39  61  85 116 152 188 238 295 344
#     4  11  21  37  60  85 115 151 193 237 289 351
#     4  10  23  42  62  83 114 156 202 250 293 336
#     4   9  20  38  59  82 114 153 186 230 296 349
#     4  10  19  35  55  78 114 155 187 228 289 347
#     4   9  20  38  57  79 114 155 190 234 294 345
#
# _framework density 20.504584000000001
#
# number of rings (size 3 to 8) (size 9 to 14) (size 15 to 20)
#    0.000    2.000    2.500    0.750    3.500    1.000 
#    0.000    2.500    0.000    0.000    0.000    0.000 
#    0.000    0.000    0.000    0.000    0.000    0.000 
#
# Total GULP energy -793313.123980 kJ/mol
# GULP energy per Si atom -12395.517562 kJ/mol
# Density = 2.045791 g / cm^3
# Si number density = 20.504584 Si / 1000 Ang^3
#
#
#
# Elastic Constant Matrix: (Units=GPa)
#
#
# Indices 1 2 3 4 5 6 
#
# 1 129.0609 64.3039 18.5111 0.0000 0.0000 0.0000
# 2 64.3039 156.9137 18.0850 0.0000 0.0000 0.0000
# 3 18.5111 18.0850 19.0115 0.0000 0.0000 0.0000
# 4 0.0000 0.0000 0.0000 13.0421 0.0000 0.0000
# 5 0.0000 0.0000 0.0000 0.0000 31.1132 0.0000
# 6 0.0000 0.0000 0.0000 0.0000 0.0000 34.3908
#
#
#
# Elastic Compliance Matrix: (Units=1/GPa)
#
#
# Indices 1 2 3 4 5 6 
#
# 1 0.010479 -0.003502 -0.006871 0.000000 0.000000 0.000000
# 2 -0.003502 0.008328 -0.004512 0.000000 0.000000 0.000000
# 3 -0.006871 -0.004512 0.063583 0.000000 0.000000 0.000000
# 4 0.000000 0.000000 0.000000 0.076675 0.000000 0.000000
# 5 0.000000 0.000000 0.000000 0.000000 0.032141 0.000000
# 6 0.000000 0.000000 0.000000 0.000000 0.000000 0.029078
#
#
# Mechanical properties :
#
#
# Convention : Reuss Voigt Hill
#
# Bulk Modulus (GPa) = 19.00494 56.30955 37.65725
# Shear Modulus (GPa) = 18.68500 29.31496 23.99998
#
# Velocity S-wave (km/s) = 3.02198 3.78521 3.42492
# Velocity P-wave (km/s) = 4.63306 6.82827 5.83483
#
# Compressibility (1/GPa) = 0.05261790
#
# Stress axis : x y z
#
# Youngs Moduli (GPa) = 95.43032 120.07323 15.72754
#
# Poissons Ratio (x) = 0.42054 0.10807
# Poissons Ratio (y) = 0.33423 0.07097
# Poissons Ratio (z) = 0.65574 0.54180
#
# Static dielectric constant tensor:
#      x y z
#    x 3.731490 0.000000 0.000000 
#    y 0.000000 4.192450 0.000000 
#    z 0.000000 0.000000 3.254230 
# 
# 
# High freq. dielectric constant tensor:
#      x y z
#    x 1.811920 0.000000 0.000000 
#    y 0.000000 1.812290 0.000000 
#    z 0.000000 0.000000 1.759750 
# 
# From -- ./inp_files/9673.got.cif
#   From: 2010.03.12/outbox.cif.g09.slc.cpg/sg55_5_cif.got.tgz:9673.got - 2010.04.16 15:19:21.
