data_PCOD8225416
_publ_section_title
;
Structure prediction by ZEFSAII (Michael W. Deem and Ramdas Pophale) SiO2 
 PCOD8225416
Probable space group: P B A M
;
_chemical_formula_sum "Si O2"
_cell_formula_units_Z 48
_cell_length_a 14.991732
_cell_length_b 19.106396
_cell_length_c 9.101540
_cell_angle_alpha 90.000000
_cell_angle_beta 90.000000
_cell_angle_gamma 90.000000
_cell_volume 2607.026626
_symmetry_space_group_name_H-M "P B A M"
_symmetry_group_IT_number 55
_symmetry_cell_setting 'orthorhombic'
loop_
_space_group_symop_operation_xyz
x,y,z
-x,-y,z
1/2+x,1/2-y,-z
1/2-x,1/2+y,-z
-x,-y,-z
x,y,-z
1/2-x,1/2+y,z
1/2+x,1/2-y,z
loop_
_atom_site_type_symbol
_atom_site_label
_atom_site_fract_x
_atom_site_fract_y
_atom_site_fract_z
Si Si1 0.631474 0.826513 0.174566
Si Si2 0.975306 0.923499 0.669576
Si Si3 0.474804 0.924441 0.827179
Si Si4 0.383389 0.332616 0.827177
Si Si5 0.275092 0.933368 0.172353
Si Si6 0.231794 0.077183 0.329456
O O1 0.542186 0.865443 0.232955
O O2 0.626744 0.746643 0.227495
O O3 0.717423 0.860406 0.249035
O O4 0.642352 0.832310 0.000000
O O5 0.003499 0.920049 0.500000
O O6 0.872029 0.907988 0.694410
O O7 0.028947 0.864547 0.755238
O O8 0.000000 0.000000 0.733474
O O9 0.373305 0.904308 0.786967
O O10 0.500000 0.000000 0.757841
O O11 0.487884 0.928984 0.000000
O O12 0.295381 0.374870 0.778255
O O13 0.397054 0.335930 0.000000
O O14 0.257904 0.003529 0.260574
O O15 0.268054 0.950878 0.000000
O O16 0.257416 0.075571 0.500000
#
# Coordination Sequence:
#
# PCOD8225416 Si02
#       6
#     8   8   8   8   8   8
#     4  10  21  38  57  83 117 147 181 233 289 337
#     4  10  21  38  58  80 112 153 190 230 280 334
#     4   9  16  30  55  79 103 144 183 217 274 339
#     4  10  22  36  57  88 115 143 183 236 290 334
#     4  10  19  34  56  82 109 143 187 231 278 337
#     4  11  22  36  57  84 110 148 193 231 277 331
#
# _framework density 18.411781000000001
#
# number of rings (size 3 to 8) (size 9 to 14) (size 15 to 20)
#    0.000    2.000    3.333    0.500    0.000    3.667 
#    0.000    5.000    0.000    0.000    0.000    0.000 
#    0.000    0.000    0.000    0.000    0.000    0.000 
#
# Total GULP energy -595296.356030 kJ/mol
# GULP energy per Si atom -12402.007417 kJ/mol
# Density = 1.836987 g / cm^3
# Si number density = 18.411781 Si / 1000 Ang^3
#
#
#
# Elastic Constant Matrix: (Units=GPa)
#
#
# Indices 1 2 3 4 5 6 
#
# 1 122.6534 72.5764 35.2019 0.0000 0.0000 0.0000
# 2 72.5764 164.4415 42.4466 0.0000 0.0000 0.0000
# 3 35.2019 42.4466 37.7509 0.0000 0.0000 0.0000
# 4 0.0000 0.0000 0.0000 5.9742 0.0000 0.0000
# 5 0.0000 0.0000 0.0000 0.0000 25.3476 0.0000
# 6 0.0000 0.0000 0.0000 0.0000 0.0000 35.8351
#
#
#
# Elastic Compliance Matrix: (Units=1/GPa)
#
#
# Indices 1 2 3 4 5 6 
#
# 1 0.012422 -0.003512 -0.007635 0.000000 0.000000 0.000000
# 2 -0.003512 0.009561 -0.007475 0.000000 0.000000 0.000000
# 3 -0.007635 -0.007475 0.042014 0.000000 0.000000 0.000000
# 4 0.000000 0.000000 0.000000 0.167386 0.000000 0.000000
# 5 0.000000 0.000000 0.000000 0.000000 0.039451 0.000000
# 6 0.000000 0.000000 0.000000 0.000000 0.000000 0.027906
#
#
# Mechanical properties :
#
#
# Convention : Reuss Voigt Hill
#
# Bulk Modulus (GPa) = 37.37901 69.47730 53.42816
# Shear Modulus (GPa) = 14.49688 25.07277 19.78483
#
# Velocity S-wave (km/s) = 2.80906 3.69423 3.28163
# Velocity P-wave (km/s) = 5.55579 7.48423 6.59092
#
# Compressibility (1/GPa) = 0.02675298
#
# Stress axis : x y z
#
# Youngs Moduli (GPa) = 80.50029 104.59510 23.80171
#
# Poissons Ratio (x) = 0.36732 0.18172
# Poissons Ratio (y) = 0.28270 0.17792
# Poissons Ratio (z) = 0.61461 0.78187
#
# Static dielectric constant tensor:
#      x y z
#    x 3.689440 0.000000 0.000000 
#    y 0.000000 3.520850 0.000000 
#    z 0.000000 0.000000 3.198590 
# 
# 
# High freq. dielectric constant tensor:
#      x y z
#    x 1.730270 0.000000 0.000000 
#    y 0.000000 1.714270 0.000000 
#    z 0.000000 0.000000 1.689770 
# 
# From -- ./inp_files/5672.got.cif
#   From: 2010.03.12/outbox.cif.g09.slc.cpg/sg55_3_cif.got.tgz:5672.got - 2010.04.16 15:19:21.
