data_PCOD8225383
_publ_section_title
;
Structure prediction by ZEFSAII (Michael W. Deem and Ramdas Pophale) SiO2 
 PCOD8225383
Probable space group: P B A M
;
_chemical_formula_sum "Si O2"
_cell_formula_units_Z 64
_cell_length_a 9.309032
_cell_length_b 22.573647
_cell_length_c 14.792064
_cell_angle_alpha 90.000000
_cell_angle_beta 90.000000
_cell_angle_gamma 90.000000
_cell_volume 3108.386612
_symmetry_space_group_name_H-M "P B A M"
_symmetry_group_IT_number 55
_symmetry_cell_setting 'orthorhombic'
loop_
_space_group_symop_operation_xyz
x,y,z
-x,-y,z
1/2+x,1/2-y,-z
1/2-x,1/2+y,-z
-x,-y,-z
x,y,-z
1/2-x,1/2+y,z
1/2+x,1/2-y,z
loop_
_atom_site_type_symbol
_atom_site_label
_atom_site_fract_x
_atom_site_fract_y
_atom_site_fract_z
Si Si1 0.086682 0.918958 0.899152
Si Si2 0.667503 0.713065 0.902024
Si Si3 0.842211 0.976970 0.399193
Si Si4 0.919111 0.756200 0.208424
Si Si5 0.095146 0.443123 0.400906
Si Si6 0.971659 0.366028 0.756718
Si Si7 0.392132 0.947984 0.894565
Si Si8 0.855114 0.884200 0.245087
O O1 0.170934 0.857436 0.900515
O O2 0.221470 0.963687 0.876379
O O3 0.955477 0.920405 0.827104
O O4 0.023843 0.932977 0.000000
O O5 0.505035 0.734325 0.884987
O O6 0.758836 0.739400 0.819977
O O7 0.717119 0.736876 0.000000
O O8 0.785169 0.959881 0.500000
O O9 0.842849 0.918588 0.338646
O O10 0.745795 0.031528 0.360179
O O11 0.000000 0.000000 0.405733
O O12 0.992970 0.702901 0.263946
O O13 0.920365 0.818426 0.263758
O O14 0.119008 0.413060 0.500000
O O15 0.014740 0.398263 0.335545
O O16 0.000000 0.500000 0.413114
O O17 0.068164 0.388928 0.839384
O O18 0.807818 0.376231 0.789171
O O19 0.500000 0.000000 0.860202
O O20 0.418306 0.935467 0.000000
#
# Coordination Sequence:
#
# PCOD8225383 Si02
#       8
#     8   8   8   8   8   8   8   8
#     4   9  20  38  57  84 124 168 209 255 312 369
#     4  10  19  34  55  79 115 162 209 261 306 348
#     4  10  23  43  69  99 124 154 201 255 314 380
#     4  11  22  37  53  90 123 158 210 259 308 381
#     4  10  21  40  67  95 120 151 201 256 305 373
#     4  12  23  38  63  89 123 167 210 253 319 373
#     4  10  22  38  59  88 123 166 213 260 312 374
#     4  11  24  39  62  93 125 164 207 262 318 367
#
# _framework density 20.589459999999999
#
# number of rings (size 3 to 8) (size 9 to 14) (size 15 to 20)
#    0.000    1.625    3.750    0.750    1.750    1.500 
#    0.000    0.625    0.000    2.625    0.000    0.000 
#    0.000    0.000    0.000    0.000    0.000    0.000 
#
# Total GULP energy -793000.318679 kJ/mol
# GULP energy per Si atom -12390.629979 kJ/mol
# Density = 2.054260 g / cm^3
# Si number density = 20.589460 Si / 1000 Ang^3
#
#
#
# Elastic Constant Matrix: (Units=GPa)
#
#
# Indices 1 2 3 4 5 6 
#
# 1 126.5926 35.1328 39.3321 0.0000 0.0000 0.0000
# 2 35.1328 84.0498 38.6125 0.0000 0.0000 0.0000
# 3 39.3321 38.6125 83.1007 0.0000 0.0000 0.0000
# 4 0.0000 0.0000 0.0000 7.1935 0.0000 0.0000
# 5 0.0000 0.0000 0.0000 0.0000 29.4751 0.0000
# 6 0.0000 0.0000 0.0000 0.0000 0.0000 34.6138
#
#
#
# Elastic Compliance Matrix: (Units=1/GPa)
#
#
# Indices 1 2 3 4 5 6 
#
# 1 0.009645 -0.002459 -0.003422 0.000000 0.000000 0.000000
# 2 -0.002459 0.015754 -0.006156 0.000000 0.000000 0.000000
# 3 -0.003422 -0.006156 0.016514 0.000000 0.000000 0.000000
# 4 0.000000 0.000000 0.000000 0.139015 0.000000 0.000000
# 5 0.000000 0.000000 0.000000 0.000000 0.033927 0.000000
# 6 0.000000 0.000000 0.000000 0.000000 0.000000 0.028890
#
#
# Mechanical properties :
#
#
# Convention : Reuss Voigt Hill
#
# Bulk Modulus (GPa) = 56.06217 57.76642 56.91429
# Shear Modulus (GPa) = 18.26375 26.30085 22.28230
#
# Velocity S-wave (km/s) = 2.98156 3.57794 3.29328
# Velocity P-wave (km/s) = 6.25625 6.72206 6.49333
#
# Compressibility (1/GPa) = 0.01783734
#
# Stress axis : x y z
#
# Youngs Moduli (GPa) = 103.67798 63.47693 60.55568
#
# Poissons Ratio (x) = 0.15612 0.20724
# Poissons Ratio (y) = 0.25499 0.37277
# Poissons Ratio (z) = 0.35483 0.39075
#
# Static dielectric constant tensor:
#      x y z
#    x 4.105330 0.000000 0.000000 
#    y 0.000000 3.585830 0.000000 
#    z 0.000000 0.000000 3.697110 
# 
# 
# High freq. dielectric constant tensor:
#      x y z
#    x 1.829910 0.000000 0.000000 
#    y 0.000000 1.792320 0.000000 
#    z 0.000000 0.000000 1.780800 
# 
# From -- ./inp_files/17856.got.cif
#   From: 2010.03.12/outbox.cif.g09.slc.cpg/sg55_9_cif.got.tgz:17856.got - 2010.04.16 15:19:21.
