data_PCOD8225831
_publ_section_title
;
Structure prediction by ZEFSAII (Michael W. Deem and Ramdas Pophale) SiO2 
 PCOD8225831
Probable space group: P B A M
;
_chemical_formula_sum "Si O2"
_cell_formula_units_Z 28
_cell_length_a 25.806584
_cell_length_b 5.075827
_cell_length_c 10.620377
_cell_angle_alpha 90.000000
_cell_angle_beta 90.000000
_cell_angle_gamma 90.000000
_cell_volume 1391.160590
_symmetry_space_group_name_H-M "P B A M"
_symmetry_group_IT_number 55
_symmetry_cell_setting 'orthorhombic'
loop_
_space_group_symop_operation_xyz
x,y,z
-x,-y,z
1/2+x,1/2-y,-z
1/2-x,1/2+y,-z
-x,-y,-z
x,y,-z
1/2-x,1/2+y,z
1/2+x,1/2-y,z
loop_
_atom_site_type_symbol
_atom_site_label
_atom_site_fract_x
_atom_site_fract_y
_atom_site_fract_z
Si Si1 0.620917 0.665291 0.201056
Si Si2 0.780481 0.716374 0.500000
Si Si3 0.374992 0.824333 0.640343
Si Si4 0.536070 0.750095 0.000000
Si Si5 0.787990 0.148196 0.000000
O O1 0.602730 0.385263 0.260353
O O2 0.572673 0.758779 0.120130
O O3 0.625024 0.878285 0.311042
O O4 0.674422 0.642330 0.122221
O O5 0.767653 0.407121 0.500000
O O6 0.814909 0.764847 0.375355
O O7 0.401893 0.818290 0.500000
O O8 0.500000 0.500000 0.000000
O O9 0.500000 0.000000 0.000000
O O10 0.748645 0.903486 0.000000
#
# Coordination Sequence:
#
# PCOD8225831 Si02
#       5
#     8   4   8   4   4
#     4  11  22  41  62  88 122 160 199 255 309 358
#     4  10  20  32  50  84 118 160 212 236 270 338
#     4  10  22  36  59  85 120 165 193 242 302 356
#     4  11  24  43  70  94 114 151 210 265 314 368
#     4  11  24  37  56  86 120 163 202 245 300 358
#
# _framework density 20.127078999999998
#
# number of rings (size 3 to 8) (size 9 to 14) (size 15 to 20)
#    0.857    0.571    0.000    6.000    0.000   11.429 
#    0.000    0.000    0.000   17.143    0.000    0.000 
#    0.000    0.000    0.000    0.000    0.000    0.000 
#
# Total GULP energy -346923.392426 kJ/mol
# GULP energy per Si atom -12390.121158 kJ/mol
# Density = 2.008127 g / cm^3
# Si number density = 20.127079 Si / 1000 Ang^3
#
#
#
# Elastic Constant Matrix: (Units=GPa)
#
#
# Indices 1 2 3 4 5 6 
#
# 1 75.7018 11.2122 17.6119 0.0000 0.0000 0.0000
# 2 11.2122 115.3562 24.7537 0.0000 0.0000 0.0000
# 3 17.6119 24.7537 104.6149 0.0000 0.0000 0.0000
# 4 0.0000 0.0000 0.0000 58.5758 0.0000 0.0000
# 5 0.0000 0.0000 0.0000 0.0000 11.1130 0.0000
# 6 0.0000 0.0000 0.0000 0.0000 0.0000 36.6125
#
#
#
# Elastic Compliance Matrix: (Units=1/GPa)
#
#
# Indices 1 2 3 4 5 6 
#
# 1 0.013834 -0.000890 -0.002118 0.000000 0.000000 0.000000
# 2 -0.000890 0.009190 -0.002025 0.000000 0.000000 0.000000
# 3 -0.002118 -0.002025 0.010395 0.000000 0.000000 0.000000
# 4 0.000000 0.000000 0.000000 0.017072 0.000000 0.000000
# 5 0.000000 0.000000 0.000000 0.000000 0.089985 0.000000
# 6 0.000000 0.000000 0.000000 0.000000 0.000000 0.027313
#
#
# Mechanical properties :
#
#
# Convention : Reuss Voigt Hill
#
# Bulk Modulus (GPa) = 42.82191 44.75872 43.79031
# Shear Modulus (GPa) = 26.93399 37.39993 32.16696
#
# Velocity S-wave (km/s) = 3.66211 4.31535 4.00208
# Velocity P-wave (km/s) = 6.26126 6.86411 6.56960
#
# Compressibility (1/GPa) = 0.02335253
#
# Stress axis : x y z
#
# Youngs Moduli (GPa) = 72.28356 108.81675 96.20414
#
# Poissons Ratio (x) = 0.09685 0.20380
# Poissons Ratio (y) = 0.06434 0.19478
# Poissons Ratio (z) = 0.15313 0.22031
#
# Static dielectric constant tensor:
#      x y z
#    x 3.522110 0.000000 0.000000 
#    y 0.000000 3.627770 0.000000 
#    z 0.000000 0.000000 3.532380 
# 
# 
# High freq. dielectric constant tensor:
#      x y z
#    x 1.763480 0.000000 0.000000 
#    y 0.000000 1.804300 0.000000 
#    z 0.000000 0.000000 1.794940 
# 
# From -- ./inp_files/15493.got.cif
#   From: 2010.03.12/outbox.cif.g09.slc.cpg/sg55_8_cif.got.tgz:15493.got - 2010.04.16 15:19:21.
