data_PCOD8225601
_publ_section_title
;
Structure prediction by ZEFSAII (Michael W. Deem and Ramdas Pophale) SiO2 
 PCOD8225601
Probable space group: P B A M
;
_chemical_formula_sum "Si O2"
_cell_formula_units_Z 48
_cell_length_a 20.140417
_cell_length_b 13.946951
_cell_length_c 8.925174
_cell_angle_alpha 90.000000
_cell_angle_beta 90.000000
_cell_angle_gamma 90.000000
_cell_volume 2507.058252
_symmetry_space_group_name_H-M "P B A M"
_symmetry_group_IT_number 55
_symmetry_cell_setting 'orthorhombic'
loop_
_space_group_symop_operation_xyz
x,y,z
-x,-y,z
1/2+x,1/2-y,-z
1/2-x,1/2+y,-z
-x,-y,-z
x,y,-z
1/2-x,1/2+y,z
1/2+x,1/2-y,z
loop_
_atom_site_type_symbol
_atom_site_label
_atom_site_fract_x
_atom_site_fract_y
_atom_site_fract_z
Si Si1 0.810804 0.082880 0.676854
Si Si2 0.567848 0.455360 0.322098
Si Si3 0.696751 0.970114 0.826034
Si Si4 0.429004 0.957409 0.327498
Si Si5 0.117758 0.249125 0.673933
Si Si6 0.741059 0.757326 0.825496
O O1 0.814511 0.091261 0.500000
O O2 0.813244 0.188661 0.747367
O O3 0.871096 0.018694 0.740240
O O4 0.740884 0.038777 0.724521
O O5 0.500000 0.500000 0.254801
O O6 0.565765 0.460953 0.500000
O O7 0.577376 0.344999 0.269974
O O8 0.717118 0.862875 0.787375
O O9 0.621052 0.987038 0.780721
O O10 0.707592 0.994363 0.000000
O O11 0.410896 0.979131 0.500000
O O12 0.427663 0.842677 0.298046
O O13 0.500000 0.000000 0.285103
O O14 0.136699 0.237193 0.500000
O O15 0.185431 0.260589 0.764248
O O16 0.741976 0.734942 0.000000
#
# Coordination Sequence:
#
# PCOD8225601 Si02
#       6
#     8   8   8   8   8   8
#     4  11  21  35  60  89 115 149 196 247 293 343
#     4   9  19  35  57  87 119 151 191 240 295 348
#     4  11  23  38  58  85 118 156 197 241 291 351
#     4  10  22  38  59  89 121 155 198 247 294 348
#     4  10  19  35  59  84 115 155 196 238 293 351
#     4  11  23  37  57  86 120 156 197 242 292 347
#
# _framework density 19.145945000000001
#
# number of rings (size 3 to 8) (size 9 to 14) (size 15 to 20)
#    0.000    1.667    3.333    1.500    0.000    3.667 
#    0.000    3.333    0.000    4.500    0.000    0.000 
#    0.000    0.000    0.000    0.000    0.000    0.000 
#
# Total GULP energy -595317.295634 kJ/mol
# GULP energy per Si atom -12402.443659 kJ/mol
# Density = 1.910237 g / cm^3
# Si number density = 19.145945 Si / 1000 Ang^3
#
#
#
# Elastic Constant Matrix: (Units=GPa)
#
#
# Indices 1 2 3 4 5 6 
#
# 1 98.6066 40.2565 15.1240 0.0000 0.0000 0.0000
# 2 40.2565 105.4961 30.9652 0.0000 0.0000 0.0000
# 3 15.1240 30.9652 49.6719 0.0000 0.0000 0.0000
# 4 0.0000 0.0000 0.0000 27.3877 0.0000 0.0000
# 5 0.0000 0.0000 0.0000 0.0000 12.3407 0.0000
# 6 0.0000 0.0000 0.0000 0.0000 0.0000 34.3768
#
#
#
# Elastic Compliance Matrix: (Units=1/GPa)
#
#
# Indices 1 2 3 4 5 6 
#
# 1 0.012052 -0.004311 -0.000982 0.000000 0.000000 0.000000
# 2 -0.004311 0.013144 -0.006881 0.000000 0.000000 0.000000
# 3 -0.000982 -0.006881 0.024721 0.000000 0.000000 0.000000
# 4 0.000000 0.000000 0.000000 0.036513 0.000000 0.000000
# 5 0.000000 0.000000 0.000000 0.000000 0.081033 0.000000
# 6 0.000000 0.000000 0.000000 0.000000 0.000000 0.029089
#
#
# Mechanical properties :
#
#
# Convention : Reuss Voigt Hill
#
# Bulk Modulus (GPa) = 39.11111 47.38510 43.24811
# Shear Modulus (GPa) = 21.79389 25.98298 23.88843
#
# Velocity S-wave (km/s) = 3.37754 3.68788 3.53611
# Velocity P-wave (km/s) = 5.97349 6.55264 6.26976
#
# Compressibility (1/GPa) = 0.02556818
#
# Stress axis : x y z
#
# Youngs Moduli (GPa) = 82.97539 76.08223 40.45155
#
# Poissons Ratio (x) = 0.32796 0.03974
# Poissons Ratio (y) = 0.35767 0.27836
# Poissons Ratio (z) = 0.08151 0.52354
#
# Static dielectric constant tensor:
#      x y z
#    x 3.499600 0.000000 0.000000 
#    y 0.000000 3.913690 0.000000 
#    z 0.000000 0.000000 3.329000 
# 
# 
# High freq. dielectric constant tensor:
#      x y z
#    x 1.735910 0.000000 0.000000 
#    y 0.000000 1.765240 0.000000 
#    z 0.000000 0.000000 1.728180 
# 
# From -- ./inp_files/5604.got.cif
#   From: 2010.03.12/outbox.cif.g09.slc.cpg/sg55_3_cif.got.tgz:5604.got - 2010.04.16 15:19:21.
