data_PCOD8225437
_publ_section_title
;
Structure prediction by ZEFSAII (Michael W. Deem and Ramdas Pophale) SiO2 
 PCOD8225437
Probable space group: P B A M
;
_chemical_formula_sum "Si O2"
_cell_formula_units_Z 48
_cell_length_a 31.131605
_cell_length_b 10.439580
_cell_length_c 7.751963
_cell_angle_alpha 90.000000
_cell_angle_beta 90.000000
_cell_angle_gamma 90.000000
_cell_volume 2519.394804
_symmetry_space_group_name_H-M "P B A M"
_symmetry_group_IT_number 55
_symmetry_cell_setting 'orthorhombic'
loop_
_space_group_symop_operation_xyz
x,y,z
-x,-y,z
1/2+x,1/2-y,-z
1/2-x,1/2+y,-z
-x,-y,-z
x,y,-z
1/2-x,1/2+y,z
1/2+x,1/2-y,z
loop_
_atom_site_type_symbol
_atom_site_label
_atom_site_fract_x
_atom_site_fract_y
_atom_site_fract_z
Si Si1 0.492773 0.697704 0.000000
Si Si2 0.571583 0.536346 0.000000
Si Si3 0.784048 0.625375 0.805299
Si Si4 0.873276 0.947507 0.302957
Si Si5 0.624524 0.154563 0.697610
Si Si6 0.030496 0.381259 0.302573
Si Si7 0.220703 0.088175 0.793823
O O1 0.543208 0.664229 0.000000
O O2 0.461419 0.579075 0.000000
O O3 0.484483 0.771975 0.175795
O O4 0.600603 0.537659 0.172362
O O5 0.835203 0.596304 0.801029
O O6 0.773647 0.765426 0.720950
O O7 0.758344 0.505470 0.721374
O O8 0.767949 0.630498 0.000000
O O9 0.887137 0.977534 0.500000
O O10 0.883841 0.801594 0.249854
O O11 0.822780 0.972608 0.280493
O O12 0.638359 0.145371 0.500000
O O13 0.580205 0.079049 0.737134
O O14 0.027315 0.331201 0.500000
O O15 0.000000 0.500000 0.269424
O O16 0.218297 0.095001 0.000000
#
# Coordination Sequence:
#
# PCOD8225437 Si02
#       7
#     4   4   8   8   8   8   8
#     4  11  23  36  58  83 110 148 180 229 291 332
#     4  11  22  36  56  83 113 143 184 231 274 337
#     4   9  18  30  52  77 106 142 176 223 274 325
#     4  10  19  34  57  80 108 146 184 226 271 326
#     4   9  18  32  53  79 104 139 186 227 267 325
#     4  10  21  38  59  82 112 146 189 241 283 332
#     4   9  17  32  52  78 108 140 181 226 274 329
#
# _framework density 19.052195000000001
#
# number of rings (size 3 to 8) (size 9 to 14) (size 15 to 20)
#    0.000    2.333    2.500    0.250    2.333    1.333 
#    0.000    3.333    0.000    2.000    0.000    0.000 
#    0.000    0.000    0.000    0.000    0.000    0.000 
#
# Total GULP energy -594935.308832 kJ/mol
# GULP energy per Si atom -12394.485601 kJ/mol
# Density = 1.900883 g / cm^3
# Si number density = 19.052195 Si / 1000 Ang^3
#
#
#
# Elastic Constant Matrix: (Units=GPa)
#
#
# Indices 1 2 3 4 5 6 
#
# 1 144.8862 65.1263 29.7777 0.0000 0.0000 0.0000
# 2 65.1263 70.6304 19.5114 0.0000 0.0000 0.0000
# 3 29.7777 19.5114 61.4563 0.0000 0.0000 0.0000
# 4 0.0000 0.0000 0.0000 12.5922 0.0000 0.0000
# 5 0.0000 0.0000 0.0000 0.0000 24.3548 0.0000
# 6 0.0000 0.0000 0.0000 0.0000 0.0000 39.7152
#
#
#
# Elastic Compliance Matrix: (Units=1/GPa)
#
#
# Indices 1 2 3 4 5 6 
#
# 1 0.012142 -0.010491 -0.002553 0.000000 0.000000 0.000000
# 2 -0.010491 0.024583 -0.002722 0.000000 0.000000 0.000000
# 3 -0.002553 -0.002722 0.018373 0.000000 0.000000 0.000000
# 4 0.000000 0.000000 0.000000 0.079414 0.000000 0.000000
# 5 0.000000 0.000000 0.000000 0.000000 0.041060 0.000000
# 6 0.000000 0.000000 0.000000 0.000000 0.000000 0.025179
#
#
# Mechanical properties :
#
#
# Convention : Reuss Voigt Hill
#
# Bulk Modulus (GPa) = 42.43050 56.20041 49.31546
# Shear Modulus (GPa) = 20.82141 26.16963 23.49552
#
# Velocity S-wave (km/s) = 3.30943 3.71020 3.51553
# Velocity P-wave (km/s) = 6.07636 6.92216 6.51300
#
# Compressibility (1/GPa) = 0.02356795
#
# Stress axis : x y z
#
# Youngs Moduli (GPa) = 82.35719 40.67797 54.42876
#
# Poissons Ratio (x) = 0.42675 0.13894
# Poissons Ratio (y) = 0.86400 0.14813
# Poissons Ratio (z) = 0.21023 0.11071
#
# Static dielectric constant tensor:
#      x y z
#    x 3.675270 0.000000 0.000000 
#    y 0.000000 3.424520 0.000000 
#    z 0.000000 0.000000 3.444770 
# 
# 
# High freq. dielectric constant tensor:
#      x y z
#    x 1.749470 0.000000 0.000000 
#    y 0.000000 1.701840 0.000000 
#    z 0.000000 0.000000 1.741580 
# 
# From -- ./inp_files/9464.got.cif
#   From: 2010.03.12/outbox.cif.g09.slc.cpg/sg55_5_cif.got.tgz:9464.got - 2010.04.16 15:19:21.
