data_PCOD8225279
_publ_section_title
;
Structure prediction by ZEFSAII (Michael W. Deem and Ramdas Pophale) SiO2 
 PCOD8225279
Probable space group: P B A M
;
_chemical_formula_sum "Si O2"
_cell_formula_units_Z 48
_cell_length_a 9.965418
_cell_length_b 29.302819
_cell_length_c 9.147346
_cell_angle_alpha 90.000000
_cell_angle_beta 90.000000
_cell_angle_gamma 90.000000
_cell_volume 2671.160778
_symmetry_space_group_name_H-M "P B A M"
_symmetry_group_IT_number 55
_symmetry_cell_setting 'orthorhombic'
loop_
_space_group_symop_operation_xyz
x,y,z
-x,-y,z
1/2+x,1/2-y,-z
1/2-x,1/2+y,-z
-x,-y,-z
x,y,-z
1/2-x,1/2+y,z
1/2+x,1/2-y,z
loop_
_atom_site_type_symbol
_atom_site_label
_atom_site_fract_x
_atom_site_fract_y
_atom_site_fract_z
Si Si1 0.645892 0.979942 0.833209
Si Si2 0.534537 0.618312 0.171271
Si Si3 0.125702 0.969103 0.671881
Si Si4 0.976011 0.210394 0.672381
Si Si5 0.225430 0.618985 0.167196
Si Si6 0.716313 0.791113 0.671028
O O1 0.640145 0.926101 0.795879
O O2 0.500000 0.000000 0.811652
O O3 0.740800 0.005100 0.719538
O O4 0.698010 0.986633 0.000000
O O5 0.622027 0.578786 0.244282
O O6 0.577010 0.666106 0.242973
O O7 0.379470 0.608114 0.206116
O O8 0.565874 0.619897 0.000000
O O9 0.128552 0.959663 0.500000
O O10 0.000000 0.000000 0.717988
O O11 0.960609 0.201809 0.500000
O O12 0.883442 0.251887 0.727611
O O13 0.130541 0.221099 0.714759
O O14 0.169606 0.661034 0.260547
O O15 0.211259 0.633775 0.000000
O O16 0.701347 0.797018 0.500000
#
# Coordination Sequence:
#
# PCOD8225279 Si02
#       6
#     8   8   8   8   8   8
#     4  10  21  38  57  78 111 148 181 221 272 325
#     4  10  19  33  56  81 105 138 179 223 268 313
#     4  11  22  35  56  83 109 140 181 225 267 317
#     4   9  18  34  53  75 104 136 173 216 264 316
#     4   9  18  33  54  78 104 138 178 218 260 316
#     4   9  18  33  54  75 101 137 172 213 263 315
#
# _framework density 17.969715999999998
#
# number of rings (size 3 to 8) (size 9 to 14) (size 15 to 20)
#    0.000    2.333    1.667    1.000    0.000    3.000 
#    3.000    0.000    0.000    0.000    0.000    0.000 
#    0.000    0.000    0.000    0.000    0.000    0.000 
#
# Total GULP energy -595340.282894 kJ/mol
# GULP energy per Si atom -12402.922560 kJ/mol
# Density = 1.792882 g / cm^3
# Si number density = 17.969716 Si / 1000 Ang^3
#
#
#
# Elastic Constant Matrix: (Units=GPa)
#
#
# Indices 1 2 3 4 5 6 
#
# 1 69.0782 65.2044 33.3913 0.0000 0.0000 0.0000
# 2 65.2044 158.7645 57.3883 0.0000 0.0000 0.0000
# 3 33.3913 57.3883 57.3358 0.0000 0.0000 0.0000
# 4 0.0000 0.0000 0.0000 32.7290 0.0000 0.0000
# 5 0.0000 0.0000 0.0000 0.0000 16.5483 0.0000
# 6 0.0000 0.0000 0.0000 0.0000 0.0000 35.3176
#
#
#
# Elastic Compliance Matrix: (Units=1/GPa)
#
#
# Indices 1 2 3 4 5 6 
#
# 1 0.025213 -0.007909 -0.006768 0.000000 0.000000 0.000000
# 2 -0.007909 0.012350 -0.007756 0.000000 0.000000 0.000000
# 3 -0.006768 -0.007756 0.029145 0.000000 0.000000 0.000000
# 4 0.000000 0.000000 0.000000 0.030554 0.000000 0.000000
# 5 0.000000 0.000000 0.000000 0.000000 0.060429 0.000000
# 6 0.000000 0.000000 0.000000 0.000000 0.000000 0.028314
#
#
# Mechanical properties :
#
#
# Convention : Reuss Voigt Hill
#
# Bulk Modulus (GPa) = 45.77828 66.34961 56.06395
# Shear Modulus (GPa) = 20.99511 25.53196 23.26354
#
# Velocity S-wave (km/s) = 3.42184 3.77348 3.60195
# Velocity P-wave (km/s) = 6.41424 7.48256 6.96890
#
# Compressibility (1/GPa) = 0.02184442
#
# Stress axis : x y z
#
# Youngs Moduli (GPa) = 39.66246 80.97120 34.31103
#
# Poissons Ratio (x) = 0.64037 0.23220
# Poissons Ratio (y) = 0.31367 0.26610
# Poissons Ratio (z) = 0.26842 0.62798
#
# Static dielectric constant tensor:
#      x y z
#    x 3.043310 0.000000 0.000000 
#    y 0.000000 3.377600 0.000000 
#    z 0.000000 0.000000 3.291960 
# 
# 
# High freq. dielectric constant tensor:
#      x y z
#    x 1.675130 0.000000 0.000000 
#    y 0.000000 1.706160 0.000000 
#    z 0.000000 0.000000 1.695850 
# 
# From -- ./inp_files/2851.got.cif
#   From: 2010.03.12/outbox.cif.g09.slc.cpg/sg55_2_cif.got.tgz:2851.got - 2010.04.16 15:19:21.
