data_PCOD8225324
_publ_section_title
;
Structure prediction by ZEFSAII (Michael W. Deem and Ramdas Pophale) SiO2 
 PCOD8225324
Probable space group: P B A M
;
_chemical_formula_sum "Si O2"
_cell_formula_units_Z 64
_cell_length_a 29.024684
_cell_length_b 12.793784
_cell_length_c 9.179167
_cell_angle_alpha 90.000000
_cell_angle_beta 90.000000
_cell_angle_gamma 90.000000
_cell_volume 3408.550914
_symmetry_space_group_name_H-M "P B A M"
_symmetry_group_IT_number 55
_symmetry_cell_setting 'orthorhombic'
loop_
_space_group_symop_operation_xyz
x,y,z
-x,-y,z
1/2+x,1/2-y,-z
1/2-x,1/2+y,-z
-x,-y,-z
x,y,-z
1/2-x,1/2+y,z
1/2+x,1/2-y,z
loop_
_atom_site_type_symbol
_atom_site_label
_atom_site_fract_x
_atom_site_fract_y
_atom_site_fract_z
Si Si1 0.396366 0.963864 0.172911
Si Si2 0.583668 0.392741 0.328507
Si Si3 0.211861 0.954189 0.338178
Si Si4 0.679384 0.316006 0.661628
Si Si5 0.702898 0.123312 0.829517
Si Si6 0.388451 0.387668 0.673069
Si Si7 0.928201 0.330916 0.328343
Si Si8 0.534343 0.191455 0.330128
O O1 0.345105 0.929427 0.218394
O O2 0.433012 0.881935 0.235614
O O3 0.403281 0.077670 0.241387
O O4 0.402815 0.969551 0.000000
O O5 0.590429 0.405278 0.500000
O O6 0.629092 0.335022 0.267887
O O7 0.581190 0.512286 0.267034
O O8 0.541170 0.315541 0.290399
O O9 0.222906 0.909633 0.500000
O O10 0.253787 0.939375 0.229613
O O11 0.164812 0.900758 0.278119
O O12 0.206969 0.077510 0.347710
O O13 0.675161 0.266167 0.500000
O O14 0.706886 0.239298 0.766350
O O15 0.707298 0.129092 0.000000
O O16 0.391520 0.385921 0.500000
O O17 0.408954 0.279363 0.733596
O O18 0.918501 0.343418 0.500000
O O19 0.982248 0.337731 0.294409
O O20 0.545888 0.172972 0.500000
#
# Coordination Sequence:
#
# PCOD8225324 Si02
#       8
#     8   8   8   8   8   8   8   8
#     4  11  24  39  53  73 107 149 188 227 273 323
#     4   8  14  28  54  82 108 135 169 217 265 314
#     4   9  19  35  57  82 107 140 180 219 271 332
#     4   9  17  33  56  78 103 137 175 220 268 319
#     4  11  23  36  53  79 107 139 182 230 276 323
#     4   8  16  33  54  81 114 142 172 216 272 330
#     4  10  21  35  55  83 114 145 179 222 270 325
#     4  10  19  33  57  86 109 138 181 227 273 319
#
# _framework density 18.776306000000002
#
# number of rings (size 3 to 8) (size 9 to 14) (size 15 to 20)
#    0.000    2.500    1.250    2.625    0.000    5.500 
#    0.000    6.875    0.000    1.500    0.000    1.750 
#    0.000    0.000    0.000    0.000    0.000    0.000 
#
# Total GULP energy -793254.816099 kJ/mol
# GULP energy per Si atom -12394.606502 kJ/mol
# Density = 1.873357 g / cm^3
# Si number density = 18.776306 Si / 1000 Ang^3
#
#
#
# Elastic Constant Matrix: (Units=GPa)
#
#
# Indices 1 2 3 4 5 6 
#
# 1 70.3953 41.0616 33.6340 0.0000 0.0000 0.0000
# 2 41.0616 118.5060 37.0117 0.0000 0.0000 0.0000
# 3 33.6340 37.0117 51.4366 0.0000 0.0000 0.0000
# 4 0.0000 0.0000 0.0000 -0.9177 0.0000 0.0000
# 5 0.0000 0.0000 0.0000 0.0000 20.9400 0.0000
# 6 0.0000 0.0000 0.0000 0.0000 0.0000 25.5488
#
#
#
# Elastic Compliance Matrix: (Units=1/GPa)
#
#
# Indices 1 2 3 4 5 6 
#
# 1 0.022071 -0.004050 -0.011518 0.000000 0.000000 0.000000
# 2 -0.004050 0.011628 -0.005718 0.000000 0.000000 0.000000
# 3 -0.011518 -0.005718 0.031087 0.000000 0.000000 0.000000
# 4 0.000000 0.000000 0.000000 -1.089729 0.000000 0.000000
# 5 0.000000 0.000000 0.000000 0.000000 0.047755 0.000000
# 6 0.000000 0.000000 0.000000 0.000000 0.000000 0.039141
#
#
# Mechanical properties :
#
#
# Convention : Reuss Voigt Hill
#
# Bulk Modulus (GPa) = 45.01758 51.52805 48.27282
# Shear Modulus (GPa) = -5.63019 17.68960 6.02970
#
# Velocity S-wave (km/s) = -1.73351 3.07273 1.79396
# Velocity P-wave (km/s) = 4.47449 6.33179 5.48236
#
# Compressibility (1/GPa) = 0.02221355
#
# Stress axis : x y z
#
# Youngs Moduli (GPa) = 45.30834 86.00098 32.16730
#
# Poissons Ratio (x) = 0.34833 0.37049
# Poissons Ratio (y) = 0.18351 0.18395
# Poissons Ratio (z) = 0.52184 0.49179
#
# Static dielectric constant tensor:
#      x y z
#    x 3.483050 0.000000 0.000000 
#    y 0.000000 3.709000 0.000000 
#    z 0.000000 0.000000 3.158970 
# 
# 
# High freq. dielectric constant tensor:
#      x y z
#    x 1.726940 0.000000 0.000000 
#    y 0.000000 1.741310 0.000000 
#    z 0.000000 0.000000 1.692000 
# 
# From -- ./inp_files/10790.got.cif
#   From: 2010.03.12/outbox.cif.g09.slc.cpg/sg55_6_cif.got.tgz:10790.got - 2010.04.16 15:19:21.
