data_PCOD8225428
_publ_section_title
;
Structure prediction by ZEFSAII (Michael W. Deem and Ramdas Pophale) SiO2 
 PCOD8225428
Probable space group: P B A M
;
_chemical_formula_sum "Si O2"
_cell_formula_units_Z 64
_cell_length_a 24.809151
_cell_length_b 14.383979
_cell_length_c 9.337125
_cell_angle_alpha 90.000000
_cell_angle_beta 90.000000
_cell_angle_gamma 90.000000
_cell_volume 3331.993271
_symmetry_space_group_name_H-M "P B A M"
_symmetry_group_IT_number 55
_symmetry_cell_setting 'orthorhombic'
loop_
_space_group_symop_operation_xyz
x,y,z
-x,-y,z
1/2+x,1/2-y,-z
1/2-x,1/2+y,-z
-x,-y,-z
x,y,-z
1/2-x,1/2+y,z
1/2+x,1/2-y,z
loop_
_atom_site_type_symbol
_atom_site_label
_atom_site_fract_x
_atom_site_fract_y
_atom_site_fract_z
Si Si1 0.002184 0.392692 0.669962
Si Si2 0.128752 0.083378 0.665859
Si Si3 0.554566 0.549806 0.831867
Si Si4 0.107553 0.288400 0.669450
Si Si5 0.247488 0.555004 0.336706
Si Si6 0.697736 0.791241 0.834006
Si Si7 0.775698 0.655803 0.332876
Si Si8 0.573623 0.758828 0.164948
O O1 0.997510 0.382976 0.500000
O O2 0.057441 0.347397 0.730547
O O3 0.000000 0.500000 0.717560
O O4 0.952315 0.338655 0.738698
O O5 0.116363 0.064008 0.500000
O O6 0.102782 0.180833 0.718324
O O7 0.192379 0.091112 0.692924
O O8 0.104831 0.998436 0.755041
O O9 0.500000 0.500000 0.780584
O O10 0.551347 0.657872 0.787980
O O11 0.564129 0.538833 0.000000
O O12 0.106836 0.293716 0.500000
O O13 0.163252 0.333204 0.724772
O O14 0.230236 0.574684 0.500000
O O15 0.205847 0.606695 0.232657
O O16 0.244422 0.447032 0.301889
O O17 0.736966 0.721736 0.754223
O O18 0.637146 0.758470 0.808551
O O19 0.712901 0.793819 0.000000
O O20 0.771931 0.682966 0.500000
O O21 0.559545 0.779414 0.000000
#
# Coordination Sequence:
#
# PCOD8225428 Si02
#       8
#     8   8   8   8   8   8   8   8
#     4  10  22  38  60  88 113 148 200 247 288 338
#     4  10  19  34  56  84 115 144 182 232 289 345
#     4  10  21  37  58  83 112 148 191 234 281 341
#     4   9  18  35  56  82 117 146 180 242 295 334
#     4  10  21  36  59  86 112 151 195 238 292 351
#     4  11  23  38  57  84 121 157 192 238 290 350
#     4  10  20  37  61  85 115 152 192 242 295 347
#     4  10  23  41  57  80 118 157 190 236 291 343
#
# _framework density 19.207720999999999
#
# number of rings (size 3 to 8) (size 9 to 14) (size 15 to 20)
#    0.000    2.000    1.250    1.875    1.750    3.000 
#    0.000    0.625    0.000    0.000    0.000    0.000 
#    0.000    0.000    0.000    0.000    0.000    0.000 
#
# Total GULP energy -793817.715766 kJ/mol
# GULP energy per Si atom -12403.401809 kJ/mol
# Density = 1.916400 g / cm^3
# Si number density = 19.207721 Si / 1000 Ang^3
#
#
#
# Elastic Constant Matrix: (Units=GPa)
#
#
# Indices 1 2 3 4 5 6 
#
# 1 77.6944 43.4277 37.6650 0.0000 0.0000 0.0000
# 2 43.4277 114.4967 45.1577 0.0000 0.0000 0.0000
# 3 37.6650 45.1577 57.3252 0.0000 0.0000 0.0000
# 4 0.0000 0.0000 0.0000 27.0892 0.0000 0.0000
# 5 0.0000 0.0000 0.0000 0.0000 26.2516 0.0000
# 6 0.0000 0.0000 0.0000 0.0000 0.0000 40.7277
#
#
#
# Elastic Compliance Matrix: (Units=1/GPa)
#
#
# Indices 1 2 3 4 5 6 
#
# 1 0.019783 -0.003448 -0.010282 0.000000 0.000000 0.000000
# 2 -0.003448 0.013272 -0.008189 0.000000 0.000000 0.000000
# 3 -0.010282 -0.008189 0.030651 0.000000 0.000000 0.000000
# 4 0.000000 0.000000 0.000000 0.036915 0.000000 0.000000
# 5 0.000000 0.000000 0.000000 0.000000 0.038093 0.000000
# 6 0.000000 0.000000 0.000000 0.000000 0.000000 0.024553
#
#
# Mechanical properties :
#
#
# Convention : Reuss Voigt Hill
#
# Bulk Modulus (GPa) = 50.33455 55.77968 53.05711
# Shear Modulus (GPa) = 23.39438 27.03143 25.21290
#
# Velocity S-wave (km/s) = 3.49372 3.75550 3.62697
# Velocity P-wave (km/s) = 6.52205 6.92158 6.72478
#
# Compressibility (1/GPa) = 0.01986707
#
# Stress axis : x y z
#
# Youngs Moduli (GPa) = 50.54887 75.34933 32.62572
#
# Poissons Ratio (x) = 0.25983 0.33545
# Poissons Ratio (y) = 0.17431 0.26717
# Poissons Ratio (z) = 0.51973 0.61703
#
# Static dielectric constant tensor:
#      x y z
#    x 3.677910 0.000000 0.000000 
#    y 0.000000 3.717890 0.000000 
#    z 0.000000 0.000000 3.423030 
# 
# 
# High freq. dielectric constant tensor:
#      x y z
#    x 1.754210 0.000000 0.000000 
#    y 0.000000 1.762070 0.000000 
#    z 0.000000 0.000000 1.725300 
# 
# From -- ./inp_files/9767.got.cif
#   From: 2010.03.12/outbox.cif.g09.slc.cpg/sg55_5_cif.got.tgz:9767.got - 2010.04.16 15:19:21.
