data_PCOD8225434
_publ_section_title
;
Structure prediction by ZEFSAII (Michael W. Deem and Ramdas Pophale) SiO2 
 PCOD8225434
Probable space group: P B A M
;
_chemical_formula_sum "Si O2"
_cell_formula_units_Z 48
_cell_length_a 10.567352
_cell_length_b 16.531197
_cell_length_c 14.842695
_cell_angle_alpha 90.000000
_cell_angle_beta 90.000000
_cell_angle_gamma 90.000000
_cell_volume 2592.884901
_symmetry_space_group_name_H-M "P B A M"
_symmetry_group_IT_number 55
_symmetry_cell_setting 'orthorhombic'
loop_
_space_group_symop_operation_xyz
x,y,z
-x,-y,z
1/2+x,1/2-y,-z
1/2-x,1/2+y,-z
-x,-y,-z
x,y,-z
1/2-x,1/2+y,z
1/2+x,1/2-y,z
loop_
_atom_site_type_symbol
_atom_site_label
_atom_site_fract_x
_atom_site_fract_y
_atom_site_fract_z
Si Si1 0.074610 0.113506 0.188804
Si Si2 0.344676 0.451211 0.736498
Si Si3 0.380653 0.942180 0.000000
Si Si4 0.664267 0.684958 0.606102
Si Si5 0.921945 0.581670 0.191907
Si Si6 0.870283 0.951136 0.000000
Si Si7 0.429195 0.767085 0.697403
O O1 0.136410 0.103981 0.090069
O O2 0.107886 0.200705 0.227600
O O3 0.922831 0.097910 0.185468
O O4 0.119535 0.045921 0.262512
O O5 0.367116 0.405849 0.641005
O O6 0.200263 0.445669 0.756635
O O7 0.390274 0.887870 0.909813
O O8 0.500000 0.000000 0.000000
O O9 0.250209 0.991500 0.000000
O O10 0.674586 0.683162 0.500000
O O11 0.545736 0.741812 0.633744
O O12 0.799256 0.716399 0.643698
O O13 0.982496 0.654901 0.248280
O O14 0.000000 0.500000 0.189267
O O15 0.000000 0.000000 0.000000
#
# Coordination Sequence:
#
# PCOD8225434 Si02
#       7
#     8   8   4   8   8   4   8
#     4  10  19  34  56  86 112 147 194 231 280 324
#     4   9  18  35  56  80 109 145 186 234 284 335
#     4  10  20  31  50  79 112 149 190 225 265 321
#     4  10  21  40  60  83 112 144 187 238 291 347
#     4  10  20  35  55  78 115 156 189 223 280 338
#     4  12  18  31  60  81 111 152 194 227 261 335
#     4  10  23  36  60  84 115 149 184 238 290 338
#
# _framework density 18.512198999999999
#
# number of rings (size 3 to 8) (size 9 to 14) (size 15 to 20)
#    0.000    2.000    3.333    0.500    2.333    0.667 
#    0.000    7.500    0.000    6.500    0.000    0.000 
#    0.000    0.000    0.000    0.000    0.000    0.000 
#
# Total GULP energy -594630.897152 kJ/mol
# GULP energy per Si atom -12388.143691 kJ/mol
# Density = 1.847006 g / cm^3
# Si number density = 18.512199 Si / 1000 Ang^3
#
#
#
# Elastic Constant Matrix: (Units=GPa)
#
#
# Indices 1 2 3 4 5 6 
#
# 1 82.0493 28.2637 38.5949 0.0000 0.0000 0.0000
# 2 28.2637 110.8046 66.1367 0.0000 0.0000 0.0000
# 3 38.5949 66.1367 140.0178 0.0000 0.0000 0.0000
# 4 0.0000 0.0000 0.0000 24.8981 0.0000 0.0000
# 5 0.0000 0.0000 0.0000 0.0000 20.3694 0.0000
# 6 0.0000 0.0000 0.0000 0.0000 0.0000 18.5443
#
#
#
# Elastic Compliance Matrix: (Units=1/GPa)
#
#
# Indices 1 2 3 4 5 6 
#
# 1 0.014256 -0.001798 -0.003080 0.000000 0.000000 0.000000
# 2 -0.001798 0.012795 -0.005548 0.000000 0.000000 0.000000
# 3 -0.003080 -0.005548 0.010612 0.000000 0.000000 0.000000
# 4 0.000000 0.000000 0.000000 0.040164 0.000000 0.000000
# 5 0.000000 0.000000 0.000000 0.000000 0.049093 0.000000
# 6 0.000000 0.000000 0.000000 0.000000 0.000000 0.053925
#
#
# Mechanical properties :
#
#
# Convention : Reuss Voigt Hill
#
# Bulk Modulus (GPa) = 59.48787 66.54023 63.01405
# Shear Modulus (GPa) = 24.11956 26.08745 25.10350
#
# Velocity S-wave (km/s) = 3.61349 3.75801 3.68646
# Velocity P-wave (km/s) = 7.04371 7.40623 7.22724
#
# Compressibility (1/GPa) = 0.01681015
#
# Stress axis : x y z
#
# Youngs Moduli (GPa) = 70.14557 78.15550 94.23593
#
# Poissons Ratio (x) = 0.14051 0.29029
# Poissons Ratio (y) = 0.12611 0.52283
# Poissons Ratio (z) = 0.21608 0.43362
#
# Static dielectric constant tensor:
#      x y z
#    x 3.618330 0.000000 0.000000 
#    y 0.000000 3.905180 0.000000 
#    z 0.000000 0.000000 3.634560 
# 
# 
# High freq. dielectric constant tensor:
#      x y z
#    x 1.733840 0.000000 0.000000 
#    y 0.000000 1.702790 0.000000 
#    z 0.000000 0.000000 1.711800 
# 
# From -- ./inp_files/18304.got.cif
#   From: 2010.03.12/outbox.cif.g09.slc.cpg/sg55_10_cif.got.tgz:18304.got - 2010.04.16 15:19:21.
