data_PCOD8225932
_publ_section_title
;
Structure prediction by ZEFSAII (Michael W. Deem and Ramdas Pophale) SiO2 
 PCOD8225932
Probable space group: P B A M
;
_chemical_formula_sum "Si O2"
_cell_formula_units_Z 64
_cell_length_a 23.701335
_cell_length_b 15.744087
_cell_length_c 8.487187
_cell_angle_alpha 90.000000
_cell_angle_beta 90.000000
_cell_angle_gamma 90.000000
_cell_volume 3167.043736
_symmetry_space_group_name_H-M "P B A M"
_symmetry_group_IT_number 55
_symmetry_cell_setting 'orthorhombic'
loop_
_space_group_symop_operation_xyz
x,y,z
-x,-y,z
1/2+x,1/2-y,-z
1/2-x,1/2+y,-z
-x,-y,-z
x,y,-z
1/2-x,1/2+y,z
1/2+x,1/2-y,z
loop_
_atom_site_type_symbol
_atom_site_label
_atom_site_fract_x
_atom_site_fract_y
_atom_site_fract_z
Si Si1 0.188033 0.683095 0.813123
Si Si2 0.070342 0.750565 0.812682
Si Si3 0.128556 0.359263 0.811822
Si Si4 0.660912 0.487894 0.814042
Si Si5 0.713321 0.003264 0.813026
Si Si6 0.688581 0.302609 0.812982
Si Si7 0.506911 0.095514 0.812445
Si Si8 0.452013 0.433754 0.315218
O O1 0.134772 0.737760 0.748813
O O2 0.190254 0.586567 0.747751
O O3 0.247889 0.722520 0.757764
O O4 0.182062 0.681677 0.000000
O O5 0.041705 0.837568 0.750712
O O6 0.037799 0.665718 0.752231
O O7 0.067922 0.756123 0.000000
O O8 0.172391 0.426462 0.740091
O O9 0.146114 0.267402 0.748517
O O10 0.066889 0.375331 0.746033
O O11 0.130108 0.363218 0.000000
O O12 0.722034 0.526928 0.768222
O O13 0.664475 0.391475 0.750957
O O14 0.610593 0.534610 0.725399
O O15 0.649106 0.494996 0.000000
O O16 0.709694 0.999685 0.000000
O O17 0.690521 0.308695 0.000000
O O18 0.500000 0.000000 0.744876
O O19 0.504719 0.092290 0.000000
O O20 0.500000 0.500000 0.247822
O O21 0.459722 0.428014 0.500000
#
# Coordination Sequence:
#
# PCOD8225932 Si02
#       8
#     8   8   8   8   8   8   8   8
#     4   8  14  26  43  71 108 135 160 202 259 311
#     4  10  20  33  57  85 108 138 181 227 262 307
#     4   9  15  22  38  66 106 141 162 193 249 312
#     4   9  18  33  55  80 103 130 173 221 262 309
#     4   8  14  25  45  78 114 141 160 197 258 320
#     4   8  15  25  42  72 107 133 158 205 261 309
#     4   9  17  28  44  75 115 145 167 204 261 314
#     4  11  26  43  55  70 100 143 184 227 280 328
#
# _framework density 20.208120999999998
#
# number of rings (size 3 to 8) (size 9 to 14) (size 15 to 20)
#    0.000    3.000    0.000    2.625    3.500    4.000 
#    0.000    0.000    0.000    3.375    0.000    0.875 
#    0.000    0.000    0.000    0.000    0.000    0.000 
#
# Total GULP energy -792843.844805 kJ/mol
# GULP energy per Si atom -12388.185075 kJ/mol
# Density = 2.016213 g / cm^3
# Si number density = 20.208121 Si / 1000 Ang^3
#
#
#
# Elastic Constant Matrix: (Units=GPa)
#
#
# Indices 1 2 3 4 5 6 
#
# 1 137.2596 74.8340 11.5260 0.0000 0.0000 0.0000
# 2 74.8340 138.2945 12.8237 0.0000 0.0000 0.0000
# 3 11.5260 12.8237 16.6031 0.0000 0.0000 0.0000
# 4 0.0000 0.0000 0.0000 5.6227 0.0000 0.0000
# 5 0.0000 0.0000 0.0000 0.0000 5.4654 0.0000
# 6 0.0000 0.0000 0.0000 0.0000 0.0000 43.5275
#
#
#
# Elastic Compliance Matrix: (Units=1/GPa)
#
#
# Indices 1 2 3 4 5 6 
#
# 1 0.010482 -0.005383 -0.003119 0.000000 0.000000 0.000000
# 2 -0.005383 0.010553 -0.004414 0.000000 0.000000 0.000000
# 3 -0.003119 -0.004414 0.065804 0.000000 0.000000 0.000000
# 4 0.000000 0.000000 0.000000 0.177851 0.000000 0.000000
# 5 0.000000 0.000000 0.000000 0.000000 0.182968 0.000000
# 6 0.000000 0.000000 0.000000 0.000000 0.000000 0.022974
#
#
# Mechanical properties :
#
#
# Convention : Reuss Voigt Hill
#
# Bulk Modulus (GPa) = 16.39150 54.50275 35.44712
# Shear Modulus (GPa) = 9.67493 23.78803 16.73148
#
# Velocity S-wave (km/s) = 2.19044 3.43469 2.88055
# Velocity P-wave (km/s) = 3.81134 6.53901 5.35187
#
# Compressibility (1/GPa) = 0.06100723
#
# Stress axis : x y z
#
# Youngs Moduli (GPa) = 95.40043 94.75956 15.19660
#
# Poissons Ratio (x) = 0.51008 0.04740
# Poissons Ratio (y) = 0.51353 0.06708
# Poissons Ratio (z) = 0.29757 0.41827
#
# Static dielectric constant tensor:
#      x y z
#    x 3.991660 0.000000 0.000000 
#    y 0.000000 4.038550 0.000000 
#    z 0.000000 0.000000 2.858300 
# 
# 
# High freq. dielectric constant tensor:
#      x y z
#    x 1.803210 0.000000 0.000000 
#    y 0.000000 1.800830 0.000000 
#    z 0.000000 0.000000 1.706300 
# 
# From -- ./inp_files/9630.got.cif
#   From: 2010.03.12/outbox.cif.g09.slc.cpg/sg55_5_cif.got.tgz:9630.got - 2010.04.16 15:19:21.
