data_PCOD8225244
_publ_section_title
;
Structure prediction by ZEFSAII (Michael W. Deem and Ramdas Pophale) SiO2 
 PCOD8225244
Probable space group: P B A M
;
_chemical_formula_sum "Si O2"
_cell_formula_units_Z 56
_cell_length_a 19.729732
_cell_length_b 16.661072
_cell_length_c 9.124724
_cell_angle_alpha 90.000000
_cell_angle_beta 90.000000
_cell_angle_gamma 90.000000
_cell_volume 2999.465453
_symmetry_space_group_name_H-M "P B A M"
_symmetry_group_IT_number 55
_symmetry_cell_setting 'orthorhombic'
loop_
_space_group_symop_operation_xyz
x,y,z
-x,-y,z
1/2+x,1/2-y,-z
1/2-x,1/2+y,-z
-x,-y,-z
x,y,-z
1/2-x,1/2+y,z
1/2+x,1/2-y,z
loop_
_atom_site_type_symbol
_atom_site_label
_atom_site_fract_x
_atom_site_fract_y
_atom_site_fract_z
Si Si1 0.237799 0.270224 0.666736
Si Si2 0.190694 0.421379 0.171703
Si Si3 0.056618 0.436478 0.326537
Si Si4 0.479852 0.760053 0.673461
Si Si5 0.661750 0.522975 0.171984
Si Si6 0.635907 0.362006 0.668914
Si Si7 0.115376 0.821930 0.670786
O O1 0.223417 0.298995 0.500000
O O2 0.198510 0.330313 0.773344
O O3 0.208625 0.181113 0.690519
O O4 0.317765 0.268517 0.700168
O O5 0.127340 0.462862 0.252324
O O6 0.258755 0.470238 0.212286
O O7 0.177045 0.420397 0.000000
O O8 0.067212 0.436498 0.500000
O O9 0.000000 0.500000 0.278253
O O10 0.034746 0.349029 0.265104
O O11 0.481218 0.765796 0.500000
O O12 0.422086 0.698490 0.724948
O O13 0.552219 0.728890 0.732475
O O14 0.632454 0.440244 0.232054
O O15 0.619294 0.594455 0.244261
O O16 0.649857 0.527384 0.000000
O O17 0.624433 0.386517 0.500000
O O18 0.106331 0.842120 0.500000
#
# Coordination Sequence:
#
# PCOD8225244 Si02
#       7
#     8   8   8   8   8   8   8
#     4   9  17  32  56  80 102 135 182 227 264 320
#     4  10  20  35  54  75 106 144 178 220 272 322
#     4  10  20  35  58  85 113 144 179 225 275 326
#     4   9  18  34  54  81 112 139 175 224 275 325
#     4  10  22  37  52  77 110 142 184 231 270 316
#     4  10  19  33  55  79 107 142 182 226 272 324
#     4   9  18  34  56  78 106 143 180 221 272 323
#
# _framework density 18.669993999999999
#
# number of rings (size 3 to 8) (size 9 to 14) (size 15 to 20)
#    0.000    2.429    1.429    0.857    0.000    4.286 
#    0.000    7.143    0.000    0.000    0.000    0.000 
#    0.000    0.000    0.000    0.000    0.000    0.000 
#
# Total GULP energy -694464.108154 kJ/mol
# GULP energy per Si atom -12401.144788 kJ/mol
# Density = 1.862750 g / cm^3
# Si number density = 18.669994 Si / 1000 Ang^3
#
#
#
# Elastic Constant Matrix: (Units=GPa)
#
#
# Indices 1 2 3 4 5 6 
#
# 1 115.3321 56.5621 29.8325 0.0000 0.0000 0.0000
# 2 56.5621 100.5742 29.0530 0.0000 0.0000 0.0000
# 3 29.8325 29.0530 45.9623 0.0000 0.0000 0.0000
# 4 0.0000 0.0000 0.0000 9.2684 0.0000 0.0000
# 5 0.0000 0.0000 0.0000 0.0000 22.5700 0.0000
# 6 0.0000 0.0000 0.0000 0.0000 0.0000 27.9902
#
#
#
# Elastic Compliance Matrix: (Units=1/GPa)
#
#
# Indices 1 2 3 4 5 6 
#
# 1 0.012710 -0.005830 -0.004565 0.000000 0.000000 0.000000
# 2 -0.005830 0.014838 -0.005595 0.000000 0.000000 0.000000
# 3 -0.004565 -0.005595 0.028257 0.000000 0.000000 0.000000
# 4 0.000000 0.000000 0.000000 0.107894 0.000000 0.000000
# 5 0.000000 0.000000 0.000000 0.000000 0.044307 0.000000
# 6 0.000000 0.000000 0.000000 0.000000 0.000000 0.035727
#
#
# Mechanical properties :
#
#
# Convention : Reuss Voigt Hill
#
# Bulk Modulus (GPa) = 41.97225 54.75153 48.36189
# Shear Modulus (GPa) = 17.62716 21.72711 19.67714
#
# Velocity S-wave (km/s) = 3.07603 3.41507 3.24997
# Velocity P-wave (km/s) = 5.92839 6.70372 6.32794
#
# Compressibility (1/GPa) = 0.02382527
#
# Stress axis : x y z
#
# Youngs Moduli (GPa) = 78.67586 67.39600 35.38985
#
# Poissons Ratio (x) = 0.39289 0.16155
# Poissons Ratio (y) = 0.45864 0.19801
# Poissons Ratio (z) = 0.35916 0.37710
#
# Static dielectric constant tensor:
#      x y z
#    x 3.648860 0.000000 0.000000 
#    y 0.000000 3.334420 0.000000 
#    z 0.000000 0.000000 3.203410 
# 
# 
# High freq. dielectric constant tensor:
#      x y z
#    x 1.734300 0.000000 0.000000 
#    y 0.000000 1.715460 0.000000 
#    z 0.000000 0.000000 1.702100 
# 
# From -- ./inp_files/6117.got.cif
#   From: 2010.03.12/outbox.cif.g09.slc.cpg/sg55_4_cif.got.tgz:6117.got - 2010.04.16 15:19:21.
