data_PCOD8225066
_publ_section_title
;
Structure prediction by ZEFSAII (Michael W. Deem and Ramdas Pophale) SiO2 
 PCOD8225066
Probable space group: P B A M
;
_chemical_formula_sum "Si O2"
_cell_formula_units_Z 56
_cell_length_a 14.161751
_cell_length_b 24.754699
_cell_length_c 9.217285
_cell_angle_alpha 90.000000
_cell_angle_beta 90.000000
_cell_angle_gamma 90.000000
_cell_volume 3231.302527
_symmetry_space_group_name_H-M "P B A M"
_symmetry_group_IT_number 55
_symmetry_cell_setting 'orthorhombic'
loop_
_space_group_symop_operation_xyz
x,y,z
-x,-y,z
1/2+x,1/2-y,-z
1/2-x,1/2+y,-z
-x,-y,-z
x,y,-z
1/2-x,1/2+y,z
1/2+x,1/2-y,z
loop_
_atom_site_type_symbol
_atom_site_label
_atom_site_fract_x
_atom_site_fract_y
_atom_site_fract_z
Si Si1 0.831425 0.317381 0.666000
Si Si2 0.982402 0.833611 0.165436
Si Si3 0.390010 0.497370 0.171581
Si Si4 0.528009 0.226909 0.333943
Si Si5 0.706534 0.392284 0.836592
Si Si6 0.863035 0.107830 0.672984
Si Si7 0.261114 0.792745 0.329411
O O1 0.799677 0.321972 0.500000
O O2 0.795274 0.371430 0.744467
O O3 0.786030 0.262215 0.733428
O O4 0.945284 0.317367 0.681591
O O5 0.034492 0.877757 0.263651
O O6 0.001901 0.774991 0.229197
O O7 0.871739 0.845570 0.173050
O O8 0.019320 0.837115 0.000000
O O9 0.500000 0.500000 0.216633
O O10 0.336865 0.551786 0.221667
O O11 0.336123 0.449809 0.257956
O O12 0.381300 0.487789 0.000000
O O13 0.532978 0.248428 0.500000
O O14 0.628637 0.202438 0.286471
O O15 0.742015 0.400396 0.000000
O O16 0.865920 0.103509 0.500000
O O17 0.790263 0.153642 0.730566
O O18 0.245712 0.791959 0.500000
#
# Coordination Sequence:
#
# PCOD8225066 Si02
#       7
#     8   8   8   8   8   8   8
#     4  10  19  32  53  77 102 135 172 210 255 304
#     4  11  20  31  49  76 107 140 171 206 252 307
#     4  10  20  37  54  73 105 139 170 210 263 310
#     4  10  19  34  52  74 106 141 170 207 259 305
#     4  10  21  35  51  73 106 140 169 207 257 306
#     4  11  21  34  52  78 107 137 175 212 254 306
#     4   9  18  32  51  76 106 135 166 211 258 302
#
# _framework density 17.330473999999999
#
# number of rings (size 3 to 8) (size 9 to 14) (size 15 to 20)
#    0.000    1.857    4.286    0.857    0.000    2.000 
#    0.000    1.429    0.000    0.857    0.000    6.000 
#    0.000    0.000    0.000    0.000    0.000    0.000 
#
# Total GULP energy -694307.830380 kJ/mol
# GULP energy per Si atom -12398.354114 kJ/mol
# Density = 1.729103 g / cm^3
# Si number density = 17.330474 Si / 1000 Ang^3
#
#
#
# Elastic Constant Matrix: (Units=GPa)
#
#
# Indices 1 2 3 4 5 6 
#
# 1 80.3234 28.2155 21.3333 0.0000 0.0000 0.0000
# 2 28.2155 92.3511 33.8083 0.0000 0.0000 0.0000
# 3 21.3333 33.8083 52.2533 0.0000 0.0000 0.0000
# 4 0.0000 0.0000 0.0000 30.9706 0.0000 0.0000
# 5 0.0000 0.0000 0.0000 0.0000 20.5127 0.0000
# 6 0.0000 0.0000 0.0000 0.0000 0.0000 30.4274
#
#
#
# Elastic Compliance Matrix: (Units=1/GPa)
#
#
# Indices 1 2 3 4 5 6 
#
# 1 0.014563 -0.002978 -0.004019 0.000000 0.000000 0.000000
# 2 -0.002978 0.014798 -0.008359 0.000000 0.000000 0.000000
# 3 -0.004019 -0.008359 0.026186 0.000000 0.000000 0.000000
# 4 0.000000 0.000000 0.000000 0.032289 0.000000 0.000000
# 5 0.000000 0.000000 0.000000 0.000000 0.048750 0.000000
# 6 0.000000 0.000000 0.000000 0.000000 0.000000 0.032865
#
#
# Mechanical properties :
#
#
# Convention : Reuss Voigt Hill
#
# Bulk Modulus (GPa) = 40.26324 43.51577 41.88950
# Shear Modulus (GPa) = 23.98753 25.82019 24.90386
#
# Velocity S-wave (km/s) = 3.72442 3.86407 3.79489
# Velocity P-wave (km/s) = 6.46360 6.71357 6.58977
#
# Compressibility (1/GPa) = 0.02483655
#
# Stress axis : x y z
#
# Youngs Moduli (GPa) = 68.66629 67.57622 38.18781
#
# Poissons Ratio (x) = 0.20126 0.15347
# Poissons Ratio (y) = 0.20450 0.31920
# Poissons Ratio (z) = 0.27595 0.56484
#
# Static dielectric constant tensor:
#      x y z
#    x 3.208760 0.000000 0.000000 
#    y 0.000000 3.219910 0.000000 
#    z 0.000000 0.000000 3.103110 
# 
# 
# High freq. dielectric constant tensor:
#      x y z
#    x 1.655800 0.000000 0.000000 
#    y 0.000000 1.657090 0.000000 
#    z 0.000000 0.000000 1.657240 
# 
# From -- ./inp_files/6129.got.cif
#   From: 2010.03.12/outbox.cif.g09.slc.cpg/sg55_4_cif.got.tgz:6129.got - 2010.04.16 15:19:21.
