data_PCOD8225360
_publ_section_title
;
Structure prediction by ZEFSAII (Michael W. Deem and Ramdas Pophale) SiO2 
 PCOD8225360
Probable space group: P B A M
;
_chemical_formula_sum "Si O2"
_cell_formula_units_Z 64
_cell_length_a 21.655125
_cell_length_b 12.652766
_cell_length_c 13.099813
_cell_angle_alpha 90.000000
_cell_angle_beta 90.000000
_cell_angle_gamma 90.000000
_cell_volume 3589.312467
_symmetry_space_group_name_H-M "P B A M"
_symmetry_group_IT_number 55
_symmetry_cell_setting 'orthorhombic'
loop_
_space_group_symop_operation_xyz
x,y,z
-x,-y,z
1/2+x,1/2-y,-z
1/2-x,1/2+y,-z
-x,-y,-z
x,y,-z
1/2-x,1/2+y,z
1/2+x,1/2-y,z
loop_
_atom_site_type_symbol
_atom_site_label
_atom_site_fract_x
_atom_site_fract_y
_atom_site_fract_z
Si Si1 0.639139 0.967098 0.384368
Si Si2 0.755876 0.421824 0.238468
Si Si3 0.841796 0.044689 0.113336
Si Si4 0.060897 0.331145 0.617858
Si Si5 0.149612 0.710908 0.113249
Si Si6 0.070433 0.965099 0.708276
Si Si7 0.932090 0.279629 0.298175
Si Si8 0.349172 0.641147 0.383589
O O1 0.662183 0.982364 0.500000
O O2 0.697015 0.986429 0.310302
O O3 0.610760 0.849862 0.372238
O O4 0.586844 0.052919 0.357692
O O5 0.719052 0.502982 0.168719
O O6 0.791867 0.344285 0.163890
O O7 0.710048 0.355548 0.310637
O O8 0.831760 0.168288 0.105053
O O9 0.903216 0.016607 0.177634
O O10 0.849180 0.994894 0.000000
O O11 0.039677 0.321536 0.500000
O O12 0.111854 0.244363 0.644793
O O13 0.003048 0.311805 0.691136
O O14 0.087954 0.696753 0.181342
O O15 0.136534 0.664402 0.000000
O O16 0.077627 0.843393 0.673441
O O17 0.109515 0.036004 0.630000
O O18 0.000000 0.000000 0.706484
O O19 0.326197 0.645399 0.500000
#
# Coordination Sequence:
#
# PCOD8225360 Si02
#       8
#     8   8   8   8   8   8   8   8
#     4  10  21  35  53  80 107 142 182 215 257 311
#     4  10  20  34  56  75 105 139 175 219 260 316
#     4   9  19  34  53  77 102 132 172 217 267 317
#     4  10  20  34  54  77 107 140 175 215 259 310
#     4   9  19  35  56  78 102 136 174 218 267 315
#     4  10  19  34  53  77 105 137 175 217 266 316
#     4  10  19  34  56  78 105 140 175 217 262 319
#     4  10  21  34  51  78 109 142 173 216 265 310
#
# _framework density 17.830714
#
# number of rings (size 3 to 8) (size 9 to 14) (size 15 to 20)
#    0.000    2.250    1.250    1.500    1.750    2.500 
#    0.000    0.000    0.000    6.750    0.000    0.000 
#    0.000    0.000    0.000    0.000    0.000    0.000 
#
# Total GULP energy -793623.694496 kJ/mol
# GULP energy per Si atom -12400.370227 kJ/mol
# Density = 1.779013 g / cm^3
# Si number density = 17.830714 Si / 1000 Ang^3
#
#
#
# Elastic Constant Matrix: (Units=GPa)
#
#
# Indices 1 2 3 4 5 6 
#
# 1 97.0002 34.4903 54.4372 0.0000 0.0000 0.0000
# 2 34.4903 82.4403 32.5445 0.0000 0.0000 0.0000
# 3 54.4372 32.5445 104.8652 0.0000 0.0000 0.0000
# 4 0.0000 0.0000 0.0000 22.5046 0.0000 0.0000
# 5 0.0000 0.0000 0.0000 0.0000 24.7073 0.0000
# 6 0.0000 0.0000 0.0000 0.0000 0.0000 26.5286
#
#
#
# Elastic Compliance Matrix: (Units=1/GPa)
#
#
# Indices 1 2 3 4 5 6 
#
# 1 0.015513 -0.003773 -0.006882 0.000000 0.000000 0.000000
# 2 -0.003773 0.014741 -0.002616 0.000000 0.000000 0.000000
# 3 -0.006882 -0.002616 0.013921 0.000000 0.000000 0.000000
# 4 0.000000 0.000000 0.000000 0.044435 0.000000 0.000000
# 5 0.000000 0.000000 0.000000 0.000000 0.040474 0.000000
# 6 0.000000 0.000000 0.000000 0.000000 0.000000 0.037695
#
#
# Mechanical properties :
#
#
# Convention : Reuss Voigt Hill
#
# Bulk Modulus (GPa) = 56.71516 58.58329 57.64923
# Shear Modulus (GPa) = 25.10037 25.60368 25.35202
#
# Velocity S-wave (km/s) = 3.75601 3.79348 3.77479
# Velocity P-wave (km/s) = 7.11946 7.21900 7.16940
#
# Compressibility (1/GPa) = 0.01763197
#
# Stress axis : x y z
#
# Youngs Moduli (GPa) = 64.46093 67.83610 71.83623
#
# Poissons Ratio (x) = 0.25598 0.49439
# Poissons Ratio (y) = 0.24324 0.18793
# Poissons Ratio (z) = 0.44363 0.17746
#
# Static dielectric constant tensor:
#      x y z
#    x 3.268710 0.000000 0.000000 
#    y 0.000000 3.357090 0.000000 
#    z 0.000000 0.000000 3.482740 
# 
# 
# High freq. dielectric constant tensor:
#      x y z
#    x 1.691150 0.000000 0.000000 
#    y 0.000000 1.690770 0.000000 
#    z 0.000000 0.000000 1.688810 
# 
# From -- ./inp_files/15786.got.cif
#   From: 2010.03.12/outbox.cif.g09.slc.cpg/sg55_8_cif.got.tgz:15786.got - 2010.04.16 15:19:21.
