data_PCOD8225336
_publ_section_title
;
Structure prediction by ZEFSAII (Michael W. Deem and Ramdas Pophale) SiO2 
 PCOD8225336
Probable space group: P B A M
;
_chemical_formula_sum "Si O2"
_cell_formula_units_Z 64
_cell_length_a 28.879268
_cell_length_b 12.776129
_cell_length_c 9.155598
_cell_angle_alpha 90.000000
_cell_angle_beta 90.000000
_cell_angle_gamma 90.000000
_cell_volume 3378.097536
_symmetry_space_group_name_H-M "P B A M"
_symmetry_group_IT_number 55
_symmetry_cell_setting 'orthorhombic'
loop_
_space_group_symop_operation_xyz
x,y,z
-x,-y,z
1/2+x,1/2-y,-z
1/2-x,1/2+y,-z
-x,-y,-z
x,y,-z
1/2-x,1/2+y,z
1/2+x,1/2-y,z
loop_
_atom_site_type_symbol
_atom_site_label
_atom_site_fract_x
_atom_site_fract_y
_atom_site_fract_z
Si Si1 0.699196 0.137363 0.665651
Si Si2 0.537205 0.218562 0.667541
Si Si3 0.386055 0.378433 0.825847
Si Si4 0.681278 0.339798 0.835124
Si Si5 0.299472 0.457280 0.667525
Si Si6 0.922238 0.899576 0.163761
Si Si7 0.603516 0.038389 0.670533
Si Si8 0.569232 0.816444 0.669158
O O1 0.692268 0.179353 0.500000
O O2 0.700164 0.230139 0.780484
O O3 0.747356 0.080079 0.683784
O O4 0.657430 0.058276 0.704764
O O5 0.550316 0.236970 0.500000
O O6 0.541596 0.332625 0.742191
O O7 0.571733 0.131580 0.737830
O O8 0.485661 0.176446 0.687684
O O9 0.334502 0.384310 0.758785
O O10 0.415201 0.481782 0.777424
O O11 0.411407 0.276817 0.767018
O O12 0.381166 0.375067 0.000000
O O13 0.701690 0.426256 0.728565
O O14 0.626031 0.338352 0.828884
O O15 0.698583 0.360435 0.000000
O O16 0.315916 0.457261 0.500000
O O17 0.941895 0.904014 0.000000
O O18 0.592252 0.034378 0.500000
O O19 0.590108 0.924478 0.733646
O O20 0.583149 0.797615 0.500000
#
# Coordination Sequence:
#
# PCOD8225336 Si02
#       8
#     8   8   8   8   8   8   8   8
#     4  10  20  35  58  85 109 143 189 234 280 331
#     4  10  19  33  58  86 111 146 190 236 283 334
#     4  10  22  40  57  78 112 153 191 232 291 350
#     4  10  20  35  55  80 112 148 183 228 284 338
#     4  10  21  36  57  84 112 144 188 239 288 339
#     4   9  19  35  55  78 107 144 187 233 279 333
#     4   9  18  35  57  82 114 147 185 233 281 334
#     4  10  21  36  56  84 117 152 189 232 285 342
#
# _framework density 18.945575000000002
#
# number of rings (size 3 to 8) (size 9 to 14) (size 15 to 20)
#    0.000    2.250    1.250    2.250    0.000    7.000 
#    0.000    6.250    0.000    1.500    0.000    0.000 
#    0.000    0.000    0.000    0.000    0.000    0.000 
#
# Total GULP energy -793601.050799 kJ/mol
# GULP energy per Si atom -12400.016419 kJ/mol
# Density = 1.890245 g / cm^3
# Si number density = 18.945575 Si / 1000 Ang^3
#
#
#
# Elastic Constant Matrix: (Units=GPa)
#
#
# Indices 1 2 3 4 5 6 
#
# 1 64.1911 44.5636 35.6522 0.0000 0.0000 0.0000
# 2 44.5636 122.0758 44.3251 0.0000 0.0000 0.0000
# 3 35.6522 44.3251 73.0894 0.0000 0.0000 0.0000
# 4 0.0000 0.0000 0.0000 23.9196 0.0000 0.0000
# 5 0.0000 0.0000 0.0000 0.0000 18.5408 0.0000
# 6 0.0000 0.0000 0.0000 0.0000 0.0000 25.6231
#
#
#
# Elastic Compliance Matrix: (Units=1/GPa)
#
#
# Indices 1 2 3 4 5 6 
#
# 1 0.024230 -0.005840 -0.008278 0.000000 0.000000 0.000000
# 2 -0.005840 0.011912 -0.004376 0.000000 0.000000 0.000000
# 3 -0.008278 -0.004376 0.020373 0.000000 0.000000 0.000000
# 4 0.000000 0.000000 0.000000 0.041807 0.000000 0.000000
# 5 0.000000 0.000000 0.000000 0.000000 0.053935 0.000000
# 6 0.000000 0.000000 0.000000 0.000000 0.000000 0.039027
#
#
# Mechanical properties :
#
#
# Convention : Reuss Voigt Hill
#
# Bulk Modulus (GPa) = 51.20443 56.49312 53.84877
# Shear Modulus (GPa) = 21.29651 22.60438 21.95044
#
# Velocity S-wave (km/s) = 3.35638 3.45791 3.40752
# Velocity P-wave (km/s) = 6.48893 6.76950 6.63070
#
# Compressibility (1/GPa) = 0.01952956
#
# Stress axis : x y z
#
# Youngs Moduli (GPa) = 41.27123 83.94817 49.08389
#
# Poissons Ratio (x) = 0.49022 0.40630
# Poissons Ratio (y) = 0.24100 0.21477
# Poissons Ratio (z) = 0.34163 0.36733
#
# Static dielectric constant tensor:
#      x y z
#    x 3.386220 0.000000 0.000000 
#    y 0.000000 3.499990 0.000000 
#    z 0.000000 0.000000 3.441040 
# 
# 
# High freq. dielectric constant tensor:
#      x y z
#    x 1.733410 0.000000 0.000000 
#    y 0.000000 1.740880 0.000000 
#    z 0.000000 0.000000 1.722730 
# 
# From -- ./inp_files/4578.got.cif
#   From: 2010.03.12/outbox.cif.g09.slc.cpg/sg55_3_cif.got.tgz:4578.got - 2010.04.16 15:19:21.
