data_PCOD8225472
_publ_section_title
;
Structure prediction by ZEFSAII (Michael W. Deem and Ramdas Pophale) SiO2 
 PCOD8225472
Probable space group: P B A M
;
_chemical_formula_sum "Si O2"
_cell_formula_units_Z 48
_cell_length_a 28.195347
_cell_length_b 9.943140
_cell_length_c 8.415210
_cell_angle_alpha 90.000000
_cell_angle_beta 90.000000
_cell_angle_gamma 90.000000
_cell_volume 2359.206501
_symmetry_space_group_name_H-M "P B A M"
_symmetry_group_IT_number 55
_symmetry_cell_setting 'orthorhombic'
loop_
_space_group_symop_operation_xyz
x,y,z
-x,-y,z
1/2+x,1/2-y,-z
1/2-x,1/2+y,-z
-x,-y,-z
x,y,-z
1/2-x,1/2+y,z
1/2+x,1/2-y,z
loop_
_atom_site_type_symbol
_atom_site_label
_atom_site_fract_x
_atom_site_fract_y
_atom_site_fract_z
Si Si1 0.610004 0.730810 0.812008
Si Si2 0.388035 0.777770 0.188262
Si Si3 0.210345 0.352435 0.685291
Si Si4 0.553535 0.479074 0.811036
Si Si5 0.709297 0.844077 0.811453
Si Si6 0.948828 0.477385 0.188221
O O1 0.591299 0.588755 0.745140
O O2 0.660158 0.781574 0.742922
O O3 0.568842 0.832280 0.759185
O O4 0.615244 0.725970 0.000000
O O5 0.337351 0.771392 0.271989
O O6 0.424121 0.661505 0.244006
O O7 0.411411 0.914494 0.250049
O O8 0.379784 0.772479 0.000000
O O9 0.213677 0.379675 0.500000
O O10 0.250935 0.249886 0.737184
O O11 0.214494 0.498240 0.768699
O O12 0.500000 0.500000 0.742093
O O13 0.550416 0.489657 0.000000
O O14 0.711896 0.833744 0.000000
O O15 0.000000 0.500000 0.267331
O O16 0.952706 0.492498 0.000000
#
# Coordination Sequence:
#
# PCOD8225472 Si02
#       6
#     8   8   8   8   8   8
#     4   9  17  30  50  82 117 149 190 242 295 349
#     4  10  19  34  57  86 119 157 200 245 299 364
#     4  12  26  43  62  90 125 160 201 255 318 375
#     4   9  17  29  50  87 126 154 191 249 307 353
#     4  11  23  42  66  91 119 158 209 258 305 368
#     4   9  15  26  49  82 116 148 189 247 303 346
#
# _framework density 20.345824
#
# number of rings (size 3 to 8) (size 9 to 14) (size 15 to 20)
#    0.000    2.000    1.667    3.000    2.333    4.000 
#    0.000    0.000    0.000    1.000    0.000    0.000 
#    0.000    0.000    0.000    0.000    0.000    0.000 
#
# Total GULP energy -594941.470808 kJ/mol
# GULP energy per Si atom -12394.613975 kJ/mol
# Density = 2.029952 g / cm^3
# Si number density = 20.345824 Si / 1000 Ang^3
#
#
#
# Elastic Constant Matrix: (Units=GPa)
#
#
# Indices 1 2 3 4 5 6 
#
# 1 134.3241 23.0129 11.7940 0.0000 0.0000 0.0000
# 2 23.0129 87.1242 6.2184 0.0000 0.0000 0.0000
# 3 11.7940 6.2184 24.2611 0.0000 0.0000 0.0000
# 4 0.0000 0.0000 0.0000 13.3868 0.0000 0.0000
# 5 0.0000 0.0000 0.0000 0.0000 -2.1666 0.0000
# 6 0.0000 0.0000 0.0000 0.0000 0.0000 32.5546
#
#
#
# Elastic Compliance Matrix: (Units=1/GPa)
#
#
# Indices 1 2 3 4 5 6 
#
# 1 0.008070 -0.001886 -0.003440 0.000000 0.000000 0.000000
# 2 -0.001886 0.012133 -0.002193 0.000000 0.000000 0.000000
# 3 -0.003440 -0.002193 0.043452 0.000000 0.000000 0.000000
# 4 0.000000 0.000000 0.000000 0.074700 0.000000 0.000000
# 5 0.000000 0.000000 0.000000 0.000000 -0.461554 0.000000
# 6 0.000000 0.000000 0.000000 0.000000 0.000000 0.030718
#
#
# Mechanical properties :
#
#
# Convention : Reuss Voigt Hill
#
# Bulk Modulus (GPa) = 20.56861 36.41778 28.49319
# Shear Modulus (GPa) = -19.13955 22.40058 1.63051
#
# Velocity S-wave (km/s) = -3.07043 3.32172 0.89618
# Velocity P-wave (km/s) = 1.56160 5.71402 3.88660
#
# Compressibility (1/GPa) = 0.04861778
#
# Stress axis : x y z
#
# Youngs Moduli (GPa) = 123.91868 82.42283 23.01373
#
# Poissons Ratio (x) = 0.15545 0.07916
# Poissons Ratio (y) = 0.23372 0.05047
# Poissons Ratio (z) = 0.42622 0.18074
#
# Static dielectric constant tensor:
#      x y z
#    x 4.015980 0.000000 0.000000 
#    y 0.000000 3.878500 0.000000 
#    z 0.000000 0.000000 3.159390 
# 
# 
# High freq. dielectric constant tensor:
#      x y z
#    x 1.815420 0.000000 0.000000 
#    y 0.000000 1.809960 0.000000 
#    z 0.000000 0.000000 1.736490 
# 
# From -- ./inp_files/10523.got.cif
#   From: 2010.03.12/outbox.cif.g09.slc.cpg/sg55_6_cif.got.tgz:10523.got - 2010.04.16 15:19:21.
