data_PCOD8225386
_publ_section_title
;
Structure prediction by ZEFSAII (Michael W. Deem and Ramdas Pophale) SiO2 
 PCOD8225386
Probable space group: P B A M
;
_chemical_formula_sum "Si O2"
_cell_formula_units_Z 64
_cell_length_a 14.929829
_cell_length_b 23.912032
_cell_length_c 8.909451
_cell_angle_alpha 90.000000
_cell_angle_beta 90.000000
_cell_angle_gamma 90.000000
_cell_volume 3180.696715
_symmetry_space_group_name_H-M "P B A M"
_symmetry_group_IT_number 55
_symmetry_cell_setting 'orthorhombic'
loop_
_space_group_symop_operation_xyz
x,y,z
-x,-y,z
1/2+x,1/2-y,-z
1/2-x,1/2+y,-z
-x,-y,-z
x,y,-z
1/2-x,1/2+y,z
1/2+x,1/2-y,z
loop_
_atom_site_type_symbol
_atom_site_label
_atom_site_fract_x
_atom_site_fract_y
_atom_site_fract_z
Si Si1 0.502575 0.365951 0.323717
Si Si2 0.773648 0.255795 0.323083
Si Si3 0.304518 0.369005 0.325285
Si Si4 0.565913 0.249649 0.677589
Si Si5 0.427116 0.169727 0.178923
Si Si6 0.744376 0.027231 0.175117
Si Si7 0.095824 0.028153 0.669010
Si Si8 0.576856 0.958704 0.178290
O O1 0.512734 0.359332 0.500000
O O2 0.404520 0.390509 0.286736
O O3 0.515258 0.304192 0.257164
O O4 0.579655 0.408647 0.269900
O O5 0.790577 0.263024 0.500000
O O6 0.799238 0.194054 0.266154
O O7 0.669284 0.260755 0.280676
O O8 0.836508 0.300965 0.240559
O O9 0.281656 0.370921 0.500000
O O10 0.234850 0.410634 0.245066
O O11 0.554534 0.239996 0.500000
O O12 0.518922 0.197612 0.760309
O O13 0.430184 0.105225 0.236017
O O14 0.425436 0.173332 0.000000
O O15 0.839750 0.001342 0.214683
O O16 0.669174 0.985480 0.238215
O O17 0.734077 0.034995 0.000000
O O18 0.136991 0.026756 0.500000
O O19 0.000000 0.000000 0.664980
O O20 0.500000 0.000000 0.241837
O O21 0.573311 0.957967 0.000000
#
# Coordination Sequence:
#
# PCOD8225386 Si02
#       8
#     8   8   8   8   8   8   8   8
#     4   9  17  33  56  80 113 154 189 222 280 359
#     4  10  22  39  63  90 122 159 194 244 305 365
#     4  10  19  37  59  82 116 154 192 238 295 360
#     4  10  21  39  62  88 118 157 198 241 303 363
#     4  11  23  40  64  91 121 158 204 255 299 356
#     4  11  23  37  58  86 113 150 198 250 292 338
#     4  10  19  34  55  80 114 156 190 221 279 359
#     4   9  22  44  62  79 116 167 206 242 302 358
#
# _framework density 20.121379000000001
#
# number of rings (size 3 to 8) (size 9 to 14) (size 15 to 20)
#    0.000    2.000    2.500    0.750    3.500    1.250 
#    0.000    2.500    0.000    3.000    0.000    0.000 
#    0.000    0.000    0.000    0.000    0.000    0.000 
#
# Total GULP energy -793214.734626 kJ/mol
# GULP energy per Si atom -12393.980229 kJ/mol
# Density = 2.007558 g / cm^3
# Si number density = 20.121379 Si / 1000 Ang^3
#
#
#
# Elastic Constant Matrix: (Units=GPa)
#
#
# Indices 1 2 3 4 5 6 
#
# 1 90.2096 58.4133 30.0405 0.0000 0.0000 0.0000
# 2 58.4133 173.2723 38.9951 0.0000 0.0000 0.0000
# 3 30.0405 38.9951 46.2060 0.0000 0.0000 0.0000
# 4 0.0000 0.0000 0.0000 28.6360 0.0000 0.0000
# 5 0.0000 0.0000 0.0000 0.0000 22.9978 0.0000
# 6 0.0000 0.0000 0.0000 0.0000 0.0000 33.9838
#
#
#
# Elastic Compliance Matrix: (Units=1/GPa)
#
#
# Indices 1 2 3 4 5 6 
#
# 1 0.015900 -0.003745 -0.007177 0.000000 0.000000 0.000000
# 2 -0.003745 0.008007 -0.004322 0.000000 0.000000 0.000000
# 3 -0.007177 -0.004322 0.029956 0.000000 0.000000 0.000000
# 4 0.000000 0.000000 0.000000 0.034921 0.000000 0.000000
# 5 0.000000 0.000000 0.000000 0.000000 0.043482 0.000000
# 6 0.000000 0.000000 0.000000 0.000000 0.000000 0.029426
#
#
# Mechanical properties :
#
#
# Convention : Reuss Voigt Hill
#
# Bulk Modulus (GPa) = 42.78175 62.73174 52.75675
# Shear Modulus (GPa) = 25.00356 29.27278 27.13817
#
# Velocity S-wave (km/s) = 3.52893 3.81834 3.67648
# Velocity P-wave (km/s) = 6.15731 7.11926 6.65569
#
# Compressibility (1/GPa) = 0.02337445
#
# Stress axis : x y z
#
# Youngs Moduli (GPa) = 62.89186 124.89807 33.38256
#
# Poissons Ratio (x) = 0.46776 0.23958
# Poissons Ratio (y) = 0.23554 0.14428
# Poissons Ratio (z) = 0.45136 0.53983
#
# Static dielectric constant tensor:
#      x y z
#    x 3.767280 0.000000 0.000000 
#    y 0.000000 4.264150 0.000000 
#    z 0.000000 0.000000 3.272610 
# 
# 
# High freq. dielectric constant tensor:
#      x y z
#    x 1.787060 0.000000 0.000000 
#    y 0.000000 1.807540 0.000000 
#    z 0.000000 0.000000 1.744650 
# 
# From -- ./inp_files/6485.got.cif
#   From: 2010.03.12/outbox.cif.g09.slc.cpg/sg55_4_cif.got.tgz:6485.got - 2010.04.16 15:19:21.
