data_PCOD8225805
_publ_section_title
;
Structure prediction by ZEFSAII (Michael W. Deem and Ramdas Pophale) SiO2 
 PCOD8225805
Probable space group: P B A M
;
_chemical_formula_sum "Si O2"
_cell_formula_units_Z 64
_cell_length_a 14.335674
_cell_length_b 28.291167
_cell_length_c 8.809311
_cell_angle_alpha 90.000000
_cell_angle_beta 90.000000
_cell_angle_gamma 90.000000
_cell_volume 3572.818225
_symmetry_space_group_name_H-M "P B A M"
_symmetry_group_IT_number 55
_symmetry_cell_setting 'orthorhombic'
loop_
_space_group_symop_operation_xyz
x,y,z
-x,-y,z
1/2+x,1/2-y,-z
1/2-x,1/2+y,-z
-x,-y,-z
x,y,-z
1/2-x,1/2+y,z
1/2+x,1/2-y,z
loop_
_atom_site_type_symbol
_atom_site_label
_atom_site_fract_x
_atom_site_fract_y
_atom_site_fract_z
Si Si1 0.108909 0.279118 0.174113
Si Si2 0.399658 0.315540 0.324182
Si Si3 0.107690 0.182390 0.676439
Si Si4 0.107796 0.718664 0.823866
Si Si5 0.710466 0.867148 0.676948
Si Si6 0.284241 0.863189 0.674083
Si Si7 0.404918 0.052123 0.820317
Si Si8 0.601123 0.047270 0.679392
O O1 0.143947 0.230860 0.250058
O O2 0.164277 0.324161 0.229430
O O3 0.001044 0.288199 0.207870
O O4 0.130319 0.272098 0.000000
O O5 0.402462 0.300192 0.500000
O O6 0.502995 0.331508 0.268417
O O7 0.362578 0.271226 0.226781
O O8 0.327453 0.358838 0.299180
O O9 0.108004 0.192627 0.500000
O O10 0.179502 0.140042 0.714966
O O11 0.158595 0.680905 0.719324
O O12 0.133475 0.711037 0.000000
O O13 0.694094 0.878283 0.500000
O O14 0.674200 0.910407 0.777307
O O15 0.310799 0.853989 0.500000
O O16 0.318583 0.915204 0.722219
O O17 0.501867 0.066412 0.739755
O O18 0.371403 0.000943 0.763664
O O19 0.420199 0.051564 0.000000
O O20 0.594065 0.038165 0.500000
#
# Coordination Sequence:
#
# PCOD8225805 Si02
#       8
#     8   8   8   8   8   8   8   8
#     4  10  20  31  46  70 103 135 165 200 241 289
#     4   9  18  34  51  70  98 132 167 205 244 286
#     4   9  19  34  51  69  96 132 169 206 244 283
#     4  10  20  32  46  71 103 135 167 202 244 291
#     4  11  21  33  51  74  97 129 169 206 244 290
#     4  10  20  32  51  75  98 127 165 202 242 290
#     4  11  22  36  54  77 103 130 158 196 245 297
#     4  10  20  36  56  78 103 130 159 197 242 294
#
# _framework density 17.913029999999999
#
# number of rings (size 3 to 8) (size 9 to 14) (size 15 to 20)
#    0.000    2.000    0.000    4.875    0.000    9.000 
#    0.000    0.000    0.000    0.750    0.000    5.250 
#    0.000    0.000    0.000    0.000    0.000    0.000 
#
# Total GULP energy -793616.992351 kJ/mol
# GULP energy per Si atom -12400.265505 kJ/mol
# Density = 1.787226 g / cm^3
# Si number density = 17.913030 Si / 1000 Ang^3
#
#
#
# Elastic Constant Matrix: (Units=GPa)
#
#
# Indices 1 2 3 4 5 6 
#
# 1 80.2556 72.1109 36.6465 0.0000 0.0000 0.0000
# 2 72.1109 94.1550 25.6694 0.0000 0.0000 0.0000
# 3 36.6465 25.6694 51.1078 0.0000 0.0000 0.0000
# 4 0.0000 0.0000 0.0000 5.6587 0.0000 0.0000
# 5 0.0000 0.0000 0.0000 0.0000 17.0204 0.0000
# 6 0.0000 0.0000 0.0000 0.0000 0.0000 32.2510
#
#
#
# Elastic Compliance Matrix: (Units=1/GPa)
#
#
# Indices 1 2 3 4 5 6 
#
# 1 0.054095 -0.035751 -0.020832 0.000000 0.000000 0.000000
# 2 -0.035751 0.035933 0.007587 0.000000 0.000000 0.000000
# 3 -0.020832 0.007587 0.030694 0.000000 0.000000 0.000000
# 4 0.000000 0.000000 0.000000 0.176720 0.000000 0.000000
# 5 0.000000 0.000000 0.000000 0.000000 0.058753 0.000000
# 6 0.000000 0.000000 0.000000 0.000000 0.000000 0.031007
#
#
# Mechanical properties :
#
#
# Convention : Reuss Voigt Hill
#
# Bulk Modulus (GPa) = 43.99548 54.93021 49.46285
# Shear Modulus (GPa) = 10.14672 17.05880 13.60276
#
# Velocity S-wave (km/s) = 2.38259 3.08930 2.75867
# Velocity P-wave (km/s) = 5.67300 6.59216 6.14978
#
# Compressibility (1/GPa) = 0.02272961
#
# Stress axis : x y z
#
# Youngs Moduli (GPa) = 18.48595 27.82978 32.58016
#
# Poissons Ratio (x) = 0.99493 0.67872
# Poissons Ratio (y) = 0.66088 -0.24719
# Poissons Ratio (z) = 0.38511 -0.21115
#
# Static dielectric constant tensor:
#      x y z
#    x 3.629090 0.000000 0.000000 
#    y 0.000000 3.253870 0.000000 
#    z 0.000000 0.000000 3.371910 
# 
# 
# High freq. dielectric constant tensor:
#      x y z
#    x 1.695280 0.000000 0.000000 
#    y 0.000000 1.672140 0.000000 
#    z 0.000000 0.000000 1.701540 
# 
# From -- ./inp_files/6914.got.cif
#   From: 2010.03.12/outbox.cif.g09.slc.cpg/sg55_4_cif.got.tgz:6914.got - 2010.04.16 15:19:21.
