data_PCOD8225408
_publ_section_title
;
Structure prediction by ZEFSAII (Michael W. Deem and Ramdas Pophale) SiO2 
 PCOD8225408
Probable space group: P B A M
;
_chemical_formula_sum "Si O2"
_cell_formula_units_Z 64
_cell_length_a 28.948030
_cell_length_b 12.689867
_cell_length_c 8.805926
_cell_angle_alpha 90.000000
_cell_angle_beta 90.000000
_cell_angle_gamma 90.000000
_cell_volume 3234.827422
_symmetry_space_group_name_H-M "P B A M"
_symmetry_group_IT_number 55
_symmetry_cell_setting 'orthorhombic'
loop_
_space_group_symop_operation_xyz
x,y,z
-x,-y,z
1/2+x,1/2-y,-z
1/2-x,1/2+y,-z
-x,-y,-z
x,y,-z
1/2-x,1/2+y,z
1/2+x,1/2-y,z
loop_
_atom_site_type_symbol
_atom_site_label
_atom_site_fract_x
_atom_site_fract_y
_atom_site_fract_z
Si Si1 0.297271 0.429035 0.181732
Si Si2 0.802850 0.510125 0.820475
Si Si3 0.484157 0.884666 0.179784
Si Si4 0.435694 0.247039 0.321973
Si Si5 0.158987 0.710839 0.820660
Si Si6 0.881242 0.664853 0.818373
Si Si7 0.549579 0.537973 0.825864
Si Si8 0.365447 0.604706 0.825718
O O1 0.245589 0.446569 0.244808
O O2 0.316602 0.316976 0.241191
O O3 0.328791 0.523844 0.249292
O O4 0.298863 0.429064 0.000000
O O5 0.808843 0.387909 0.775187
O O6 0.845032 0.579256 0.754346
O O7 0.802484 0.522482 0.000000
O O8 0.517648 0.798831 0.252077
O O9 0.432322 0.864609 0.240586
O O10 0.500000 0.000000 0.232892
O O11 0.487021 0.872321 0.000000
O O12 0.436409 0.230482 0.500000
O O13 0.390641 0.190271 0.254520
O O14 0.432185 0.369737 0.280830
O O15 0.151057 0.717104 0.000000
O O16 0.865323 0.778757 0.752265
O O17 0.882017 0.666939 0.000000
O O18 0.500000 0.500000 0.769232
O O19 0.583027 0.438915 0.808348
O O20 0.548233 0.578428 0.000000
O O21 0.351016 0.616125 0.000000
#
# Coordination Sequence:
#
# PCOD8225408 Si02
#       8
#     8   8   8   8   8   8   8   8
#     4   9  17  28  47  77 108 140 175 224 281 329
#     4   9  18  29  49  81 112 142 176 226 285 331
#     4  10  20  36  58  80 107 146 190 235 283 337
#     4  12  24  36  54  81 114 149 187 236 284 335
#     4  10  19  35  56  79 112 148 188 230 276 341
#     4   9  17  29  47  76 109 139 177 222 274 333
#     4  10  19  34  56  80 107 144 187 229 281 339
#     4   9  16  27  45  72 107 140 172 216 270 328
#
# _framework density 19.784673000000002
#
# number of rings (size 3 to 8) (size 9 to 14) (size 15 to 20)
#    0.000    2.250    1.250    2.625    1.750    4.500 
#    0.000    0.000    0.000    0.750    0.000    0.000 
#    0.000    0.000    0.000    0.000    0.000    0.000 
#
# Total GULP energy -793571.675290 kJ/mol
# GULP energy per Si atom -12399.557426 kJ/mol
# Density = 1.973964 g / cm^3
# Si number density = 19.784673 Si / 1000 Ang^3
#
#
#
# Elastic Constant Matrix: (Units=GPa)
#
#
# Indices 1 2 3 4 5 6 
#
# 1 166.1356 70.0540 14.1251 0.0000 0.0000 0.0000
# 2 70.0540 151.2493 13.4403 0.0000 0.0000 0.0000
# 3 14.1251 13.4403 18.5816 0.0000 0.0000 0.0000
# 4 0.0000 0.0000 0.0000 4.8074 0.0000 0.0000
# 5 0.0000 0.0000 0.0000 0.0000 3.7639 0.0000
# 6 0.0000 0.0000 0.0000 0.0000 0.0000 37.8245
#
#
#
# Elastic Compliance Matrix: (Units=1/GPa)
#
#
# Indices 1 2 3 4 5 6 
#
# 1 0.007686 -0.003250 -0.003492 0.000000 0.000000 0.000000
# 2 -0.003250 0.008440 -0.003634 0.000000 0.000000 0.000000
# 3 -0.003492 -0.003634 0.059100 0.000000 0.000000 0.000000
# 4 0.000000 0.000000 0.000000 0.208013 0.000000 0.000000
# 5 0.000000 0.000000 0.000000 0.000000 0.265679 0.000000
# 6 0.000000 0.000000 0.000000 0.000000 0.000000 0.026438
#
#
# Mechanical properties :
#
#
# Convention : Reuss Voigt Hill
#
# Bulk Modulus (GPa) = 18.35748 59.02281 38.69015
# Shear Modulus (GPa) = 8.13979 25.16897 16.65438
#
# Velocity S-wave (km/s) = 2.03055 3.57058 2.90450
# Velocity P-wave (km/s) = 3.84659 6.84807 5.55394
#
# Compressibility (1/GPa) = 0.05447369
#
# Stress axis : x y z
#
# Youngs Moduli (GPa) = 130.09924 118.48707 16.92042
#
# Poissons Ratio (x) = 0.38506 0.05909
# Poissons Ratio (y) = 0.42279 0.06149
# Poissons Ratio (z) = 0.45436 0.43060
#
# Static dielectric constant tensor:
#      x y z
#    x 3.846270 0.000000 0.000000 
#    y 0.000000 3.820830 0.000000 
#    z 0.000000 0.000000 2.896050 
# 
# 
# High freq. dielectric constant tensor:
#      x y z
#    x 1.786300 0.000000 0.000000 
#    y 0.000000 1.786750 0.000000 
#    z 0.000000 0.000000 1.693370 
# 
# From -- ./inp_files/10839.got.cif
#   From: 2010.03.12/outbox.cif.g09.slc.cpg/sg55_6_cif.got.tgz:10839.got - 2010.04.16 15:19:21.
