data_PCOD8225398
_publ_section_title
;
Structure prediction by ZEFSAII (Michael W. Deem and Ramdas Pophale) SiO2 
 PCOD8225398
Probable space group: P B A M
;
_chemical_formula_sum "Si O2"
_cell_formula_units_Z 64
_cell_length_a 19.992705
_cell_length_b 19.780571
_cell_length_c 9.026803
_cell_angle_alpha 90.000000
_cell_angle_beta 90.000000
_cell_angle_gamma 90.000000
_cell_volume 3569.803792
_symmetry_space_group_name_H-M "P B A M"
_symmetry_group_IT_number 55
_symmetry_cell_setting 'orthorhombic'
loop_
_space_group_symop_operation_xyz
x,y,z
-x,-y,z
1/2+x,1/2-y,-z
1/2-x,1/2+y,-z
-x,-y,-z
x,y,-z
1/2-x,1/2+y,z
1/2+x,1/2-y,z
loop_
_atom_site_type_symbol
_atom_site_label
_atom_site_fract_x
_atom_site_fract_y
_atom_site_fract_z
Si Si1 0.321855 0.431868 0.676379
Si Si2 0.176284 0.071871 0.173236
Si Si3 0.420611 0.829509 0.330985
Si Si4 0.928290 0.325428 0.674647
Si Si5 0.920611 0.828699 0.330524
Si Si6 0.828906 0.424834 0.169285
Si Si7 0.816541 0.578577 0.172548
Si Si8 0.429335 0.324001 0.324208
O O1 0.319727 0.435210 0.500000
O O2 0.343415 0.504332 0.739114
O O3 0.250548 0.407205 0.735883
O O4 0.376510 0.378308 0.735417
O O5 0.129622 0.132740 0.223250
O O6 0.252399 0.092575 0.209144
O O7 0.167473 0.057092 0.000000
O O8 0.408402 0.853253 0.500000
O O9 0.496299 0.845731 0.280578
O O10 0.405532 0.750413 0.316205
O O11 0.372586 0.868943 0.220591
O O12 0.922433 0.323267 0.500000
O O13 0.876836 0.380180 0.731901
O O14 0.911421 0.250666 0.738952
O O15 0.910070 0.852520 0.500000
O O16 0.995812 0.845027 0.275517
O O17 0.843159 0.503233 0.204606
O O18 0.844706 0.407768 0.000000
O O19 0.799701 0.587529 0.000000
O O20 0.428167 0.320120 0.500000
#
# Coordination Sequence:
#
# PCOD8225398 Si02
#       8
#     8   8   8   8   8   8   8   8
#     4  10  19  34  56  77 100 134 174 213 255 304
#     4  10  21  36  51  74 108 138 169 210 255 303
#     4   9  19  35  54  77 103 131 168 212 254 301
#     4   9  18  34  55  77 101 129 166 213 256 298
#     4   9  18  35  56  76 101 134 171 209 251 302
#     4   9  20  36  50  69 101 137 168 203 250 304
#     4  10  21  36  52  73 105 139 170 209 256 305
#     4   8  17  34  54  77 103 130 165 211 258 301
#
# _framework density 17.928156999999999
#
# number of rings (size 3 to 8) (size 9 to 14) (size 15 to 20)
#    0.000    2.750    0.000    3.375    0.000    6.000 
#    0.000   13.125    0.000    0.000    0.000    0.000 
#    0.000    0.000    0.000    0.000    0.000    0.000 
#
# Total GULP energy -793583.218524 kJ/mol
# GULP energy per Si atom -12399.737789 kJ/mol
# Density = 1.788735 g / cm^3
# Si number density = 17.928157 Si / 1000 Ang^3
#
#
#
# Elastic Constant Matrix: (Units=GPa)
#
#
# Indices 1 2 3 4 5 6 
#
# 1 109.2609 73.7002 40.2127 0.0000 0.0000 0.0000
# 2 73.7002 87.7528 35.9586 0.0000 0.0000 0.0000
# 3 40.2127 35.9586 52.6893 0.0000 0.0000 0.0000
# 4 0.0000 0.0000 0.0000 16.4046 0.0000 0.0000
# 5 0.0000 0.0000 0.0000 0.0000 15.3942 0.0000
# 6 0.0000 0.0000 0.0000 0.0000 0.0000 33.4215
#
#
#
# Elastic Compliance Matrix: (Units=1/GPa)
#
#
# Indices 1 2 3 4 5 6 
#
# 1 0.022361 -0.016363 -0.005899 0.000000 0.000000 0.000000
# 2 -0.016363 0.027793 -0.006480 0.000000 0.000000 0.000000
# 3 -0.005899 -0.006480 0.027903 0.000000 0.000000 0.000000
# 4 0.000000 0.000000 0.000000 0.060958 0.000000 0.000000
# 5 0.000000 0.000000 0.000000 0.000000 0.064959 0.000000
# 6 0.000000 0.000000 0.000000 0.000000 0.000000 0.029921
#
#
# Mechanical properties :
#
#
# Convention : Reuss Voigt Hill
#
# Bulk Modulus (GPa) = 48.60339 61.04957 54.82648
# Shear Modulus (GPa) = 16.76521 19.69951 18.23236
#
# Velocity S-wave (km/s) = 3.06131 3.31842 3.19245
# Velocity P-wave (km/s) = 6.29797 6.98633 6.65106
#
# Compressibility (1/GPa) = 0.02057470
#
# Stress axis : x y z
#
# Youngs Moduli (GPa) = 44.72165 35.97998 35.83785
#
# Poissons Ratio (x) = 0.58873 0.21140
# Poissons Ratio (y) = 0.73176 0.23223
# Poissons Ratio (z) = 0.26380 0.23315
#
# Static dielectric constant tensor:
#      x y z
#    x 3.406210 0.000000 0.000000 
#    y 0.000000 3.455980 0.000000 
#    z 0.000000 0.000000 3.158240 
# 
# 
# High freq. dielectric constant tensor:
#      x y z
#    x 1.698160 0.000000 0.000000 
#    y 0.000000 1.696160 0.000000 
#    z 0.000000 0.000000 1.683940 
# 
# From -- ./inp_files/7983.got.cif
#   From: 2010.03.12/outbox.cif.g09.slc.cpg/sg55_4_cif.got.tgz:7983.got - 2010.04.16 15:19:21.
