data_PCOD8225391
_publ_section_title
;
Structure prediction by ZEFSAII (Michael W. Deem and Ramdas Pophale) SiO2 
 PCOD8225391
Probable space group: P B A M
;
_chemical_formula_sum "Si O2"
_cell_formula_units_Z 64
_cell_length_a 15.361803
_cell_length_b 24.646833
_cell_length_c 8.795618
_cell_angle_alpha 90.000000
_cell_angle_beta 90.000000
_cell_angle_gamma 90.000000
_cell_volume 3330.195068
_symmetry_space_group_name_H-M "P B A M"
_symmetry_group_IT_number 55
_symmetry_cell_setting 'orthorhombic'
loop_
_space_group_symop_operation_xyz
x,y,z
-x,-y,z
1/2+x,1/2-y,-z
1/2-x,1/2+y,-z
-x,-y,-z
x,y,-z
1/2-x,1/2+y,z
1/2+x,1/2-y,z
loop_
_atom_site_type_symbol
_atom_site_label
_atom_site_fract_x
_atom_site_fract_y
_atom_site_fract_z
Si Si1 0.806475 0.142241 0.819570
Si Si2 0.820480 0.432382 0.322793
Si Si3 0.815929 0.852808 0.180537
Si Si4 0.044778 0.720242 0.174710
Si Si5 0.776578 0.254797 0.679230
Si Si6 0.496154 0.340833 0.825872
Si Si7 0.505633 0.115543 0.677617
Si Si8 0.682040 0.057885 0.323285
O O1 0.761011 0.195661 0.751315
O O2 0.754438 0.088965 0.773399
O O3 0.905567 0.138127 0.751276
O O4 0.807898 0.149139 0.000000
O O5 0.805261 0.420838 0.500000
O O6 0.748640 0.400283 0.228458
O O7 0.809532 0.495115 0.282077
O O8 0.916865 0.414279 0.273386
O O9 0.795560 0.795612 0.258546
O O10 0.914712 0.867942 0.236494
O O11 0.812561 0.845064 0.000000
O O12 0.993596 0.776178 0.196850
O O13 0.983240 0.671433 0.230024
O O14 0.130803 0.719475 0.277334
O O15 0.072779 0.711903 0.000000
O O16 0.768370 0.249684 0.500000
O O17 0.487972 0.356581 0.000000
O O18 0.506241 0.128861 0.500000
O O19 0.585568 0.076995 0.722905
O O20 0.699593 0.068906 0.500000
#
# Coordination Sequence:
#
# PCOD8225391 Si02
#       8
#     8   8   8   8   8   8   8   8
#     4  10  21  40  61  83 113 151 194 243 292 340
#     4  10  21  39  59  82 117 155 194 239 288 347
#     4  11  21  36  59  86 114 149 193 241 287 342
#     4  10  19  34  55  83 116 152 188 230 281 341
#     4  11  21  35  55  83 117 152 186 230 288 347
#     4   8  19  37  56  80 114 150 187 232 290 342
#     4  10  20  35  56  83 116 155 193 234 285 345
#     4  10  22  39  59  84 114 154 198 240 291 347
#
# _framework density 19.218093
#
# number of rings (size 3 to 8) (size 9 to 14) (size 15 to 20)
#    0.000    2.000    1.250    3.375    1.750    2.500 
#    0.000    7.500    0.000    6.000    0.000    0.000 
#    0.000    0.000    0.000    0.000    0.000    0.000 
#
# Total GULP energy -793544.672365 kJ/mol
# GULP energy per Si atom -12399.135506 kJ/mol
# Density = 1.917435 g / cm^3
# Si number density = 19.218093 Si / 1000 Ang^3
#
#
#
# Elastic Constant Matrix: (Units=GPa)
#
#
# Indices 1 2 3 4 5 6 
#
# 1 138.4122 60.4860 45.8699 0.0000 0.0000 0.0000
# 2 60.4860 77.8430 33.6971 0.0000 0.0000 0.0000
# 3 45.8699 33.6971 75.6027 0.0000 0.0000 0.0000
# 4 0.0000 0.0000 0.0000 29.4538 0.0000 0.0000
# 5 0.0000 0.0000 0.0000 0.0000 24.2690 0.0000
# 6 0.0000 0.0000 0.0000 0.0000 0.0000 20.9135
#
#
#
# Elastic Compliance Matrix: (Units=1/GPa)
#
#
# Indices 1 2 3 4 5 6 
#
# 1 0.011756 -0.007493 -0.003793 0.000000 0.000000 0.000000
# 2 -0.007493 0.020693 -0.004677 0.000000 0.000000 0.000000
# 3 -0.003793 -0.004677 0.017613 0.000000 0.000000 0.000000
# 4 0.000000 0.000000 0.000000 0.033951 0.000000 0.000000
# 5 0.000000 0.000000 0.000000 0.000000 0.041205 0.000000
# 6 0.000000 0.000000 0.000000 0.000000 0.000000 0.047816
#
#
# Mechanical properties :
#
#
# Convention : Reuss Voigt Hill
#
# Bulk Modulus (GPa) = 55.13816 63.55156 59.34486
# Shear Modulus (GPa) = 23.69595 25.04758 24.37176
#
# Velocity S-wave (km/s) = 3.51522 3.61409 3.56500
# Velocity P-wave (km/s) = 6.72523 7.11027 6.92043
#
# Compressibility (1/GPa) = 0.01813626
#
# Stress axis : x y z
#
# Youngs Moduli (GPa) = 85.06124 48.32501 56.77613
#
# Poissons Ratio (x) = 0.36210 0.21536
# Poissons Ratio (y) = 0.63736 0.26555
# Poissons Ratio (z) = 0.32264 0.22602
#
# Static dielectric constant tensor:
#      x y z
#    x 3.745320 0.000000 0.000000 
#    y 0.000000 3.440240 0.000000 
#    z 0.000000 0.000000 3.368550 
# 
# 
# High freq. dielectric constant tensor:
#      x y z
#    x 1.754300 0.000000 0.000000 
#    y 0.000000 1.738720 0.000000 
#    z 0.000000 0.000000 1.736960 
# 
# From -- ./inp_files/6659.got.cif
#   From: 2010.03.12/outbox.cif.g09.slc.cpg/sg55_4_cif.got.tgz:6659.got - 2010.04.16 15:19:21.
