data_PCOD8225792
_publ_section_title
;
Structure prediction by ZEFSAII (Michael W. Deem and Ramdas Pophale) SiO2 
 PCOD8225792
Probable space group: P B A M
;
_chemical_formula_sum "Si O2"
_cell_formula_units_Z 48
_cell_length_a 19.080804
_cell_length_b 14.975433
_cell_length_c 8.411213
_cell_angle_alpha 90.000000
_cell_angle_beta 90.000000
_cell_angle_gamma 90.000000
_cell_volume 2403.447776
_symmetry_space_group_name_H-M "P B A M"
_symmetry_group_IT_number 55
_symmetry_cell_setting 'orthorhombic'
loop_
_space_group_symop_operation_xyz
x,y,z
-x,-y,z
1/2+x,1/2-y,-z
1/2-x,1/2+y,-z
-x,-y,-z
x,y,-z
1/2-x,1/2+y,z
1/2+x,1/2-y,z
loop_
_atom_site_type_symbol
_atom_site_label
_atom_site_fract_x
_atom_site_fract_y
_atom_site_fract_z
Si Si1 0.170548 0.381087 0.685380
Si Si2 0.924057 0.962703 0.313288
Si Si3 0.570445 0.778126 0.685698
Si Si4 0.575699 0.966281 0.184900
Si Si5 0.421061 0.730580 0.817003
Si Si6 0.828387 0.124342 0.311872
O O1 0.169392 0.405989 0.500000
O O2 0.132702 0.458237 0.783716
O O3 0.132815 0.286728 0.710760
O O4 0.249412 0.374086 0.753439
O O5 0.919640 0.942357 0.500000
O O6 0.908955 0.872952 0.218158
O O7 0.866530 0.033995 0.255789
O O8 0.000000 0.000000 0.267602
O O9 0.555955 0.761785 0.500000
O O10 0.596847 0.878380 0.716629
O O11 0.499613 0.760518 0.780457
O O12 0.629370 0.710422 0.751884
O O13 0.500000 0.000000 0.244479
O O14 0.573503 0.942016 0.000000
O O15 0.405179 0.750925 0.000000
O O16 0.827564 0.128932 0.500000
#
# Coordination Sequence:
#
# PCOD8225792 Si02
#       6
#     8   8   8   8   8   8
#     4  11  23  41  64  89 120 160 203 249 300 357
#     4  10  19  38  66  91 118 156 202 249 296 352
#     4  11  21  39  66  92 117 157 208 252 297 354
#     4  11  23  39  60  90 126 157 195 250 304 358
#     4  12  24  38  58  91 127 160 200 247 300 361
#     4   9  21  40  63  93 122 151 200 258 301 347
#
# _framework density 19.971309000000002
#
# number of rings (size 3 to 8) (size 9 to 14) (size 15 to 20)
#    0.000    1.333    3.333    3.000    0.000    2.333 
#    0.000   11.667    0.000    0.000    0.000    0.000 
#    0.000    0.000    0.000    0.000    0.000    0.000 
#
# Total GULP energy -595474.742599 kJ/mol
# GULP energy per Si atom -12405.723804 kJ/mol
# Density = 1.992585 g / cm^3
# Si number density = 19.971309 Si / 1000 Ang^3
#
#
#
# Elastic Constant Matrix: (Units=GPa)
#
#
# Indices 1 2 3 4 5 6 
#
# 1 158.2128 62.6981 15.0875 0.0000 0.0000 0.0000
# 2 62.6981 140.5494 13.2068 0.0000 0.0000 0.0000
# 3 15.0875 13.2068 42.8971 0.0000 0.0000 0.0000
# 4 0.0000 0.0000 0.0000 25.9923 0.0000 0.0000
# 5 0.0000 0.0000 0.0000 0.0000 10.6023 0.0000
# 6 0.0000 0.0000 0.0000 0.0000 0.0000 35.2834
#
#
#
# Elastic Compliance Matrix: (Units=1/GPa)
#
#
# Indices 1 2 3 4 5 6 
#
# 1 0.007799 -0.003318 -0.001722 0.000000 0.000000 0.000000
# 2 -0.003318 0.008738 -0.001523 0.000000 0.000000 0.000000
# 3 -0.001722 -0.001523 0.024386 0.000000 0.000000 0.000000
# 4 0.000000 0.000000 0.000000 0.038473 0.000000 0.000000
# 5 0.000000 0.000000 0.000000 0.000000 0.094319 0.000000
# 6 0.000000 0.000000 0.000000 0.000000 0.000000 0.028342
#
#
# Mechanical properties :
#
#
# Convention : Reuss Voigt Hill
#
# Bulk Modulus (GPa) = 35.97344 58.18269 47.07806
# Shear Modulus (GPa) = 22.27676 31.08672 26.68174
#
# Velocity S-wave (km/s) = 3.34344 3.94962 3.65910
# Velocity P-wave (km/s) = 5.74077 7.07076 6.44019
#
# Compressibility (1/GPa) = 0.02779829
#
# Stress axis : x y z
#
# Youngs Moduli (GPa) = 128.21351 114.44264 41.00679
#
# Poissons Ratio (x) = 0.37966 0.07061
# Poissons Ratio (y) = 0.42535 0.06247
# Poissons Ratio (z) = 0.22076 0.17434
#
# Static dielectric constant tensor:
#      x y z
#    x 3.811810 0.000000 0.000000 
#    y 0.000000 3.828490 0.000000 
#    z 0.000000 0.000000 3.391760 
# 
# 
# High freq. dielectric constant tensor:
#      x y z
#    x 1.777130 0.000000 0.000000 
#    y 0.000000 1.795290 0.000000 
#    z 0.000000 0.000000 1.764890 
# 
# From -- ./inp_files/7414.got.cif
#   From: 2010.03.12/outbox.cif.g09.slc.cpg/sg55_4_cif.got.tgz:7414.got - 2010.04.16 15:19:21.
