data_PCOD8225803
_publ_section_title
;
Structure prediction by ZEFSAII (Michael W. Deem and Ramdas Pophale) SiO2 
 PCOD8225803
Probable space group: P B A M
;
_chemical_formula_sum "Si O2"
_cell_formula_units_Z 56
_cell_length_a 20.650278
_cell_length_b 18.447999
_cell_length_c 9.431026
_cell_angle_alpha 90.000000
_cell_angle_beta 90.000000
_cell_angle_gamma 90.000000
_cell_volume 3592.808845
_symmetry_space_group_name_H-M "P B A M"
_symmetry_group_IT_number 55
_symmetry_cell_setting 'orthorhombic'
loop_
_space_group_symop_operation_xyz
x,y,z
-x,-y,z
1/2+x,1/2-y,-z
1/2-x,1/2+y,-z
-x,-y,-z
x,y,-z
1/2-x,1/2+y,z
1/2+x,1/2-y,z
loop_
_atom_site_type_symbol
_atom_site_label
_atom_site_fract_x
_atom_site_fract_y
_atom_site_fract_z
Si Si1 0.371189 0.650269 0.164381
Si Si2 0.693108 0.206204 0.163758
Si Si3 0.698324 0.777714 0.340280
Si Si4 0.243276 0.077943 0.662850
Si Si5 0.879981 0.148078 0.341173
Si Si6 0.494576 0.417730 0.832946
Si Si7 0.261357 0.917909 0.336498
O O1 0.366346 0.737550 0.187905
O O2 0.318897 0.605670 0.252931
O O3 0.441989 0.626057 0.215310
O O4 0.359682 0.630668 0.000000
O O5 0.755620 0.248675 0.218023
O O6 0.686603 0.131046 0.250393
O O7 0.701867 0.186329 0.000000
O O8 0.725198 0.758887 0.500000
O O9 0.696425 0.865148 0.323273
O O10 0.629688 0.735850 0.323111
O O11 0.221217 0.069027 0.500000
O O12 0.266687 0.000230 0.721017
O O13 0.903411 0.129466 0.500000
O O14 0.811361 0.109999 0.309474
O O15 0.932392 0.120527 0.232045
O O16 0.500000 0.500000 0.777569
O O17 0.484870 0.415939 0.000000
O O18 0.281150 0.913003 0.500000
#
# Coordination Sequence:
#
# PCOD8225803 Si02
#       7
#     8   8   8   8   8   8   8
#     4   9  18  30  41  58  85 112 140 173 203 237
#     4   9  16  26  41  59  80 108 138 168 204 243
#     4   8  15  28  43  60  83 107 133 168 207 245
#     4   9  16  27  45  65  84 109 136 165 207 252
#     4   9  17  28  41  59  84 110 136 167 198 235
#     4  10  20  31  42  58  82 112 142 170 200 234
#     4   9  17  28  42  63  88 109 133 168 208 247
#
# _framework density 15.586690000000001
#
# number of rings (size 3 to 8) (size 9 to 14) (size 15 to 20)
#    0.000    3.000    0.000    2.143    0.000    4.286 
#    0.000    0.000    0.000    0.000    0.000    1.000 
#    0.000    8.000    0.000    0.000    0.000    0.000 
#
# Total GULP energy -693858.248628 kJ/mol
# GULP energy per Si atom -12390.325868 kJ/mol
# Density = 1.555121 g / cm^3
# Si number density = 15.586690 Si / 1000 Ang^3
#
#
#
# Elastic Constant Matrix: (Units=GPa)
#
#
# Indices 1 2 3 4 5 6 
#
# 1 55.6044 47.0779 26.7435 0.0000 0.0000 0.0000
# 2 47.0779 141.8702 42.1744 0.0000 0.0000 0.0000
# 3 26.7435 42.1744 49.7390 0.0000 0.0000 0.0000
# 4 0.0000 0.0000 0.0000 23.5394 0.0000 0.0000
# 5 0.0000 0.0000 0.0000 0.0000 19.2618 0.0000
# 6 0.0000 0.0000 0.0000 0.0000 0.0000 23.6774
#
#
#
# Elastic Compliance Matrix: (Units=1/GPa)
#
#
# Indices 1 2 3 4 5 6 
#
# 1 0.028079 -0.006457 -0.009622 0.000000 0.000000 0.000000
# 2 -0.006457 0.010909 -0.005778 0.000000 0.000000 0.000000
# 3 -0.009622 -0.005778 0.030178 0.000000 0.000000 0.000000
# 4 0.000000 0.000000 0.000000 0.042482 0.000000 0.000000
# 5 0.000000 0.000000 0.000000 0.000000 0.051916 0.000000
# 6 0.000000 0.000000 0.000000 0.000000 0.000000 0.042234
#
#
# Mechanical properties :
#
#
# Convention : Reuss Voigt Hill
#
# Bulk Modulus (GPa) = 39.29124 53.24503 46.26813
# Shear Modulus (GPa) = 19.37999 22.04356 20.71178
#
# Velocity S-wave (km/s) = 3.52997 3.76474 3.64924
# Velocity P-wave (km/s) = 6.47126 7.28920 6.89237
#
# Compressibility (1/GPa) = 0.02545097
#
# Stress axis : x y z
#
# Youngs Moduli (GPa) = 35.61353 91.66612 33.13674
#
# Poissons Ratio (x) = 0.59191 0.31885
# Poissons Ratio (y) = 0.22997 0.19147
# Poissons Ratio (z) = 0.34268 0.52966
#
# Static dielectric constant tensor:
#      x y z
#    x 2.672190 0.000000 0.000000 
#    y 0.000000 3.459280 0.000000 
#    z 0.000000 0.000000 2.997760 
# 
# 
# High freq. dielectric constant tensor:
#      x y z
#    x 1.545770 0.000000 0.000000 
#    y 0.000000 1.610680 0.000000 
#    z 0.000000 0.000000 1.602750 
# 
# From -- ./inp_files/7880.got.cif
#   From: 2010.03.12/outbox.cif.g09.slc.cpg/sg55_4_cif.got.tgz:7880.got - 2010.04.16 15:19:21.
