data_PCOD8225600
_publ_section_title
;
Structure prediction by ZEFSAII (Michael W. Deem and Ramdas Pophale) SiO2 
 PCOD8225600
Probable space group: P B A M
;
_chemical_formula_sum "Si O2"
_cell_formula_units_Z 64
_cell_length_a 22.569910
_cell_length_b 16.024817
_cell_length_c 8.976463
_cell_angle_alpha 90.000000
_cell_angle_beta 90.000000
_cell_angle_gamma 90.000000
_cell_volume 3246.595266
_symmetry_space_group_name_H-M "P B A M"
_symmetry_group_IT_number 55
_symmetry_cell_setting 'orthorhombic'
loop_
_space_group_symop_operation_xyz
x,y,z
-x,-y,z
1/2+x,1/2-y,-z
1/2-x,1/2+y,-z
-x,-y,-z
x,y,-z
1/2-x,1/2+y,z
1/2+x,1/2-y,z
loop_
_atom_site_type_symbol
_atom_site_label
_atom_site_fract_x
_atom_site_fract_y
_atom_site_fract_z
Si Si1 0.050222 0.935346 0.824645
Si Si2 0.751044 0.692688 0.169844
Si Si3 0.325544 0.201382 0.666530
Si Si4 0.443130 0.245334 0.175629
Si Si5 0.014693 0.405349 0.674881
Si Si6 0.825533 0.051997 0.670952
Si Si7 0.366022 0.892372 0.832532
Si Si8 0.292656 0.018303 0.336130
O O1 0.032282 0.838700 0.785083
O O2 0.113354 0.962813 0.757393
O O3 0.057129 0.944521 0.000000
O O4 0.000000 0.000000 0.765176
O O5 0.735249 0.781051 0.243719
O O6 0.712530 0.629180 0.268341
O O7 0.822349 0.686732 0.181465
O O8 0.729905 0.684656 0.000000
O O9 0.326397 0.238965 0.500000
O O10 0.377408 0.243635 0.760880
O O11 0.329523 0.102808 0.660101
O O12 0.478098 0.168171 0.247782
O O13 0.443275 0.230549 0.000000
O O14 0.002869 0.399033 0.500000
O O15 0.082615 0.386344 0.711997
O O16 0.000000 0.500000 0.731286
O O17 0.842928 0.067083 0.500000
O O18 0.778841 0.974220 0.689806
O O19 0.322786 0.969208 0.798596
O O20 0.392065 0.900862 0.000000
O O21 0.301836 0.975367 0.500000
#
# Coordination Sequence:
#
# PCOD8225600 Si02
#       8
#     8   8   8   8   8   8   8   8
#     4  10  22  41  62  84 116 158 202 253 310 360
#     4  10  20  35  56  82 113 147 187 235 288 350
#     4  11  21  35  57  85 118 151 190 239 294 354
#     4  11  23  39  62  89 121 158 206 255 299 359
#     4  11  24  41  61  87 122 162 202 247 304 364
#     4  10  19  35  59  84 112 147 190 240 294 353
#     4  10  21  37  58  83 113 150 193 236 288 348
#     4   9  20  36  55  84 119 151 185 232 292 355
#
# _framework density 19.712959000000001
#
# number of rings (size 3 to 8) (size 9 to 14) (size 15 to 20)
#    0.000    1.750    1.250    3.000    0.000    7.750 
#    2.250    0.000    0.000    0.000    0.000    0.000 
#    0.000    0.000    0.000    0.000    0.000    0.000 
#
# Total GULP energy -792970.984492 kJ/mol
# GULP energy per Si atom -12390.171633 kJ/mol
# Density = 1.966809 g / cm^3
# Si number density = 19.712959 Si / 1000 Ang^3
#
#
#
# Elastic Constant Matrix: (Units=GPa)
#
#
# Indices 1 2 3 4 5 6 
#
# 1 91.6618 35.2977 41.1732 0.0000 0.0000 0.0000
# 2 35.2977 89.4939 43.6293 0.0000 0.0000 0.0000
# 3 41.1732 43.6293 82.2955 0.0000 0.0000 0.0000
# 4 0.0000 0.0000 0.0000 26.7187 0.0000 0.0000
# 5 0.0000 0.0000 0.0000 0.0000 35.1547 0.0000
# 6 0.0000 0.0000 0.0000 0.0000 0.0000 30.4805
#
#
#
# Elastic Compliance Matrix: (Units=1/GPa)
#
#
# Indices 1 2 3 4 5 6 
#
# 1 0.014635 -0.002970 -0.005747 0.000000 0.000000 0.000000
# 2 -0.002970 0.015671 -0.006822 0.000000 0.000000 0.000000
# 3 -0.005747 -0.006822 0.018644 0.000000 0.000000 0.000000
# 4 0.000000 0.000000 0.000000 0.037427 0.000000 0.000000
# 5 0.000000 0.000000 0.000000 0.000000 0.028446 0.000000
# 6 0.000000 0.000000 0.000000 0.000000 0.000000 0.032808
#
#
# Mechanical properties :
#
#
# Convention : Reuss Voigt Hill
#
# Bulk Modulus (GPa) = 55.95862 55.96130 55.95996
# Shear Modulus (GPa) = 27.07574 28.02751 27.55162
#
# Velocity S-wave (km/s) = 3.71010 3.77474 3.74256
# Velocity P-wave (km/s) = 6.84116 6.88825 6.86474
#
# Compressibility (1/GPa) = 0.01787035
#
# Stress axis : x y z
#
# Youngs Moduli (GPa) = 68.32865 63.81055 53.63785
#
# Poissons Ratio (x) = 0.18955 0.30827
# Poissons Ratio (y) = 0.20297 0.36592
# Poissons Ratio (z) = 0.39271 0.43532
#
# Static dielectric constant tensor:
#      x y z
#    x 3.915580 0.000000 0.000000 
#    y 0.000000 3.716980 0.000000 
#    z 0.000000 0.000000 3.722860 
# 
# 
# High freq. dielectric constant tensor:
#      x y z
#    x 1.767960 0.000000 0.000000 
#    y 0.000000 1.754830 0.000000 
#    z 0.000000 0.000000 1.780940 
# 
# From -- ./inp_files/9718.got.cif
#   From: 2010.03.12/outbox.cif.g09.slc.cpg/sg55_5_cif.got.tgz:9718.got - 2010.04.16 15:19:21.
