data_PCOD8225985
_publ_section_title
;
Structure prediction by ZEFSAII (Michael W. Deem and Ramdas Pophale) SiO2 
 PCOD8225985
Probable space group: P B A M
;
_chemical_formula_sum "Si O2"
_cell_formula_units_Z 56
_cell_length_a 13.471545
_cell_length_b 9.771707
_cell_length_c 21.734847
_cell_angle_alpha 90.000000
_cell_angle_beta 90.000000
_cell_angle_gamma 90.000000
_cell_volume 2861.175054
_symmetry_space_group_name_H-M "P B A M"
_symmetry_group_IT_number 55
_symmetry_cell_setting 'orthorhombic'
loop_
_space_group_symop_operation_xyz
x,y,z
-x,-y,z
1/2+x,1/2-y,-z
1/2-x,1/2+y,-z
-x,-y,-z
x,y,-z
1/2-x,1/2+y,z
1/2+x,1/2-y,z
loop_
_atom_site_type_symbol
_atom_site_label
_atom_site_fract_x
_atom_site_fract_y
_atom_site_fract_z
Si Si1 0.343058 0.290618 0.633213
Si Si2 0.765835 0.940261 0.428063
Si Si3 0.235541 0.097610 0.159835
Si Si4 0.416437 0.104373 0.072055
Si Si5 0.526583 0.343922 0.434391
Si Si6 0.984321 0.848451 0.136338
Si Si7 0.654965 0.669779 0.775175
O O1 0.285922 0.402969 0.591548
O O2 0.311676 0.135266 0.616909
O O3 0.460293 0.281155 0.619226
O O4 0.333986 0.341922 0.702565
O O5 0.733772 0.940974 0.500000
O O6 0.858695 0.839049 0.416636
O O7 0.308579 0.075666 0.101768
O O8 0.133901 0.177652 0.141390
O O9 0.294103 0.187542 0.208802
O O10 0.211737 0.953087 0.190909
O O11 0.459983 0.253164 0.087392
O O12 0.500000 0.000000 0.097057
O O13 0.399890 0.088523 0.000000
O O14 0.500000 0.500000 0.444573
O O15 0.507479 0.267588 0.500000
O O16 0.039463 0.831073 0.202868
O O17 0.000000 0.000000 0.110203
#
# Coordination Sequence:
#
# PCOD8225985 Si02
#       7
#     8   8   8   8   8   8   8
#     4  11  20  33  54  79 103 136 179 220 263 321
#     4  10  20  34  53  76 103 135 173 220 271 319
#     4  10  20  38  56  78 112 145 175 223 277 314
#     4  10  21  37  58  84 112 146 185 219 264 327
#     4   8  16  31  49  69  96 131 168 208 258 312
#     4   9  20  37  56  79 109 143 181 227 271 312
#     4  10  21  34  54  79 106 141 180 221 270 327
#
# _framework density 19.572378
#
# number of rings (size 3 to 8) (size 9 to 14) (size 15 to 20)
#    0.000    2.286    0.000    3.857    0.000    7.143 
#    0.000    9.286    0.000    6.000    0.000    0.000 
#    0.000    0.000    0.000    0.000    0.000    0.000 
#
# Total GULP energy -693929.449307 kJ/mol
# GULP energy per Si atom -12391.597309 kJ/mol
# Density = 1.952783 g / cm^3
# Si number density = 19.572378 Si / 1000 Ang^3
#
#
#
# Elastic Constant Matrix: (Units=GPa)
#
#
# Indices 1 2 3 4 5 6 
#
# 1 105.3482 14.5732 40.8872 0.0000 0.0000 0.0000
# 2 14.5732 54.7546 19.0907 0.0000 0.0000 0.0000
# 3 40.8872 19.0907 99.5359 0.0000 0.0000 0.0000
# 4 0.0000 0.0000 0.0000 23.0368 0.0000 0.0000
# 5 0.0000 0.0000 0.0000 0.0000 21.1177 0.0000
# 6 0.0000 0.0000 0.0000 0.0000 0.0000 26.8299
#
#
#
# Elastic Compliance Matrix: (Units=1/GPa)
#
#
# Indices 1 2 3 4 5 6 
#
# 1 0.011407 -0.001503 -0.004398 0.000000 0.000000 0.000000
# 2 -0.001503 0.019770 -0.003175 0.000000 0.000000 0.000000
# 3 -0.004398 -0.003175 0.012462 0.000000 0.000000 0.000000
# 4 0.000000 0.000000 0.000000 0.043409 0.000000 0.000000
# 5 0.000000 0.000000 0.000000 0.000000 0.047354 0.000000
# 6 0.000000 0.000000 0.000000 0.000000 0.000000 0.037272
#
#
# Mechanical properties :
#
#
# Convention : Reuss Voigt Hill
#
# Bulk Modulus (GPa) = 39.23217 45.41568 42.32392
# Shear Modulus (GPa) = 25.21186 26.53605 25.87396
#
# Velocity S-wave (km/s) = 3.59295 3.68610 3.63983
# Velocity P-wave (km/s) = 6.10742 6.43201 6.27182
#
# Compressibility (1/GPa) = 0.02548929
#
# Stress axis : x y z
#
# Youngs Moduli (GPa) = 87.66583 50.58144 80.24462
#
# Poissons Ratio (x) = 0.07601 0.35288
# Poissons Ratio (y) = 0.13174 0.25474
# Poissons Ratio (z) = 0.38551 0.16057
#
# Static dielectric constant tensor:
#      x y z
#    x 4.120600 0.000000 0.000000 
#    y 0.000000 3.418950 0.000000 
#    z 0.000000 0.000000 3.349480 
# 
# 
# High freq. dielectric constant tensor:
#      x y z
#    x 1.769070 0.000000 0.000000 
#    y 0.000000 1.755240 0.000000 
#    z 0.000000 0.000000 1.749950 
# 
# From -- ./inp_files/22973.got.cif
#   From: 2010.03.12/outbox.cif.g09.slc.cpg/sg55_12_cif.got.tgz:22973.got - 2010.04.16 15:19:21.
