data_PCOD8225204
_publ_section_title
;
Structure prediction by ZEFSAII (Michael W. Deem and Ramdas Pophale) SiO2 
 PCOD8225204
Probable space group: P B A M
;
_chemical_formula_sum "Si O2"
_cell_formula_units_Z 48
_cell_length_a 8.983487
_cell_length_b 31.200712
_cell_length_c 8.552768
_cell_angle_alpha 90.000000
_cell_angle_beta 90.000000
_cell_angle_gamma 90.000000
_cell_volume 2397.265526
_symmetry_space_group_name_H-M "P B A M"
_symmetry_group_IT_number 55
_symmetry_cell_setting 'orthorhombic'
loop_
_space_group_symop_operation_xyz
x,y,z
-x,-y,z
1/2+x,1/2-y,-z
1/2-x,1/2+y,-z
-x,-y,-z
x,y,-z
1/2-x,1/2+y,z
1/2+x,1/2-y,z
loop_
_atom_site_type_symbol
_atom_site_label
_atom_site_fract_x
_atom_site_fract_y
_atom_site_fract_z
Si Si1 0.589284 0.123325 0.686105
Si Si2 0.088778 0.207577 0.686575
Si Si3 0.096794 0.541984 0.681241
Si Si4 0.575059 0.792198 0.313617
Si Si5 0.916990 0.957363 0.817991
Si Si6 0.577165 0.623862 0.684479
O O1 0.594685 0.123695 0.500000
O O2 0.496677 0.082382 0.744365
O O3 0.511153 0.166196 0.750756
O O4 0.756424 0.120587 0.754996
O O5 0.089181 0.207392 0.500000
O O6 0.256949 0.207075 0.751038
O O7 0.006786 0.249901 0.750545
O O8 0.003489 0.166001 0.753300
O O9 0.141208 0.547792 0.500000
O O10 0.243376 0.537715 0.784133
O O11 0.000000 0.500000 0.707530
O O12 0.574930 0.792299 0.500000
O O13 0.982007 0.917561 0.724430
O O14 0.944646 0.949697 0.000000
O O15 0.000000 0.000000 0.759001
O O16 0.587114 0.628274 0.500000
#
# Coordination Sequence:
#
# PCOD8225204 Si02
#       6
#     8   8   8   8   8   8
#     4   9  17  29  48  76 107 136 170 214 260 307
#     4   9  16  25  42  70 104 139 171 209 256 304
#     4  10  20  35  56  81 107 136 172 215 260 305
#     4   9  15  24  39  67 107 140 168 207 256 305
#     4  11  24  39  54  75 104 137 172 211 257 310
#     4  10  19  33  54  78 103 134 173 215 259 304
#
# _framework density 20.022811999999998
#
# number of rings (size 3 to 8) (size 9 to 14) (size 15 to 20)
#    0.000    2.333    0.000    3.500    0.000    9.667 
#    0.000    0.833    0.000    0.000    0.000   10.500 
#    0.000    0.000    0.000    0.000    0.000    0.000 
#
# Total GULP energy -595294.127805 kJ/mol
# GULP energy per Si atom -12401.960996 kJ/mol
# Density = 1.997724 g / cm^3
# Si number density = 20.022812 Si / 1000 Ang^3
#
#
#
# Elastic Constant Matrix: (Units=GPa)
#
#
# Indices 1 2 3 4 5 6 
#
# 1 164.9095 74.1764 8.0156 0.0000 0.0000 0.0000
# 2 74.1764 177.4369 6.0346 0.0000 0.0000 0.0000
# 3 8.0156 6.0346 5.4667 0.0000 0.0000 0.0000
# 4 0.0000 0.0000 0.0000 5.1302 0.0000 0.0000
# 5 0.0000 0.0000 0.0000 0.0000 10.4070 0.0000
# 6 0.0000 0.0000 0.0000 0.0000 0.0000 44.0339
#
#
#
# Elastic Compliance Matrix: (Units=1/GPa)
#
#
# Indices 1 2 3 4 5 6 
#
# 1 0.007802 -0.002985 -0.008146 0.000000 0.000000 0.000000
# 2 -0.002985 0.006997 -0.003348 0.000000 0.000000 0.000000
# 3 -0.008146 -0.003348 0.198566 0.000000 0.000000 0.000000
# 4 0.000000 0.000000 0.000000 0.194922 0.000000 0.000000
# 5 0.000000 0.000000 0.000000 0.000000 0.096089 0.000000
# 6 0.000000 0.000000 0.000000 0.000000 0.000000 0.022710
#
#
# Mechanical properties :
#
#
# Convention : Reuss Voigt Hill
#
# Bulk Modulus (GPa) = 5.42272 58.25183 31.83727
# Shear Modulus (GPa) = 8.09699 29.22000 18.65850
#
# Velocity S-wave (km/s) = 2.01312 3.82427 3.05595
# Velocity P-wave (km/s) = 2.84916 6.97538 5.32793
#
# Compressibility (1/GPa) = 0.18440931
#
# Stress axis : x y z
#
# Youngs Moduli (GPa) = 128.16592 142.91006 5.03611
#
# Poissons Ratio (x) = 0.42654 0.04102
# Poissons Ratio (y) = 0.38254 0.01686
# Poissons Ratio (z) = 1.04400 0.47845
#
# Static dielectric constant tensor:
#      x y z
#    x 3.892330 0.000000 0.000000 
#    y 0.000000 3.864060 0.000000 
#    z 0.000000 0.000000 2.940650 
# 
# 
# High freq. dielectric constant tensor:
#      x y z
#    x 1.801490 0.000000 0.000000 
#    y 0.000000 1.802090 0.000000 
#    z 0.000000 0.000000 1.712530 
# 
# From -- ./inp_files/2893.got.cif
#   From: 2010.03.12/outbox.cif.g09.slc.cpg/sg55_2_cif.got.tgz:2893.got - 2010.04.16 15:19:21.
