data_PCOD8225921
_publ_section_title
;
Structure prediction by ZEFSAII (Michael W. Deem and Ramdas Pophale) SiO2 
 PCOD8225921
Probable space group: P B A M
;
_chemical_formula_sum "Si O2"
_cell_formula_units_Z 64
_cell_length_a 17.683622
_cell_length_b 12.960898
_cell_length_c 14.152657
_cell_angle_alpha 90.000000
_cell_angle_beta 90.000000
_cell_angle_gamma 90.000000
_cell_volume 3243.727010
_symmetry_space_group_name_H-M "P B A M"
_symmetry_group_IT_number 55
_symmetry_cell_setting 'orthorhombic'
loop_
_space_group_symop_operation_xyz
x,y,z
-x,-y,z
1/2+x,1/2-y,-z
1/2-x,1/2+y,-z
-x,-y,-z
x,y,-z
1/2-x,1/2+y,z
1/2+x,1/2-y,z
loop_
_atom_site_type_symbol
_atom_site_label
_atom_site_fract_x
_atom_site_fract_y
_atom_site_fract_z
Si Si1 0.000173 0.810773 0.725904
Si Si2 0.783485 0.002405 0.894111
Si Si3 0.378092 0.403047 0.390810
Si Si4 0.878176 0.425868 0.105180
Si Si5 0.335143 0.603788 0.716918
Si Si6 0.613424 0.690905 0.106841
Si Si7 0.947227 0.413178 0.702487
Si Si8 0.194353 0.682427 0.610238
O O1 0.037621 0.886189 0.648632
O O2 0.040968 0.830610 0.826667
O O3 0.007039 0.692537 0.695781
O O4 0.912599 0.834969 0.723605
O O5 0.692634 0.003314 0.886292
O O6 0.814126 0.914821 0.825301
O O7 0.817765 0.114170 0.867047
O O8 0.808028 0.971167 0.000000
O O9 0.383035 0.430951 0.500000
O O10 0.337582 0.495912 0.337906
O O11 0.331909 0.298732 0.370611
O O12 0.853547 0.306000 0.120722
O O13 0.935956 0.451756 0.189022
O O14 0.914996 0.438300 0.000000
O O15 0.273180 0.672908 0.664595
O O16 0.585042 0.672892 0.000000
O O17 0.866679 0.400034 0.650168
O O18 0.000000 0.500000 0.652979
O O19 0.205742 0.659693 0.500000
#
# Coordination Sequence:
#
# PCOD8225921 Si02
#       8
#     8   8   8   8   8   8   8   8
#     4  10  22  37  56  86 116 149 194 237 290 347
#     4  10  20  33  55  87 117 153 195 235 285 347
#     4  10  22  40  60  82 115 152 189 239 299 351
#     4   9  18  36  58  83 117 156 196 240 292 345
#     4  12  22  36  60  89 116 151 196 245 284 350
#     4   9  18  35  58  81 118 161 193 235 294 350
#     4  10  21  40  61  87 115 155 193 239 292 349
#     4  10  23  42  61  85 117 153 192 242 299 352
#
# _framework density 19.73039
#
# number of rings (size 3 to 8) (size 9 to 14) (size 15 to 20)
#    0.000    2.000    2.500    0.750    0.000    3.500 
#    2.250    1.250    0.000    0.000    0.000    0.000 
#    0.000    0.000    0.000    0.000    0.000    0.000 
#
# Total GULP energy -793468.723823 kJ/mol
# GULP energy per Si atom -12397.948810 kJ/mol
# Density = 1.968548 g / cm^3
# Si number density = 19.730390 Si / 1000 Ang^3
#
#
#
# Elastic Constant Matrix: (Units=GPa)
#
#
# Indices 1 2 3 4 5 6 
#
# 1 99.2059 34.5280 24.2090 0.0000 0.0000 0.0000
# 2 34.5280 51.5583 22.1124 0.0000 0.0000 0.0000
# 3 24.2090 22.1124 72.7442 0.0000 0.0000 0.0000
# 4 0.0000 0.0000 0.0000 23.3307 0.0000 0.0000
# 5 0.0000 0.0000 0.0000 0.0000 14.6050 0.0000
# 6 0.0000 0.0000 0.0000 0.0000 0.0000 28.7239
#
#
#
# Elastic Compliance Matrix: (Units=1/GPa)
#
#
# Indices 1 2 3 4 5 6 
#
# 1 0.013389 -0.008113 -0.001990 0.000000 0.000000 0.000000
# 2 -0.008113 0.027220 -0.005574 0.000000 0.000000 0.000000
# 3 -0.001990 -0.005574 0.016103 0.000000 0.000000 0.000000
# 4 0.000000 0.000000 0.000000 0.042862 0.000000 0.000000
# 5 0.000000 0.000000 0.000000 0.000000 0.068470 0.000000
# 6 0.000000 0.000000 0.000000 0.000000 0.000000 0.034814
#
#
# Mechanical properties :
#
#
# Convention : Reuss Voigt Hill
#
# Bulk Modulus (GPa) = 39.43497 42.80081 41.11789
# Shear Modulus (GPa) = 20.60454 22.84251 21.72353
#
# Velocity S-wave (km/s) = 3.23508 3.40624 3.32176
# Velocity P-wave (km/s) = 5.82963 6.09999 5.96634
#
# Compressibility (1/GPa) = 0.02535820
#
# Stress axis : x y z
#
# Youngs Moduli (GPa) = 74.68594 36.73827 62.09911
#
# Poissons Ratio (x) = 0.29807 0.12356
# Poissons Ratio (y) = 0.60596 0.34614
# Poissons Ratio (z) = 0.14860 0.20478
#
# Static dielectric constant tensor:
#      x y z
#    x 3.364110 0.000000 0.000000 
#    y 0.000000 3.525820 0.000000 
#    z 0.000000 0.000000 3.891800 
# 
# 
# High freq. dielectric constant tensor:
#      x y z
#    x 1.754650 0.000000 0.000000 
#    y 0.000000 1.762420 0.000000 
#    z 0.000000 0.000000 1.784250 
# 
# From -- ./inp_files/19486.got.cif
#   From: 2010.03.12/outbox.cif.g09.slc.cpg/sg55_10_cif.got.tgz:19486.got - 2010.04.16 15:19:21.
