data_PCOD8225950
_publ_section_title
;
Structure prediction by ZEFSAII (Michael W. Deem and Ramdas Pophale) SiO2 
 PCOD8225950
Probable space group: P B A M
;
_chemical_formula_sum "Si O2"
_cell_formula_units_Z 64
_cell_length_a 27.612375
_cell_length_b 9.614013
_cell_length_c 14.321869
_cell_angle_alpha 90.000000
_cell_angle_beta 90.000000
_cell_angle_gamma 90.000000
_cell_volume 3801.965441
_symmetry_space_group_name_H-M "P B A M"
_symmetry_group_IT_number 55
_symmetry_cell_setting 'orthorhombic'
loop_
_space_group_symop_operation_xyz
x,y,z
-x,-y,z
1/2+x,1/2-y,-z
1/2-x,1/2+y,-z
-x,-y,-z
x,y,-z
1/2-x,1/2+y,z
1/2+x,1/2-y,z
loop_
_atom_site_type_symbol
_atom_site_label
_atom_site_fract_x
_atom_site_fract_y
_atom_site_fract_z
Si Si1 0.552356 0.705648 0.209801
Si Si2 0.791969 0.883823 0.889265
Si Si3 0.923414 0.552903 0.602136
Si Si4 0.796053 0.570310 0.888732
Si Si5 0.102722 0.038582 0.893538
Si Si6 0.606849 0.981772 0.792127
Si Si7 0.958635 0.689310 0.893667
Si Si8 0.986044 0.275937 0.602129
O O1 0.572193 0.560378 0.173028
O O2 0.509193 0.756556 0.144618
O O3 0.532621 0.676834 0.314828
O O4 0.595718 0.817615 0.208919
O O5 0.788260 0.726522 0.850394
O O6 0.747787 0.975691 0.850205
O O7 0.841989 0.955793 0.857656
O O8 0.790226 0.877507 0.000000
O O9 0.897477 0.559955 0.500000
O O10 0.884909 0.541538 0.686684
O O11 0.957215 0.419035 0.607680
O O12 0.957058 0.689238 0.615677
O O13 0.845600 0.505950 0.851858
O O14 0.798662 0.567881 0.000000
O O15 0.082263 0.193298 0.886752
O O16 0.099540 0.983077 0.000000
O O17 0.559794 0.056651 0.835999
O O18 0.966427 0.642695 0.000000
O O19 0.977867 0.205371 0.500000
#
# Coordination Sequence:
#
# PCOD8225950 Si02
#       8
#     8   8   8   8   8   8   8   8
#     4  11  21  30  48  76 100 132 173 200 239 291
#     4   9  19  35  52  69  93 127 166 207 247 287
#     4   8  14  27  47  70  97 128 161 201 245 290
#     4  10  20  34  52  73  98 127 162 206 252 292
#     4  10  21  36  49  65  97 140 174 199 240 299
#     4  11  20  31  50  78 101 124 164 212 247 287
#     4  11  21  34  46  64 103 144 169 194 236 288
#     4   8  14  27  46  68  97 129 163 205 243 279
#
# _framework density 16.833399
#
# number of rings (size 3 to 8) (size 9 to 14) (size 15 to 20)
#    0.000    2.250    2.500    2.250    1.750    3.500 
#    0.000    0.000    0.000    2.250    0.000    1.750 
#    0.000    0.000    0.000    0.000    0.000    0.000 
#
# Total GULP energy -793423.573081 kJ/mol
# GULP energy per Si atom -12397.243329 kJ/mol
# Density = 1.679509 g / cm^3
# Si number density = 16.833399 Si / 1000 Ang^3
#
#
#
# Elastic Constant Matrix: (Units=GPa)
#
#
# Indices 1 2 3 4 5 6 
#
# 1 63.0394 4.8035 8.5327 0.0000 0.0000 0.0000
# 2 4.8035 32.3256 13.9468 0.0000 0.0000 0.0000
# 3 8.5327 13.9468 83.7011 0.0000 0.0000 0.0000
# 4 0.0000 0.0000 0.0000 14.2060 0.0000 0.0000
# 5 0.0000 0.0000 0.0000 0.0000 11.3627 0.0000
# 6 0.0000 0.0000 0.0000 0.0000 0.0000 27.3785
#
#
#
# Elastic Compliance Matrix: (Units=1/GPa)
#
#
# Indices 1 2 3 4 5 6 
#
# 1 0.016184 -0.001824 -0.001346 0.000000 0.000000 0.000000
# 2 -0.001824 0.033537 -0.005402 0.000000 0.000000 0.000000
# 3 -0.001346 -0.005402 0.012985 0.000000 0.000000 0.000000
# 4 0.000000 0.000000 0.000000 0.070393 0.000000 0.000000
# 5 0.000000 0.000000 0.000000 0.000000 0.088007 0.000000
# 6 0.000000 0.000000 0.000000 0.000000 0.000000 0.036525
#
#
# Mechanical properties :
#
#
# Convention : Reuss Voigt Hill
#
# Bulk Modulus (GPa) = 21.94846 25.95912 23.95379
# Shear Modulus (GPa) = 17.24360 20.70833 18.97596
#
# Velocity S-wave (km/s) = 3.20405 3.51122 3.36114
# Velocity P-wave (km/s) = 5.17251 5.64738 5.41515
#
# Compressibility (1/GPa) = 0.04556128
#
# Stress axis : x y z
#
# Youngs Moduli (GPa) = 61.78837 29.81776 77.01419
#
# Poissons Ratio (x) = 0.05440 0.10365
# Poissons Ratio (y) = 0.11272 0.41604
# Poissons Ratio (z) = 0.08316 0.16108
#
# Static dielectric constant tensor:
#      x y z
#    x 3.046250 0.000000 0.000000 
#    y 0.000000 3.086800 0.000000 
#    z 0.000000 0.000000 3.360830 
# 
# 
# High freq. dielectric constant tensor:
#      x y z
#    x 1.628590 0.000000 0.000000 
#    y 0.000000 1.639200 0.000000 
#    z 0.000000 0.000000 1.635080 
# 
# From -- ./inp_files/20184.got.cif
#   From: 2010.03.12/outbox.cif.g09.slc.cpg/sg55_11_cif.got.tgz:20184.got - 2010.04.16 15:19:21.
