data_PCOD8225567
_publ_section_title
;
Structure prediction by ZEFSAII (Michael W. Deem and Ramdas Pophale) SiO2 
 PCOD8225567
Probable space group: P B A M
;
_chemical_formula_sum "Si O2"
_cell_formula_units_Z 32
_cell_length_a 17.776860
_cell_length_b 12.307341
_cell_length_c 7.842802
_cell_angle_alpha 90.000000
_cell_angle_beta 90.000000
_cell_angle_gamma 90.000000
_cell_volume 1715.894321
_symmetry_space_group_name_H-M "P B A M"
_symmetry_group_IT_number 55
_symmetry_cell_setting 'orthorhombic'
loop_
_space_group_symop_operation_xyz
x,y,z
-x,-y,z
1/2+x,1/2-y,-z
1/2-x,1/2+y,-z
-x,-y,-z
x,y,-z
1/2-x,1/2+y,z
1/2+x,1/2-y,z
loop_
_atom_site_type_symbol
_atom_site_label
_atom_site_fract_x
_atom_site_fract_y
_atom_site_fract_z
Si Si1 0.530989 0.879510 0.195449
Si Si2 0.687743 0.365937 0.500000
Si Si3 0.907760 0.798875 0.816399
Si Si4 0.360021 0.172487 0.500000
Si Si5 0.000000 0.000000 0.237617
Si Si6 0.892392 0.087341 0.500000
O O1 0.466231 0.793352 0.242769
O O2 0.599041 0.865841 0.327769
O O3 0.500000 0.000000 0.218620
O O4 0.559052 0.861064 0.000000
O O5 0.654878 0.307830 0.330777
O O6 0.776593 0.373154 0.500000
O O7 0.666739 0.491232 0.500000
O O8 0.947765 0.914597 0.860595
O O9 0.871233 0.764869 0.000000
O O10 0.347941 0.301231 0.500000
O O11 0.947415 0.081995 0.340455
#
# Coordination Sequence:
#
# PCOD8225567 Si02
#       6
#     8   4   8   4   4   4
#     4  10  22  38  59  85 109 144 198 241 271 327
#     4  10  24  35  52  84 122 148 179 229 283 343
#     4  10  19  35  58  82 108 145 186 235 285 324
#     4  12  21  38  59  79 116 157 186 220 291 343
#     4   9  15  32  58  83 107 128 185 243 278 307
#     4   9  18  33  54  83 112 138 182 236 267 330
#
# _framework density 18.649168
#
# number of rings (size 3 to 8) (size 9 to 14) (size 15 to 20)
#    0.000    2.000    2.500    2.250    0.000    3.000 
#    0.000    0.000    0.000    0.000    0.000    0.000 
#    0.000    0.000    0.000    0.000    0.000    0.000 
#
# Total GULP energy -396448.951673 kJ/mol
# GULP energy per Si atom -12389.029740 kJ/mol
# Density = 1.860672 g / cm^3
# Si number density = 18.649168 Si / 1000 Ang^3
#
#
#
# Elastic Constant Matrix: (Units=GPa)
#
#
# Indices 1 2 3 4 5 6 
#
# 1 115.1544 29.1947 77.7064 0.0000 0.0000 0.0000
# 2 29.1947 83.4797 28.4075 0.0000 0.0000 0.0000
# 3 77.7064 28.4075 147.2131 0.0000 0.0000 0.0000
# 4 0.0000 0.0000 0.0000 34.9375 0.0000 0.0000
# 5 0.0000 0.0000 0.0000 0.0000 13.6582 0.0000
# 6 0.0000 0.0000 0.0000 0.0000 0.0000 19.2993
#
#
#
# Elastic Compliance Matrix: (Units=1/GPa)
#
#
# Indices 1 2 3 4 5 6 
#
# 1 0.013976 -0.002544 -0.006886 0.000000 0.000000 0.000000
# 2 -0.002544 0.013284 -0.001220 0.000000 0.000000 0.000000
# 3 -0.006886 -0.001220 0.010663 0.000000 0.000000 0.000000
# 4 0.000000 0.000000 0.000000 0.028623 0.000000 0.000000
# 5 0.000000 0.000000 0.000000 0.000000 0.073216 0.000000
# 6 0.000000 0.000000 0.000000 0.000000 0.000000 0.051815
#
#
# Mechanical properties :
#
#
# Convention : Reuss Voigt Hill
#
# Bulk Modulus (GPa) = 60.16357 68.49604 64.32980
# Shear Modulus (GPa) = 22.89175 27.61491 25.25333
#
# Velocity S-wave (km/s) = 3.50736 3.85224 3.68384
# Velocity P-wave (km/s) = 6.98089 7.52295 7.25698
#
# Compressibility (1/GPa) = 0.01662136
#
# Stress axis : x y z
#
# Youngs Moduli (GPa) = 71.55203 75.27817 93.78027
#
# Poissons Ratio (x) = 0.19154 0.64579
# Poissons Ratio (y) = 0.18205 0.11445
# Poissons Ratio (z) = 0.49272 0.09187
#
# Static dielectric constant tensor:
#      x y z
#    x 3.062820 0.000000 0.000000 
#    y 0.000000 3.485360 0.000000 
#    z 0.000000 0.000000 3.632150 
# 
# 
# High freq. dielectric constant tensor:
#      x y z
#    x 1.687620 0.000000 0.000000 
#    y 0.000000 1.736340 0.000000 
#    z 0.000000 0.000000 1.741340 
# 
# From -- ./inp_files/3559.got.cif
#   From: 2010.03.12/outbox.cif.g09.slc.cpg/sg55_2_cif.got.tgz:3559.got - 2010.04.16 15:19:21.
