data_PCOD8225856
_publ_section_title
;
Structure prediction by ZEFSAII (Michael W. Deem and Ramdas Pophale) SiO2 
 PCOD8225856
Probable space group: P B A M
;
_chemical_formula_sum "Si O2"
_cell_formula_units_Z 64
_cell_length_a 28.075224
_cell_length_b 12.822134
_cell_length_c 9.379033
_cell_angle_alpha 90.000000
_cell_angle_beta 90.000000
_cell_angle_gamma 90.000000
_cell_volume 3376.304481
_symmetry_space_group_name_H-M "P B A M"
_symmetry_group_IT_number 55
_symmetry_cell_setting 'orthorhombic'
loop_
_space_group_symop_operation_xyz
x,y,z
-x,-y,z
1/2+x,1/2-y,-z
1/2-x,1/2+y,-z
-x,-y,-z
x,y,-z
1/2-x,1/2+y,z
1/2+x,1/2-y,z
loop_
_atom_site_type_symbol
_atom_site_label
_atom_site_fract_x
_atom_site_fract_y
_atom_site_fract_z
Si Si1 0.418212 0.670517 0.657771
Si Si2 0.687786 0.650980 0.831527
Si Si3 0.159763 0.075671 0.167014
Si Si4 0.945926 0.468229 0.167777
Si Si5 0.128601 0.392954 0.661926
Si Si6 0.708563 0.208980 0.168556
Si Si7 0.518000 0.615145 0.662532
Si Si8 0.910503 0.239749 0.166682
O O1 0.416996 0.619120 0.500000
O O2 0.391784 0.591083 0.762558
O O3 0.394298 0.780982 0.657389
O O4 0.472972 0.688239 0.702818
O O5 0.681557 0.532495 0.774054
O O6 0.737494 0.697029 0.774740
O O7 0.644733 0.728077 0.783615
O O8 0.690122 0.646520 0.000000
O O9 0.193864 0.172690 0.207584
O O10 0.150979 0.070010 0.000000
O O11 0.907695 0.532791 0.256366
O O12 0.934461 0.349066 0.210076
O O13 0.000000 0.500000 0.211066
O O14 0.937851 0.488478 0.000000
O O15 0.138110 0.433534 0.500000
O O16 0.177644 0.379397 0.749909
O O17 0.703057 0.187923 0.000000
O O18 0.500000 0.500000 0.695536
O O19 0.534430 0.630035 0.500000
O O20 0.561817 0.644872 0.761270
O O21 0.914272 0.221657 0.000000
#
# Coordination Sequence:
#
# PCOD8225856 Si02
#       8
#     8   8   8   8   8   8   8   8
#     4   9  18  32  49  71 100 131 163 202 247 296
#     4   9  18  33  52  75 102 131 167 210 258 309
#     4   9  17  30  51  76  98 126 165 205 248 300
#     4  10  21  36  54  78 109 144 180 219 267 322
#     4  10  20  34  53  76 101 132 172 214 256 303
#     4   9  18  33  53  75 100 132 169 211 257 307
#     4  10  20  33  50  73 101 134 169 203 249 309
#     4  10  21  35  52  76 104 135 174 219 263 311
#
# _framework density 18.955635999999998
#
# number of rings (size 3 to 8) (size 9 to 14) (size 15 to 20)
#    0.000    2.500    0.000    1.875    0.000    3.000 
#    0.000    5.000    0.000    3.000    0.000    0.000 
#    0.000    0.000    0.000    0.000    0.000    0.000 
#
# Total GULP energy -793301.971375 kJ/mol
# GULP energy per Si atom -12395.343303 kJ/mol
# Density = 1.891249 g / cm^3
# Si number density = 18.955636 Si / 1000 Ang^3
#
#
#
# Elastic Constant Matrix: (Units=GPa)
#
#
# Indices 1 2 3 4 5 6 
#
# 1 153.3029 60.7039 49.2229 0.0000 0.0000 0.0000
# 2 60.7039 76.5156 35.2790 0.0000 0.0000 0.0000
# 3 49.2229 35.2790 49.5097 0.0000 0.0000 0.0000
# 4 0.0000 0.0000 0.0000 14.9946 0.0000 0.0000
# 5 0.0000 0.0000 0.0000 0.0000 3.2103 0.0000
# 6 0.0000 0.0000 0.0000 0.0000 0.0000 31.3996
#
#
#
# Elastic Compliance Matrix: (Units=1/GPa)
#
#
# Indices 1 2 3 4 5 6 
#
# 1 0.010919 -0.005447 -0.006975 0.000000 0.000000 0.000000
# 2 -0.005447 0.022181 -0.010390 0.000000 0.000000 0.000000
# 3 -0.006975 -0.010390 0.034536 0.000000 0.000000 0.000000
# 4 0.000000 0.000000 0.000000 0.066690 0.000000 0.000000
# 5 0.000000 0.000000 0.000000 0.000000 0.311498 0.000000
# 6 0.000000 0.000000 0.000000 0.000000 0.000000 0.031848
#
#
# Mechanical properties :
#
#
# Convention : Reuss Voigt Hill
#
# Bulk Modulus (GPa) = 45.42800 63.30443 54.36622
# Shear Modulus (GPa) = 9.42268 18.86238 14.14253
#
# Velocity S-wave (km/s) = 2.23197 3.15791 2.73442
# Velocity P-wave (km/s) = 5.53712 6.83850 6.22193
#
# Compressibility (1/GPa) = 0.02201285
#
# Stress axis : x y z
#
# Youngs Moduli (GPa) = 91.57999 45.08300 28.95523
#
# Poissons Ratio (x) = 0.24557 0.20195
# Poissons Ratio (y) = 0.49885 0.30085
# Poissons Ratio (z) = 0.63874 0.46842
#
# Static dielectric constant tensor:
#      x y z
#    x 3.904630 0.000000 0.000000 
#    y 0.000000 3.739580 0.000000 
#    z 0.000000 0.000000 3.477110 
# 
# 
# High freq. dielectric constant tensor:
#      x y z
#    x 1.745500 0.000000 0.000000 
#    y 0.000000 1.734510 0.000000 
#    z 0.000000 0.000000 1.717390 
# 
# From -- ./inp_files/4562.got.cif
#   From: 2010.03.12/outbox.cif.g09.slc.cpg/sg55_3_cif.got.tgz:4562.got - 2010.04.16 15:19:21.
