data_PCOD8225672
_publ_section_title
;
Structure prediction by ZEFSAII (Michael W. Deem and Ramdas Pophale) SiO2 
 PCOD8225672
Probable space group: P B A M
;
_chemical_formula_sum "Si O2"
_cell_formula_units_Z 48
_cell_length_a 9.168450
_cell_length_b 30.819085
_cell_length_c 8.731154
_cell_angle_alpha 90.000000
_cell_angle_beta 90.000000
_cell_angle_gamma 90.000000
_cell_volume 2467.103162
_symmetry_space_group_name_H-M "P B A M"
_symmetry_group_IT_number 55
_symmetry_cell_setting 'orthorhombic'
loop_
_space_group_symop_operation_xyz
x,y,z
-x,-y,z
1/2+x,1/2-y,-z
1/2-x,1/2+y,-z
-x,-y,-z
x,y,-z
1/2-x,1/2+y,z
1/2+x,1/2-y,z
loop_
_atom_site_type_symbol
_atom_site_label
_atom_site_fract_x
_atom_site_fract_y
_atom_site_fract_z
Si Si1 0.669192 0.291851 0.317764
Si Si2 0.655720 0.450701 0.181213
Si Si3 0.671437 0.547840 0.818699
Si Si4 0.842216 0.624929 0.681177
Si Si5 0.842472 0.370754 0.181435
Si Si6 0.663505 0.706623 0.681143
O O1 0.683913 0.298324 0.500000
O O2 0.741862 0.331252 0.229929
O O3 0.746000 0.247946 0.259892
O O4 0.502207 0.289787 0.262347
O O5 0.491688 0.440811 0.240187
O O6 0.708386 0.498517 0.232113
O O7 0.767320 0.414866 0.244674
O O8 0.648525 0.449278 0.000000
O O9 0.787562 0.578448 0.737346
O O10 0.686299 0.553678 0.000000
O O11 0.847082 0.625612 0.500000
O O12 0.735907 0.662597 0.745883
O O13 0.001981 0.634640 0.742130
O O14 0.860156 0.372163 0.000000
O O15 0.669189 0.705876 0.500000
#
# Coordination Sequence:
#
# PCOD8225672 Si02
#       6
#     8   8   8   8   8   8
#     4  10  19  36  59  81 103 135 174 214 258 313
#     4   8  17  34  57  79 104 139 179 217 269 331
#     4   9  17  35  59  80 102 137 180 224 269 321
#     4  11  22  36  53  79 111 145 181 220 263 314
#     4  11  22  36  53  78 108 141 177 218 263 314
#     4   9  19  35  58  81 106 139 175 211 260 319
#
# _framework density 19.456016999999999
#
# number of rings (size 3 to 8) (size 9 to 14) (size 15 to 20)
#    0.000    2.333    0.000    4.000    0.000    3.333 
#    0.000   12.500    0.000    0.000    0.000    0.000 
#    0.000    0.000    0.000    0.000    0.000    0.000 
#
# Total GULP energy -595217.828856 kJ/mol
# GULP energy per Si atom -12400.371434 kJ/mol
# Density = 1.941173 g / cm^3
# Si number density = 19.456017 Si / 1000 Ang^3
#
#
#
# Elastic Constant Matrix: (Units=GPa)
#
#
# Indices 1 2 3 4 5 6 
#
# 1 141.7669 75.5207 21.4213 0.0000 0.0000 0.0000
# 2 75.5207 146.4169 26.0504 0.0000 0.0000 0.0000
# 3 21.4213 26.0504 39.2470 0.0000 0.0000 0.0000
# 4 0.0000 0.0000 0.0000 38.9960 0.0000 0.0000
# 5 0.0000 0.0000 0.0000 0.0000 26.8750 0.0000
# 6 0.0000 0.0000 0.0000 0.0000 0.0000 45.0695
#
#
#
# Elastic Compliance Matrix: (Units=1/GPa)
#
#
# Indices 1 2 3 4 5 6 
#
# 1 0.009904 -0.004702 -0.002285 0.000000 0.000000 0.000000
# 2 -0.004702 0.009977 -0.004056 0.000000 0.000000 0.000000
# 3 -0.002285 -0.004056 0.029419 0.000000 0.000000 0.000000
# 4 0.000000 0.000000 0.000000 0.025644 0.000000 0.000000
# 5 0.000000 0.000000 0.000000 0.000000 0.037209 0.000000
# 6 0.000000 0.000000 0.000000 0.000000 0.000000 0.022188
#
#
# Mechanical properties :
#
#
# Convention : Reuss Voigt Hill
#
# Bulk Modulus (GPa) = 36.74508 63.71284 50.22896
# Shear Modulus (GPa) = 30.21226 35.81733 33.01480
#
# Velocity S-wave (km/s) = 3.94490 4.29527 4.12381
# Velocity P-wave (km/s) = 6.29896 7.57742 6.96757
#
# Compressibility (1/GPa) = 0.02721453
#
# Stress axis : x y z
#
# Youngs Moduli (GPa) = 100.97195 100.23510 33.99206
#
# Poissons Ratio (x) = 0.47128 0.07766
# Poissons Ratio (y) = 0.47475 0.13786
# Poissons Ratio (z) = 0.23069 0.40653
#
# Static dielectric constant tensor:
#      x y z
#    x 3.759780 0.000000 0.000000 
#    y 0.000000 3.924620 0.000000 
#    z 0.000000 0.000000 3.165730 
# 
# 
# High freq. dielectric constant tensor:
#      x y z
#    x 1.768020 0.000000 0.000000 
#    y 0.000000 1.774870 0.000000 
#    z 0.000000 0.000000 1.722480 
# 
# From -- ./inp_files/2761.got.cif
#   From: 2010.03.12/outbox.cif.g09.slc.cpg/sg55_2_cif.got.tgz:2761.got - 2010.04.16 15:19:21.
