data_PCOD8225519
_publ_section_title
;
Structure prediction by ZEFSAII (Michael W. Deem and Ramdas Pophale) SiO2 
 PCOD8225519
Probable space group: P B A M
;
_chemical_formula_sum "Si O2"
_cell_formula_units_Z 64
_cell_length_a 31.907834
_cell_length_b 10.097822
_cell_length_c 9.210984
_cell_angle_alpha 90.000000
_cell_angle_beta 90.000000
_cell_angle_gamma 90.000000
_cell_volume 2967.775620
_symmetry_space_group_name_H-M "P B A M"
_symmetry_group_IT_number 55
_symmetry_cell_setting 'orthorhombic'
loop_
_space_group_symop_operation_xyz
x,y,z
-x,-y,z
1/2+x,1/2-y,-z
1/2-x,1/2+y,-z
-x,-y,-z
x,y,-z
1/2-x,1/2+y,z
1/2+x,1/2-y,z
loop_
_atom_site_type_symbol
_atom_site_label
_atom_site_fract_x
_atom_site_fract_y
_atom_site_fract_z
Si Si1 0.428444 0.972608 0.161335
Si Si2 0.493671 0.832222 0.664240
Si Si3 0.567904 0.415827 0.663624
Si Si4 0.135449 0.685421 0.835766
Si Si5 0.555428 0.664957 0.835398
Si Si6 0.217455 0.641199 0.669445
Si Si7 0.209220 0.337708 0.670708
Si Si8 0.130142 0.232628 0.160796
O O1 0.467973 0.960480 0.272328
O O2 0.409354 0.827918 0.142262
O O3 0.392034 0.064390 0.227939
O O4 0.442137 0.025945 0.000000
O O5 0.508307 0.862830 0.500000
O O6 0.462933 0.707504 0.665281
O O7 0.533164 0.796378 0.767963
O O8 0.578561 0.459010 0.500000
O O9 0.543964 0.536132 0.742640
O O10 0.612373 0.388836 0.743780
O O11 0.105734 0.814609 0.829909
O O12 0.176597 0.705129 0.741396
O O13 0.149538 0.653277 0.000000
O O14 0.539637 0.645395 0.000000
O O15 0.210808 0.657283 0.500000
O O16 0.224373 0.486786 0.711398
O O17 0.256574 0.729800 0.720969
O O18 0.199652 0.326586 0.500000
O O19 0.167551 0.306922 0.758716
O O20 0.144551 0.184251 0.000000
#
# Coordination Sequence:
#
# PCOD8225519 Si02
#       8
#     8   8   8   8   8   8   8   8
#     4   9  18  35  58  81 110 147 189 235 285 340
#     4  10  21  36  56  83 113 149 195 243 292 345
#     4  10  21  37  57  82 116 154 193 241 291 346
#     4  10  22  40  59  82 114 151 192 240 293 348
#     4  11  23  37  55  81 116 154 194 242 296 350
#     4  10  22  39  61  87 119 157 199 242 296 357
#     4  10  21  38  59  87 120 155 194 242 293 351
#     4  10  19  34  60  88 111 146 193 234 282 343
#
# _framework density 21.564973999999999
#
# number of rings (size 3 to 8) (size 9 to 14) (size 15 to 20)
#    0.000    2.000    1.250    1.875    0.000    7.000 
#    0.000    3.750    0.000    0.000    0.000    0.000 
#    0.000    0.000    0.000    0.000    0.000    0.000 
#
# Total GULP energy -793643.366753 kJ/mol
# GULP energy per Si atom -12400.677606 kJ/mol
# Density = 2.151589 g / cm^3
# Si number density = 21.564974 Si / 1000 Ang^3
#
#
#
# Elastic Constant Matrix: (Units=GPa)
#
#
# Indices 1 2 3 4 5 6 
#
# 1 93.5359 7.9410 46.4992 0.0000 0.0000 0.0000
# 2 7.9410 52.9911 16.8421 0.0000 0.0000 0.0000
# 3 46.4992 16.8421 114.4049 0.0000 0.0000 0.0000
# 4 0.0000 0.0000 0.0000 26.6189 0.0000 0.0000
# 5 0.0000 0.0000 0.0000 0.0000 37.4787 0.0000
# 6 0.0000 0.0000 0.0000 0.0000 0.0000 31.4549
#
#
#
# Elastic Compliance Matrix: (Units=1/GPa)
#
#
# Indices 1 2 3 4 5 6 
#
# 1 0.013403 -0.000291 -0.005405 0.000000 0.000000 0.000000
# 2 -0.000291 0.019804 -0.002797 0.000000 0.000000 0.000000
# 3 -0.005405 -0.002797 0.011349 0.000000 0.000000 0.000000
# 4 0.000000 0.000000 0.000000 0.037567 0.000000 0.000000
# 5 0.000000 0.000000 0.000000 0.000000 0.026682 0.000000
# 6 0.000000 0.000000 0.000000 0.000000 0.000000 0.031792
#
#
# Mechanical properties :
#
#
# Convention : Reuss Voigt Hill
#
# Bulk Modulus (GPa) = 36.27062 44.83293 40.55178
# Shear Modulus (GPa) = 29.98115 31.75381 30.86748
#
# Velocity S-wave (km/s) = 3.73268 3.84144 3.78745
# Velocity P-wave (km/s) = 5.95256 6.36478 6.16212
#
# Compressibility (1/GPa) = 0.02757052
#
# Stress axis : x y z
#
# Youngs Moduli (GPa) = 74.61279 50.49559 88.11087
#
# Poissons Ratio (x) = 0.01468 0.47620
# Poissons Ratio (y) = 0.02169 0.24647
# Poissons Ratio (z) = 0.40325 0.14125
#
# Static dielectric constant tensor:
#      x y z
#    x 3.744750 0.000000 0.000000 
#    y 0.000000 3.978470 0.000000 
#    z 0.000000 0.000000 4.027700 
# 
# 
# High freq. dielectric constant tensor:
#      x y z
#    x 1.836420 0.000000 0.000000 
#    y 0.000000 1.857000 0.000000 
#    z 0.000000 0.000000 1.847570 
# 
# From -- ./inp_files/10783.got.cif
#   From: 2010.03.12/outbox.cif.g09.slc.cpg/sg55_6_cif.got.tgz:10783.got - 2010.04.16 15:19:21.
