data_PCOD8225591
_publ_section_title
;
Structure prediction by ZEFSAII (Michael W. Deem and Ramdas Pophale) SiO2 
 PCOD8225591
Probable space group: P B A M
;
_chemical_formula_sum "Si O2"
_cell_formula_units_Z 64
_cell_length_a 17.849989
_cell_length_b 20.466145
_cell_length_c 8.959849
_cell_angle_alpha 90.000000
_cell_angle_beta 90.000000
_cell_angle_gamma 90.000000
_cell_volume 3273.216186
_symmetry_space_group_name_H-M "P B A M"
_symmetry_group_IT_number 55
_symmetry_cell_setting 'orthorhombic'
loop_
_space_group_symop_operation_xyz
x,y,z
-x,-y,z
1/2+x,1/2-y,-z
1/2-x,1/2+y,-z
-x,-y,-z
x,y,-z
1/2-x,1/2+y,z
1/2+x,1/2-y,z
loop_
_atom_site_type_symbol
_atom_site_label
_atom_site_fract_x
_atom_site_fract_y
_atom_site_fract_z
Si Si1 0.819070 0.506342 0.667929
Si Si2 0.181721 0.623276 0.826576
Si Si3 0.639339 0.628599 0.171987
Si Si4 0.567225 0.764124 0.174954
Si Si5 0.314706 0.863786 0.173335
Si Si6 0.858877 0.000109 0.667771
Si Si7 0.645598 0.369442 0.824648
Si Si8 0.414125 0.757134 0.676850
O O1 0.849865 0.513340 0.500000
O O2 0.850038 0.439310 0.738107
O O3 0.847392 0.567931 0.764242
O O4 0.730069 0.504475 0.671319
O O5 0.132524 0.685453 0.782401
O O6 0.267152 0.639617 0.783095
O O7 0.176505 0.605773 0.000000
O O8 0.594107 0.692280 0.222761
O O9 0.726527 0.641556 0.201032
O O10 0.608225 0.567411 0.266229
O O11 0.625403 0.612011 0.000000
O O12 0.494329 0.783473 0.268523
O O13 0.548711 0.767493 0.000000
O O14 0.349964 0.804103 0.262131
O O15 0.335696 0.858146 0.000000
O O16 0.889034 0.990696 0.500000
O O17 0.884896 0.939423 0.768917
O O18 0.597892 0.315066 0.740633
O O19 0.631175 0.363188 0.000000
O O20 0.410786 0.755771 0.500000
#
# Coordination Sequence:
#
# PCOD8225591 Si02
#       8
#     8   8   8   8   8   8   8   8
#     4   9  17  30  51  82 115 141 169 213 267 317
#     4   9  18  34  58  84 107 137 179 222 263 313
#     4   9  18  34  58  84 107 137 179 222 263 313
#     4  10  21  38  56  76 106 142 181 222 264 314
#     4  10  19  35  59  83 107 139 179 220 263 314
#     4   9  17  30  51  82 115 141 169 213 267 317
#     4  10  19  35  59  83 107 139 179 220 263 314
#     4  12  25  38  52  76 110 144 179 220 268 318
#
# _framework density 19.552636
#
# number of rings (size 3 to 8) (size 9 to 14) (size 15 to 20)
#    0.000    2.250    0.000    3.375    0.000    7.000 
#    0.000    2.500    0.000    7.500    0.000    0.000 
#    0.000    0.000    0.000    0.000    0.000    0.000 
#
# Total GULP energy -793789.074376 kJ/mol
# GULP energy per Si atom -12402.954287 kJ/mol
# Density = 1.950813 g / cm^3
# Si number density = 19.552636 Si / 1000 Ang^3
#
#
#
# Elastic Constant Matrix: (Units=GPa)
#
#
# Indices 1 2 3 4 5 6 
#
# 1 30.5981 10.0260 20.9104 0.0000 0.0000 0.0000
# 2 10.0260 100.1270 41.5629 0.0000 0.0000 0.0000
# 3 20.9104 41.5629 107.0659 0.0000 0.0000 0.0000
# 4 0.0000 0.0000 0.0000 34.1374 0.0000 0.0000
# 5 0.0000 0.0000 0.0000 0.0000 20.4537 0.0000
# 6 0.0000 0.0000 0.0000 0.0000 0.0000 3.3248
#
#
#
# Elastic Compliance Matrix: (Units=1/GPa)
#
#
# Indices 1 2 3 4 5 6 
#
# 1 0.037777 -0.000858 -0.007045 0.000000 0.000000 0.000000
# 2 -0.000858 0.011925 -0.004462 0.000000 0.000000 0.000000
# 3 -0.007045 -0.004462 0.012448 0.000000 0.000000 0.000000
# 4 0.000000 0.000000 0.000000 0.029293 0.000000 0.000000
# 5 0.000000 0.000000 0.000000 0.000000 0.048891 0.000000
# 6 0.000000 0.000000 0.000000 0.000000 0.000000 0.300770
#
#
# Mechanical properties :
#
#
# Convention : Reuss Voigt Hill
#
# Bulk Modulus (GPa) = 26.72316 42.53216 34.62766
# Shear Modulus (GPa) = 10.45350 22.60264 16.52807
#
# Velocity S-wave (km/s) = 2.31472 3.40367 2.91058
# Velocity P-wave (km/s) = 4.56518 6.10299 5.38922
#
# Compressibility (1/GPa) = 0.03742072
#
# Stress axis : x y z
#
# Youngs Moduli (GPa) = 26.47083 83.85495 80.33435
#
# Poissons Ratio (x) = 0.07198 0.56594
# Poissons Ratio (y) = 0.02272 0.35843
# Poissons Ratio (z) = 0.18648 0.37414
#
# Static dielectric constant tensor:
#      x y z
#    x 3.253580 0.000000 0.000000 
#    y 0.000000 3.764080 0.000000 
#    z 0.000000 0.000000 3.625220 
# 
# 
# High freq. dielectric constant tensor:
#      x y z
#    x 1.728960 0.000000 0.000000 
#    y 0.000000 1.776410 0.000000 
#    z 0.000000 0.000000 1.764530 
# 
# From -- ./inp_files/8004.got.cif
#   From: 2010.03.12/outbox.cif.g09.slc.cpg/sg55_5_cif.got.tgz:8004.got - 2010.04.16 15:19:21.
