data_PCOD8225483
_publ_section_title
;
Structure prediction by ZEFSAII (Michael W. Deem and Ramdas Pophale) SiO2 
 PCOD8225483
Probable space group: P B A M
;
_chemical_formula_sum "Si O2"
_cell_formula_units_Z 64
_cell_length_a 11.455404
_cell_length_b 32.326202
_cell_length_c 9.100374
_cell_angle_alpha 90.000000
_cell_angle_beta 90.000000
_cell_angle_gamma 90.000000
_cell_volume 3369.956799
_symmetry_space_group_name_H-M "P B A M"
_symmetry_group_IT_number 55
_symmetry_cell_setting 'orthorhombic'
loop_
_space_group_symop_operation_xyz
x,y,z
-x,-y,z
1/2+x,1/2-y,-z
1/2-x,1/2+y,-z
-x,-y,-z
x,y,-z
1/2-x,1/2+y,z
1/2+x,1/2-y,z
loop_
_atom_site_type_symbol
_atom_site_label
_atom_site_fract_x
_atom_site_fract_y
_atom_site_fract_z
Si Si1 0.897988 0.714626 0.671869
Si Si2 0.221902 0.130084 0.171495
Si Si3 0.800456 0.172418 0.830668
Si Si4 0.331077 0.469720 0.668286
Si Si5 0.329161 0.910283 0.827878
Si Si6 0.051321 0.202714 0.831289
Si Si7 0.913124 0.940000 0.669038
Si Si8 0.467143 0.132242 0.326783
O O1 0.881912 0.718565 0.500000
O O2 0.770829 0.706507 0.739633
O O3 0.950060 0.757012 0.731393
O O4 0.985984 0.677733 0.715108
O O5 0.163449 0.174542 0.201864
O O6 0.133185 0.094681 0.221619
O O7 0.338212 0.127172 0.265585
O O8 0.249752 0.124280 0.000000
O O9 0.760428 0.126457 0.787232
O O10 0.936512 0.176126 0.792776
O O11 0.773837 0.181544 0.000000
O O12 0.302467 0.458794 0.500000
O O13 0.227750 0.452578 0.770283
O O14 0.453883 0.449302 0.713450
O O15 0.335953 0.518879 0.690872
O O16 0.451772 0.902545 0.747118
O O17 0.353261 0.913880 0.000000
O O18 0.049454 0.217076 0.000000
O O19 0.904948 0.925115 0.500000
O O20 0.466231 0.124813 0.500000
#
# Coordination Sequence:
#
# PCOD8225483 Si02
#       8
#     8   8   8   8   8   8   8   8
#     4  10  22  37  55  80 107 137 182 232 275 322
#     4  11  23  38  57  83 113 147 187 231 281 336
#     4   9  19  36  55  77 107 141 178 220 270 329
#     4   9  18  34  58  86 117 151 187 226 277 335
#     4  10  19  34  58  85 111 143 186 233 278 328
#     4  10  22  37  55  79 108 144 181 221 275 334
#     4   9  19  36  57  84 118 154 187 226 277 334
#     4  10  22  40  58  78 110 150 188 231 282 336
#
# _framework density 18.991340999999998
#
# number of rings (size 3 to 8) (size 9 to 14) (size 15 to 20)
#    0.000    2.250    0.000    3.000    1.750    5.500 
#    0.000    1.875    0.000    3.750    0.000    0.000 
#    0.000    0.000    0.000    0.000    0.000    0.000 
#
# Total GULP energy -793853.951049 kJ/mol
# GULP energy per Si atom -12403.967985 kJ/mol
# Density = 1.894812 g / cm^3
# Si number density = 18.991341 Si / 1000 Ang^3
#
#
#
# Elastic Constant Matrix: (Units=GPa)
#
#
# Indices 1 2 3 4 5 6 
#
# 1 65.2107 5.9860 26.0144 0.0000 0.0000 0.0000
# 2 5.9860 53.2281 25.2493 0.0000 0.0000 0.0000
# 3 26.0144 25.2493 72.0243 0.0000 0.0000 0.0000
# 4 0.0000 0.0000 0.0000 34.5187 0.0000 0.0000
# 5 0.0000 0.0000 0.0000 0.0000 32.7965 0.0000
# 6 0.0000 0.0000 0.0000 0.0000 0.0000 24.0769
#
#
#
# Elastic Compliance Matrix: (Units=1/GPa)
#
#
# Indices 1 2 3 4 5 6 
#
# 1 0.017988 0.001270 -0.006942 0.000000 0.000000 0.000000
# 2 0.001270 0.022624 -0.008390 0.000000 0.000000 0.000000
# 3 -0.006942 -0.008390 0.019333 0.000000 0.000000 0.000000
# 4 0.000000 0.000000 0.000000 0.028970 0.000000 0.000000
# 5 0.000000 0.000000 0.000000 0.000000 0.030491 0.000000
# 6 0.000000 0.000000 0.000000 0.000000 0.000000 0.041534
#
#
# Mechanical properties :
#
#
# Convention : Reuss Voigt Hill
#
# Bulk Modulus (GPa) = 31.42614 33.88474 32.65544
# Shear Modulus (GPa) = 25.04125 27.15930 26.10027
#
# Velocity S-wave (km/s) = 3.63514 3.78575 3.71121
# Velocity P-wave (km/s) = 5.84829 6.08196 5.96627
#
# Compressibility (1/GPa) = 0.03182065
#
# Stress axis : x y z
#
# Youngs Moduli (GPa) = 55.59325 44.20059 51.72513
#
# Poissons Ratio (x) = -0.05615 0.35909
# Poissons Ratio (y) = -0.07062 0.43398
# Poissons Ratio (z) = 0.38595 0.37085
#
# Static dielectric constant tensor:
#      x y z
#    x 3.432340 0.000000 0.000000 
#    y 0.000000 3.387570 0.000000 
#    z 0.000000 0.000000 3.447530 
# 
# 
# High freq. dielectric constant tensor:
#      x y z
#    x 1.737600 0.000000 0.000000 
#    y 0.000000 1.731980 0.000000 
#    z 0.000000 0.000000 1.742060 
# 
# From -- ./inp_files/4523.got.cif
#   From: 2010.03.12/outbox.cif.g09.slc.cpg/sg55_3_cif.got.tgz:4523.got - 2010.04.16 15:19:21.
