data_PCOD8225968
_publ_section_title
;
Structure prediction by ZEFSAII (Michael W. Deem and Ramdas Pophale) SiO2 
 PCOD8225968
Probable space group: P B A M
;
_chemical_formula_sum "Si O2"
_cell_formula_units_Z 56
_cell_length_a 13.489695
_cell_length_b 23.918055
_cell_length_c 9.121864
_cell_angle_alpha 90.000000
_cell_angle_beta 90.000000
_cell_angle_gamma 90.000000
_cell_volume 2943.144489
_symmetry_space_group_name_H-M "P B A M"
_symmetry_group_IT_number 55
_symmetry_cell_setting 'orthorhombic'
loop_
_space_group_symop_operation_xyz
x,y,z
-x,-y,z
1/2+x,1/2-y,-z
1/2-x,1/2+y,-z
-x,-y,-z
x,y,-z
1/2-x,1/2+y,z
1/2+x,1/2-y,z
loop_
_atom_site_type_symbol
_atom_site_label
_atom_site_fract_x
_atom_site_fract_y
_atom_site_fract_z
Si Si1 0.625600 0.880424 0.668739
Si Si2 0.411441 0.669510 0.828095
Si Si3 0.204429 0.059318 0.172132
Si Si4 0.239459 0.728312 0.330791
Si Si5 0.615993 0.665189 0.328469
Si Si6 0.057446 0.446662 0.671270
Si Si7 0.720614 0.551767 0.673849
O O1 0.649474 0.895625 0.500000
O O2 0.688634 0.922634 0.767786
O O3 0.651893 0.816296 0.703377
O O4 0.509135 0.891282 0.702518
O O5 0.375317 0.607041 0.787950
O O6 0.335779 0.715334 0.764994
O O7 0.517943 0.679924 0.759597
O O8 0.417484 0.678792 0.000000
O O9 0.170732 0.002103 0.250329
O O10 0.211969 0.049355 0.000000
O O11 0.271368 0.725232 0.500000
O O12 0.199339 0.789160 0.288682
O O13 0.590908 0.667113 0.500000
O O14 0.656913 0.605269 0.278710
O O15 0.071567 0.456718 0.500000
O O16 0.167569 0.439757 0.737059
O O17 0.000000 0.500000 0.739720
O O18 0.718641 0.543864 0.500000
#
# Coordination Sequence:
#
# PCOD8225968 Si02
#       7
#     8   8   8   8   8   8   8
#     4   9  16  30  54  79 105 142 179 216 268 329
#     4  10  22  39  59  80 108 148 185 223 273 333
#     4  10  20  34  52  77 108 142 184 228 270 321
#     4   9  19  36  59  84 108 138 182 231 275 324
#     4  10  22  38  57  84 113 141 180 235 282 323
#     4   9  15  26  48  77 105 134 171 213 262 326
#     4  10  20  34  53  78 110 145 182 226 279 332
#
# _framework density 19.027267999999999
#
# number of rings (size 3 to 8) (size 9 to 14) (size 15 to 20)
#    0.000    2.429    1.429    0.857    0.000    4.571 
#    0.000    8.571    0.000    0.000    0.000    0.000 
#    0.000    0.000    0.000    0.000    0.000    0.000 
#
# Total GULP energy -694388.307044 kJ/mol
# GULP energy per Si atom -12399.791197 kJ/mol
# Density = 1.898396 g / cm^3
# Si number density = 19.027268 Si / 1000 Ang^3
#
#
#
# Elastic Constant Matrix: (Units=GPa)
#
#
# Indices 1 2 3 4 5 6 
#
# 1 104.4477 38.5727 45.9730 0.0000 0.0000 0.0000
# 2 38.5727 112.1688 47.9346 0.0000 0.0000 0.0000
# 3 45.9730 47.9346 59.1305 0.0000 0.0000 0.0000
# 4 0.0000 0.0000 0.0000 20.4845 0.0000 0.0000
# 5 0.0000 0.0000 0.0000 0.0000 14.9905 0.0000
# 6 0.0000 0.0000 0.0000 0.0000 0.0000 20.9405
#
#
#
# Elastic Compliance Matrix: (Units=1/GPa)
#
#
# Indices 1 2 3 4 5 6 
#
# 1 0.014560 -0.000259 -0.011110 0.000000 0.000000 0.000000
# 2 -0.000259 0.013645 -0.010860 0.000000 0.000000 0.000000
# 3 -0.011110 -0.010860 0.034354 0.000000 0.000000 0.000000
# 4 0.000000 0.000000 0.000000 0.048817 0.000000 0.000000
# 5 0.000000 0.000000 0.000000 0.000000 0.066709 0.000000
# 6 0.000000 0.000000 0.000000 0.000000 0.000000 0.047754
#
#
# Mechanical properties :
#
#
# Convention : Reuss Voigt Hill
#
# Bulk Modulus (GPa) = 55.24853 60.07860 57.66357
# Shear Modulus (GPa) = 18.09421 20.83423 19.46422
#
# Velocity S-wave (km/s) = 3.08711 3.31262 3.20185
# Velocity P-wave (km/s) = 6.46580 6.80256 6.63632
#
# Compressibility (1/GPa) = 0.01810003
#
# Stress axis : x y z
#
# Youngs Moduli (GPa) = 68.68124 73.28555 29.10902
#
# Poissons Ratio (x) = 0.01899 0.32341
# Poissons Ratio (y) = 0.01779 0.31613
# Poissons Ratio (z) = 0.76306 0.79590
#
# Static dielectric constant tensor:
#      x y z
#    x 3.446200 0.000000 0.000000 
#    y 0.000000 3.565260 0.000000 
#    z 0.000000 0.000000 3.249690 
# 
# 
# High freq. dielectric constant tensor:
#      x y z
#    x 1.735130 0.000000 0.000000 
#    y 0.000000 1.741410 0.000000 
#    z 0.000000 0.000000 1.714680 
# 
# From -- ./inp_files/6096.got.cif
#   From: 2010.03.12/outbox.cif.g09.slc.cpg/sg55_4_cif.got.tgz:6096.got - 2010.04.16 15:19:21.
