data_PCOD8225704
_publ_section_title
;
Structure prediction by ZEFSAII (Michael W. Deem and Ramdas Pophale) SiO2 
 PCOD8225704
Probable space group: P B A M
;
_chemical_formula_sum "Si O2"
_cell_formula_units_Z 48
_cell_length_a 28.189879
_cell_length_b 10.297477
_cell_length_c 8.925245
_cell_angle_alpha 90.000000
_cell_angle_beta 90.000000
_cell_angle_gamma 90.000000
_cell_volume 2590.861448
_symmetry_space_group_name_H-M "P B A M"
_symmetry_group_IT_number 55
_symmetry_cell_setting 'orthorhombic'
loop_
_space_group_symop_operation_xyz
x,y,z
-x,-y,z
1/2+x,1/2-y,-z
1/2-x,1/2+y,-z
-x,-y,-z
x,y,-z
1/2-x,1/2+y,z
1/2+x,1/2-y,z
loop_
_atom_site_type_symbol
_atom_site_label
_atom_site_fract_x
_atom_site_fract_y
_atom_site_fract_z
Si Si1 0.197530 0.485170 0.173753
Si Si2 0.307993 0.468645 0.825304
Si Si3 0.449681 0.852671 0.177530
Si Si4 0.855251 0.770892 0.822333
Si Si5 0.445497 0.147796 0.177323
Si Si6 0.146788 0.723691 0.323354
O O1 0.253083 0.498156 0.201792
O O2 0.180300 0.343479 0.227906
O O3 0.170612 0.591238 0.270396
O O4 0.184371 0.508333 0.000000
O O5 0.337115 0.591566 0.759720
O O6 0.322239 0.343049 0.733428
O O7 0.318389 0.443501 0.000000
O O8 0.408441 0.757912 0.239828
O O9 0.501874 0.804734 0.228664
O O10 0.439152 0.999114 0.231351
O O11 0.448587 0.855483 0.000000
O O12 0.855345 0.779085 0.000000
O O13 0.406577 0.235887 0.259247
O O14 0.438833 0.162189 0.000000
O O15 0.144671 0.726781 0.500000
#
# Coordination Sequence:
#
# PCOD8225704 Si02
#       6
#     8   8   8   8   8   8
#     4  10  19  36  61  83 104 136 184 233 271 315
#     4  10  21  36  57  82 108 142 181 225 271 316
#     4   8  14  27  54  85 105 130 174 236 288 313
#     4   9  16  30  55  84 107 129 174 234 280 318
#     4   9  16  31  56  80 104 137 181 230 276 321
#     4  12  24  36  52  79 116 152 179 213 266 327
#
# _framework density 18.526657
#
# number of rings (size 3 to 8) (size 9 to 14) (size 15 to 20)
#    0.000    2.333    1.667    3.500    0.000    3.333 
#    0.000    3.333    0.000    5.000    0.000    0.000 
#    0.000    0.000    0.000    0.000    0.000    0.000 
#
# Total GULP energy -595090.016993 kJ/mol
# GULP energy per Si atom -12397.708687 kJ/mol
# Density = 1.848449 g / cm^3
# Si number density = 18.526657 Si / 1000 Ang^3
#
#
#
# Elastic Constant Matrix: (Units=GPa)
#
#
# Indices 1 2 3 4 5 6 
#
# 1 108.3244 24.1441 38.1038 0.0000 0.0000 0.0000
# 2 24.1441 64.7218 25.4750 0.0000 0.0000 0.0000
# 3 38.1038 25.4750 60.3175 0.0000 0.0000 0.0000
# 4 0.0000 0.0000 0.0000 10.5741 0.0000 0.0000
# 5 0.0000 0.0000 0.0000 0.0000 4.5029 0.0000
# 6 0.0000 0.0000 0.0000 0.0000 0.0000 17.5574
#
#
#
# Elastic Compliance Matrix: (Units=1/GPa)
#
#
# Indices 1 2 3 4 5 6 
#
# 1 0.012041 -0.001796 -0.006848 0.000000 0.000000 0.000000
# 2 -0.001796 0.018799 -0.006805 0.000000 0.000000 0.000000
# 3 -0.006848 -0.006805 0.023779 0.000000 0.000000 0.000000
# 4 0.000000 0.000000 0.000000 0.094571 0.000000 0.000000
# 5 0.000000 0.000000 0.000000 0.000000 0.222077 0.000000
# 6 0.000000 0.000000 0.000000 0.000000 0.000000 0.056956
#
#
# Mechanical properties :
#
#
# Convention : Reuss Voigt Hill
#
# Bulk Modulus (GPa) = 42.15731 45.42328 43.79029
# Shear Modulus (GPa) = 10.70600 16.23628 13.47114
#
# Velocity S-wave (km/s) = 2.40650 2.96357 2.69945
# Velocity P-wave (km/s) = 5.52503 6.02340 5.77959
#
# Compressibility (1/GPa) = 0.02372068
#
# Stress axis : x y z
#
# Youngs Moduli (GPa) = 83.05233 53.19314 42.05424
#
# Poissons Ratio (x) = 0.09556 0.28797
# Poissons Ratio (y) = 0.14920 0.28618
# Poissons Ratio (z) = 0.56871 0.36198
#
# Static dielectric constant tensor:
#      x y z
#    x 3.890640 0.000000 0.000000 
#    y 0.000000 3.420770 0.000000 
#    z 0.000000 0.000000 2.963360 
# 
# 
# High freq. dielectric constant tensor:
#      x y z
#    x 1.741180 0.000000 0.000000 
#    y 0.000000 1.705660 0.000000 
#    z 0.000000 0.000000 1.668810 
# 
# From -- ./inp_files/2848.got.cif
#   From: 2010.03.12/outbox.cif.g09.slc.cpg/sg55_2_cif.got.tgz:2848.got - 2010.04.16 15:19:21.
