data_PCOD8225597
_publ_section_title
;
Structure prediction by ZEFSAII (Michael W. Deem and Ramdas Pophale) SiO2 
 PCOD8225597
Probable space group: P B A M
;
_chemical_formula_sum "Si O2"
_cell_formula_units_Z 56
_cell_length_a 16.677910
_cell_length_b 19.741475
_cell_length_c 8.725435
_cell_angle_alpha 90.000000
_cell_angle_beta 90.000000
_cell_angle_gamma 90.000000
_cell_volume 2872.819313
_symmetry_space_group_name_H-M "P B A M"
_symmetry_group_IT_number 55
_symmetry_cell_setting 'orthorhombic'
loop_
_space_group_symop_operation_xyz
x,y,z
-x,-y,z
1/2+x,1/2-y,-z
1/2-x,1/2+y,-z
-x,-y,-z
x,y,-z
1/2-x,1/2+y,z
1/2+x,1/2-y,z
loop_
_atom_site_type_symbol
_atom_site_label
_atom_site_fract_x
_atom_site_fract_y
_atom_site_fract_z
Si Si1 0.349453 0.648218 0.819349
Si Si2 0.930386 0.451788 0.318035
Si Si3 0.985407 0.162694 0.681216
Si Si4 0.238436 0.524864 0.821678
Si Si5 0.747150 0.741807 0.318820
Si Si6 0.080763 0.697572 0.319113
Si Si7 0.823195 0.115135 0.821057
O O1 0.439054 0.629722 0.766238
O O2 0.290393 0.588675 0.764391
O O3 0.325491 0.718556 0.737879
O O4 0.346975 0.657315 0.000000
O O5 0.934264 0.451228 0.500000
O O6 0.844255 0.479711 0.269603
O O7 0.944685 0.375548 0.251397
O O8 0.000000 0.500000 0.250163
O O9 0.996005 0.156095 0.500000
O O10 0.978071 0.241824 0.733231
O O11 0.906128 0.122420 0.729770
O O12 0.289835 0.458736 0.784920
O O13 0.218060 0.530902 0.000000
O O14 0.750364 0.730975 0.500000
O O15 0.670524 0.785373 0.263693
O O16 0.742778 0.668633 0.238852
O O17 0.080986 0.693428 0.500000
O O18 0.839293 0.126517 0.000000
#
# Coordination Sequence:
#
# PCOD8225597 Si02
#       7
#     8   8   8   8   8   8   8
#     4  11  22  37  58  86 117 155 201 242 296 356
#     4  10  20  35  58  86 115 150 190 237 292 352
#     4  10  21  37  57  84 116 153 199 247 295 345
#     4  10  23  40  58  83 118 158 196 240 294 357
#     4  10  19  35  59  83 110 149 194 244 294 347
#     4   8  16  33  54  78 109 141 180 231 286 339
#     4  10  21  39  59  83 119 156 195 244 297 352
#
# _framework density 19.493047000000001
#
# number of rings (size 3 to 8) (size 9 to 14) (size 15 to 20)
#    0.000    2.143    1.429    2.571    0.000    3.714 
#    0.000    5.000    0.000    0.000    0.000    0.000 
#    0.000    0.000    0.000    0.000    0.000    0.000 
#
# Total GULP energy -694439.525230 kJ/mol
# GULP energy per Si atom -12400.705808 kJ/mol
# Density = 1.944868 g / cm^3
# Si number density = 19.493047 Si / 1000 Ang^3
#
#
#
# Elastic Constant Matrix: (Units=GPa)
#
#
# Indices 1 2 3 4 5 6 
#
# 1 96.5931 42.8170 21.8476 0.0000 0.0000 0.0000
# 2 42.8170 88.6445 36.0621 0.0000 0.0000 0.0000
# 3 21.8476 36.0621 43.7970 0.0000 0.0000 0.0000
# 4 0.0000 0.0000 0.0000 25.6787 0.0000 0.0000
# 5 0.0000 0.0000 0.0000 0.0000 32.3418 0.0000
# 6 0.0000 0.0000 0.0000 0.0000 0.0000 27.0647
#
#
#
# Elastic Compliance Matrix: (Units=1/GPa)
#
#
# Indices 1 2 3 4 5 6 
#
# 1 0.013291 -0.005598 -0.002021 0.000000 0.000000 0.000000
# 2 -0.005598 0.019321 -0.013116 0.000000 0.000000 0.000000
# 3 -0.002021 -0.013116 0.034641 0.000000 0.000000 0.000000
# 4 0.000000 0.000000 0.000000 0.038943 0.000000 0.000000
# 5 0.000000 0.000000 0.000000 0.000000 0.030920 0.000000
# 6 0.000000 0.000000 0.000000 0.000000 0.000000 0.036948
#
#
# Mechanical properties :
#
#
# Convention : Reuss Voigt Hill
#
# Bulk Modulus (GPa) = 38.78585 47.83201 43.30893
# Shear Modulus (GPa) = 22.30874 25.57091 23.93982
#
# Velocity S-wave (km/s) = 3.38664 3.62580 3.50826
# Velocity P-wave (km/s) = 5.93573 6.48998 6.21903
#
# Compressibility (1/GPa) = 0.02578260
#
# Stress axis : x y z
#
# Youngs Moduli (GPa) = 75.23821 51.75791 28.86786
#
# Poissons Ratio (x) = 0.28972 0.05834
# Poissons Ratio (y) = 0.42116 0.37864
# Poissons Ratio (z) = 0.15206 0.67887
#
# Static dielectric constant tensor:
#      x y z
#    x 3.503180 0.000000 0.000000 
#    y 0.000000 3.850930 0.000000 
#    z 0.000000 0.000000 3.383360 
# 
# 
# High freq. dielectric constant tensor:
#      x y z
#    x 1.755340 0.000000 0.000000 
#    y 0.000000 1.764890 0.000000 
#    z 0.000000 0.000000 1.748850 
# 
# From -- ./inp_files/5997.got.cif
#   From: 2010.03.12/outbox.cif.g09.slc.cpg/sg55_3_cif.got.tgz:5997.got - 2010.04.16 15:19:21.
