data_PCOD8225703
_publ_section_title
;
Structure prediction by ZEFSAII (Michael W. Deem and Ramdas Pophale) SiO2 
 PCOD8225703
Probable space group: P B A M
;
_chemical_formula_sum "Si O2"
_cell_formula_units_Z 56
_cell_length_a 8.899804
_cell_length_b 19.913666
_cell_length_c 15.736822
_cell_angle_alpha 90.000000
_cell_angle_beta 90.000000
_cell_angle_gamma 90.000000
_cell_volume 2789.001151
_symmetry_space_group_name_H-M "P B A M"
_symmetry_group_IT_number 55
_symmetry_cell_setting 'orthorhombic'
loop_
_space_group_symop_operation_xyz
x,y,z
-x,-y,z
1/2+x,1/2-y,-z
1/2-x,1/2+y,-z
-x,-y,-z
x,y,-z
1/2-x,1/2+y,z
1/2+x,1/2-y,z
loop_
_atom_site_type_symbol
_atom_site_label
_atom_site_fract_x
_atom_site_fract_y
_atom_site_fract_z
Si Si1 0.159112 0.441114 0.595402
Si Si2 0.839364 0.795080 0.597457
Si Si3 0.653731 0.926138 0.000000
Si Si4 0.838465 0.170424 0.664732
Si Si5 0.839259 0.415256 0.343836
Si Si6 0.196383 0.065336 0.171486
Si Si7 0.818419 0.585898 0.000000
Si Si8 0.654937 0.588236 0.831015
O O1 0.097723 0.447076 0.500000
O O2 0.294899 0.388655 0.599354
O O3 0.222878 0.512742 0.625530
O O4 0.020457 0.415854 0.653799
O O5 0.876105 0.774462 0.500000
O O6 0.764036 0.734560 0.648299
O O7 0.725828 0.857783 0.595051
O O8 0.988726 0.812911 0.649141
O O9 0.734926 0.903131 0.085957
O O10 0.490997 0.890285 0.000000
O O11 0.665516 0.006159 0.000000
O O12 0.803618 0.141948 0.758675
O O13 0.780647 0.398552 0.249293
O O14 0.023056 0.083095 0.165227
O O15 0.223562 0.985695 0.185752
O O16 0.726918 0.613949 0.080956
#
# Coordination Sequence:
#
# PCOD8225703 Si02
#       8
#     8   8   4   8   8   8   4   8
#     4  11  23  39  60  90 125 165 206 264 328 372
#     4  12  25  43  63  89 122 169 220 264 316 382
#     4   9  19  31  59  96 135 166 200 251 310 380
#     4  12  25  43  65  88 123 167 216 266 316 380
#     4  11  22  38  63  92 128 161 204 265 314 385
#     4  10  19  36  60  96 131 165 202 252 317 376
#     4   9  19  33  61  94 131 168 202 253 306 384
#     4  10  20  38  61  93 130 164 207 251 317 373
#
# _framework density 20.078873000000002
#
# number of rings (size 3 to 8) (size 9 to 14) (size 15 to 20)
#    0.000    1.286    2.857    4.286    2.000    3.429 
#    0.000    1.429    0.000    1.714    0.000    0.000 
#    0.000    0.000    0.000    0.000    0.000    0.000 
#
# Total GULP energy -694368.567002 kJ/mol
# GULP energy per Si atom -12399.438696 kJ/mol
# Density = 2.003317 g / cm^3
# Si number density = 20.078873 Si / 1000 Ang^3
#
#
#
# Elastic Constant Matrix: (Units=GPa)
#
#
# Indices 1 2 3 4 5 6 
#
# 1 67.6084 46.1023 56.3852 0.0000 0.0000 0.0000
# 2 46.1023 100.1994 29.4439 0.0000 0.0000 0.0000
# 3 56.3852 29.4439 154.3977 0.0000 0.0000 0.0000
# 4 0.0000 0.0000 0.0000 16.6023 0.0000 0.0000
# 5 0.0000 0.0000 0.0000 0.0000 35.6442 0.0000
# 6 0.0000 0.0000 0.0000 0.0000 0.0000 30.4745
#
#
#
# Elastic Compliance Matrix: (Units=1/GPa)
#
#
# Indices 1 2 3 4 5 6 
#
# 1 0.029581 -0.011055 -0.008695 0.000000 0.000000 0.000000
# 2 -0.011055 0.014704 0.001233 0.000000 0.000000 0.000000
# 3 -0.008695 0.001233 0.009417 0.000000 0.000000 0.000000
# 4 0.000000 0.000000 0.000000 0.060233 0.000000 0.000000
# 5 0.000000 0.000000 0.000000 0.000000 0.028055 0.000000
# 6 0.000000 0.000000 0.000000 0.000000 0.000000 0.032814
#
#
# Mechanical properties :
#
#
# Convention : Reuss Voigt Hill
#
# Bulk Modulus (GPa) = 59.99274 65.11871 62.55573
# Shear Modulus (GPa) = 22.99973 29.22915 26.11444
#
# Velocity S-wave (km/s) = 3.38815 3.81952 3.61029
# Velocity P-wave (km/s) = 6.72677 7.20788 6.97148
#
# Compressibility (1/GPa) = 0.01666868
#
# Stress axis : x y z
#
# Youngs Moduli (GPa) = 33.80545 68.00690 106.19321
#
# Poissons Ratio (x) = 0.75185 0.92330
# Poissons Ratio (y) = 0.37374 -0.13096
# Poissons Ratio (z) = 0.29392 -0.08387
#
# Static dielectric constant tensor:
#      x y z
#    x 3.627290 0.000000 0.000000 
#    y 0.000000 3.452160 0.000000 
#    z 0.000000 0.000000 3.763240 
# 
# 
# High freq. dielectric constant tensor:
#      x y z
#    x 1.791740 0.000000 0.000000 
#    y 0.000000 1.752280 0.000000 
#    z 0.000000 0.000000 1.792110 
# 
# From -- ./inp_files/17693.got.cif
#   From: 2010.03.12/outbox.cif.g09.slc.cpg/sg55_9_cif.got.tgz:17693.got - 2010.04.16 15:19:21.
