data_PCOD8225967
_publ_section_title
;
Structure prediction by ZEFSAII (Michael W. Deem and Ramdas Pophale) SiO2 
 PCOD8225967
Probable space group: P B A M
;
_chemical_formula_sum "Si O2"
_cell_formula_units_Z 64
_cell_length_a 16.308456
_cell_length_b 22.099397
_cell_length_c 9.366896
_cell_angle_alpha 90.000000
_cell_angle_beta 90.000000
_cell_angle_gamma 90.000000
_cell_volume 3375.895295
_symmetry_space_group_name_H-M "P B A M"
_symmetry_group_IT_number 55
_symmetry_cell_setting 'orthorhombic'
loop_
_space_group_symop_operation_xyz
x,y,z
-x,-y,z
1/2+x,1/2-y,-z
1/2-x,1/2+y,-z
-x,-y,-z
x,y,-z
1/2-x,1/2+y,z
1/2+x,1/2-y,z
loop_
_atom_site_type_symbol
_atom_site_label
_atom_site_fract_x
_atom_site_fract_y
_atom_site_fract_z
Si Si1 0.247076 0.969843 0.332934
Si Si2 0.297768 0.337963 0.336764
Si Si3 0.910356 0.979440 0.165364
Si Si4 0.571630 0.715526 0.844414
Si Si5 0.583678 0.964219 0.667457
Si Si6 0.120968 0.653949 0.830676
Si Si7 0.896845 0.839328 0.844983
Si Si8 0.236717 0.207064 0.664887
O O1 0.232856 0.981925 0.500000
O O2 0.254078 0.897947 0.298892
O O3 0.167202 0.994191 0.251065
O O4 0.333655 0.999593 0.284125
O O5 0.324186 0.338956 0.500000
O O6 0.382285 0.334244 0.250562
O O7 0.246884 0.277771 0.299039
O O8 0.910698 0.908593 0.189185
O O9 0.900152 0.998644 0.000000
O O10 0.000000 0.000000 0.223031
O O11 0.574038 0.784369 0.785287
O O12 0.480019 0.696111 0.857451
O O13 0.614606 0.715798 0.000000
O O14 0.588283 0.949210 0.500000
O O15 0.576606 0.902583 0.756885
O O16 0.500000 0.000000 0.702823
O O17 0.211012 0.661477 0.763354
O O18 0.124992 0.642762 0.000000
O O19 0.854709 0.808367 0.709765
O O20 0.851580 0.832275 0.000000
O O21 0.253768 0.192414 0.500000
#
# Coordination Sequence:
#
# PCOD8225967 Si02
#       8
#     8   8   8   8   8   8   8   8
#     4  10  21  37  56  79 109 144 182 224 269 318
#     4   9  19  35  53  75 103 135 174 218 263 314
#     4  10  21  36  55  80 110 145 181 216 261 322
#     4   9  19  35  55  78 105 138 173 215 267 321
#     4  10  22  39  58  80 109 147 188 230 277 328
#     4  10  20  36  57  79 105 138 179 225 272 321
#     4  10  20  34  52  77 108 137 171 215 262 315
#     4  10  20  34  54  79 106 137 174 217 266 321
#
# _framework density 18.957934000000002
#
# number of rings (size 3 to 8) (size 9 to 14) (size 15 to 20)
#    0.000    2.250    0.000    2.250    0.000    7.500 
#    0.000    1.250    0.000    0.000    0.000    0.000 
#    0.000    0.000    0.000    0.000    0.000    0.000 
#
# Total GULP energy -793220.505208 kJ/mol
# GULP energy per Si atom -12394.070394 kJ/mol
# Density = 1.891478 g / cm^3
# Si number density = 18.957934 Si / 1000 Ang^3
#
#
#
# Elastic Constant Matrix: (Units=GPa)
#
#
# Indices 1 2 3 4 5 6 
#
# 1 108.0461 51.3052 43.7731 0.0000 0.0000 0.0000
# 2 51.3052 107.0386 49.1494 0.0000 0.0000 0.0000
# 3 43.7731 49.1494 65.9861 0.0000 0.0000 0.0000
# 4 0.0000 0.0000 0.0000 37.8592 0.0000 0.0000
# 5 0.0000 0.0000 0.0000 0.0000 31.5203 0.0000
# 6 0.0000 0.0000 0.0000 0.0000 0.0000 30.7470
#
#
#
# Elastic Compliance Matrix: (Units=1/GPa)
#
#
# Indices 1 2 3 4 5 6 
#
# 1 0.013506 -0.003586 -0.006288 0.000000 0.000000 0.000000
# 2 -0.003586 0.015151 -0.008906 0.000000 0.000000 0.000000
# 3 -0.006288 -0.008906 0.025960 0.000000 0.000000 0.000000
# 4 0.000000 0.000000 0.000000 0.026414 0.000000 0.000000
# 5 0.000000 0.000000 0.000000 0.000000 0.031726 0.000000
# 6 0.000000 0.000000 0.000000 0.000000 0.000000 0.032523
#
#
# Mechanical properties :
#
#
# Convention : Reuss Voigt Hill
#
# Bulk Modulus (GPa) = 58.63207 63.28067 60.95637
# Shear Modulus (GPa) = 26.52175 29.14819 27.83497
#
# Velocity S-wave (km/s) = 3.74435 3.92538 3.83593
# Velocity P-wave (km/s) = 7.04898 7.34825 7.20017
#
# Compressibility (1/GPa) = 0.01705551
#
# Stress axis : x y z
#
# Youngs Moduli (GPa) = 74.04273 66.00348 38.52134
#
# Poissons Ratio (x) = 0.23670 0.24223
# Poissons Ratio (y) = 0.26553 0.34307
# Poissons Ratio (z) = 0.46559 0.58783
#
# Static dielectric constant tensor:
#      x y z
#    x 3.295050 0.000000 0.000000 
#    y 0.000000 3.223450 0.000000 
#    z 0.000000 0.000000 3.680840 
# 
# 
# High freq. dielectric constant tensor:
#      x y z
#    x 1.726530 0.000000 0.000000 
#    y 0.000000 1.749460 0.000000 
#    z 0.000000 0.000000 1.737060 
# 
# From -- ./inp_files/8028.got.cif
#   From: 2010.03.12/outbox.cif.g09.slc.cpg/sg55_5_cif.got.tgz:8028.got - 2010.04.16 15:19:21.
