data_PCOD8225057
_publ_section_title
;
Structure prediction by ZEFSAII (Michael W. Deem and Ramdas Pophale) SiO2 
 PCOD8225057
Probable space group: P B A M
;
_chemical_formula_sum "Si O2"
_cell_formula_units_Z 64
_cell_length_a 14.288070
_cell_length_b 21.753712
_cell_length_c 9.094341
_cell_angle_alpha 90.000000
_cell_angle_beta 90.000000
_cell_angle_gamma 90.000000
_cell_volume 2826.689972
_symmetry_space_group_name_H-M "P B A M"
_symmetry_group_IT_number 55
_symmetry_cell_setting 'orthorhombic'
loop_
_space_group_symop_operation_xyz
x,y,z
-x,-y,z
1/2+x,1/2-y,-z
1/2-x,1/2+y,-z
-x,-y,-z
x,y,-z
1/2-x,1/2+y,z
1/2+x,1/2-y,z
loop_
_atom_site_type_symbol
_atom_site_label
_atom_site_fract_x
_atom_site_fract_y
_atom_site_fract_z
Si Si1 0.797438 0.034161 0.660671
Si Si2 0.961177 0.127154 0.660788
Si Si3 0.043516 0.760853 0.170013
Si Si4 0.166829 0.664307 0.326553
Si Si5 0.157507 0.362501 0.674011
Si Si6 0.915173 0.952018 0.837841
Si Si7 0.824478 0.762347 0.828713
Si Si8 0.021799 0.567872 0.672605
O O1 0.768277 0.007210 0.500000
O O2 0.717867 0.078456 0.722028
O O3 0.893844 0.070034 0.640893
O O4 0.818161 0.979878 0.775529
O O5 0.984111 0.155603 0.500000
O O6 0.910599 0.176786 0.766401
O O7 0.058013 0.104565 0.733606
O O8 0.933878 0.771837 0.198183
O O9 0.082606 0.706128 0.267120
O O10 0.069238 0.750846 0.000000
O O11 0.180296 0.674521 0.500000
O O12 0.263382 0.682405 0.244352
O O13 0.127091 0.594459 0.293858
O O14 0.166112 0.350002 0.500000
O O15 0.199542 0.303376 0.756472
O O16 0.053186 0.380827 0.727780
O O17 0.893628 0.925759 0.000000
O O18 0.000000 0.000000 0.847151
O O19 0.798414 0.759889 0.000000
O O20 0.005989 0.561693 0.500000
O O21 0.000000 0.500000 0.742740
#
# Coordination Sequence:
#
# PCOD8225057 Si02
#       8
#     8   8   8   8   8   8   8   8
#     4   9  18  31  50  80 111 146 193 251 305 360
#     4  10  19  32  52  79 114 154 200 248 305 369
#     4  11  23  39  59  85 122 162 202 254 319 384
#     4  11  22  39  66  95 126 165 213 264 319 385
#     4  10  19  36  62  89 120 155 206 264 314 375
#     4   9  17  30  48  70 104 149 190 232 285 348
#     4  11  24  40  61  90 127 164 203 258 324 389
#     4   9  19  38  64  93 126 164 210 266 322 375
#
# _framework density 22.641323
#
# number of rings (size 3 to 8) (size 9 to 14) (size 15 to 20)
#    0.000    2.000    1.250    2.625    0.000    5.000 
#    2.250    0.000    0.000    3.375    0.000    0.000 
#    0.000    0.000    0.000    0.000    0.000    0.000 
#
# Total GULP energy -793059.497282 kJ/mol
# GULP energy per Si atom -12391.554645 kJ/mol
# Density = 2.258979 g / cm^3
# Si number density = 22.641323 Si / 1000 Ang^3
#
#
#
# Elastic Constant Matrix: (Units=GPa)
#
#
# Indices 1 2 3 4 5 6 
#
# 1 56.3841 -8.2678 15.5993 0.0000 0.0000 0.0000
# 2 -8.2678 42.1001 5.5245 0.0000 0.0000 0.0000
# 3 15.5993 5.5245 92.7874 0.0000 0.0000 0.0000
# 4 0.0000 0.0000 0.0000 19.4168 0.0000 0.0000
# 5 0.0000 0.0000 0.0000 0.0000 25.8533 0.0000
# 6 0.0000 0.0000 0.0000 0.0000 0.0000 30.4307
#
#
#
# Elastic Compliance Matrix: (Units=1/GPa)
#
#
# Indices 1 2 3 4 5 6 
#
# 1 0.019329 0.004255 -0.003503 0.000000 0.000000 0.000000
# 2 0.004255 0.024877 -0.002197 0.000000 0.000000 0.000000
# 3 -0.003503 -0.002197 0.011497 0.000000 0.000000 0.000000
# 4 0.000000 0.000000 0.000000 0.051502 0.000000 0.000000
# 5 0.000000 0.000000 0.000000 0.000000 0.038680 0.000000
# 6 0.000000 0.000000 0.000000 0.000000 0.000000 0.032862
#
#
# Mechanical properties :
#
#
# Convention : Reuss Voigt Hill
#
# Bulk Modulus (GPa) = 18.93421 24.10932 21.52176
# Shear Modulus (GPa) = 25.09557 27.03454 26.06505
#
# Velocity S-wave (km/s) = 3.33287 3.45923 3.39664
# Velocity P-wave (km/s) = 4.81576 5.16009 4.99089
#
# Compressibility (1/GPa) = 0.05281446
#
# Stress axis : x y z
#
# Youngs Moduli (GPa) = 51.73684 40.19804 86.97912
#
# Poissons Ratio (x) = -0.17106 0.30468
# Poissons Ratio (y) = -0.22016 0.19106
# Poissons Ratio (z) = 0.18123 0.08830
#
# Static dielectric constant tensor:
#      x y z
#    x 4.042140 0.000000 0.000000 
#    y 0.000000 4.106020 0.000000 
#    z 0.000000 0.000000 4.135970 
# 
# 
# High freq. dielectric constant tensor:
#      x y z
#    x 1.890010 0.000000 0.000000 
#    y 0.000000 1.891540 0.000000 
#    z 0.000000 0.000000 1.874530 
# 
# From -- ./inp_files/6656.got.cif
#   From: 2010.03.12/outbox.cif.g09.slc.cpg/sg55_4_cif.got.tgz:6656.got - 2010.04.16 15:19:21.
