data_PCOD8225494
_publ_section_title
;
Structure prediction by ZEFSAII (Michael W. Deem and Ramdas Pophale) SiO2 
 PCOD8225494
Probable space group: P B A M
;
_chemical_formula_sum "Si O2"
_cell_formula_units_Z 64
_cell_length_a 24.725642
_cell_length_b 15.171321
_cell_length_c 8.688950
_cell_angle_alpha 90.000000
_cell_angle_beta 90.000000
_cell_angle_gamma 90.000000
_cell_volume 3259.404587
_symmetry_space_group_name_H-M "P B A M"
_symmetry_group_IT_number 55
_symmetry_cell_setting 'orthorhombic'
loop_
_space_group_symop_operation_xyz
x,y,z
-x,-y,z
1/2+x,1/2-y,-z
1/2-x,1/2+y,-z
-x,-y,-z
x,y,-z
1/2-x,1/2+y,z
1/2+x,1/2-y,z
loop_
_atom_site_type_symbol
_atom_site_label
_atom_site_fract_x
_atom_site_fract_y
_atom_site_fract_z
Si Si1 0.146346 0.197602 0.680688
Si Si2 0.059249 0.333212 0.320514
Si Si3 0.064790 0.687451 0.322595
Si Si4 0.101997 0.507661 0.823160
Si Si5 0.669287 0.495754 0.682258
Si Si6 0.639639 0.667701 0.179386
Si Si7 0.278569 0.044312 0.821970
Si Si8 0.766461 0.269907 0.320179
O O1 0.138573 0.191868 0.500000
O O2 0.098342 0.257295 0.749662
O O3 0.203537 0.242616 0.722600
O O4 0.144947 0.097179 0.744259
O O5 0.071166 0.350416 0.500000
O O6 0.068607 0.423429 0.230712
O O7 0.998662 0.300862 0.292396
O O8 0.079698 0.701669 0.500000
O O9 0.083585 0.590887 0.275272
O O10 0.094406 0.762399 0.225676
O O11 0.166039 0.489346 0.801024
O O12 0.088165 0.527621 0.000000
O O13 0.676198 0.494392 0.500000
O O14 0.629712 0.574383 0.734897
O O15 0.728483 0.511900 0.756868
O O16 0.699439 0.700305 0.223294
O O17 0.636207 0.650626 0.000000
O O18 0.285767 0.132661 0.723258
O O19 0.268694 0.068827 0.000000
O O20 0.777423 0.254425 0.500000
#
# Coordination Sequence:
#
# PCOD8225494 Si02
#       8
#     8   8   8   8   8   8   8   8
#     4   8  18  38  61  87 116 147 191 245 297 342
#     4  10  22  40  62  87 115 153 202 254 298 351
#     4  11  23  40  62  86 115 155 205 250 296 354
#     4  11  23  37  56  86 123 161 195 238 298 358
#     4  10  21  38  61  86 117 157 198 244 295 356
#     4  12  24  38  58  86 121 156 195 247 303 358
#     4  10  20  35  54  84 123 159 191 233 291 348
#     4  10  19  34  58  86 115 153 196 237 290 355
#
# _framework density 19.635487000000001
#
# number of rings (size 3 to 8) (size 9 to 14) (size 15 to 20)
#    0.000    1.750    1.250    4.125    1.750    4.000 
#    0.000    3.750    0.000    3.750    0.000    0.000 
#    0.000    0.000    0.000    0.000    0.000    0.000 
#
# Total GULP energy -793711.800626 kJ/mol
# GULP energy per Si atom -12401.746885 kJ/mol
# Density = 1.959080 g / cm^3
# Si number density = 19.635487 Si / 1000 Ang^3
#
#
#
# Elastic Constant Matrix: (Units=GPa)
#
#
# Indices 1 2 3 4 5 6 
#
# 1 93.3051 51.5476 32.3550 0.0000 0.0000 0.0000
# 2 51.5476 75.2286 13.5793 0.0000 0.0000 0.0000
# 3 32.3550 13.5793 59.4858 0.0000 0.0000 0.0000
# 4 0.0000 0.0000 0.0000 21.0879 0.0000 0.0000
# 5 0.0000 0.0000 0.0000 0.0000 18.4208 0.0000
# 6 0.0000 0.0000 0.0000 0.0000 0.0000 22.6691
#
#
#
# Elastic Compliance Matrix: (Units=1/GPa)
#
#
# Indices 1 2 3 4 5 6 
#
# 1 0.020547 -0.012580 -0.008304 0.000000 0.000000 0.000000
# 2 -0.012580 0.021567 0.001919 0.000000 0.000000 0.000000
# 3 -0.008304 0.001919 0.020889 0.000000 0.000000 0.000000
# 4 0.000000 0.000000 0.000000 0.047420 0.000000 0.000000
# 5 0.000000 0.000000 0.000000 0.000000 0.054286 0.000000
# 6 0.000000 0.000000 0.000000 0.000000 0.000000 0.044113
#
#
# Mechanical properties :
#
#
# Convention : Reuss Voigt Hill
#
# Bulk Modulus (GPa) = 39.88338 46.99814 43.44076
# Shear Modulus (GPa) = 19.59936 21.13808 20.36872
#
# Velocity S-wave (km/s) = 3.16279 3.28460 3.22427
# Velocity P-wave (km/s) = 5.80463 6.19452 6.00274
#
# Compressibility (1/GPa) = 0.02507310
#
# Stress axis : x y z
#
# Youngs Moduli (GPa) = 48.66834 46.36811 47.87150
#
# Poissons Ratio (x) = 0.58332 0.39753
# Poissons Ratio (y) = 0.61226 -0.09188
# Poissons Ratio (z) = 0.40414 -0.08900
#
# Static dielectric constant tensor:
#      x y z
#    x 3.692220 0.000000 0.000000 
#    y 0.000000 3.679390 0.000000 
#    z 0.000000 0.000000 3.524440 
# 
# 
# High freq. dielectric constant tensor:
#      x y z
#    x 1.758980 0.000000 0.000000 
#    y 0.000000 1.764410 0.000000 
#    z 0.000000 0.000000 1.762580 
# 
# From -- ./inp_files/6571.got.cif
#   From: 2010.03.12/outbox.cif.g09.slc.cpg/sg55_4_cif.got.tgz:6571.got - 2010.04.16 15:19:21.
