data_PCOD8225808
_publ_section_title
;
Structure prediction by ZEFSAII (Michael W. Deem and Ramdas Pophale) SiO2 
 PCOD8225808
Probable space group: P B A M
;
_chemical_formula_sum "Si O2"
_cell_formula_units_Z 56
_cell_length_a 24.526184
_cell_length_b 14.264739
_cell_length_c 9.051963
_cell_angle_alpha 90.000000
_cell_angle_beta 90.000000
_cell_angle_gamma 90.000000
_cell_volume 3166.916276
_symmetry_space_group_name_H-M "P B A M"
_symmetry_group_IT_number 55
_symmetry_cell_setting 'orthorhombic'
loop_
_space_group_symop_operation_xyz
x,y,z
-x,-y,z
1/2+x,1/2-y,-z
1/2-x,1/2+y,-z
-x,-y,-z
x,y,-z
1/2-x,1/2+y,z
1/2+x,1/2-y,z
loop_
_atom_site_type_symbol
_atom_site_label
_atom_site_fract_x
_atom_site_fract_y
_atom_site_fract_z
Si Si1 0.309374 0.846967 0.171633
Si Si2 0.001869 0.890091 0.174685
Si Si3 0.296393 0.226526 0.824124
Si Si4 0.164482 0.026910 0.336793
Si Si5 0.211921 0.529433 0.666505
Si Si6 0.887023 0.815245 0.829986
Si Si7 0.109229 0.839738 0.676081
O O1 0.256310 0.787731 0.225424
O O2 0.365486 0.789518 0.199826
O O3 0.319904 0.942447 0.260964
O O4 0.301867 0.871454 0.000000
O O5 0.048279 0.832586 0.261041
O O6 0.947069 0.837882 0.232239
O O7 0.011166 0.878924 0.000000
O O8 0.000000 0.000000 0.219194
O O9 0.291794 0.121302 0.765469
O O10 0.351831 0.264838 0.753180
O O11 0.301547 0.224667 0.000000
O O12 0.144158 0.053781 0.500000
O O13 0.226377 0.993713 0.338314
O O14 0.158466 0.117152 0.236398
O O15 0.129075 0.942091 0.273616
O O16 0.190103 0.548636 0.500000
O O17 0.887878 0.839905 0.000000
O O18 0.110704 0.825118 0.500000
#
# Coordination Sequence:
#
# PCOD8225808 Si02
#       7
#     8   8   8   8   8   8   8
#     4  10  21  35  54  80 109 144 182 223 270 324
#     4  10  20  34  55  81 110 146 185 229 277 325
#     4  11  22  36  57  82 110 145 186 228 273 326
#     4  10  20  31  49  78 112 146 179 219 266 322
#     4  11  22  36  54  79 113 148 182 223 272 326
#     4  10  20  35  54  79 111 145 185 226 269 323
#     4  11  22  36  53  79 115 150 186 224 273 331
#
# _framework density 17.682815999999999
#
# number of rings (size 3 to 8) (size 9 to 14) (size 15 to 20)
#    0.000    1.571    4.286    1.286    0.000    3.143 
#    0.000    0.000    0.000    0.857    0.000    6.000 
#    0.000    0.000    0.000    0.000    0.000    0.000 
#
# Total GULP energy -694309.485212 kJ/mol
# GULP energy per Si atom -12398.383665 kJ/mol
# Density = 1.764257 g / cm^3
# Si number density = 17.682816 Si / 1000 Ang^3
#
#
#
# Elastic Constant Matrix: (Units=GPa)
#
#
# Indices 1 2 3 4 5 6 
#
# 1 86.2492 32.6801 32.9775 0.0000 0.0000 0.0000
# 2 32.6801 89.6432 42.0921 0.0000 0.0000 0.0000
# 3 32.9775 42.0921 62.4118 0.0000 0.0000 0.0000
# 4 0.0000 0.0000 0.0000 24.7971 0.0000 0.0000
# 5 0.0000 0.0000 0.0000 0.0000 24.7043 0.0000
# 6 0.0000 0.0000 0.0000 0.0000 0.0000 29.0337
#
#
#
# Elastic Compliance Matrix: (Units=1/GPa)
#
#
# Indices 1 2 3 4 5 6 
#
# 1 0.014915 -0.002542 -0.006167 0.000000 0.000000 0.000000
# 2 -0.002542 0.016758 -0.009959 0.000000 0.000000 0.000000
# 3 -0.006167 -0.009959 0.025998 0.000000 0.000000 0.000000
# 4 0.000000 0.000000 0.000000 0.040327 0.000000 0.000000
# 5 0.000000 0.000000 0.000000 0.000000 0.040479 0.000000
# 6 0.000000 0.000000 0.000000 0.000000 0.000000 0.034443
#
#
# Mechanical properties :
#
#
# Convention : Reuss Voigt Hill
#
# Bulk Modulus (GPa) = 49.17425 50.42261 49.79843
# Shear Modulus (GPa) = 23.03785 24.41066 23.72426
#
# Velocity S-wave (km/s) = 3.61340 3.71950 3.66684
# Velocity P-wave (km/s) = 6.72892 6.85735 6.79344
#
# Compressibility (1/GPa) = 0.02033585
#
# Stress axis : x y z
#
# Youngs Moduli (GPa) = 67.04526 59.67184 38.46501
#
# Poissons Ratio (x) = 0.15168 0.23720
# Poissons Ratio (y) = 0.17042 0.38308
# Poissons Ratio (z) = 0.41345 0.59428
#
# Static dielectric constant tensor:
#      x y z
#    x 3.367370 0.000000 0.000000 
#    y 0.000000 3.143760 0.000000 
#    z 0.000000 0.000000 3.305970 
# 
# 
# High freq. dielectric constant tensor:
#      x y z
#    x 1.672350 0.000000 0.000000 
#    y 0.000000 1.672180 0.000000 
#    z 0.000000 0.000000 1.688650 
# 
# From -- ./inp_files/6158.got.cif
#   From: 2010.03.12/outbox.cif.g09.slc.cpg/sg55_4_cif.got.tgz:6158.got - 2010.04.16 15:19:21.
