data_PCOD8225305
_publ_section_title
;
Structure prediction by ZEFSAII (Michael W. Deem and Ramdas Pophale) SiO2 
 PCOD8225305
Probable space group: P B A M
;
_chemical_formula_sum "Si O2"
_cell_formula_units_Z 64
_cell_length_a 24.698907
_cell_length_b 15.134128
_cell_length_c 9.076609
_cell_angle_alpha 90.000000
_cell_angle_beta 90.000000
_cell_angle_gamma 90.000000
_cell_volume 3392.803950
_symmetry_space_group_name_H-M "P B A M"
_symmetry_group_IT_number 55
_symmetry_cell_setting 'orthorhombic'
loop_
_space_group_symop_operation_xyz
x,y,z
-x,-y,z
1/2+x,1/2-y,-z
1/2-x,1/2+y,-z
-x,-y,-z
x,y,-z
1/2-x,1/2+y,z
1/2+x,1/2-y,z
loop_
_atom_site_type_symbol
_atom_site_label
_atom_site_fract_x
_atom_site_fract_y
_atom_site_fract_z
Si Si1 0.617274 0.494610 0.170657
Si Si2 0.276584 0.473133 0.669340
Si Si3 0.757724 0.227290 0.667056
Si Si4 0.557340 0.313575 0.171146
Si Si5 0.861781 0.683641 0.325018
Si Si6 0.165567 0.488534 0.170741
Si Si7 0.350216 0.184233 0.169336
Si Si8 0.935489 0.175582 0.174958
O O1 0.671483 0.477696 0.263887
O O2 0.577805 0.412679 0.195479
O O3 0.586889 0.581602 0.231226
O O4 0.633373 0.505942 0.000000
O O5 0.268755 0.501824 0.500000
O O6 0.285398 0.368279 0.683134
O O7 0.224560 0.502183 0.760608
O O8 0.757640 0.260138 0.500000
O O9 0.696025 0.223651 0.726080
O O10 0.792094 0.297542 0.757909
O O11 0.590881 0.245623 0.268723
O O12 0.496264 0.309306 0.232501
O O13 0.561791 0.286159 0.000000
O O14 0.863940 0.673049 0.500000
O O15 0.868587 0.586421 0.254638
O O16 0.134022 0.581553 0.189742
O O17 0.171442 0.462361 0.000000
O O18 0.397773 0.245241 0.237397
O O19 0.342881 0.209416 0.000000
O O20 0.937208 0.175315 0.000000
#
# Coordination Sequence:
#
# PCOD8225305 Si02
#       8
#     8   8   8   8   8   8   8   8
#     4  10  19  33  56  84 113 149 188 229 276 334
#     4  10  20  34  52  79 115 152 183 221 275 333
#     4   9  19  34  52  76 108 145 181 220 272 331
#     4  10  21  36  58  84 110 148 194 236 282 335
#     4  10  22  40  57  79 112 151 189 233 286 335
#     4  10  21  36  56  83 112 145 187 234 281 337
#     4  10  20  34  57  85 111 142 183 231 283 331
#     4   9  18  36  58  83 115 146 184 236 285 332
#
# _framework density 18.863453
#
# number of rings (size 3 to 8) (size 9 to 14) (size 15 to 20)
#    0.000    2.250    1.250    2.250    1.750    5.500 
#    0.000    1.875    0.000    5.250    0.000    0.000 
#    0.000    0.000    0.000    0.000    0.000    0.000 
#
# Total GULP energy -793690.911546 kJ/mol
# GULP energy per Si atom -12401.420493 kJ/mol
# Density = 1.882052 g / cm^3
# Si number density = 18.863453 Si / 1000 Ang^3
#
#
#
# Elastic Constant Matrix: (Units=GPa)
#
#
# Indices 1 2 3 4 5 6 
#
# 1 99.7090 58.6771 35.1550 0.0000 0.0000 0.0000
# 2 58.6771 114.3869 45.3980 0.0000 0.0000 0.0000
# 3 35.1550 45.3980 72.8358 0.0000 0.0000 0.0000
# 4 0.0000 0.0000 0.0000 18.4686 0.0000 0.0000
# 5 0.0000 0.0000 0.0000 0.0000 16.3798 0.0000
# 6 0.0000 0.0000 0.0000 0.0000 0.0000 25.8638
#
#
#
# Elastic Compliance Matrix: (Units=1/GPa)
#
#
# Indices 1 2 3 4 5 6 
#
# 1 0.014916 -0.006370 -0.003229 0.000000 0.000000 0.000000
# 2 -0.006370 0.014336 -0.005861 0.000000 0.000000 0.000000
# 3 -0.003229 -0.005861 0.018941 0.000000 0.000000 0.000000
# 4 0.000000 0.000000 0.000000 0.054146 0.000000 0.000000
# 5 0.000000 0.000000 0.000000 0.000000 0.061051 0.000000
# 6 0.000000 0.000000 0.000000 0.000000 0.000000 0.038664
#
#
# Mechanical properties :
#
#
# Convention : Reuss Voigt Hill
#
# Bulk Modulus (GPa) = 57.89298 62.82133 60.35715
# Shear Modulus (GPa) = 20.94395 21.98922 21.46658
#
# Velocity S-wave (km/s) = 3.33572 3.41795 3.37708
# Velocity P-wave (km/s) = 6.75227 6.99657 6.87551
#
# Compressibility (1/GPa) = 0.01727325
#
# Stress axis : x y z
#
# Youngs Moduli (GPa) = 67.04037 69.75436 52.79504
#
# Poissons Ratio (x) = 0.44434 0.17048
# Poissons Ratio (y) = 0.42705 0.30943
# Poissons Ratio (z) = 0.21648 0.40883
#
# Static dielectric constant tensor:
#      x y z
#    x 3.424400 0.000000 0.000000 
#    y 0.000000 3.481660 0.000000 
#    z 0.000000 0.000000 3.316940 
# 
# 
# High freq. dielectric constant tensor:
#      x y z
#    x 1.721970 0.000000 0.000000 
#    y 0.000000 1.737160 0.000000 
#    z 0.000000 0.000000 1.719050 
# 
# From -- ./inp_files/9701.got.cif
#   From: 2010.03.12/outbox.cif.g09.slc.cpg/sg55_5_cif.got.tgz:9701.got - 2010.04.16 15:19:21.
