data_PCOD8225299
_publ_section_title
;
Structure prediction by ZEFSAII (Michael W. Deem and Ramdas Pophale) SiO2 
 PCOD8225299
Probable space group: P B A M
;
_chemical_formula_sum "Si O2"
_cell_formula_units_Z 64
_cell_length_a 12.500624
_cell_length_b 28.634135
_cell_length_c 8.990177
_cell_angle_alpha 90.000000
_cell_angle_beta 90.000000
_cell_angle_gamma 90.000000
_cell_volume 3217.984907
_symmetry_space_group_name_H-M "P B A M"
_symmetry_group_IT_number 55
_symmetry_cell_setting 'orthorhombic'
loop_
_space_group_symop_operation_xyz
x,y,z
-x,-y,z
1/2+x,1/2-y,-z
1/2-x,1/2+y,-z
-x,-y,-z
x,y,-z
1/2-x,1/2+y,z
1/2+x,1/2-y,z
loop_
_atom_site_type_symbol
_atom_site_label
_atom_site_fract_x
_atom_site_fract_y
_atom_site_fract_z
Si Si1 0.662432 0.377623 0.823195
Si Si2 0.435159 0.797085 0.676755
Si Si3 0.386801 0.518399 0.823477
Si Si4 0.250100 0.932850 0.827351
Si Si5 0.512122 0.305733 0.672269
Si Si6 0.493595 0.946626 0.172613
Si Si7 0.883137 0.367880 0.323752
Si Si8 0.217345 0.841056 0.670740
O O1 0.640849 0.430098 0.762455
O O2 0.564506 0.345630 0.772143
O O3 0.769799 0.356921 0.750851
O O4 0.673020 0.376470 0.000000
O O5 0.434757 0.797083 0.500000
O O6 0.451014 0.744458 0.734409
O O7 0.532109 0.829435 0.734394
O O8 0.322147 0.816031 0.740346
O O9 0.500000 0.500000 0.760058
O O10 0.295616 0.482256 0.768386
O O11 0.391466 0.521143 0.000000
O O12 0.375207 0.928418 0.793663
O O13 0.191046 0.889991 0.749157
O O14 0.223728 0.929026 0.000000
O O15 0.544965 0.312946 0.500000
O O16 0.384016 0.307434 0.690821
O O17 0.577296 0.918699 0.272378
O O18 0.500000 0.000000 0.221230
O O19 0.525472 0.940696 0.000000
O O20 0.870287 0.366689 0.500000
O O21 0.240394 0.852532 0.500000
#
# Coordination Sequence:
#
# PCOD8225299 Si02
#       8
#     8   8   8   8   8   8   8   8
#     4  11  23  40  61  88 123 156 193 246 301 355
#     4   9  20  38  61  86 113 152 196 242 296 351
#     4   9  18  34  57  82 112 156 201 233 281 353
#     4  10  19  33  56  83 112 151 194 239 289 351
#     4  10  22  39  63  88 113 152 201 244 290 354
#     4  10  20  35  55  81 116 157 199 243 298 356
#     4  11  22  38  61  86 117 156 202 248 295 357
#     4  10  20  37  60  87 117 148 191 246 294 343
#
# _framework density 19.888221999999999
#
# number of rings (size 3 to 8) (size 9 to 14) (size 15 to 20)
#    0.000    2.000    1.250    2.250    1.750    3.750 
#    0.000    4.375    0.000    3.375    0.000    0.000 
#    0.000    0.000    0.000    0.000    0.000    0.000 
#
# Total GULP energy -793776.822092 kJ/mol
# GULP energy per Si atom -12402.762845 kJ/mol
# Density = 1.984296 g / cm^3
# Si number density = 19.888222 Si / 1000 Ang^3
#
#
#
# Elastic Constant Matrix: (Units=GPa)
#
#
# Indices 1 2 3 4 5 6 
#
# 1 110.0713 51.4899 33.3267 0.0000 0.0000 0.0000
# 2 51.4899 140.2867 29.5367 0.0000 0.0000 0.0000
# 3 33.3267 29.5367 45.8900 0.0000 0.0000 0.0000
# 4 0.0000 0.0000 0.0000 25.2673 0.0000 0.0000
# 5 0.0000 0.0000 0.0000 0.0000 28.4556 0.0000
# 6 0.0000 0.0000 0.0000 0.0000 0.0000 36.5982
#
#
#
# Elastic Compliance Matrix: (Units=1/GPa)
#
#
# Indices 1 2 3 4 5 6 
#
# 1 0.012751 -0.003158 -0.007227 0.000000 0.000000 0.000000
# 2 -0.003158 0.009028 -0.003517 0.000000 0.000000 0.000000
# 3 -0.007227 -0.003517 0.029303 0.000000 0.000000 0.000000
# 4 0.000000 0.000000 0.000000 0.039577 0.000000 0.000000
# 5 0.000000 0.000000 0.000000 0.000000 0.035142 0.000000
# 6 0.000000 0.000000 0.000000 0.000000 0.000000 0.027324
#
#
# Mechanical properties :
#
#
# Convention : Reuss Voigt Hill
#
# Bulk Modulus (GPa) = 42.96065 58.32827 50.64446
# Shear Modulus (GPa) = 26.49862 30.19054 28.34458
#
# Velocity S-wave (km/s) = 3.65413 3.90039 3.77927
# Velocity P-wave (km/s) = 6.28105 7.04811 6.67560
#
# Compressibility (1/GPa) = 0.02327712
#
# Stress axis : x y z
#
# Youngs Moduli (GPa) = 78.42784 110.76697 34.12564
#
# Poissons Ratio (x) = 0.34983 0.24663
# Poissons Ratio (y) = 0.24770 0.12002
# Poissons Ratio (z) = 0.56680 0.38958
#
# Static dielectric constant tensor:
#      x y z
#    x 3.777960 0.000000 0.000000 
#    y 0.000000 3.738910 0.000000 
#    z 0.000000 0.000000 3.268930 
# 
# 
# High freq. dielectric constant tensor:
#      x y z
#    x 1.789420 0.000000 0.000000 
#    y 0.000000 1.784370 0.000000 
#    z 0.000000 0.000000 1.740040 
# 
# From -- ./inp_files/4494.got.cif
#   From: 2010.03.12/outbox.cif.g09.slc.cpg/sg55_3_cif.got.tgz:4494.got - 2010.04.16 15:19:21.
