data_PCOD8225700
_publ_section_title
;
Structure prediction by ZEFSAII (Michael W. Deem and Ramdas Pophale) SiO2 
 PCOD8225700
Probable space group: P B A M
;
_chemical_formula_sum "Si O2"
_cell_formula_units_Z 64
_cell_length_a 15.124832
_cell_length_b 24.518011
_cell_length_c 8.698445
_cell_angle_alpha 90.000000
_cell_angle_beta 90.000000
_cell_angle_gamma 90.000000
_cell_volume 3225.651295
_symmetry_space_group_name_H-M "P B A M"
_symmetry_group_IT_number 55
_symmetry_cell_setting 'orthorhombic'
loop_
_space_group_symop_operation_xyz
x,y,z
-x,-y,z
1/2+x,1/2-y,-z
1/2-x,1/2+y,-z
-x,-y,-z
x,y,-z
1/2-x,1/2+y,z
1/2+x,1/2-y,z
loop_
_atom_site_type_symbol
_atom_site_label
_atom_site_fract_x
_atom_site_fract_y
_atom_site_fract_z
Si Si1 0.000846 0.659234 0.682749
Si Si2 0.030597 0.778536 0.323118
Si Si3 0.319390 0.547706 0.178359
Si Si4 0.485679 0.604614 0.681463
Si Si5 0.681799 0.566782 0.678406
Si Si6 0.229948 0.755532 0.322810
Si Si7 0.183611 0.642930 0.820758
Si Si8 0.821513 0.646971 0.820382
O O1 0.010752 0.658264 0.500000
O O2 0.912488 0.628573 0.737059
O O3 0.997554 0.721613 0.749569
O O4 0.086636 0.629971 0.753640
O O5 0.005509 0.776978 0.500000
O O6 0.135551 0.784390 0.301332
O O7 0.984899 0.832811 0.254551
O O8 0.414071 0.571227 0.224987
O O9 0.295940 0.495046 0.278295
O O10 0.243204 0.590882 0.214550
O O11 0.322006 0.531713 0.000000
O O12 0.465360 0.601663 0.500000
O O13 0.580120 0.578168 0.718524
O O14 0.701311 0.577398 0.500000
O O15 0.743865 0.606411 0.774957
O O16 0.259221 0.754542 0.500000
O O17 0.229181 0.694065 0.262249
O O18 0.300218 0.791118 0.229258
O O19 0.176543 0.656044 0.000000
O O20 0.837449 0.644416 0.000000
#
# Coordination Sequence:
#
# PCOD8225700 Si02
#       8
#     8   8   8   8   8   8   8   8
#     4  10  21  38  62  90 121 161 204 250 300 366
#     4   8  16  33  56  85 118 152 193 241 292 343
#     4  11  25  41  59  87 124 161 201 250 308 366
#     4  10  20  37  60  88 120 158 202 248 297 353
#     4  11  23  42  65  88 118 158 209 257 299 359
#     4  10  19  36  60  86 119 160 204 248 295 357
#     4  10  22  41  60  87 125 161 200 253 312 364
#     4  12  24  38  60  91 126 161 198 250 313 367
#
# _framework density 19.840954
#
# number of rings (size 3 to 8) (size 9 to 14) (size 15 to 20)
#    0.000    1.750    1.250    4.125    1.750    4.500 
#    0.000    1.250    0.000    3.750    0.000    0.000 
#    0.000    0.000    0.000    0.000    0.000    0.000 
#
# Total GULP energy -793710.196169 kJ/mol
# GULP energy per Si atom -12401.721815 kJ/mol
# Density = 1.979579 g / cm^3
# Si number density = 19.840954 Si / 1000 Ang^3
#
#
#
# Elastic Constant Matrix: (Units=GPa)
#
#
# Indices 1 2 3 4 5 6 
#
# 1 100.2619 26.0851 29.6604 0.0000 0.0000 0.0000
# 2 26.0851 54.5640 25.3395 0.0000 0.0000 0.0000
# 3 29.6604 25.3395 59.4612 0.0000 0.0000 0.0000
# 4 0.0000 0.0000 0.0000 31.3086 0.0000 0.0000
# 5 0.0000 0.0000 0.0000 0.0000 33.3737 0.0000
# 6 0.0000 0.0000 0.0000 0.0000 0.0000 16.9681
#
#
#
# Elastic Compliance Matrix: (Units=1/GPa)
#
#
# Indices 1 2 3 4 5 6 
#
# 1 0.012295 -0.003777 -0.004523 0.000000 0.000000 0.000000
# 2 -0.003777 0.024009 -0.008348 0.000000 0.000000 0.000000
# 3 -0.004523 -0.008348 0.022631 0.000000 0.000000 0.000000
# 4 0.000000 0.000000 0.000000 0.031940 0.000000 0.000000
# 5 0.000000 0.000000 0.000000 0.000000 0.029964 0.000000
# 6 0.000000 0.000000 0.000000 0.000000 0.000000 0.058934
#
#
# Mechanical properties :
#
#
# Convention : Reuss Voigt Hill
#
# Bulk Modulus (GPa) = 39.00210 41.82857 40.41533
# Shear Modulus (GPa) = 22.56159 25.21020 23.88590
#
# Velocity S-wave (km/s) = 3.37578 3.56844 3.47344
# Velocity P-wave (km/s) = 5.90716 6.17301 6.04155
#
# Compressibility (1/GPa) = 0.02563965
#
# Stress axis : x y z
#
# Youngs Moduli (GPa) = 81.33617 41.65033 44.18665
#
# Poissons Ratio (x) = 0.15732 0.19987
# Poissons Ratio (y) = 0.30721 0.36885
# Poissons Ratio (z) = 0.36790 0.34768
#
# Static dielectric constant tensor:
#      x y z
#    x 3.634350 0.000000 0.000000 
#    y 0.000000 3.692210 0.000000 
#    z 0.000000 0.000000 3.542930 
# 
# 
# High freq. dielectric constant tensor:
#      x y z
#    x 1.778200 0.000000 0.000000 
#    y 0.000000 1.768410 0.000000 
#    z 0.000000 0.000000 1.768050 
# 
# From -- ./inp_files/6626.got.cif
#   From: 2010.03.12/outbox.cif.g09.slc.cpg/sg55_4_cif.got.tgz:6626.got - 2010.04.16 15:19:21.
