data_PCOD8225749
_publ_section_title
;
Structure prediction by ZEFSAII (Michael W. Deem and Ramdas Pophale) SiO2 
 PCOD8225749
Probable space group: P B A M
;
_chemical_formula_sum "Si O2"
_cell_formula_units_Z 64
_cell_length_a 32.598316
_cell_length_b 10.653359
_cell_length_c 8.958558
_cell_angle_alpha 90.000000
_cell_angle_beta 90.000000
_cell_angle_gamma 90.000000
_cell_volume 3111.142026
_symmetry_space_group_name_H-M "P B A M"
_symmetry_group_IT_number 55
_symmetry_cell_setting 'orthorhombic'
loop_
_space_group_symop_operation_xyz
x,y,z
-x,-y,z
1/2+x,1/2-y,-z
1/2-x,1/2+y,-z
-x,-y,-z
x,y,-z
1/2-x,1/2+y,z
1/2+x,1/2-y,z
loop_
_atom_site_type_symbol
_atom_site_label
_atom_site_fract_x
_atom_site_fract_y
_atom_site_fract_z
Si Si1 0.578378 0.461696 0.663886
Si Si2 0.137147 0.274738 0.666748
Si Si3 0.486146 0.726015 0.330518
Si Si4 0.428605 0.171484 0.329041
Si Si5 0.781368 0.082508 0.177028
Si Si6 0.429975 0.918860 0.824314
Si Si7 0.779616 0.799037 0.822440
Si Si8 0.628749 0.655426 0.826043
O O1 0.580427 0.529558 0.500000
O O2 0.606108 0.339164 0.658617
O O3 0.532043 0.413897 0.697734
O O4 0.594887 0.549110 0.795045
O O5 0.150221 0.316946 0.500000
O O6 0.114047 0.387848 0.750204
O O7 0.176388 0.235301 0.760353
O O8 0.475220 0.769251 0.500000
O O9 0.535501 0.722820 0.310319
O O10 0.465811 0.822083 0.215421
O O11 0.421809 0.133325 0.500000
O O12 0.385684 0.220916 0.261988
O O13 0.444212 0.052966 0.236400
O O14 0.752183 0.193856 0.239201
O O15 0.827213 0.111002 0.236007
O O16 0.767626 0.941880 0.229958
O O17 0.781214 0.086279 0.000000
O O18 0.423993 0.922580 0.000000
O O19 0.781681 0.794876 0.000000
O O20 0.630437 0.686254 0.000000
#
# Coordination Sequence:
#
# PCOD8225749 Si02
#       8
#     8   8   8   8   8   8   8   8
#     4   9  18  35  58  81 108 148 194 237 288 350
#     4  10  20  36  59  87 115 150 194 237 287 351
#     4   9  20  38  59  83 114 154 198 242 294 352
#     4  11  23  39  57  80 116 159 197 241 297 355
#     4   9  20  36  59  87 120 155 198 247 306 365
#     4  11  22  36  58  87 118 153 194 244 294 349
#     4  10  19  37  61  87 116 156 199 246 300 361
#     4  11  22  37  56  83 116 152 196 247 298 351
#
# _framework density 20.571224000000001
#
# number of rings (size 3 to 8) (size 9 to 14) (size 15 to 20)
#    0.000    2.000    1.250    3.375    0.000    6.000 
#    0.000    6.875    0.000    0.000    0.000    0.000 
#    0.000    0.000    0.000    0.000    0.000    0.000 
#
# Total GULP energy -793420.625105 kJ/mol
# GULP energy per Si atom -12397.197267 kJ/mol
# Density = 2.052440 g / cm^3
# Si number density = 20.571224 Si / 1000 Ang^3
#
#
#
# Elastic Constant Matrix: (Units=GPa)
#
#
# Indices 1 2 3 4 5 6 
#
# 1 92.9547 43.2278 22.3036 0.0000 0.0000 0.0000
# 2 43.2278 55.0413 21.7527 0.0000 0.0000 0.0000
# 3 22.3036 21.7527 69.9481 0.0000 0.0000 0.0000
# 4 0.0000 0.0000 0.0000 29.7943 0.0000 0.0000
# 5 0.0000 0.0000 0.0000 0.0000 25.1691 0.0000
# 6 0.0000 0.0000 0.0000 0.0000 0.0000 29.0010
#
#
#
# Elastic Compliance Matrix: (Units=1/GPa)
#
#
# Indices 1 2 3 4 5 6 
#
# 1 0.017076 -0.012837 -0.001453 0.000000 0.000000 0.000000
# 2 -0.012837 0.030364 -0.005350 0.000000 0.000000 0.000000
# 3 -0.001453 -0.005350 0.016423 0.000000 0.000000 0.000000
# 4 0.000000 0.000000 0.000000 0.033563 0.000000 0.000000
# 5 0.000000 0.000000 0.000000 0.000000 0.039731 0.000000
# 6 0.000000 0.000000 0.000000 0.000000 0.000000 0.034482
#
#
# Mechanical properties :
#
#
# Convention : Reuss Voigt Hill
#
# Bulk Modulus (GPa) = 40.67551 43.61249 42.14400
# Shear Modulus (GPa) = 22.81918 25.50354 24.16136
#
# Velocity S-wave (km/s) = 3.33419 3.52485 3.43085
# Velocity P-wave (km/s) = 5.88544 6.14922 6.01877
#
# Compressibility (1/GPa) = 0.02458482
#
# Stress axis : x y z
#
# Youngs Moduli (GPa) = 58.56070 32.93347 60.88958
#
# Poissons Ratio (x) = 0.42277 0.08846
# Poissons Ratio (y) = 0.75175 0.32573
# Poissons Ratio (z) = 0.08508 0.17618
#
# Static dielectric constant tensor:
#      x y z
#    x 3.852540 0.000000 0.000000 
#    y 0.000000 3.859630 0.000000 
#    z 0.000000 0.000000 3.563770 
# 
# 
# High freq. dielectric constant tensor:
#      x y z
#    x 1.802750 0.000000 0.000000 
#    y 0.000000 1.806540 0.000000 
#    z 0.000000 0.000000 1.787290 
# 
# From -- ./inp_files/10747.got.cif
#   From: 2010.03.12/outbox.cif.g09.slc.cpg/sg55_6_cif.got.tgz:10747.got - 2010.04.16 15:19:21.
