data_PCOD8225745
_publ_section_title
;
Structure prediction by ZEFSAII (Michael W. Deem and Ramdas Pophale) SiO2 
 PCOD8225745
Probable space group: P B A M
;
_chemical_formula_sum "Si O2"
_cell_formula_units_Z 48
_cell_length_a 17.917696
_cell_length_b 16.655384
_cell_length_c 8.459194
_cell_angle_alpha 90.000000
_cell_angle_beta 90.000000
_cell_angle_gamma 90.000000
_cell_volume 2524.444336
_symmetry_space_group_name_H-M "P B A M"
_symmetry_group_IT_number 55
_symmetry_cell_setting 'orthorhombic'
loop_
_space_group_symop_operation_xyz
x,y,z
-x,-y,z
1/2+x,1/2-y,-z
1/2-x,1/2+y,-z
-x,-y,-z
x,y,-z
1/2-x,1/2+y,z
1/2+x,1/2-y,z
loop_
_atom_site_type_symbol
_atom_site_label
_atom_site_fract_x
_atom_site_fract_y
_atom_site_fract_z
Si Si1 0.027060 0.912923 0.688523
Si Si2 0.331493 0.865051 0.685516
Si Si3 0.083683 0.514625 0.815246
Si Si4 0.172519 0.835075 0.183127
Si Si5 0.396927 0.181959 0.317989
Si Si6 0.552105 0.258443 0.317396
O O1 0.035582 0.907228 0.500000
O O2 0.967430 0.846558 0.753858
O O3 0.107009 0.895047 0.764354
O O4 0.000000 0.000000 0.744636
O O5 0.347774 0.876951 0.500000
O O6 0.244344 0.858085 0.715315
O O7 0.373704 0.784437 0.751181
O O8 0.363452 0.940179 0.779958
O O9 0.120576 0.591012 0.729138
O O10 0.000000 0.500000 0.749839
O O11 0.081252 0.532768 0.000000
O O12 0.152413 0.742486 0.214570
O O13 0.190232 0.847507 0.000000
O O14 0.376433 0.197282 0.500000
O O15 0.483901 0.198125 0.284518
O O16 0.565450 0.273191 0.500000
#
# Coordination Sequence:
#
# PCOD8225745 Si02
#       6
#     8   8   8   8   8   8
#     4   9  18  37  63  87 111 145 194 243 285 343
#     4  11  21  37  58  82 115 155 199 240 285 342
#     4  11  22  35  56  89 124 152 186 234 293 349
#     4  11  23  39  57  82 119 155 189 239 301 345
#     4  10  19  37  61  84 109 149 198 232 274 341
#     4   8  16  31  56  84 107 139 188 238 277 326
#
# _framework density 19.014085000000001
#
# number of rings (size 3 to 8) (size 9 to 14) (size 15 to 20)
#    0.000    2.000    1.667    4.000    0.000    1.000 
#    3.000    0.833    0.000    0.000    0.000    0.000 
#    0.000    0.000    0.000    0.000    0.000    0.000 
#
# Total GULP energy -595156.868000 kJ/mol
# GULP energy per Si atom -12399.101417 kJ/mol
# Density = 1.897081 g / cm^3
# Si number density = 19.014085 Si / 1000 Ang^3
#
#
#
# Elastic Constant Matrix: (Units=GPa)
#
#
# Indices 1 2 3 4 5 6 
#
# 1 95.6351 51.0190 10.1716 0.0000 0.0000 0.0000
# 2 51.0190 139.9848 13.2657 0.0000 0.0000 0.0000
# 3 10.1716 13.2657 43.3949 0.0000 0.0000 0.0000
# 4 0.0000 0.0000 0.0000 25.2691 0.0000 0.0000
# 5 0.0000 0.0000 0.0000 0.0000 22.0390 0.0000
# 6 0.0000 0.0000 0.0000 0.0000 0.0000 17.6703
#
#
#
# Elastic Compliance Matrix: (Units=1/GPa)
#
#
# Indices 1 2 3 4 5 6 
#
# 1 0.013095 -0.004615 -0.001658 0.000000 0.000000 0.000000
# 2 -0.004615 0.008984 -0.001664 0.000000 0.000000 0.000000
# 3 -0.001658 -0.001664 0.023942 0.000000 0.000000 0.000000
# 4 0.000000 0.000000 0.000000 0.039574 0.000000 0.000000
# 5 0.000000 0.000000 0.000000 0.000000 0.045374 0.000000
# 6 0.000000 0.000000 0.000000 0.000000 0.000000 0.056592
#
#
# Mechanical properties :
#
#
# Convention : Reuss Voigt Hill
#
# Bulk Modulus (GPa) = 33.17452 47.54747 40.36099
# Shear Modulus (GPa) = 23.42081 26.63289 25.02685
#
# Velocity S-wave (km/s) = 3.51345 3.74664 3.63192
# Velocity P-wave (km/s) = 5.82618 6.61643 6.23384
#
# Compressibility (1/GPa) = 0.03014362
#
# Stress axis : x y z
#
# Youngs Moduli (GPa) = 76.36475 111.31498 41.76806
#
# Poissons Ratio (x) = 0.51377 0.06927
# Poissons Ratio (y) = 0.35246 0.06952
# Poissons Ratio (z) = 0.12665 0.18527
#
# Static dielectric constant tensor:
#      x y z
#    x 3.464450 0.000000 0.000000 
#    y 0.000000 3.653780 0.000000 
#    z 0.000000 0.000000 3.277030 
# 
# 
# High freq. dielectric constant tensor:
#      x y z
#    x 1.725580 0.000000 0.000000 
#    y 0.000000 1.746870 0.000000 
#    z 0.000000 0.000000 1.727210 
# 
# From -- ./inp_files/7427.got.cif
#   From: 2010.03.12/outbox.cif.g09.slc.cpg/sg55_4_cif.got.tgz:7427.got - 2010.04.16 15:19:21.
