data_PCOD8225747
_publ_section_title
;
Structure prediction by ZEFSAII (Michael W. Deem and Ramdas Pophale) SiO2 
 PCOD8225747
Probable space group: P B A M
;
_chemical_formula_sum "Si O2"
_cell_formula_units_Z 64
_cell_length_a 15.589105
_cell_length_b 22.713232
_cell_length_c 9.151112
_cell_angle_alpha 90.000000
_cell_angle_beta 90.000000
_cell_angle_gamma 90.000000
_cell_volume 3240.216206
_symmetry_space_group_name_H-M "P B A M"
_symmetry_group_IT_number 55
_symmetry_cell_setting 'orthorhombic'
loop_
_space_group_symop_operation_xyz
x,y,z
-x,-y,z
1/2+x,1/2-y,-z
1/2-x,1/2+y,-z
-x,-y,-z
x,y,-z
1/2-x,1/2+y,z
1/2+x,1/2-y,z
loop_
_atom_site_type_symbol
_atom_site_label
_atom_site_fract_x
_atom_site_fract_y
_atom_site_fract_z
Si Si1 0.368392 0.847956 0.841147
Si Si2 0.960150 0.828340 0.673818
Si Si3 0.250158 0.043729 0.672669
Si Si4 0.664623 0.836240 0.660412
Si Si5 0.071638 0.049592 0.827795
Si Si6 0.464642 0.227495 0.161181
Si Si7 0.406158 0.977572 0.173279
Si Si8 0.806739 0.747159 0.660097
O O1 0.441982 0.799637 0.850052
O O2 0.401285 0.909555 0.777484
O O3 0.297425 0.814971 0.744453
O O4 0.328084 0.860002 0.000000
O O5 0.970018 0.837603 0.500000
O O6 0.963713 0.891142 0.753117
O O7 0.871397 0.797047 0.720434
O O8 0.035667 0.785381 0.735022
O O9 0.240818 0.030020 0.500000
O O10 0.269727 0.112219 0.702589
O O11 0.160991 0.028425 0.753472
O O12 0.330165 0.008948 0.739872
O O13 0.624980 0.849296 0.500000
O O14 0.590270 0.827398 0.777511
O O15 0.712931 0.774153 0.658705
O O16 0.087158 0.060043 0.000000
O O17 0.000000 0.000000 0.800889
O O18 0.430983 0.245221 0.000000
O O19 0.500000 0.000000 0.223305
O O20 0.394221 0.987376 0.000000
O O21 0.840485 0.730226 0.500000
#
# Coordination Sequence:
#
# PCOD8225747 Si02
#       8
#     8   8   8   8   8   8   8   8
#     4   9  19  35  54  79 112 147 187 232 284 345
#     4  10  19  37  61  85 115 151 189 241 302 357
#     4  11  23  40  63  91 122 160 211 260 306 367
#     4  10  20  36  55  82 115 147 190 241 293 353
#     4  11  24  42  64  89 118 157 207 261 313 369
#     4  10  20  34  56  88 117 150 194 238 290 356
#     4  10  21  39  61  87 124 166 204 248 304 364
#     4   9  18  34  56  79 109 144 183 230 286 346
#
# _framework density 19.751768999999999
#
# number of rings (size 3 to 8) (size 9 to 14) (size 15 to 20)
#    0.000    2.000    1.250    2.250    0.000    5.250 
#    2.250    0.000    0.000    0.000    0.000    0.000 
#    0.000    0.000    0.000    0.000    0.000    0.000 
#
# Total GULP energy -793153.803392 kJ/mol
# GULP energy per Si atom -12393.028178 kJ/mol
# Density = 1.970681 g / cm^3
# Si number density = 19.751769 Si / 1000 Ang^3
#
#
#
# Elastic Constant Matrix: (Units=GPa)
#
#
# Indices 1 2 3 4 5 6 
#
# 1 80.1988 35.0299 49.7905 0.0000 0.0000 0.0000
# 2 35.0299 120.3240 58.3361 0.0000 0.0000 0.0000
# 3 49.7905 58.3361 114.3740 0.0000 0.0000 0.0000
# 4 0.0000 0.0000 0.0000 29.9815 0.0000 0.0000
# 5 0.0000 0.0000 0.0000 0.0000 25.1783 0.0000
# 6 0.0000 0.0000 0.0000 0.0000 0.0000 27.3195
#
#
#
# Elastic Compliance Matrix: (Units=1/GPa)
#
#
# Indices 1 2 3 4 5 6 
#
# 1 0.017392 -0.001850 -0.006628 0.000000 0.000000 0.000000
# 2 -0.001850 0.011238 -0.004927 0.000000 0.000000 0.000000
# 3 -0.006628 -0.004927 0.014141 0.000000 0.000000 0.000000
# 4 0.000000 0.000000 0.000000 0.033354 0.000000 0.000000
# 5 0.000000 0.000000 0.000000 0.000000 0.039717 0.000000
# 6 0.000000 0.000000 0.000000 0.000000 0.000000 0.036604
#
#
# Mechanical properties :
#
#
# Convention : Reuss Voigt Hill
#
# Bulk Modulus (GPa) = 62.64613 66.80108 64.72360
# Shear Modulus (GPa) = 27.08934 27.94522 27.51728
#
# Velocity S-wave (km/s) = 3.70738 3.76549 3.73655
# Velocity P-wave (km/s) = 7.07897 7.26629 7.17324
#
# Compressibility (1/GPa) = 0.01596268
#
# Stress axis : x y z
#
# Youngs Moduli (GPa) = 57.49861 88.98383 70.71552
#
# Poissons Ratio (x) = 0.16462 0.46867
# Poissons Ratio (y) = 0.10638 0.34838
# Poissons Ratio (z) = 0.38107 0.43838
#
# Static dielectric constant tensor:
#      x y z
#    x 3.401760 0.000000 0.000000 
#    y 0.000000 3.706620 0.000000 
#    z 0.000000 0.000000 3.884250 
# 
# 
# High freq. dielectric constant tensor:
#      x y z
#    x 1.752400 0.000000 0.000000 
#    y 0.000000 1.771920 0.000000 
#    z 0.000000 0.000000 1.774780 
# 
# From -- ./inp_files/6611.got.cif
#   From: 2010.03.12/outbox.cif.g09.slc.cpg/sg55_4_cif.got.tgz:6611.got - 2010.04.16 15:19:21.
