data_PCOD8225695
_publ_section_title
;
Structure prediction by ZEFSAII (Michael W. Deem and Ramdas Pophale) SiO2 
 PCOD8225695
Probable space group: P B A M
;
_chemical_formula_sum "Si O2"
_cell_formula_units_Z 44
_cell_length_a 5.244628
_cell_length_b 16.353811
_cell_length_c 23.567790
_cell_angle_alpha 90.000000
_cell_angle_beta 90.000000
_cell_angle_gamma 90.000000
_cell_volume 2021.401219
_symmetry_space_group_name_H-M "P B A M"
_symmetry_group_IT_number 55
_symmetry_cell_setting 'orthorhombic'
loop_
_space_group_symop_operation_xyz
x,y,z
-x,-y,z
1/2+x,1/2-y,-z
1/2-x,1/2+y,-z
-x,-y,-z
x,y,-z
1/2-x,1/2+y,z
1/2+x,1/2-y,z
loop_
_atom_site_type_symbol
_atom_site_label
_atom_site_fract_x
_atom_site_fract_y
_atom_site_fract_z
Si Si1 0.137380 0.201534 0.000000
Si Si2 0.285541 0.694666 0.122928
Si Si3 0.805964 0.293088 0.713303
Si Si4 0.249498 0.555309 0.215904
Si Si5 0.751194 0.548505 0.433672
Si Si6 0.721663 0.724956 0.410709
O O1 0.201399 0.155419 0.940878
O O2 0.335901 0.278118 0.000000
O O3 0.527323 0.753964 0.132892
O O4 0.289723 0.617119 0.163965
O O5 0.562231 0.246141 0.740255
O O6 0.790423 0.389387 0.727510
O O7 0.813527 0.280348 0.645577
O O8 0.500000 0.500000 0.223791
O O9 0.000000 0.500000 0.206034
O O10 0.500000 0.500000 0.417616
O O11 0.758518 0.572202 0.500000
O O12 0.748426 0.629944 0.396166
O O13 0.000000 0.500000 0.415260
O O14 0.463502 0.741795 0.446419
#
# Coordination Sequence:
#
# PCOD8225695 Si02
#       6
#     4   8   8   8   8   8
#     4   8  16  30  54  84 108 142 190 228 270 330
#     4  10  19  36  60  83 112 150 190 232 276 337
#     4  10  21  41  60  80 110 148 192 234 278 333
#     4  12  24  38  57  85 115 147 188 237 291 336
#     4  10  21  38  60  88 120 150 182 228 283 334
#     4  10  21  38  59  85 114 148 191 230 273 331
#
# _framework density 21.767077
#
# number of rings (size 3 to 8) (size 9 to 14) (size 15 to 20)
#    0.000    1.818    0.000    4.364    0.000    0.727 
#    0.000   22.727    0.000    0.000    0.000    0.000 
#    0.000    0.000    0.000    0.000    0.000    0.000 
#
# Total GULP energy -545153.498416 kJ/mol
# GULP energy per Si atom -12389.852237 kJ/mol
# Density = 2.171753 g / cm^3
# Si number density = 21.767077 Si / 1000 Ang^3
#
#
#
# Elastic Constant Matrix: (Units=GPa)
#
#
# Indices 1 2 3 4 5 6 
#
# 1 181.3613 54.7218 -24.7253 0.0000 0.0000 0.0000
# 2 54.7218 132.2499 16.7594 0.0000 0.0000 0.0000
# 3 -24.7253 16.7594 54.3283 0.0000 0.0000 0.0000
# 4 0.0000 0.0000 0.0000 32.2331 0.0000 0.0000
# 5 0.0000 0.0000 0.0000 0.0000 -10.7572 0.0000
# 6 0.0000 0.0000 0.0000 0.0000 0.0000 46.6286
#
#
#
# Elastic Compliance Matrix: (Units=1/GPa)
#
#
# Indices 1 2 3 4 5 6 
#
# 1 0.007168 -0.003517 0.004347 0.000000 0.000000 0.000000
# 2 -0.003517 0.009594 -0.004560 0.000000 0.000000 0.000000
# 3 0.004347 -0.004560 0.021792 0.000000 0.000000 0.000000
# 4 0.000000 0.000000 0.000000 0.031024 0.000000 0.000000
# 5 0.000000 0.000000 0.000000 0.000000 -0.092961 0.000000
# 6 0.000000 0.000000 0.000000 0.000000 0.000000 0.021446
#
#
# Mechanical properties :
#
#
# Convention : Reuss Voigt Hill
#
# Bulk Modulus (GPa) = 32.16090 51.27238 41.71664
# Shear Modulus (GPa) = 314.71507 35.03314 174.87410
#
# Velocity S-wave (km/s) = 12.03731 4.01615 8.97292
# Velocity P-wave (km/s) = 14.42231 6.71656 11.24978
#
# Compressibility (1/GPa) = 0.03109365
#
# Stress axis : x y z
#
# Youngs Moduli (GPa) = 139.51834 104.22741 45.88926
#
# Poissons Ratio (x) = 0.36653 -0.19947
# Poissons Ratio (y) = 0.49063 0.20926
# Poissons Ratio (z) = -0.60646 0.47529
#
# Static dielectric constant tensor:
#      x y z
#    x 5.914040 0.000000 0.000000 
#    y 0.000000 3.734900 0.000000 
#    z 0.000000 0.000000 3.913360 
# 
# 
# High freq. dielectric constant tensor:
#      x y z
#    x 1.896460 0.000000 0.000000 
#    y 0.000000 1.831630 0.000000 
#    z 0.000000 0.000000 1.846960 
# 
# From -- ./inp_files/23778.got.cif
#   From: 2010.03.12/outbox.cif.g09.slc.cpg/sg55_12_cif.got.tgz:23778.got - 2010.04.16 15:19:21.
