data_PCOD8225394
_publ_section_title
;
Structure prediction by ZEFSAII (Michael W. Deem and Ramdas Pophale) SiO2 
 PCOD8225394
Probable space group: P B A M
;
_chemical_formula_sum "Si O2"
_cell_formula_units_Z 40
_cell_length_a 4.992424
_cell_length_b 23.907593
_cell_length_c 17.821315
_cell_angle_alpha 90.000000
_cell_angle_beta 90.000000
_cell_angle_gamma 90.000000
_cell_volume 2127.095862
_symmetry_space_group_name_H-M "P B A M"
_symmetry_group_IT_number 55
_symmetry_cell_setting 'orthorhombic'
loop_
_space_group_symop_operation_xyz
x,y,z
-x,-y,z
1/2+x,1/2-y,-z
1/2-x,1/2+y,-z
-x,-y,-z
x,y,-z
1/2-x,1/2+y,z
1/2+x,1/2-y,z
loop_
_atom_site_type_symbol
_atom_site_label
_atom_site_fract_x
_atom_site_fract_y
_atom_site_fract_z
Si Si1 0.011075 0.213213 0.583819
Si Si2 0.398670 0.936984 0.339918
Si Si3 0.245680 0.460140 0.500000
Si Si4 0.356175 0.710750 0.162071
Si Si5 0.454688 0.715082 0.000000
Si Si6 0.574619 0.374176 0.293523
O O1 0.977091 0.187907 0.500000
O O2 0.311187 0.235144 0.596150
O O3 0.947366 0.166628 0.644690
O O4 0.278954 0.924435 0.423538
O O5 0.644106 0.896526 0.323058
O O6 0.149439 0.923182 0.284027
O O7 0.500000 0.000000 0.328198
O O8 0.500000 0.500000 0.500000
O O9 0.000000 0.500000 0.500000
O O10 0.572968 0.759455 0.175720
O O11 0.380701 0.683955 0.077912
O O12 0.386372 0.657918 0.215813
O O13 0.770790 0.728580 0.000000
#
# Coordination Sequence:
#
# PCOD8225394 Si02
#       6
#     8   8   4   8   4   8
#     4  10  21  35  49  70 103 136 170 207 249 311
#     4  11  24  38  54  76 103 134 183 234 282 314
#     4  10  20  38  56  70  94 130 174 236 282 310
#     4  10  19  34  55  84 116 142 175 213 261 323
#     4   8  16  30  52  80 113 144 167 210 262 312
#     4  12  22  34  57  78 103 142 179 218 274 315
#
# _framework density 18.80498
#
# number of rings (size 3 to 8) (size 9 to 14) (size 15 to 20)
#    0.000    1.600    0.000    6.600    2.800    0.000 
#    0.000    0.000    0.000    0.000    0.000    4.200 
#    0.000    0.000    0.000    0.000    0.000    0.000 
#
# Total GULP energy -495799.898360 kJ/mol
# GULP energy per Si atom -12394.997459 kJ/mol
# Density = 1.876218 g / cm^3
# Si number density = 18.804980 Si / 1000 Ang^3
#
#
#
# Elastic Constant Matrix: (Units=GPa)
#
#
# Indices 1 2 3 4 5 6 
#
# 1 107.0313 20.5170 31.0763 0.0000 0.0000 0.0000
# 2 20.5170 59.6375 62.4760 0.0000 0.0000 0.0000
# 3 31.0763 62.4760 127.1683 0.0000 0.0000 0.0000
# 4 0.0000 0.0000 0.0000 23.3976 0.0000 0.0000
# 5 0.0000 0.0000 0.0000 0.0000 22.5406 0.0000
# 6 0.0000 0.0000 0.0000 0.0000 0.0000 33.7337
#
#
#
# Elastic Compliance Matrix: (Units=1/GPa)
#
#
# Indices 1 2 3 4 5 6 
#
# 1 0.010154 -0.001842 -0.001577 0.000000 0.000000 0.000000
# 2 -0.001842 0.034884 -0.016688 0.000000 0.000000 0.000000
# 3 -0.001577 -0.016688 0.016447 0.000000 0.000000 0.000000
# 4 0.000000 0.000000 0.000000 0.042739 0.000000 0.000000
# 5 0.000000 0.000000 0.000000 0.000000 0.044364 0.000000
# 6 0.000000 0.000000 0.000000 0.000000 0.000000 0.029644
#
#
# Mechanical properties :
#
#
# Convention : Reuss Voigt Hill
#
# Bulk Modulus (GPa) = 47.00830 57.99732 52.50281
# Shear Modulus (GPa) = 22.16947 27.91890 25.04418
#
# Velocity S-wave (km/s) = 3.43726 3.85730 3.65332
# Velocity P-wave (km/s) = 6.38788 7.12368 6.76579
#
# Compressibility (1/GPa) = 0.02127284
#
# Stress axis : x y z
#
# Youngs Moduli (GPa) = 98.48496 28.66677 60.80014
#
# Poissons Ratio (x) = 0.05279 0.09585
# Poissons Ratio (y) = 0.18137 1.01462
# Poissons Ratio (z) = 0.15526 0.47838
#
# Static dielectric constant tensor:
#      x y z
#    x 3.643650 0.000000 0.000000 
#    y 0.000000 3.174820 0.000000 
#    z 0.000000 0.000000 3.477420 
# 
# 
# High freq. dielectric constant tensor:
#      x y z
#    x 1.761190 0.000000 0.000000 
#    y 0.000000 1.695080 0.000000 
#    z 0.000000 0.000000 1.719130 
# 
# From -- ./inp_files/20410.got.cif
#   From: 2010.03.12/outbox.cif.g09.slc.cpg/sg55_11_cif.got.tgz:20410.got - 2010.04.16 15:19:21.
