data_PCOD8225927
_publ_section_title
;
Structure prediction by ZEFSAII (Michael W. Deem and Ramdas Pophale) SiO2 
 PCOD8225927
Probable space group: P B A M
;
_chemical_formula_sum "Si O2"
_cell_formula_units_Z 64
_cell_length_a 32.266044
_cell_length_b 10.867888
_cell_length_c 9.619850
_cell_angle_alpha 90.000000
_cell_angle_beta 90.000000
_cell_angle_gamma 90.000000
_cell_volume 3373.332698
_symmetry_space_group_name_H-M "P B A M"
_symmetry_group_IT_number 55
_symmetry_cell_setting 'orthorhombic'
loop_
_space_group_symop_operation_xyz
x,y,z
-x,-y,z
1/2+x,1/2-y,-z
1/2-x,1/2+y,-z
-x,-y,-z
x,y,-z
1/2-x,1/2+y,z
1/2+x,1/2-y,z
loop_
_atom_site_type_symbol
_atom_site_label
_atom_site_fract_x
_atom_site_fract_y
_atom_site_fract_z
Si Si1 0.880246 0.653218 0.661726
Si Si2 0.772718 0.021689 0.845638
Si Si3 0.696802 0.981935 0.338067
Si Si4 0.647474 0.383089 0.838239
Si Si5 0.675345 0.767231 0.150922
Si Si6 0.404081 0.376541 0.157401
Si Si7 0.473289 0.884743 0.663963
Si Si8 0.516663 0.633644 0.664435
O O1 0.880988 0.689480 0.500000
O O2 0.845699 0.551912 0.694184
O O3 0.868869 0.772960 0.746553
O O4 0.925136 0.600893 0.708413
O O5 0.735835 0.043880 0.737358
O O6 0.804348 0.912250 0.800837
O O7 0.799279 0.143174 0.851093
O O8 0.754815 0.993136 0.000000
O O9 0.706744 0.974916 0.500000
O O10 0.692302 0.846258 0.277430
O O11 0.618373 0.497481 0.801053
O O12 0.643982 0.348533 0.000000
O O13 0.627244 0.737192 0.172504
O O14 0.681018 0.833120 0.000000
O O15 0.439407 0.346326 0.265974
O O16 0.421427 0.384823 0.000000
O O17 0.478075 0.890339 0.500000
O O18 0.488364 0.749025 0.714617
O O19 0.500000 0.000000 0.727557
O O20 0.500000 0.500000 0.713924
O O21 0.522461 0.635063 0.500000
#
# Coordination Sequence:
#
# PCOD8225927 Si02
#       8
#     8   8   8   8   8   8   8   8
#     4  10  22  38  56  82 114 147 186 232 280 329
#     4   9  20  39  60  81 107 147 192 228 269 329
#     4  11  24  36  54  85 117 144 181 232 285 334
#     4   9  19  37  60  84 111 148 189 225 272 336
#     4   9  20  39  59  79 108 147 190 227 269 334
#     4   9  19  36  58  84 113 144 182 232 283 327
#     4   9  19  36  57  78 110 154 191 226 278 344
#     4  10  20  33  56  87 111 142 193 239 279 341
#
# _framework density 18.972335000000001
#
# number of rings (size 3 to 8) (size 9 to 14) (size 15 to 20)
#    0.000    2.500    0.000    2.625    3.500    4.250 
#    0.000    3.125    0.000    0.750    0.000    0.000 
#    0.000    0.000    0.000    0.000    0.000    0.000 
#
# Total GULP energy -793347.961161 kJ/mol
# GULP energy per Si atom -12396.061893 kJ/mol
# Density = 1.892915 g / cm^3
# Si number density = 18.972335 Si / 1000 Ang^3
#
#
#
# Elastic Constant Matrix: (Units=GPa)
#
#
# Indices 1 2 3 4 5 6 
#
# 1 137.2987 34.7848 49.2674 0.0000 0.0000 0.0000
# 2 34.7848 67.2728 18.5194 0.0000 0.0000 0.0000
# 3 49.2674 18.5194 53.4073 0.0000 0.0000 0.0000
# 4 0.0000 0.0000 0.0000 22.2643 0.0000 0.0000
# 5 0.0000 0.0000 0.0000 0.0000 26.8051 0.0000
# 6 0.0000 0.0000 0.0000 0.0000 0.0000 24.8689
#
#
#
# Elastic Compliance Matrix: (Units=1/GPa)
#
#
# Indices 1 2 3 4 5 6 
#
# 1 0.011534 -0.003355 -0.009476 0.000000 0.000000 0.000000
# 2 -0.003355 0.017410 -0.002942 0.000000 0.000000 0.000000
# 3 -0.009476 -0.002942 0.028486 0.000000 0.000000 0.000000
# 4 0.000000 0.000000 0.000000 0.044915 0.000000 0.000000
# 5 0.000000 0.000000 0.000000 0.000000 0.037306 0.000000
# 6 0.000000 0.000000 0.000000 0.000000 0.000000 0.040211
#
#
# Mechanical properties :
#
#
# Convention : Reuss Voigt Hill
#
# Bulk Modulus (GPa) = 38.63591 51.45800 45.04696
# Shear Modulus (GPa) = 22.72358 25.14814 23.93586
#
# Velocity S-wave (km/s) = 3.46457 3.64471 3.55578
# Velocity P-wave (km/s) = 6.03431 6.70026 6.37598
#
# Compressibility (1/GPa) = 0.02588265
#
# Stress axis : x y z
#
# Youngs Moduli (GPa) = 86.70127 57.43983 35.10497
#
# Poissons Ratio (x) = 0.19272 0.33267
# Poissons Ratio (y) = 0.29089 0.10327
# Poissons Ratio (z) = 0.82162 0.16898
#
# Static dielectric constant tensor:
#      x y z
#    x 3.670700 0.000000 0.000000 
#    y 0.000000 3.564590 0.000000 
#    z 0.000000 0.000000 3.344340 
# 
# 
# High freq. dielectric constant tensor:
#      x y z
#    x 1.748190 0.000000 0.000000 
#    y 0.000000 1.736450 0.000000 
#    z 0.000000 0.000000 1.720770 
# 
# From -- ./inp_files/4514.got.cif
#   From: 2010.03.12/outbox.cif.g09.slc.cpg/sg55_3_cif.got.tgz:4514.got - 2010.04.16 15:19:21.
