data_PCOD8225185
_publ_section_title
;
Structure prediction by ZEFSAII (Michael W. Deem and Ramdas Pophale) SiO2 
 PCOD8225185
Probable space group: P B A M
;
_chemical_formula_sum "Si O2"
_cell_formula_units_Z 56
_cell_length_a 15.104931
_cell_length_b 21.444370
_cell_length_c 8.698109
_cell_angle_alpha 90.000000
_cell_angle_beta 90.000000
_cell_angle_gamma 90.000000
_cell_volume 2817.454319
_symmetry_space_group_name_H-M "P B A M"
_symmetry_group_IT_number 55
_symmetry_cell_setting 'orthorhombic'
loop_
_space_group_symop_operation_xyz
x,y,z
-x,-y,z
1/2+x,1/2-y,-z
1/2-x,1/2+y,-z
-x,-y,-z
x,y,-z
1/2-x,1/2+y,z
1/2+x,1/2-y,z
loop_
_atom_site_type_symbol
_atom_site_label
_atom_site_fract_x
_atom_site_fract_y
_atom_site_fract_z
Si Si1 0.783421 0.893954 0.679027
Si Si2 0.728792 0.766382 0.817552
Si Si3 0.629100 0.983136 0.321912
Si Si4 0.029663 0.411568 0.818582
Si Si5 0.478809 0.569895 0.317502
Si Si6 0.585146 0.221935 0.817857
Si Si7 0.563520 0.685316 0.182435
O O1 0.787458 0.877914 0.500000
O O2 0.731527 0.837486 0.760615
O O3 0.726661 0.956388 0.710201
O O4 0.882163 0.907473 0.743953
O O5 0.816710 0.732917 0.754432
O O6 0.647307 0.724859 0.754318
O O7 0.723578 0.769076 0.000000
O O8 0.616138 0.999591 0.500000
O O9 0.556404 0.932618 0.273000
O O10 0.614352 0.045213 0.220873
O O11 0.049386 0.343109 0.754664
O O12 0.010994 0.413647 0.000000
O O13 0.500000 0.500000 0.257369
O O14 0.480552 0.570835 0.500000
O O15 0.555362 0.616273 0.254668
O O16 0.523027 0.277643 0.760637
O O17 0.586059 0.219550 0.000000
O O18 0.569064 0.678638 0.000000
#
# Coordination Sequence:
#
# PCOD8225185 Si02
#       7
#     8   8   8   8   8   8   8
#     4  10  21  37  56  80 109 147 192 230 275 339
#     4  10  20  35  58  83 110 143 180 229 284 332
#     4  10  20  34  51  75 109 142 179 227 273 320
#     4  10  19  33  53  78 108 142 181 220 271 334
#     4  10  22  40  59  80 112 152 190 234 284 332
#     4   9  18  33  52  78 110 137 169 222 273 320
#     4  10  20  36  58  84 111 144 186 230 283 338
#
# _framework density 19.876100000000001
#
# number of rings (size 3 to 8) (size 9 to 14) (size 15 to 20)
#    0.000    2.143    1.429    2.571    0.000    4.286 
#    0.000    2.857    0.000    0.000    0.000    0.000 
#    0.000    0.000    0.000    0.000    0.000    0.000 
#
# Total GULP energy -694281.133975 kJ/mol
# GULP energy per Si atom -12397.877392 kJ/mol
# Density = 1.983086 g / cm^3
# Si number density = 19.876100 Si / 1000 Ang^3
#
#
#
# Elastic Constant Matrix: (Units=GPa)
#
#
# Indices 1 2 3 4 5 6 
#
# 1 110.1236 46.0555 13.7224 0.0000 0.0000 0.0000
# 2 46.0555 136.0868 13.8870 0.0000 0.0000 0.0000
# 3 13.7224 13.8870 20.6518 0.0000 0.0000 0.0000
# 4 0.0000 0.0000 0.0000 22.4929 0.0000 0.0000
# 5 0.0000 0.0000 0.0000 0.0000 17.4923 0.0000
# 6 0.0000 0.0000 0.0000 0.0000 0.0000 33.4695
#
#
#
# Elastic Compliance Matrix: (Units=1/GPa)
#
#
# Indices 1 2 3 4 5 6 
#
# 1 0.011074 -0.003218 -0.005194 0.000000 0.000000 0.000000
# 2 -0.003218 0.008825 -0.003796 0.000000 0.000000 0.000000
# 3 -0.005194 -0.003796 0.054426 0.000000 0.000000 0.000000
# 4 0.000000 0.000000 0.000000 0.044458 0.000000 0.000000
# 5 0.000000 0.000000 0.000000 0.000000 0.057168 0.000000
# 6 0.000000 0.000000 0.000000 0.000000 0.000000 0.029878
#
#
# Mechanical properties :
#
#
# Convention : Reuss Voigt Hill
#
# Bulk Modulus (GPa) = 20.03679 46.02135 33.02907
# Shear Modulus (GPa) = 20.25273 27.57078 23.91176
#
# Velocity S-wave (km/s) = 3.19556 3.72846 3.47225
# Velocity P-wave (km/s) = 4.87013 6.46062 5.72092
#
# Compressibility (1/GPa) = 0.04990819
#
# Stress axis : x y z
#
# Youngs Moduli (GPa) = 90.30482 113.32063 18.37359
#
# Poissons Ratio (x) = 0.36461 0.09544
# Poissons Ratio (y) = 0.29056 0.06975
# Poissons Ratio (z) = 0.46908 0.43016
#
# Static dielectric constant tensor:
#      x y z
#    x 3.832620 0.000000 0.000000 
#    y 0.000000 3.786870 0.000000 
#    z 0.000000 0.000000 3.320010 
# 
# 
# High freq. dielectric constant tensor:
#      x y z
#    x 1.777860 0.000000 0.000000 
#    y 0.000000 1.783970 0.000000 
#    z 0.000000 0.000000 1.750390 
# 
# From -- ./inp_files/5993.got.cif
#   From: 2010.03.12/outbox.cif.g09.slc.cpg/sg55_3_cif.got.tgz:5993.got - 2010.04.16 15:19:21.
