data_PCOD8225322
_publ_section_title
;
Structure prediction by ZEFSAII (Michael W. Deem and Ramdas Pophale) SiO2 
 PCOD8225322
Probable space group: P B A M
;
_chemical_formula_sum "Si O2"
_cell_formula_units_Z 64
_cell_length_a 14.127205
_cell_length_b 17.922209
_cell_length_c 12.631797
_cell_angle_alpha 90.000000
_cell_angle_beta 90.000000
_cell_angle_gamma 90.000000
_cell_volume 3198.253785
_symmetry_space_group_name_H-M "P B A M"
_symmetry_group_IT_number 55
_symmetry_cell_setting 'orthorhombic'
loop_
_space_group_symop_operation_xyz
x,y,z
-x,-y,z
1/2+x,1/2-y,-z
1/2-x,1/2+y,-z
-x,-y,-z
x,y,-z
1/2-x,1/2+y,z
1/2+x,1/2-y,z
loop_
_atom_site_type_symbol
_atom_site_label
_atom_site_fract_x
_atom_site_fract_y
_atom_site_fract_z
Si Si1 0.036444 0.328210 0.621042
Si Si2 0.552356 0.663148 0.882763
Si Si3 0.418180 0.084882 0.119357
Si Si4 0.165676 0.186933 0.378289
Si Si5 0.390742 0.926960 0.794885
Si Si6 0.702210 0.539955 0.114956
Si Si7 0.355261 0.208582 0.250906
Si Si8 0.420404 0.563850 0.754958
O O1 0.031592 0.352170 0.500000
O O2 0.085306 0.248646 0.637802
O O3 0.096567 0.393905 0.677527
O O4 0.930325 0.322887 0.664849
O O5 0.613012 0.590688 0.903501
O O6 0.608277 0.714608 0.799868
O O7 0.456872 0.630775 0.830779
O O8 0.532487 0.700082 0.000000
O O9 0.528098 0.110913 0.131227
O O10 0.348172 0.150973 0.152839
O O11 0.400787 0.016611 0.199985
O O12 0.397748 0.059832 0.000000
O O13 0.198829 0.182468 0.500000
O O14 0.253928 0.214053 0.306773
O O15 0.120736 0.106221 0.348352
O O16 0.285776 0.909037 0.836115
O O17 0.671756 0.472377 0.190795
O O18 0.734221 0.507786 0.000000
O O19 0.500000 0.500000 0.726534
#
# Coordination Sequence:
#
# PCOD8225322 Si02
#       8
#     8   8   8   8   8   8   8   8
#     4  10  22  40  60  83 114 157 201 254 314 356
#     4  10  20  36  58  88 123 159 199 244 300 365
#     4  10  20  34  55  82 118 156 190 237 302 359
#     4  11  23  40  62  88 118 158 209 258 306 362
#     4  10  19  34  54  80 112 153 197 245 291 355
#     4  10  19  33  57  85 120 160 198 240 299 365
#     4  11  21  38  62  86 120 158 202 252 302 363
#     4  10  21  39  62  90 125 163 201 253 308 364
#
# _framework density 20.010919000000001
#
# number of rings (size 3 to 8) (size 9 to 14) (size 15 to 20)
#    0.000    1.750    1.250    4.125    0.000    1.750 
#    0.000    9.375    0.000    0.000    0.000    0.000 
#    0.000    0.000    0.000    0.000    0.000    0.000 
#
# Total GULP energy -793116.789894 kJ/mol
# GULP energy per Si atom -12392.449842 kJ/mol
# Density = 1.996537 g / cm^3
# Si number density = 20.010919 Si / 1000 Ang^3
#
#
#
# Elastic Constant Matrix: (Units=GPa)
#
#
# Indices 1 2 3 4 5 6 
#
# 1 66.9869 5.7570 28.6504 0.0000 0.0000 0.0000
# 2 5.7570 77.7065 47.7199 0.0000 0.0000 0.0000
# 3 28.6504 47.7199 117.8651 0.0000 0.0000 0.0000
# 4 0.0000 0.0000 0.0000 29.0591 0.0000 0.0000
# 5 0.0000 0.0000 0.0000 0.0000 11.8854 0.0000
# 6 0.0000 0.0000 0.0000 0.0000 0.0000 27.7718
#
#
#
# Elastic Compliance Matrix: (Units=1/GPa)
#
#
# Indices 1 2 3 4 5 6 
#
# 1 0.016824 0.001684 -0.004771 0.000000 0.000000 0.000000
# 2 0.001684 0.017296 -0.007412 0.000000 0.000000 0.000000
# 3 -0.004771 -0.007412 0.012645 0.000000 0.000000 0.000000
# 4 0.000000 0.000000 0.000000 0.034413 0.000000 0.000000
# 5 0.000000 0.000000 0.000000 0.000000 0.084137 0.000000
# 6 0.000000 0.000000 0.000000 0.000000 0.000000 0.036008
#
#
# Mechanical properties :
#
#
# Convention : Reuss Voigt Hill
#
# Bulk Modulus (GPa) = 38.81074 47.42368 43.11721
# Shear Modulus (GPa) = 21.65347 25.77200 23.71273
#
# Velocity S-wave (km/s) = 3.29307 3.59262 3.44610
# Velocity P-wave (km/s) = 5.82203 6.39997 6.11782
#
# Compressibility (1/GPa) = 0.02576606
#
# Stress axis : x y z
#
# Youngs Moduli (GPa) = 59.43797 57.81753 79.08360
#
# Poissons Ratio (x) = -0.09734 0.37733
# Poissons Ratio (y) = -0.10007 0.58615
# Poissons Ratio (z) = 0.28359 0.42853
#
# Static dielectric constant tensor:
#      x y z
#    x 3.796240 0.000000 0.000000 
#    y 0.000000 3.521150 0.000000 
#    z 0.000000 0.000000 3.765610 
# 
# 
# High freq. dielectric constant tensor:
#      x y z
#    x 1.788440 0.000000 0.000000 
#    y 0.000000 1.774860 0.000000 
#    z 0.000000 0.000000 1.773010 
# 
# From -- ./inp_files/14421.got.cif
#   From: 2010.03.12/outbox.cif.g09.slc.cpg/sg55_8_cif.got.tgz:14421.got - 2010.04.16 15:19:21.
