data_PCOD8225669
_publ_section_title
;
Structure prediction by ZEFSAII (Michael W. Deem and Ramdas Pophale) SiO2 
 PCOD8225669
Probable space group: P B A M
;
_chemical_formula_sum "Si O2"
_cell_formula_units_Z 64
_cell_length_a 23.432080
_cell_length_b 15.191954
_cell_length_c 9.353264
_cell_angle_alpha 90.000000
_cell_angle_beta 90.000000
_cell_angle_gamma 90.000000
_cell_volume 3329.566328
_symmetry_space_group_name_H-M "P B A M"
_symmetry_group_IT_number 55
_symmetry_cell_setting 'orthorhombic'
loop_
_space_group_symop_operation_xyz
x,y,z
-x,-y,z
1/2+x,1/2-y,-z
1/2-x,1/2+y,-z
-x,-y,-z
x,y,-z
1/2-x,1/2+y,z
1/2+x,1/2-y,z
loop_
_atom_site_type_symbol
_atom_site_label
_atom_site_fract_x
_atom_site_fract_y
_atom_site_fract_z
Si Si1 0.863174 0.506846 0.661578
Si Si2 0.661451 0.577558 0.331214
Si Si3 0.747264 0.226424 0.669252
Si Si4 0.863615 0.669250 0.834034
Si Si5 0.541708 0.577636 0.168328
Si Si6 0.747580 0.427019 0.330958
Si Si7 0.027242 0.588480 0.339839
Si Si8 0.019465 0.254430 0.163735
O O1 0.856332 0.544648 0.500000
O O2 0.889821 0.580025 0.767103
O O3 0.803044 0.476916 0.727477
O O4 0.904423 0.422372 0.659377
O O5 0.649911 0.576990 0.500000
O O6 0.698076 0.665422 0.290190
O O7 0.601594 0.578056 0.250063
O O8 0.693446 0.486671 0.284118
O O9 0.737795 0.223868 0.500000
O O10 0.692554 0.186605 0.744492
O O11 0.749840 0.326916 0.728301
O O12 0.912025 0.743931 0.811181
O O13 0.848284 0.657615 0.000000
O O14 0.500000 0.500000 0.218175
O O15 0.505382 0.662173 0.213484
O O16 0.554909 0.572602 0.000000
O O17 0.751143 0.421783 0.500000
O O18 0.002886 0.602236 0.500000
O O19 0.000000 0.500000 0.274008
O O20 0.013893 0.672815 0.249579
O O21 0.005662 0.273476 0.000000
#
# Coordination Sequence:
#
# PCOD8225669 Si02
#       8
#     8   8   8   8   8   8   8   8
#     4  10  19  36  58  82 117 154 188 229 285 351
#     4  10  21  39  63  91 119 148 193 248 296 347
#     4  10  21  38  61  86 117 153 185 235 300 350
#     4  11  22  36  57  85 116 150 196 241 285 347
#     4  10  24  45  64  81 114 164 209 249 297 346
#     4   9  19  36  59  85 113 149 188 230 292 356
#     4  10  20  33  56  88 116 149 192 232 281 348
#     4  10  23  40  57  81 116 158 197 240 294 345
#
# _framework density 19.221723000000001
#
# number of rings (size 3 to 8) (size 9 to 14) (size 15 to 20)
#    0.000    2.000    2.500    0.375    3.500    2.500 
#    0.000    0.625    0.000    0.000    0.000    0.000 
#    0.000    0.000    0.000    0.000    0.000    0.000 
#
# Total GULP energy -793306.668675 kJ/mol
# GULP energy per Si atom -12395.416698 kJ/mol
# Density = 1.917797 g / cm^3
# Si number density = 19.221723 Si / 1000 Ang^3
#
#
#
# Elastic Constant Matrix: (Units=GPa)
#
#
# Indices 1 2 3 4 5 6 
#
# 1 143.8969 69.9140 54.4989 0.0000 0.0000 0.0000
# 2 69.9140 155.1621 49.7409 0.0000 0.0000 0.0000
# 3 54.4989 49.7409 51.1011 0.0000 0.0000 0.0000
# 4 0.0000 0.0000 0.0000 21.8843 0.0000 0.0000
# 5 0.0000 0.0000 0.0000 0.0000 37.6598 0.0000
# 6 0.0000 0.0000 0.0000 0.0000 0.0000 29.9334
#
#
#
# Elastic Compliance Matrix: (Units=1/GPa)
#
#
# Indices 1 2 3 4 5 6 
#
# 1 0.012032 -0.001901 -0.010982 0.000000 0.000000 0.000000
# 2 -0.001901 0.009668 -0.007384 0.000000 0.000000 0.000000
# 3 -0.010982 -0.007384 0.038468 0.000000 0.000000 0.000000
# 4 0.000000 0.000000 0.000000 0.045695 0.000000 0.000000
# 5 0.000000 0.000000 0.000000 0.000000 0.026553 0.000000
# 6 0.000000 0.000000 0.000000 0.000000 0.000000 0.033408
#
#
# Mechanical properties :
#
#
# Convention : Reuss Voigt Hill
#
# Bulk Modulus (GPa) = 50.92729 77.60751 64.26740
# Shear Modulus (GPa) = 23.48482 29.62924 26.55703
#
# Velocity S-wave (km/s) = 3.49920 3.93038 3.72104
# Velocity P-wave (km/s) = 6.54813 7.81408 7.20895
#
# Compressibility (1/GPa) = 0.01963584
#
# Stress axis : x y z
#
# Youngs Moduli (GPa) = 83.10945 103.42883 25.99548
#
# Poissons Ratio (x) = 0.19663 0.28548
# Poissons Ratio (y) = 0.15800 0.19194
# Poissons Ratio (z) = 0.91270 0.76368
#
# Static dielectric constant tensor:
#      x y z
#    x 3.600040 0.000000 0.000000 
#    y 0.000000 3.825240 0.000000 
#    z 0.000000 0.000000 3.302120 
# 
# 
# High freq. dielectric constant tensor:
#      x y z
#    x 1.758850 0.000000 0.000000 
#    y 0.000000 1.752450 0.000000 
#    z 0.000000 0.000000 1.723970 
# 
# From -- ./inp_files/9672.got.cif
#   From: 2010.03.12/outbox.cif.g09.slc.cpg/sg55_5_cif.got.tgz:9672.got - 2010.04.16 15:19:21.
