data_PCOD8225103
_publ_section_title
;
Structure prediction by ZEFSAII (Michael W. Deem and Ramdas Pophale) SiO2 
 PCOD8225103
Probable space group: P B A M
;
_chemical_formula_sum "Si O2"
_cell_formula_units_Z 64
_cell_length_a 26.896592
_cell_length_b 13.131904
_cell_length_c 9.626958
_cell_angle_alpha 90.000000
_cell_angle_beta 90.000000
_cell_angle_gamma 90.000000
_cell_volume 3400.274914
_symmetry_space_group_name_H-M "P B A M"
_symmetry_group_IT_number 55
_symmetry_cell_setting 'orthorhombic'
loop_
_space_group_symop_operation_xyz
x,y,z
-x,-y,z
1/2+x,1/2-y,-z
1/2-x,1/2+y,-z
-x,-y,-z
x,y,-z
1/2-x,1/2+y,z
1/2+x,1/2-y,z
loop_
_atom_site_type_symbol
_atom_site_label
_atom_site_fract_x
_atom_site_fract_y
_atom_site_fract_z
Si Si1 0.372529 0.384616 0.662661
Si Si2 0.629676 0.383862 0.662887
Si Si3 0.445927 0.208766 0.335105
Si Si4 0.722457 0.629722 0.844193
Si Si5 0.107217 0.503014 0.664786
Si Si6 0.779903 0.817219 0.843465
Si Si7 0.057198 0.293428 0.335001
Si Si8 0.799395 0.464888 0.154259
O O1 0.363468 0.369503 0.500000
O O2 0.388859 0.501118 0.695931
O O3 0.415061 0.307137 0.716558
O O4 0.321578 0.354490 0.736118
O O5 0.638181 0.368621 0.500000
O O6 0.682100 0.364828 0.735095
O O7 0.589503 0.302255 0.719967
O O8 0.447922 0.206177 0.500000
O O9 0.422074 0.102860 0.281575
O O10 0.501603 0.217570 0.274055
O O11 0.771920 0.697724 0.814654
O O12 0.745533 0.518354 0.828334
O O13 0.701664 0.648171 0.000000
O O14 0.113270 0.503716 0.500000
O O15 0.079418 0.401128 0.716399
O O16 0.161798 0.503557 0.729536
O O17 0.721524 0.851065 0.825449
O O18 0.799505 0.838791 0.000000
O O19 0.055684 0.291803 0.500000
O O20 0.822280 0.483083 0.000000
#
# Coordination Sequence:
#
# PCOD8225103 Si02
#       8
#     8   8   8   8   8   8   8   8
#     4  10  20  33  51  77 106 136 172 213 257 304
#     4  10  20  33  51  77 106 136 172 213 257 304
#     4   9  18  33  53  77 104 134 171 216 264 311
#     4  10  20  34  52  73 100 137 175 209 253 309
#     4  10  19  32  54  80 102 131 173 218 261 305
#     4  10  20  34  52  73 100 137 175 209 253 309
#     4   9  18  33  53  77 104 134 171 216 264 311
#     4  10  20  33  49  73 103 135 166 199 253 312
#
# _framework density 18.822009000000001
#
# number of rings (size 3 to 8) (size 9 to 14) (size 15 to 20)
#    0.000    2.250    1.250    1.875    0.000    3.500 
#    0.000    2.500    0.000    3.750    0.000    1.750 
#    0.000    0.000    0.000    0.000    0.000    0.000 
#
# Total GULP energy -793288.523629 kJ/mol
# GULP energy per Si atom -12395.133182 kJ/mol
# Density = 1.877917 g / cm^3
# Si number density = 18.822009 Si / 1000 Ang^3
#
#
#
# Elastic Constant Matrix: (Units=GPa)
#
#
# Indices 1 2 3 4 5 6 
#
# 1 125.4914 61.2280 39.9918 0.0000 0.0000 0.0000
# 2 61.2280 128.5063 32.8700 0.0000 0.0000 0.0000
# 3 39.9918 32.8700 38.9109 0.0000 0.0000 0.0000
# 4 0.0000 0.0000 0.0000 18.1202 0.0000 0.0000
# 5 0.0000 0.0000 0.0000 0.0000 2.6167 0.0000
# 6 0.0000 0.0000 0.0000 0.0000 0.0000 31.7759
#
#
#
# Elastic Compliance Matrix: (Units=1/GPa)
#
#
# Indices 1 2 3 4 5 6 
#
# 1 0.013002 -0.003542 -0.010371 0.000000 0.000000 0.000000
# 2 -0.003542 0.010892 -0.005560 0.000000 0.000000 0.000000
# 3 -0.010371 -0.005560 0.041056 0.000000 0.000000 0.000000
# 4 0.000000 0.000000 0.000000 0.055187 0.000000 0.000000
# 5 0.000000 0.000000 0.000000 0.000000 0.382162 0.000000
# 6 0.000000 0.000000 0.000000 0.000000 0.000000 0.031470
#
#
# Mechanical properties :
#
#
# Convention : Reuss Voigt Hill
#
# Bulk Modulus (GPa) = 38.45733 62.34314 50.40024
# Shear Modulus (GPa) = 8.60019 21.09049 14.84534
#
# Velocity S-wave (km/s) = 2.13989 3.35105 2.81147
# Velocity P-wave (km/s) = 5.15577 6.94025 6.11347
#
# Compressibility (1/GPa) = 0.02600284
#
# Stress axis : x y z
#
# Youngs Moduli (GPa) = 76.91171 91.81373 24.35721
#
# Poissons Ratio (x) = 0.32522 0.25261
# Poissons Ratio (y) = 0.27243 0.13543
# Poissons Ratio (z) = 0.79764 0.51050
#
# Static dielectric constant tensor:
#      x y z
#    x 3.349050 0.000000 0.000000 
#    y 0.000000 3.861890 0.000000 
#    z 0.000000 0.000000 3.071640 
# 
# 
# High freq. dielectric constant tensor:
#      x y z
#    x 1.720540 0.000000 0.000000 
#    y 0.000000 1.758640 0.000000 
#    z 0.000000 0.000000 1.693510 
# 
# From -- ./inp_files/9652.got.cif
#   From: 2010.03.12/outbox.cif.g09.slc.cpg/sg55_5_cif.got.tgz:9652.got - 2010.04.16 15:19:21.
