data_PCOD8225794
_publ_section_title
;
Structure prediction by ZEFSAII (Michael W. Deem and Ramdas Pophale) SiO2 
 PCOD8225794
Probable space group: P B A M
;
_chemical_formula_sum "Si O2"
_cell_formula_units_Z 48
_cell_length_a 18.817674
_cell_length_b 15.042069
_cell_length_c 8.389929
_cell_angle_alpha 90.000000
_cell_angle_beta 90.000000
_cell_angle_gamma 90.000000
_cell_volume 2374.826042
_symmetry_space_group_name_H-M "P B A M"
_symmetry_group_IT_number 55
_symmetry_cell_setting 'orthorhombic'
loop_
_space_group_symop_operation_xyz
x,y,z
-x,-y,z
1/2+x,1/2-y,-z
1/2-x,1/2+y,-z
-x,-y,-z
x,y,-z
1/2-x,1/2+y,z
1/2+x,1/2-y,z
loop_
_atom_site_type_symbol
_atom_site_label
_atom_site_fract_x
_atom_site_fract_y
_atom_site_fract_z
Si Si1 0.419341 0.273211 0.814182
Si Si2 0.918472 0.523207 0.185324
Si Si3 0.667783 0.383845 0.815129
Si Si4 0.924206 0.036973 0.315080
Si Si5 0.574229 0.221595 0.811293
Si Si6 0.320486 0.126235 0.682453
O O1 0.404112 0.376749 0.786968
O O2 0.496966 0.248869 0.744285
O O3 0.361337 0.216859 0.720088
O O4 0.413255 0.249572 0.000000
O O5 0.903978 0.623347 0.247469
O O6 0.869897 0.458526 0.287635
O O7 0.000000 0.500000 0.216089
O O8 0.899095 0.511435 0.000000
O O9 0.636540 0.464638 0.713651
O O10 0.632573 0.292196 0.751772
O O11 0.751707 0.379088 0.793457
O O12 0.649215 0.398802 0.000000
O O13 0.927394 0.062840 0.500000
O O14 0.000000 0.000000 0.255198
O O15 0.569111 0.220480 0.000000
O O16 0.296028 0.126867 0.500000
#
# Coordination Sequence:
#
# PCOD8225794 Si02
#       6
#     8   8   8   8   8   8
#     4  11  21  40  67  94 121 163 215 258 302 370
#     4  10  19  38  66  93 121 159 208 260 308 370
#     4  11  23  42  65  91 124 168 216 262 309 367
#     4  11  23  39  62  96 132 165 202 255 320 378
#     4   9  19  36  64  95 119 151 209 264 302 355
#     4  12  26  42  59  91 133 168 204 259 325 378
#
# _framework density 20.212005000000001
#
# number of rings (size 3 to 8) (size 9 to 14) (size 15 to 20)
#    0.000    1.333    3.333    3.000    0.000    2.333 
#    0.000    6.667    0.000    0.000    0.000    0.000 
#    0.000    0.000    0.000    0.000    0.000    0.000 
#
# Total GULP energy -595487.998215 kJ/mol
# GULP energy per Si atom -12405.999963 kJ/mol
# Density = 2.016600 g / cm^3
# Si number density = 20.212005 Si / 1000 Ang^3
#
#
#
# Elastic Constant Matrix: (Units=GPa)
#
#
# Indices 1 2 3 4 5 6 
#
# 1 103.6168 45.4578 10.1954 0.0000 0.0000 0.0000
# 2 45.4578 152.7611 12.7788 0.0000 0.0000 0.0000
# 3 10.1954 12.7788 49.6060 0.0000 0.0000 0.0000
# 4 0.0000 0.0000 0.0000 26.1162 0.0000 0.0000
# 5 0.0000 0.0000 0.0000 0.0000 23.2112 0.0000
# 6 0.0000 0.0000 0.0000 0.0000 0.0000 30.7382
#
#
#
# Elastic Compliance Matrix: (Units=1/GPa)
#
#
# Indices 1 2 3 4 5 6 
#
# 1 0.011205 -0.003211 -0.001476 0.000000 0.000000 0.000000
# 2 -0.003211 0.007610 -0.001301 0.000000 0.000000 0.000000
# 3 -0.001476 -0.001301 0.020797 0.000000 0.000000 0.000000
# 4 0.000000 0.000000 0.000000 0.038290 0.000000 0.000000
# 5 0.000000 0.000000 0.000000 0.000000 0.043083 0.000000
# 6 0.000000 0.000000 0.000000 0.000000 0.000000 0.032533
#
#
# Mechanical properties :
#
#
# Convention : Reuss Voigt Hill
#
# Bulk Modulus (GPa) = 36.18194 49.20531 42.69363
# Shear Modulus (GPa) = 28.61963 31.84992 30.23477
#
# Velocity S-wave (km/s) = 3.76702 3.97393 3.87186
# Velocity P-wave (km/s) = 6.07130 6.74193 6.41538
#
# Compressibility (1/GPa) = 0.02763810
#
# Stress axis : x y z
#
# Youngs Moduli (GPa) = 89.24774 131.39888 48.08339
#
# Poissons Ratio (x) = 0.42190 0.07096
# Poissons Ratio (y) = 0.28656 0.06254
# Poissons Ratio (z) = 0.13171 0.17089
#
# Static dielectric constant tensor:
#      x y z
#    x 3.618100 0.000000 0.000000 
#    y 0.000000 3.874540 0.000000 
#    z 0.000000 0.000000 3.417530 
# 
# 
# High freq. dielectric constant tensor:
#      x y z
#    x 1.785210 0.000000 0.000000 
#    y 0.000000 1.805840 0.000000 
#    z 0.000000 0.000000 1.773750 
# 
# From -- ./inp_files/5621.got.cif
#   From: 2010.03.12/outbox.cif.g09.slc.cpg/sg55_3_cif.got.tgz:5621.got - 2010.04.16 15:19:21.
