data_PCOD8225511
_publ_section_title
;
Structure prediction by ZEFSAII (Michael W. Deem and Ramdas Pophale) SiO2 
 PCOD8225511
Probable space group: P B A M
;
_chemical_formula_sum "Si O2"
_cell_formula_units_Z 64
_cell_length_a 12.743186
_cell_length_b 28.805393
_cell_length_c 8.574376
_cell_angle_alpha 90.000000
_cell_angle_beta 90.000000
_cell_angle_gamma 90.000000
_cell_volume 3147.417470
_symmetry_space_group_name_H-M "P B A M"
_symmetry_group_IT_number 55
_symmetry_cell_setting 'orthorhombic'
loop_
_space_group_symop_operation_xyz
x,y,z
-x,-y,z
1/2+x,1/2-y,-z
1/2-x,1/2+y,-z
-x,-y,-z
x,y,-z
1/2-x,1/2+y,z
1/2+x,1/2-y,z
loop_
_atom_site_type_symbol
_atom_site_label
_atom_site_fract_x
_atom_site_fract_y
_atom_site_fract_z
Si Si1 0.439413 0.800573 0.814310
Si Si2 0.880404 0.802118 0.186008
Si Si3 0.879080 0.604480 0.682408
Si Si4 0.672550 0.560998 0.181297
Si Si5 0.841180 0.325914 0.172891
Si Si6 0.908822 0.429542 0.174015
Si Si7 0.205905 0.034971 0.681357
Si Si8 0.029700 0.108413 0.682000
O O1 0.399351 0.750600 0.761938
O O2 0.371407 0.842647 0.745016
O O3 0.557253 0.803985 0.743959
O O4 0.440065 0.807309 0.000000
O O5 0.766054 0.812978 0.259190
O O6 0.960173 0.837899 0.266164
O O7 0.888214 0.808642 0.000000
O O8 0.897987 0.605816 0.500000
O O9 0.770102 0.580092 0.720449
O O10 0.974998 0.574711 0.754668
O O11 0.655773 0.507057 0.221516
O O12 0.566822 0.587763 0.223051
O O13 0.697030 0.567639 0.000000
O O14 0.852522 0.380541 0.165977
O O15 0.833111 0.304366 0.000000
O O16 0.829428 0.460647 0.275732
O O17 0.919346 0.450702 0.000000
O O18 0.197825 0.023025 0.500000
O O19 0.136987 0.080579 0.722339
O O20 0.003580 0.105586 0.500000
#
# Coordination Sequence:
#
# PCOD8225511 Si02
#       8
#     8   8   8   8   8   8   8   8
#     4   9  19  35  57  87 121 160 206 252 300 361
#     4  10  19  34  59  88 119 160 209 252 298 357
#     4  11  23  41  62  87 124 163 201 253 318 372
#     4  12  26  43  64  88 120 164 210 253 305 370
#     4   8  15  30  52  80 114 151 193 246 294 339
#     4  10  19  36  63  90 120 156 204 253 296 356
#     4  11  23  40  63  93 126 161 201 251 311 367
#     4  11  24  41  61  89 127 161 199 253 312 368
#
# _framework density 20.334129999999998
#
# number of rings (size 3 to 8) (size 9 to 14) (size 15 to 20)
#    0.000    1.750    1.250    4.500    0.000    5.000 
#    0.000    5.000    0.000    0.000    0.000    0.000 
#    0.000    0.000    0.000    0.000    0.000    0.000 
#
# Total GULP energy -793503.147064 kJ/mol
# GULP energy per Si atom -12398.486673 kJ/mol
# Density = 2.028785 g / cm^3
# Si number density = 20.334130 Si / 1000 Ang^3
#
#
#
# Elastic Constant Matrix: (Units=GPa)
#
#
# Indices 1 2 3 4 5 6 
#
# 1 88.0821 24.5151 22.6299 0.0000 0.0000 0.0000
# 2 24.5151 46.9745 16.0798 0.0000 0.0000 0.0000
# 3 22.6299 16.0798 74.8971 0.0000 0.0000 0.0000
# 4 0.0000 0.0000 0.0000 25.7385 0.0000 0.0000
# 5 0.0000 0.0000 0.0000 0.0000 28.8845 0.0000
# 6 0.0000 0.0000 0.0000 0.0000 0.0000 28.7318
#
#
#
# Elastic Compliance Matrix: (Units=1/GPa)
#
#
# Indices 1 2 3 4 5 6 
#
# 1 0.013819 -0.006241 -0.002835 0.000000 0.000000 0.000000
# 2 -0.006241 0.025796 -0.003652 0.000000 0.000000 0.000000
# 3 -0.002835 -0.003652 0.014992 0.000000 0.000000 0.000000
# 4 0.000000 0.000000 0.000000 0.038852 0.000000 0.000000
# 5 0.000000 0.000000 0.000000 0.000000 0.034621 0.000000
# 6 0.000000 0.000000 0.000000 0.000000 0.000000 0.034805
#
#
# Mechanical properties :
#
#
# Convention : Reuss Voigt Hill
#
# Bulk Modulus (GPa) = 34.30653 37.37814 35.84234
# Shear Modulus (GPa) = 25.24515 26.45289 25.84902
#
# Velocity S-wave (km/s) = 3.52734 3.61073 3.56928
# Velocity P-wave (km/s) = 5.78770 5.98373 5.88653
#
# Compressibility (1/GPa) = 0.02914897
#
# Stress axis : x y z
#
# Youngs Moduli (GPa) = 72.36667 38.76645 66.70014
#
# Poissons Ratio (x) = 0.24194 0.18912
# Poissons Ratio (y) = 0.45165 0.24361
# Poissons Ratio (z) = 0.20518 0.14159
#
# Static dielectric constant tensor:
#      x y z
#    x 3.793220 0.000000 0.000000 
#    y 0.000000 3.662190 0.000000 
#    z 0.000000 0.000000 3.581820 
# 
# 
# High freq. dielectric constant tensor:
#      x y z
#    x 1.802520 0.000000 0.000000 
#    y 0.000000 1.792530 0.000000 
#    z 0.000000 0.000000 1.782210 
# 
# From -- ./inp_files/4512.got.cif
#   From: 2010.03.12/outbox.cif.g09.slc.cpg/sg55_3_cif.got.tgz:4512.got - 2010.04.16 15:19:21.
