data_PCOD8225647
_publ_section_title
;
Structure prediction by ZEFSAII (Michael W. Deem and Ramdas Pophale) SiO2 
 PCOD8225647
Probable space group: P B A M
;
_chemical_formula_sum "Si O2"
_cell_formula_units_Z 64
_cell_length_a 11.604097
_cell_length_b 22.859911
_cell_length_c 13.353373
_cell_angle_alpha 90.000000
_cell_angle_beta 90.000000
_cell_angle_gamma 90.000000
_cell_volume 3542.230890
_symmetry_space_group_name_H-M "P B A M"
_symmetry_group_IT_number 55
_symmetry_cell_setting 'orthorhombic'
loop_
_space_group_symop_operation_xyz
x,y,z
-x,-y,z
1/2+x,1/2-y,-z
1/2-x,1/2+y,-z
-x,-y,-z
x,y,-z
1/2-x,1/2+y,z
1/2+x,1/2-y,z
loop_
_atom_site_type_symbol
_atom_site_label
_atom_site_fract_x
_atom_site_fract_y
_atom_site_fract_z
Si Si1 0.787554 0.176206 0.114531
Si Si2 0.324565 0.539655 0.239850
Si Si3 0.477441 0.325930 0.610992
Si Si4 0.904765 0.456764 0.114104
Si Si5 0.377731 0.228737 0.739634
Si Si6 0.232159 0.138775 0.614801
Si Si7 0.527723 0.164908 0.888597
Si Si8 0.929769 0.084298 0.226278
O O1 0.796709 0.231851 0.188739
O O2 0.660761 0.149492 0.129664
O O3 0.875190 0.123224 0.137963
O O4 0.808351 0.196624 0.000000
O O5 0.219368 0.540956 0.164052
O O6 0.289110 0.572990 0.342728
O O7 0.438709 0.570360 0.193005
O O8 0.356011 0.472228 0.257149
O O9 0.431272 0.335674 0.500000
O O10 0.428735 0.264495 0.647712
O O11 0.615366 0.324069 0.615119
O O12 0.425587 0.378981 0.672738
O O13 0.950959 0.391941 0.123929
O O14 0.000000 0.500000 0.164055
O O15 0.885666 0.476504 0.000000
O O16 0.316209 0.172374 0.691480
O O17 0.486093 0.211397 0.807728
O O18 0.279576 0.133871 0.500000
O O19 0.511524 0.191468 0.000000
#
# Coordination Sequence:
#
# PCOD8225647 Si02
#       8
#     8   8   8   8   8   8   8   8
#     4  10  21  36  54  79 112 146 181 219 265 321
#     4  10  19  36  54  82 108 141 178 226 269 321
#     4   9  19  34  52  77 105 136 179 222 263 320
#     4  10  20  34  54  78 105 142 181 216 260 320
#     4  11  19  34  54  79 107 142 176 223 270 312
#     4  10  20  34  54  79 107 139 178 224 272 319
#     4  10  20  34  52  77 106 141 180 214 260 320
#     4   9  20  34  56  78 108 141 181 219 273 314
#
# _framework density 18.067709000000001
#
# number of rings (size 3 to 8) (size 9 to 14) (size 15 to 20)
#    0.000    2.125    1.250    2.250    0.000    2.500 
#    0.000    3.750    0.000    1.125    0.000    0.000 
#    0.000    0.000    0.000    0.000    0.000    0.000 
#
# Total GULP energy -793387.061433 kJ/mol
# GULP energy per Si atom -12396.672835 kJ/mol
# Density = 1.802659 g / cm^3
# Si number density = 18.067709 Si / 1000 Ang^3
#
#
#
# Elastic Constant Matrix: (Units=GPa)
#
#
# Indices 1 2 3 4 5 6 
#
# 1 106.0400 39.1954 55.7030 0.0000 0.0000 0.0000
# 2 39.1954 71.6505 36.6521 0.0000 0.0000 0.0000
# 3 55.7030 36.6521 103.3784 0.0000 0.0000 0.0000
# 4 0.0000 0.0000 0.0000 18.3375 0.0000 0.0000
# 5 0.0000 0.0000 0.0000 0.0000 25.1461 0.0000
# 6 0.0000 0.0000 0.0000 0.0000 0.0000 30.2000
#
#
#
# Elastic Compliance Matrix: (Units=1/GPa)
#
#
# Indices 1 2 3 4 5 6 
#
# 1 0.014372 -0.004765 -0.006055 0.000000 0.000000 0.000000
# 2 -0.004765 0.018628 -0.004037 0.000000 0.000000 0.000000
# 3 -0.006055 -0.004037 0.014367 0.000000 0.000000 0.000000
# 4 0.000000 0.000000 0.000000 0.054533 0.000000 0.000000
# 5 0.000000 0.000000 0.000000 0.000000 0.039768 0.000000
# 6 0.000000 0.000000 0.000000 0.000000 0.000000 0.033113
#
#
# Mechanical properties :
#
#
# Convention : Reuss Voigt Hill
#
# Bulk Modulus (GPa) = 56.64424 60.46332 58.55378
# Shear Modulus (GPa) = 23.76665 24.70463 24.23564
#
# Velocity S-wave (km/s) = 3.63081 3.70176 3.66646
# Velocity P-wave (km/s) = 6.99973 7.19779 7.09945
#
# Compressibility (1/GPa) = 0.01765405
#
# Stress axis : x y z
#
# Youngs Moduli (GPa) = 69.57866 53.68168 69.60389
#
# Poissons Ratio (x) = 0.25579 0.42144
# Poissons Ratio (y) = 0.33153 0.28100
# Poissons Ratio (z) = 0.42128 0.21672
#
# Static dielectric constant tensor:
#      x y z
#    x 3.400750 0.000000 0.000000 
#    y 0.000000 3.391200 0.000000 
#    z 0.000000 0.000000 3.361760 
# 
# 
# High freq. dielectric constant tensor:
#      x y z
#    x 1.702710 0.000000 0.000000 
#    y 0.000000 1.702920 0.000000 
#    z 0.000000 0.000000 1.694130 
# 
# From -- ./inp_files/13571.got.cif
#   From: 2010.03.12/outbox.cif.g09.slc.cpg/sg55_7_cif.got.tgz:13571.got - 2010.04.16 15:19:21.
