data_PCOD8225030
_publ_section_title
;
Structure prediction by ZEFSAII (Michael W. Deem and Ramdas Pophale) SiO2 
 PCOD8225030
Probable space group: P B A M
;
_chemical_formula_sum "Si O2"
_cell_formula_units_Z 48
_cell_length_a 5.045458
_cell_length_b 16.561575
_cell_length_c 29.173525
_cell_angle_alpha 90.000000
_cell_angle_beta 90.000000
_cell_angle_gamma 90.000000
_cell_volume 2437.761077
_symmetry_space_group_name_H-M "P B A M"
_symmetry_group_IT_number 55
_symmetry_cell_setting 'orthorhombic'
loop_
_space_group_symop_operation_xyz
x,y,z
-x,-y,z
1/2+x,1/2-y,-z
1/2-x,1/2+y,-z
-x,-y,-z
x,y,-z
1/2-x,1/2+y,z
1/2+x,1/2-y,z
loop_
_atom_site_type_symbol
_atom_site_label
_atom_site_fract_x
_atom_site_fract_y
_atom_site_fract_z
Si Si1 0.827644 0.803141 0.071327
Si Si2 0.989605 0.695881 0.402506
Si Si3 0.325946 0.699864 0.822987
Si Si4 0.880687 0.698495 0.500000
Si Si5 0.753465 0.941879 0.000000
Si Si6 0.506895 0.404854 0.741512
Si Si7 0.504908 0.095538 0.313774
O O1 0.609706 0.735634 0.058352
O O2 0.836965 0.828062 0.124466
O O3 0.765178 0.885210 0.044627
O O4 0.286123 0.729687 0.398031
O O5 0.947901 0.651894 0.452352
O O6 0.935577 0.630522 0.363608
O O7 0.525247 0.774062 0.812501
O O8 0.419791 0.625998 0.791862
O O9 0.571042 0.721984 0.500000
O O10 0.500000 0.000000 0.000000
O O11 0.000000 0.000000 0.000000
O O12 0.500000 0.500000 0.745590
O O13 0.226471 0.373682 0.722310
O O14 0.725442 0.373346 0.705441
O O15 0.500000 0.000000 0.318666
#
# Coordination Sequence:
#
# PCOD8225030 Si02
#       7
#     8   8   8   4   4   8   8
#     4  10  21  40  61  82 114 154 184 221 282 335
#     4  10  19  32  52  75  97 129 169 211 256 306
#     4  10  21  36  57  82 106 137 182 223 257 309
#     4   8  16  30  47  70  99 124 158 208 260 306
#     4  12  24  38  60  92 118 144 190 238 270 318
#     4  10  21  36  52  73 106 142 170 210 267 313
#     4  10  21  35  50  73 105 137 170 209 259 314
#
# _framework density 19.690200000000001
#
# number of rings (size 3 to 8) (size 9 to 14) (size 15 to 20)
#    0.000    2.000    0.000    3.500    0.000    4.667 
#    0.000    2.917    0.000    0.000    0.000   10.500 
#    0.000    0.000    0.000    0.000    0.000    0.000 
#
# Total GULP energy -595057.122692 kJ/mol
# GULP energy per Si atom -12397.023389 kJ/mol
# Density = 1.964538 g / cm^3
# Si number density = 19.690200 Si / 1000 Ang^3
#
#
#
# Elastic Constant Matrix: (Units=GPa)
#
#
# Indices 1 2 3 4 5 6 
#
# 1 110.3231 32.0853 39.0015 0.0000 0.0000 0.0000
# 2 32.0853 53.9975 57.7903 0.0000 0.0000 0.0000
# 3 39.0015 57.7903 147.2885 0.0000 0.0000 0.0000
# 4 0.0000 0.0000 0.0000 16.4569 0.0000 0.0000
# 5 0.0000 0.0000 0.0000 0.0000 29.0572 0.0000
# 6 0.0000 0.0000 0.0000 0.0000 0.0000 26.3776
#
#
#
# Elastic Compliance Matrix: (Units=1/GPa)
#
#
# Indices 1 2 3 4 5 6 
#
# 1 0.010989 -0.005888 -0.000600 0.000000 0.000000 0.000000
# 2 -0.005888 0.035080 -0.012205 0.000000 0.000000 0.000000
# 3 -0.000600 -0.012205 0.011737 0.000000 0.000000 0.000000
# 4 0.000000 0.000000 0.000000 0.060765 0.000000 0.000000
# 5 0.000000 0.000000 0.000000 0.000000 0.034415 0.000000
# 6 0.000000 0.000000 0.000000 0.000000 0.000000 0.037911
#
#
# Mechanical properties :
#
#
# Convention : Reuss Voigt Hill
#
# Bulk Modulus (GPa) = 48.96920 63.26258 56.11589
# Shear Modulus (GPa) = 21.26860 26.56045 23.91453
#
# Velocity S-wave (km/s) = 3.29015 3.67675 3.48881
# Velocity P-wave (km/s) = 6.27354 7.08684 6.69255
#
# Compressibility (1/GPa) = 0.02042100
#
# Stress axis : x y z
#
# Youngs Moduli (GPa) = 91.00360 28.50613 85.20072
#
# Poissons Ratio (x) = 0.16783 0.05109
# Poissons Ratio (y) = 0.53580 1.03988
# Poissons Ratio (z) = 0.05457 0.34792
#
# Static dielectric constant tensor:
#      x y z
#    x 3.958770 0.000000 0.000000 
#    y 0.000000 3.148180 0.000000 
#    z 0.000000 0.000000 3.830390 
# 
# 
# High freq. dielectric constant tensor:
#      x y z
#    x 1.792710 0.000000 0.000000 
#    y 0.000000 1.725310 0.000000 
#    z 0.000000 0.000000 1.785520 
# 
# From -- ./inp_files/23819.got.cif
#   From: 2010.03.12/outbox.cif.g09.slc.cpg/sg55_12_cif.got.tgz:23819.got - 2010.04.16 15:19:21.
