data_PCOD8225612
_publ_section_title
;
Structure prediction by ZEFSAII (Michael W. Deem and Ramdas Pophale) SiO2 
 PCOD8225612
Probable space group: P B A M
;
_chemical_formula_sum "Si O2"
_cell_formula_units_Z 64
_cell_length_a 25.003223
_cell_length_b 15.325808
_cell_length_c 8.665819
_cell_angle_alpha 90.000000
_cell_angle_beta 90.000000
_cell_angle_gamma 90.000000
_cell_volume 3320.695003
_symmetry_space_group_name_H-M "P B A M"
_symmetry_group_IT_number 55
_symmetry_cell_setting 'orthorhombic'
loop_
_space_group_symop_operation_xyz
x,y,z
-x,-y,z
1/2+x,1/2-y,-z
1/2-x,1/2+y,-z
-x,-y,-z
x,y,-z
1/2-x,1/2+y,z
1/2+x,1/2-y,z
loop_
_atom_site_type_symbol
_atom_site_label
_atom_site_fract_x
_atom_site_fract_y
_atom_site_fract_z
Si Si1 0.043480 0.689319 0.822695
Si Si2 0.185398 0.115916 0.816008
Si Si3 0.221281 0.491644 0.182626
Si Si4 0.423210 0.548510 0.681590
Si Si5 0.970958 0.114509 0.178385
Si Si6 0.929281 0.619056 0.181159
Si Si7 0.183146 0.309534 0.817944
Si Si8 0.887423 0.451920 0.321089
O O1 0.054661 0.791059 0.797395
O O2 0.085493 0.640378 0.715043
O O3 0.982729 0.669631 0.771460
O O4 0.052323 0.661323 0.000000
O O5 0.128806 0.097525 0.740418
O O6 0.203070 0.214101 0.762125
O O7 0.227961 0.045182 0.751841
O O8 0.179758 0.111827 0.000000
O O9 0.219258 0.390908 0.246007
O O10 0.167903 0.542098 0.229617
O O11 0.224558 0.491817 0.000000
O O12 0.420468 0.534434 0.500000
O O13 0.426986 0.454536 0.764322
O O14 0.474816 0.606018 0.723828
O O15 0.985388 0.098014 0.000000
O O16 0.878390 0.676589 0.234615
O O17 0.928643 0.526777 0.268467
O O18 0.926783 0.599587 0.000000
O O19 0.186214 0.313355 0.000000
O O20 0.874717 0.460011 0.500000
#
# Coordination Sequence:
#
# PCOD8225612 Si02
#       8
#     8   8   8   8   8   8   8   8
#     4  10  20  34  55  81 106 141 185 227 268 318
#     4  10  19  35  60  83 104 139 189 235 272 320
#     4   9  19  37  57  77 105 141 185 236 278 315
#     4  11  22  36  55  81 116 146 172 217 279 333
#     4  10  20  37  59  81 108 143 187 226 262 317
#     4   9  17  32  54  77 105 138 179 226 270 317
#     4   8  15  31  55  81 104 131 175 231 280 316
#     4  11  22  34  50  74 111 148 179 220 275 336
#
# _framework density 19.273074000000001
#
# number of rings (size 3 to 8) (size 9 to 14) (size 15 to 20)
#    0.000    2.250    0.000    5.250    0.000    5.500 
#    2.250    5.000    0.000    0.000    0.000    0.000 
#    0.000    0.000    0.000    0.000    0.000    0.000 
#
# Total GULP energy -793487.320700 kJ/mol
# GULP energy per Si atom -12398.239386 kJ/mol
# Density = 1.922921 g / cm^3
# Si number density = 19.273074 Si / 1000 Ang^3
#
#
#
# Elastic Constant Matrix: (Units=GPa)
#
#
# Indices 1 2 3 4 5 6 
#
# 1 62.3166 53.4165 7.1928 0.0000 0.0000 0.0000
# 2 53.4165 141.7520 26.0687 0.0000 0.0000 0.0000
# 3 7.1928 26.0687 28.0748 0.0000 0.0000 0.0000
# 4 0.0000 0.0000 0.0000 8.6134 0.0000 0.0000
# 5 0.0000 0.0000 0.0000 0.0000 9.9024 0.0000
# 6 0.0000 0.0000 0.0000 0.0000 0.0000 27.9924
#
#
#
# Elastic Compliance Matrix: (Units=1/GPa)
#
#
# Indices 1 2 3 4 5 6 
#
# 1 0.023872 -0.009492 0.002698 0.000000 0.000000 0.000000
# 2 -0.009492 0.012281 -0.008972 0.000000 0.000000 0.000000
# 3 0.002698 -0.008972 0.043259 0.000000 0.000000 0.000000
# 4 0.000000 0.000000 0.000000 0.116098 0.000000 0.000000
# 5 0.000000 0.000000 0.000000 0.000000 0.100986 0.000000
# 6 0.000000 0.000000 0.000000 0.000000 0.000000 0.035724
#
#
# Mechanical properties :
#
#
# Convention : Reuss Voigt Hill
#
# Bulk Modulus (GPa) = 20.88568 45.05551 32.97059
# Shear Modulus (GPa) = 13.16786 18.99933 16.08360
#
# Velocity S-wave (km/s) = 2.61669 3.14315 2.89192
# Velocity P-wave (km/s) = 4.47098 6.04985 5.31932
#
# Compressibility (1/GPa) = 0.04787970
#
# Stress axis : x y z
#
# Youngs Moduli (GPa) = 41.89034 81.42432 23.11660
#
# Poissons Ratio (x) = 0.77286 -0.06236
# Poissons Ratio (y) = 0.39761 0.20740
# Poissons Ratio (z) = -0.11300 0.73054
#
# Static dielectric constant tensor:
#      x y z
#    x 3.426020 0.000000 0.000000 
#    y 0.000000 3.891140 0.000000 
#    z 0.000000 0.000000 3.286570 
# 
# 
# High freq. dielectric constant tensor:
#      x y z
#    x 1.733030 0.000000 0.000000 
#    y 0.000000 1.762260 0.000000 
#    z 0.000000 0.000000 1.726900 
# 
# From -- ./inp_files/9694.got.cif
#   From: 2010.03.12/outbox.cif.g09.slc.cpg/sg55_5_cif.got.tgz:9694.got - 2010.04.16 15:19:21.
