data_PCOD8225787
_publ_section_title
;
Structure prediction by ZEFSAII (Michael W. Deem and Ramdas Pophale) SiO2 
 PCOD8225787
Probable space group: P B A M
;
_chemical_formula_sum "Si O2"
_cell_formula_units_Z 64
_cell_length_a 8.426403
_cell_length_b 19.017308
_cell_length_c 18.948597
_cell_angle_alpha 90.000000
_cell_angle_beta 90.000000
_cell_angle_gamma 90.000000
_cell_volume 3036.465320
_symmetry_space_group_name_H-M "P B A M"
_symmetry_group_IT_number 55
_symmetry_cell_setting 'orthorhombic'
loop_
_space_group_symop_operation_xyz
x,y,z
-x,-y,z
1/2+x,1/2-y,-z
1/2-x,1/2+y,-z
-x,-y,-z
x,y,-z
1/2-x,1/2+y,z
1/2+x,1/2-y,z
loop_
_atom_site_type_symbol
_atom_site_label
_atom_site_fract_x
_atom_site_fract_y
_atom_site_fract_z
Si Si1 0.124271 0.316674 0.270917
Si Si2 0.891788 0.436773 0.690896
Si Si3 0.352866 0.951054 0.922909
Si Si4 0.791928 0.837763 0.918887
Si Si5 0.584385 0.715014 0.642331
Si Si6 0.780257 0.841620 0.580746
Si Si7 0.447455 0.800788 0.115225
Si Si8 0.161454 0.031147 0.819360
O O1 0.292114 0.330113 0.310574
O O2 0.145773 0.298761 0.189289
O O3 0.017029 0.384351 0.275770
O O4 0.037530 0.250322 0.304310
O O5 0.790868 0.404541 0.627131
O O6 0.774466 0.456479 0.753476
O O7 0.000000 0.500000 0.661545
O O8 0.389144 0.868582 0.927694
O O9 0.500000 0.000000 0.899388
O O10 0.219591 0.965434 0.865700
O O11 0.294520 0.975175 0.000000
O O12 0.914508 0.772883 0.923701
O O13 0.636341 0.808519 0.879484
O O14 0.858518 0.900997 0.870372
O O15 0.759618 0.863238 0.000000
O O16 0.682317 0.769964 0.594717
O O17 0.470251 0.666378 0.594181
O O18 0.755721 0.863033 0.500000
O O19 0.000000 0.000000 0.787582
#
# Coordination Sequence:
#
# PCOD8225787 Si02
#       8
#     8   8   8   8   8   8   8   8
#     4  10  19  38  63  93 128 171 220 271 322 380
#     4  11  24  44  65  94 127 168 225 277 332 396
#     4  11  22  42  66  86 120 177 227 270 336 411
#     4  12  26  43  62  96 135 172 221 281 350 410
#     4   9  20  35  65 100 134 171 218 265 312 385
#     4  10  21  39  67 101 141 176 210 260 326 398
#     4  12  24  40  65  92 134 170 218 281 345 399
#     4  12  27  45  68  93 126 174 231 293 338 408
#
# _framework density 21.077138000000001
#
# number of rings (size 3 to 8) (size 9 to 14) (size 15 to 20)
#    0.000    1.125    2.500    3.750    5.250    3.250 
#    0.000    0.625    0.000    2.625    0.000    0.000 
#    0.000    0.000    0.000    0.000    0.000    0.000 
#
# Total GULP energy -793449.377156 kJ/mol
# GULP energy per Si atom -12397.646518 kJ/mol
# Density = 2.102917 g / cm^3
# Si number density = 21.077138 Si / 1000 Ang^3
#
#
#
# Elastic Constant Matrix: (Units=GPa)
#
#
# Indices 1 2 3 4 5 6 
#
# 1 127.3275 51.2420 55.2181 0.0000 0.0000 0.0000
# 2 51.2420 96.4946 33.4839 0.0000 0.0000 0.0000
# 3 55.2181 33.4839 133.7963 0.0000 0.0000 0.0000
# 4 0.0000 0.0000 0.0000 11.0028 0.0000 0.0000
# 5 0.0000 0.0000 0.0000 0.0000 45.3817 0.0000
# 6 0.0000 0.0000 0.0000 0.0000 0.0000 36.2558
#
#
#
# Elastic Compliance Matrix: (Units=1/GPa)
#
#
# Indices 1 2 3 4 5 6 
#
# 1 0.011281 -0.004791 -0.003457 0.000000 0.000000 0.000000
# 2 -0.004791 0.013384 -0.001372 0.000000 0.000000 0.000000
# 3 -0.003457 -0.001372 0.009244 0.000000 0.000000 0.000000
# 4 0.000000 0.000000 0.000000 0.090886 0.000000 0.000000
# 5 0.000000 0.000000 0.000000 0.000000 0.022035 0.000000
# 6 0.000000 0.000000 0.000000 0.000000 0.000000 0.027582
#
#
# Mechanical properties :
#
#
# Convention : Reuss Voigt Hill
#
# Bulk Modulus (GPa) = 68.17153 70.83405 69.50279
# Shear Modulus (GPa) = 25.18377 33.03970 29.11173
#
# Velocity S-wave (km/s) = 3.46039 3.96354 3.72048
# Velocity P-wave (km/s) = 6.95556 7.39095 7.17656
#
# Compressibility (1/GPa) = 0.01466888
#
# Stress axis : x y z
#
# Youngs Moduli (GPa) = 88.64500 74.71810 108.17832
#
# Poissons Ratio (x) = 0.35798 0.37393
# Poissons Ratio (y) = 0.42471 0.14843
# Poissons Ratio (z) = 0.30641 0.10252
#
# Static dielectric constant tensor:
#      x y z
#    x 4.084300 0.000000 0.000000 
#    y 0.000000 4.135430 0.000000 
#    z 0.000000 0.000000 3.705080 
# 
# 
# High freq. dielectric constant tensor:
#      x y z
#    x 1.830010 0.000000 0.000000 
#    y 0.000000 1.820240 0.000000 
#    z 0.000000 0.000000 1.821860 
# 
# From -- ./inp_files/21085.got.cif
#   From: 2010.03.12/outbox.cif.g09.slc.cpg/sg55_11_cif.got.tgz:21085.got - 2010.04.16 15:19:21.
