data_PCOD8225654
_publ_section_title
;
Structure prediction by ZEFSAII (Michael W. Deem and Ramdas Pophale) SiO2 
 PCOD8225654
Probable space group: P B A M
;
_chemical_formula_sum "Si O2"
_cell_formula_units_Z 64
_cell_length_a 21.190441
_cell_length_b 16.581915
_cell_length_c 9.068552
_cell_angle_alpha 90.000000
_cell_angle_beta 90.000000
_cell_angle_gamma 90.000000
_cell_volume 3186.490494
_symmetry_space_group_name_H-M "P B A M"
_symmetry_group_IT_number 55
_symmetry_cell_setting 'orthorhombic'
loop_
_space_group_symop_operation_xyz
x,y,z
-x,-y,z
1/2+x,1/2-y,-z
1/2-x,1/2+y,-z
-x,-y,-z
x,y,-z
1/2-x,1/2+y,z
1/2+x,1/2-y,z
loop_
_atom_site_type_symbol
_atom_site_label
_atom_site_fract_x
_atom_site_fract_y
_atom_site_fract_z
Si Si1 0.516188 0.406844 0.332279
Si Si2 0.572610 0.000635 0.173629
Si Si3 0.644496 0.855475 0.329339
Si Si4 0.679808 0.117914 0.172746
Si Si5 0.764359 0.786586 0.163843
Si Si6 0.101796 0.814824 0.669475
Si Si7 0.203212 0.934363 0.673206
Si Si8 0.136717 0.073627 0.836762
O O1 0.500000 0.500000 0.326736
O O2 0.531013 0.379267 0.500000
O O3 0.458827 0.356686 0.258094
O O4 0.573871 0.386390 0.226761
O O5 0.608645 0.085647 0.211578
O O6 0.500000 0.000000 0.234232
O O7 0.614285 0.929794 0.243842
O O8 0.571455 0.984778 0.000000
O O9 0.653602 0.879248 0.500000
O O10 0.710779 0.822171 0.269611
O O11 0.596434 0.780792 0.309748
O O12 0.697506 0.208217 0.228268
O O13 0.729232 0.056974 0.248621
O O14 0.689715 0.111074 0.000000
O O15 0.814535 0.855645 0.148878
O O16 0.736592 0.767314 0.000000
O O17 0.100443 0.841829 0.500000
O O18 0.168412 0.851612 0.728636
O O19 0.214970 0.937676 0.500000
O O20 0.158872 0.007366 0.720272
O O21 0.125389 0.035888 0.000000
#
# Coordination Sequence:
#
# PCOD8225654 Si02
#       8
#     8   8   8   8   8   8   8   8
#     4  10  19  36  57  77 109 155 194 228 279 342
#     4  10  23  43  65  88 120 164 209 252 307 372
#     4  11  22  39  63  91 120 151 198 255 303 355
#     4  10  21  39  62  87 115 151 199 250 300 355
#     4  10  22  39  58  84 121 157 190 241 304 359
#     4   9  19  35  56  83 115 150 190 239 291 350
#     4  11  20  36  59  84 115 154 195 236 292 353
#     4  11  23  36  53  84 121 152 190 237 283 341
#
# _framework density 20.084790999999999
#
# number of rings (size 3 to 8) (size 9 to 14) (size 15 to 20)
#    0.000    1.750    2.500    1.875    0.000    6.000 
#    0.000    2.500    0.000    0.000    0.000    0.000 
#    0.000    0.000    0.000    0.000    0.000    0.000 
#
# Total GULP energy -793229.414167 kJ/mol
# GULP energy per Si atom -12394.209596 kJ/mol
# Density = 2.003908 g / cm^3
# Si number density = 20.084791 Si / 1000 Ang^3
#
#
#
# Elastic Constant Matrix: (Units=GPa)
#
#
# Indices 1 2 3 4 5 6 
#
# 1 94.6830 36.4283 36.6442 0.0000 0.0000 0.0000
# 2 36.4283 85.7856 25.0232 0.0000 0.0000 0.0000
# 3 36.6442 25.0232 50.0821 0.0000 0.0000 0.0000
# 4 0.0000 0.0000 0.0000 28.3358 0.0000 0.0000
# 5 0.0000 0.0000 0.0000 0.0000 30.3334 0.0000
# 6 0.0000 0.0000 0.0000 0.0000 0.0000 29.6240
#
#
#
# Elastic Compliance Matrix: (Units=1/GPa)
#
#
# Indices 1 2 3 4 5 6 
#
# 1 0.015775 -0.003900 -0.009594 0.000000 0.000000 0.000000
# 2 -0.003900 0.014610 -0.004446 0.000000 0.000000 0.000000
# 3 -0.009594 -0.004446 0.029208 0.000000 0.000000 0.000000
# 4 0.000000 0.000000 0.000000 0.035291 0.000000 0.000000
# 5 0.000000 0.000000 0.000000 0.000000 0.032967 0.000000
# 6 0.000000 0.000000 0.000000 0.000000 0.000000 0.033756
#
#
# Mechanical properties :
#
#
# Convention : Reuss Voigt Hill
#
# Bulk Modulus (GPa) = 42.17029 47.41579 44.79304
# Shear Modulus (GPa) = 24.34368 26.48897 25.41632
#
# Velocity S-wave (km/s) = 3.48522 3.63555 3.56118
# Velocity P-wave (km/s) = 6.10225 6.42511 6.26576
#
# Compressibility (1/GPa) = 0.02371338
#
# Stress axis : x y z
#
# Youngs Moduli (GPa) = 63.39104 68.44566 34.23710
#
# Poissons Ratio (x) = 0.26697 0.32846
# Poissons Ratio (y) = 0.24725 0.15222
# Poissons Ratio (z) = 0.60815 0.30431
#
# Static dielectric constant tensor:
#      x y z
#    x 4.729540 0.000000 0.000000 
#    y 0.000000 3.695330 0.000000 
#    z 0.000000 0.000000 3.856980 
# 
# 
# High freq. dielectric constant tensor:
#      x y z
#    x 1.787990 0.000000 0.000000 
#    y 0.000000 1.783390 0.000000 
#    z 0.000000 0.000000 1.771540 
# 
# From -- ./inp_files/8980.got.cif
#   From: 2010.03.12/outbox.cif.g09.slc.cpg/sg55_5_cif.got.tgz:8980.got - 2010.04.16 15:19:21.
