data_PCOD8225340
_publ_section_title
;
Structure prediction by ZEFSAII (Michael W. Deem and Ramdas Pophale) SiO2 
 PCOD8225340
Probable space group: P B A M
;
_chemical_formula_sum "Si O2"
_cell_formula_units_Z 64
_cell_length_a 18.639204
_cell_length_b 19.236375
_cell_length_c 8.936287
_cell_angle_alpha 90.000000
_cell_angle_beta 90.000000
_cell_angle_gamma 90.000000
_cell_volume 3204.112119
_symmetry_space_group_name_H-M "P B A M"
_symmetry_group_IT_number 55
_symmetry_cell_setting 'orthorhombic'
loop_
_space_group_symop_operation_xyz
x,y,z
-x,-y,z
1/2+x,1/2-y,-z
1/2-x,1/2+y,-z
-x,-y,-z
x,y,-z
1/2-x,1/2+y,z
1/2+x,1/2-y,z
loop_
_atom_site_type_symbol
_atom_site_label
_atom_site_fract_x
_atom_site_fract_y
_atom_site_fract_z
Si Si1 0.141920 0.318731 0.823569
Si Si2 0.811518 0.529018 0.824648
Si Si3 0.596400 0.401227 0.328403
Si Si4 0.550896 0.650231 0.326520
Si Si5 0.278078 0.696166 0.321987
Si Si6 0.508259 0.801420 0.327763
Si Si7 0.641469 0.890049 0.676082
Si Si8 0.663576 0.545522 0.672015
O O1 0.153587 0.398288 0.773275
O O2 0.203814 0.271275 0.748772
O O3 0.062279 0.297881 0.772589
O O4 0.148241 0.309635 0.000000
O O5 0.852883 0.465554 0.748701
O O6 0.729267 0.528706 0.777771
O O7 0.817412 0.518523 0.000000
O O8 0.592213 0.377445 0.500000
O O9 0.521641 0.379644 0.249287
O O10 0.662589 0.357977 0.259884
O O11 0.607136 0.483010 0.312313
O O12 0.549711 0.628808 0.500000
O O13 0.555473 0.732297 0.301714
O O14 0.622889 0.613779 0.263436
O O15 0.277957 0.704863 0.500000
O O16 0.201630 0.665011 0.266720
O O17 0.483526 0.806888 0.500000
O O18 0.561662 0.863585 0.282728
O O19 0.651727 0.899165 0.500000
O O20 0.690115 0.553172 0.500000
#
# Coordination Sequence:
#
# PCOD8225340 Si02
#       8
#     8   8   8   8   8   8   8   8
#     4  11  25  42  59  84 118 160 204 239 286 353
#     4  11  25  42  58  81 118 159 199 243 291 349
#     4   9  15  29  55  86 117 149 185 229 285 348
#     4   9  17  30  54  89 122 149 182 231 291 346
#     4  10  19  36  63  90 118 151 190 242 295 347
#     4  10  21  39  62  90 118 148 194 251 302 350
#     4  10  22  40  64  93 118 146 196 250 301 355
#     4  10  19  33  58  88 117 152 195 239 285 344
#
# _framework density 19.974332
#
# number of rings (size 3 to 8) (size 9 to 14) (size 15 to 20)
#    0.000    2.000    2.500    1.125    1.750    5.000 
#    0.000    3.125    0.000    0.750    0.000    0.000 
#    0.000    0.000    0.000    0.000    0.000    0.000 
#
# Total GULP energy -793494.997618 kJ/mol
# GULP energy per Si atom -12398.359338 kJ/mol
# Density = 1.992887 g / cm^3
# Si number density = 19.974332 Si / 1000 Ang^3
#
#
#
# Elastic Constant Matrix: (Units=GPa)
#
#
# Indices 1 2 3 4 5 6 
#
# 1 35.9243 19.4466 9.3093 0.0000 0.0000 0.0000
# 2 19.4466 110.4918 29.4988 0.0000 0.0000 0.0000
# 3 9.3093 29.4988 30.5303 0.0000 0.0000 0.0000
# 4 0.0000 0.0000 0.0000 21.4929 0.0000 0.0000
# 5 0.0000 0.0000 0.0000 0.0000 13.3818 0.0000
# 6 0.0000 0.0000 0.0000 0.0000 0.0000 37.6524
#
#
#
# Elastic Compliance Matrix: (Units=1/GPa)
#
#
# Indices 1 2 3 4 5 6 
#
# 1 0.031493 -0.004015 -0.005724 0.000000 0.000000 0.000000
# 2 -0.004015 0.012708 -0.011055 0.000000 0.000000 0.000000
# 3 -0.005724 -0.011055 0.045181 0.000000 0.000000 0.000000
# 4 0.000000 0.000000 0.000000 0.046527 0.000000 0.000000
# 5 0.000000 0.000000 0.000000 0.000000 0.074728 0.000000
# 6 0.000000 0.000000 0.000000 0.000000 0.000000 0.026559
#
#
# Mechanical properties :
#
#
# Convention : Reuss Voigt Hill
#
# Bulk Modulus (GPa) = 20.92248 32.60620 26.76434
# Shear Modulus (GPa) = 16.96555 22.41819 19.69187
#
# Velocity S-wave (km/s) = 2.91755 3.35378 3.14325
# Velocity P-wave (km/s) = 4.67407 5.59970 5.15769
#
# Compressibility (1/GPa) = 0.04779548
#
# Stress axis : x y z
#
# Youngs Moduli (GPa) = 31.75331 78.68798 22.13322
#
# Poissons Ratio (x) = 0.31590 0.12669
# Poissons Ratio (y) = 0.12748 0.24468
# Poissons Ratio (z) = 0.18175 0.86989
#
# Static dielectric constant tensor:
#      x y z
#    x 3.708560 0.000000 0.000000 
#    y 0.000000 3.791050 0.000000 
#    z 0.000000 0.000000 3.240810 
# 
# 
# High freq. dielectric constant tensor:
#      x y z
#    x 1.784570 0.000000 0.000000 
#    y 0.000000 1.793340 0.000000 
#    z 0.000000 0.000000 1.732820 
# 
# From -- ./inp_files/8069.got.cif
#   From: 2010.03.12/outbox.cif.g09.slc.cpg/sg55_5_cif.got.tgz:8069.got - 2010.04.16 15:19:21.
