data_PCOD8225701
_publ_section_title
;
Structure prediction by ZEFSAII (Michael W. Deem and Ramdas Pophale) SiO2 
 PCOD8225701
Probable space group: P B A M
;
_chemical_formula_sum "Si O2"
_cell_formula_units_Z 56
_cell_length_a 21.729536
_cell_length_b 14.711018
_cell_length_c 8.771802
_cell_angle_alpha 90.000000
_cell_angle_beta 90.000000
_cell_angle_gamma 90.000000
_cell_volume 2804.025764
_symmetry_space_group_name_H-M "P B A M"
_symmetry_group_IT_number 55
_symmetry_cell_setting 'orthorhombic'
loop_
_space_group_symop_operation_xyz
x,y,z
-x,-y,z
1/2+x,1/2-y,-z
1/2-x,1/2+y,-z
-x,-y,-z
x,y,-z
1/2-x,1/2+y,z
1/2+x,1/2-y,z
loop_
_atom_site_type_symbol
_atom_site_label
_atom_site_fract_x
_atom_site_fract_y
_atom_site_fract_z
Si Si1 0.115923 0.900679 0.177794
Si Si2 0.537552 0.911585 0.819002
Si Si3 0.675116 0.940625 0.181675
Si Si4 0.983291 0.221905 0.320798
Si Si5 0.282108 0.687257 0.818722
Si Si6 0.589951 0.394597 0.178000
Si Si7 0.245092 0.385521 0.818590
O O1 0.080770 0.821394 0.266236
O O2 0.185687 0.903715 0.239331
O O3 0.083916 0.997801 0.207014
O O4 0.114223 0.875267 0.000000
O O5 0.607065 0.921111 0.755447
O O6 0.506750 0.821355 0.750909
O O7 0.500000 0.000000 0.764242
O O8 0.535960 0.903143 0.000000
O O9 0.721849 0.864271 0.244036
O O10 0.699169 0.037514 0.244254
O O11 0.674001 0.941516 0.000000
O O12 0.982543 0.232124 0.500000
O O13 0.038256 0.156286 0.272210
O O14 0.343863 0.638719 0.760809
O O15 0.280036 0.789800 0.756176
O O16 0.280840 0.684379 0.000000
O O17 0.581375 0.371780 0.000000
O O18 0.245721 0.387278 0.000000
#
# Coordination Sequence:
#
# PCOD8225701 Si02
#       7
#     8   8   8   8   8   8   8
#     4  10  19  36  60  89 118 147 190 243 295 344
#     4  10  22  39  63  92 118 149 193 241 287 340
#     4   9  16  30  52  87 120 141 176 229 289 339
#     4  12  26  40  56  79 115 161 199 234 288 348
#     4   9  16  27  49  82 118 148 177 227 290 345
#     4  10  20  35  58  86 114 146 194 247 295 340
#     4   9  16  27  52  87 118 144 174 228 293 342
#
# _framework density 19.971285000000002
#
# number of rings (size 3 to 8) (size 9 to 14) (size 15 to 20)
#    0.000    2.143    1.429    2.571    2.000    4.857 
#    0.000    0.000    0.000    4.286    0.000    0.000 
#    0.000    0.000    0.000    0.000    0.000    0.000 
#
# Total GULP energy -694443.347926 kJ/mol
# GULP energy per Si atom -12400.774070 kJ/mol
# Density = 1.992583 g / cm^3
# Si number density = 19.971285 Si / 1000 Ang^3
#
#
#
# Elastic Constant Matrix: (Units=GPa)
#
#
# Indices 1 2 3 4 5 6 
#
# 1 78.1483 15.7425 15.4252 0.0000 0.0000 0.0000
# 2 15.7425 120.1645 22.8952 0.0000 0.0000 0.0000
# 3 15.4252 22.8952 34.6668 0.0000 0.0000 0.0000
# 4 0.0000 0.0000 0.0000 7.7200 0.0000 0.0000
# 5 0.0000 0.0000 0.0000 0.0000 -0.5059 0.0000
# 6 0.0000 0.0000 0.0000 0.0000 0.0000 38.4156
#
#
#
# Elastic Compliance Matrix: (Units=1/GPa)
#
#
# Indices 1 2 3 4 5 6 
#
# 1 0.014086 -0.000745 -0.005776 0.000000 0.000000 0.000000
# 2 -0.000745 0.009559 -0.005982 0.000000 0.000000 0.000000
# 3 -0.005776 -0.005982 0.035367 0.000000 0.000000 0.000000
# 4 0.000000 0.000000 0.000000 0.129534 0.000000 0.000000
# 5 0.000000 0.000000 0.000000 0.000000 -1.976850 0.000000
# 6 0.000000 0.000000 0.000000 0.000000 0.000000 0.026031
#
#
# Mechanical properties :
#
#
# Convention : Reuss Voigt Hill
#
# Bulk Modulus (GPa) = 29.40562 37.90058 33.65310
# Shear Modulus (GPa) = -2.89699 21.05372 9.07837
#
# Velocity S-wave (km/s) = -1.20570 3.25037 2.13438
# Velocity P-wave (km/s) = 3.58017 5.75372 4.79181
#
# Compressibility (1/GPa) = 0.03400710
#
# Stress axis : x y z
#
# Youngs Moduli (GPa) = 70.99093 104.61089 28.27524
#
# Poissons Ratio (x) = 0.07793 0.16331
# Poissons Ratio (y) = 0.05288 0.16914
# Poissons Ratio (z) = 0.41003 0.62576
#
# Static dielectric constant tensor:
#      x y z
#    x 3.836950 0.000000 0.000000 
#    y 0.000000 3.889630 0.000000 
#    z 0.000000 0.000000 2.974730 
# 
# 
# High freq. dielectric constant tensor:
#      x y z
#    x 1.791610 0.000000 0.000000 
#    y 0.000000 1.798470 0.000000 
#    z 0.000000 0.000000 1.710360 
# 
# From -- ./inp_files/6180.got.cif
#   From: 2010.03.12/outbox.cif.g09.slc.cpg/sg55_4_cif.got.tgz:6180.got - 2010.04.16 15:19:21.
