data_PCOD8225495
_publ_section_title
;
Structure prediction by ZEFSAII (Michael W. Deem and Ramdas Pophale) SiO2 
 PCOD8225495
Probable space group: P B A M
;
_chemical_formula_sum "Si O2"
_cell_formula_units_Z 64
_cell_length_a 14.685884
_cell_length_b 24.188763
_cell_length_c 8.919148
_cell_angle_alpha 90.000000
_cell_angle_beta 90.000000
_cell_angle_gamma 90.000000
_cell_volume 3168.378979
_symmetry_space_group_name_H-M "P B A M"
_symmetry_group_IT_number 55
_symmetry_cell_setting 'orthorhombic'
loop_
_space_group_symop_operation_xyz
x,y,z
-x,-y,z
1/2+x,1/2-y,-z
1/2-x,1/2+y,-z
-x,-y,-z
x,y,-z
1/2-x,1/2+y,z
1/2+x,1/2-y,z
loop_
_atom_site_type_symbol
_atom_site_label
_atom_site_fract_x
_atom_site_fract_y
_atom_site_fract_z
Si Si1 0.249289 0.945527 0.671556
Si Si2 0.375083 0.744108 0.323504
Si Si3 0.452613 0.942205 0.323207
Si Si4 0.098371 0.016359 0.171366
Si Si5 0.441682 0.637590 0.168584
Si Si6 0.613200 0.644465 0.666603
Si Si7 0.668804 0.767298 0.671139
Si Si8 0.488003 0.169378 0.822001
O O1 0.255897 0.963546 0.500000
O O2 0.349961 0.946640 0.740830
O O3 0.211779 0.883144 0.692730
O O4 0.182545 0.988936 0.746865
O O5 0.381812 0.755719 0.500000
O O6 0.413463 0.683636 0.287613
O O7 0.270654 0.742583 0.267149
O O8 0.431248 0.792195 0.241953
O O9 0.454571 0.928880 0.500000
O O10 0.502811 0.892943 0.236791
O O11 0.500000 0.000000 0.285215
O O12 0.117195 0.082100 0.184428
O O13 0.098561 0.996514 0.000000
O O14 0.000000 0.000000 0.242975
O O15 0.545465 0.620513 0.207914
O O16 0.436277 0.661447 0.000000
O O17 0.578584 0.628176 0.500000
O O18 0.616249 0.709892 0.681933
O O19 0.671932 0.789013 0.500000
O O20 0.612224 0.810261 0.771235
O O21 0.493148 0.170634 0.000000
#
# Coordination Sequence:
#
# PCOD8225495 Si02
#       8
#     8   8   8   8   8   8   8   8
#     4  10  21  37  62  93 119 155 212 263 303 359
#     4  11  23  41  64  91 125 164 208 254 307 367
#     4  10  23  45  69  91 120 161 211 263 310 361
#     4  10  21  37  55  81 121 163 197 238 304 372
#     4  11  22  36  56  85 122 161 200 247 306 368
#     4  10  19  34  58  86 116 154 201 253 305 358
#     4  10  22  40  64  90 121 165 210 255 306 365
#     4  12  25  41  65  96 129 164 204 255 315 376
#
# _framework density 20.199604000000001
#
# number of rings (size 3 to 8) (size 9 to 14) (size 15 to 20)
#    0.000    1.500    2.500    2.625    0.000    6.000 
#    0.000    5.000    0.000    0.000    0.000    0.000 
#    0.000    0.000    0.000    0.000    0.000    0.000 
#
# Total GULP energy -793633.317603 kJ/mol
# GULP energy per Si atom -12400.520588 kJ/mol
# Density = 2.015363 g / cm^3
# Si number density = 20.199604 Si / 1000 Ang^3
#
#
#
# Elastic Constant Matrix: (Units=GPa)
#
#
# Indices 1 2 3 4 5 6 
#
# 1 104.8946 40.1676 44.9761 0.0000 0.0000 0.0000
# 2 40.1676 111.6597 49.4361 0.0000 0.0000 0.0000
# 3 44.9761 49.4361 83.5070 0.0000 0.0000 0.0000
# 4 0.0000 0.0000 0.0000 28.5902 0.0000 0.0000
# 5 0.0000 0.0000 0.0000 0.0000 10.9204 0.0000
# 6 0.0000 0.0000 0.0000 0.0000 0.0000 30.2746
#
#
#
# Elastic Compliance Matrix: (Units=1/GPa)
#
#
# Indices 1 2 3 4 5 6 
#
# 1 0.012748 -0.002095 -0.005625 0.000000 0.000000 0.000000
# 2 -0.002095 0.012481 -0.006260 0.000000 0.000000 0.000000
# 3 -0.005625 -0.006260 0.018711 0.000000 0.000000 0.000000
# 4 0.000000 0.000000 0.000000 0.034977 0.000000 0.000000
# 5 0.000000 0.000000 0.000000 0.000000 0.091571 0.000000
# 6 0.000000 0.000000 0.000000 0.000000 0.000000 0.033031
#
#
# Mechanical properties :
#
#
# Convention : Reuss Voigt Hill
#
# Bulk Modulus (GPa) = 62.58665 63.24678 62.91672
# Shear Modulus (GPa) = 21.11419 24.98914 23.05167
#
# Velocity S-wave (km/s) = 3.23658 3.52107 3.38182
# Velocity P-wave (km/s) = 6.70959 6.92167 6.81646
#
# Compressibility (1/GPa) = 0.01597785
#
# Stress axis : x y z
#
# Youngs Moduli (GPa) = 78.44524 80.12040 53.44432
#
# Poissons Ratio (x) = 0.16786 0.30065
# Poissons Ratio (y) = 0.16435 0.33459
# Poissons Ratio (z) = 0.44129 0.50159
#
# Static dielectric constant tensor:
#      x y z
#    x 3.820830 0.000000 0.000000 
#    y 0.000000 3.644560 0.000000 
#    z 0.000000 0.000000 3.545630 
# 
# 
# High freq. dielectric constant tensor:
#      x y z
#    x 1.791500 0.000000 0.000000 
#    y 0.000000 1.794020 0.000000 
#    z 0.000000 0.000000 1.777690 
# 
# From -- ./inp_files/6620.got.cif
#   From: 2010.03.12/outbox.cif.g09.slc.cpg/sg55_4_cif.got.tgz:6620.got - 2010.04.16 15:19:21.
