data_PCOD8225621
_publ_section_title
;
Structure prediction by ZEFSAII (Michael W. Deem and Ramdas Pophale) SiO2 
 PCOD8225621
Probable space group: P B A M
;
_chemical_formula_sum "Si O2"
_cell_formula_units_Z 64
_cell_length_a 27.408167
_cell_length_b 12.601840
_cell_length_c 9.272092
_cell_angle_alpha 90.000000
_cell_angle_beta 90.000000
_cell_angle_gamma 90.000000
_cell_volume 3202.518780
_symmetry_space_group_name_H-M "P B A M"
_symmetry_group_IT_number 55
_symmetry_cell_setting 'orthorhombic'
loop_
_space_group_symop_operation_xyz
x,y,z
-x,-y,z
1/2+x,1/2-y,-z
1/2-x,1/2+y,-z
-x,-y,-z
x,y,-z
1/2-x,1/2+y,z
1/2+x,1/2-y,z
loop_
_atom_site_type_symbol
_atom_site_label
_atom_site_fract_x
_atom_site_fract_y
_atom_site_fract_z
Si Si1 0.589111 0.150449 0.843225
Si Si2 0.311239 0.158694 0.834010
Si Si3 0.915201 0.255692 0.828103
Si Si4 0.888135 0.838354 0.334737
Si Si5 0.553294 0.545503 0.667264
Si Si6 0.780008 0.762287 0.333354
Si Si7 0.553822 0.957691 0.661497
Si Si8 0.307202 0.920149 0.845871
O O1 0.577225 0.258850 0.757535
O O2 0.646379 0.153954 0.871995
O O3 0.582200 0.046567 0.748616
O O4 0.561681 0.147121 0.000000
O O5 0.357901 0.229466 0.788789
O O6 0.263536 0.176491 0.741225
O O7 0.324749 0.036924 0.801025
O O8 0.298326 0.179447 0.000000
O O9 0.934319 0.144029 0.769378
O O10 0.946073 0.348012 0.750311
O O11 0.923339 0.263195 0.000000
O O12 0.898930 0.808990 0.500000
O O13 0.830575 0.824623 0.301537
O O14 0.905264 0.957525 0.300588
O O15 0.500000 0.500000 0.706560
O O16 0.554684 0.581231 0.500000
O O17 0.768696 0.757080 0.500000
O O18 0.776925 0.640349 0.277166
O O19 0.576046 0.941711 0.500000
O O20 0.500000 0.000000 0.646623
O O21 0.278223 0.924937 0.000000
#
# Coordination Sequence:
#
# PCOD8225621 Si02
#       8
#     8   8   8   8   8   8   8   8
#     4  10  19  35  60  88 117 149 192 245 300 352
#     4  10  21  39  60  84 119 159 197 244 306 368
#     4  11  24  43  64  91 124 156 204 258 306 362
#     4   9  20  39  59  84 122 162 206 255 304 365
#     4  10  23  43  65  88 124 171 213 255 310 375
#     4  10  21  35  56  89 120 154 204 255 304 361
#     4  11  24  39  59  88 122 158 195 238 302 372
#     4   9  18  36  57  79 114 154 192 236 296 361
#
# _framework density 19.984271
#
# number of rings (size 3 to 8) (size 9 to 14) (size 15 to 20)
#    0.000    2.000    1.250    1.500    1.750    5.250 
#    0.000    2.500    0.000    0.000    0.000    0.000 
#    0.000    0.000    0.000    0.000    0.000    0.000 
#
# Total GULP energy -793154.863160 kJ/mol
# GULP energy per Si atom -12393.044737 kJ/mol
# Density = 1.993879 g / cm^3
# Si number density = 19.984271 Si / 1000 Ang^3
#
#
#
# Elastic Constant Matrix: (Units=GPa)
#
#
# Indices 1 2 3 4 5 6 
#
# 1 76.6354 43.8813 51.4131 0.0000 0.0000 0.0000
# 2 43.8813 131.5176 77.1386 0.0000 0.0000 0.0000
# 3 51.4131 77.1386 137.1176 0.0000 0.0000 0.0000
# 4 0.0000 0.0000 0.0000 39.9458 0.0000 0.0000
# 5 0.0000 0.0000 0.0000 0.0000 41.4700 0.0000
# 6 0.0000 0.0000 0.0000 0.0000 0.0000 24.2943
#
#
#
# Elastic Compliance Matrix: (Units=1/GPa)
#
#
# Indices 1 2 3 4 5 6 
#
# 1 0.018242 -0.003096 -0.005098 0.000000 0.000000 0.000000
# 2 -0.003096 0.011874 -0.005519 0.000000 0.000000 0.000000
# 3 -0.005098 -0.005519 0.012309 0.000000 0.000000 0.000000
# 4 0.000000 0.000000 0.000000 0.025034 0.000000 0.000000
# 5 0.000000 0.000000 0.000000 0.000000 0.024114 0.000000
# 6 0.000000 0.000000 0.000000 0.000000 0.000000 0.041162
#
#
# Mechanical properties :
#
#
# Convention : Reuss Voigt Hill
#
# Bulk Modulus (GPa) = 66.67334 76.68186 71.67760
# Shear Modulus (GPa) = 30.27367 32.66451 31.46909
#
# Velocity S-wave (km/s) = 3.89636 4.04729 3.97255
# Velocity P-wave (km/s) = 7.32649 7.76500 7.54893
#
# Compressibility (1/GPa) = 0.01499850
#
# Stress axis : x y z
#
# Youngs Moduli (GPa) = 54.81882 84.22085 81.23989
#
# Poissons Ratio (x) = 0.26078 0.41416
# Poissons Ratio (y) = 0.16974 0.44834
# Poissons Ratio (z) = 0.27947 0.46479
#
# Static dielectric constant tensor:
#      x y z
#    x 2.562820 0.000000 0.000000 
#    y 0.000000 3.636230 0.000000 
#    z 0.000000 0.000000 4.142840 
# 
# 
# High freq. dielectric constant tensor:
#      x y z
#    x 1.764940 0.000000 0.000000 
#    y 0.000000 1.779470 0.000000 
#    z 0.000000 0.000000 1.790340 
# 
# From -- ./inp_files/4624.got.cif
#   From: 2010.03.12/outbox.cif.g09.slc.cpg/sg55_3_cif.got.tgz:4624.got - 2010.04.16 15:19:21.
