data_PCOD8225402
_publ_section_title
;
Structure prediction by ZEFSAII (Michael W. Deem and Ramdas Pophale) SiO2 
 PCOD8225402
Probable space group: P B A M
;
_chemical_formula_sum "Si O2"
_cell_formula_units_Z 48
_cell_length_a 17.779623
_cell_length_b 16.414391
_cell_length_c 9.180805
_cell_angle_alpha 90.000000
_cell_angle_beta 90.000000
_cell_angle_gamma 90.000000
_cell_volume 2679.341589
_symmetry_space_group_name_H-M "P B A M"
_symmetry_group_IT_number 55
_symmetry_cell_setting 'orthorhombic'
loop_
_space_group_symop_operation_xyz
x,y,z
-x,-y,z
1/2+x,1/2-y,-z
1/2-x,1/2+y,-z
-x,-y,-z
x,y,-z
1/2-x,1/2+y,z
1/2+x,1/2-y,z
loop_
_atom_site_type_symbol
_atom_site_label
_atom_site_fract_x
_atom_site_fract_y
_atom_site_fract_z
Si Si1 0.586574 0.500889 0.167272
Si Si2 0.443492 0.238524 0.171696
Si Si3 0.667218 0.176380 0.668661
Si Si4 0.099766 0.183500 0.834612
Si Si5 0.164684 0.855781 0.671612
Si Si6 0.015009 0.407531 0.671256
O O1 0.500000 0.500000 0.212018
O O2 0.619406 0.410710 0.189756
O O3 0.630451 0.559765 0.274409
O O4 0.595469 0.530732 0.000000
O O5 0.513364 0.297965 0.208766
O O6 0.370832 0.278391 0.246447
O O7 0.457582 0.149627 0.240326
O O8 0.429336 0.229594 0.000000
O O9 0.662585 0.194499 0.500000
O O10 0.657880 0.264218 0.741956
O O11 0.747297 0.139069 0.711958
O O12 0.600812 0.114499 0.715701
O O13 0.111613 0.209998 0.000000
O O14 0.150799 0.846167 0.500000
O O15 0.000615 0.394817 0.500000
O O16 0.000000 0.500000 0.718845
#
# Coordination Sequence:
#
# PCOD8225402 Si02
#       6
#     8   8   8   8   8   8
#     4  10  19  35  56  80 111 142 176 221 270 318
#     4  10  19  34  56  79 106 139 178 223 266 318
#     4   9  20  37  54  76 108 142 177 222 270 318
#     4   9  18  34  56  78 102 138 177 214 264 320
#     4  11  22  35  52  79 112 145 181 221 270 323
#     4   9  18  36  60  81 105 140 182 225 271 323
#
# _framework density 17.914850000000001
#
# number of rings (size 3 to 8) (size 9 to 14) (size 15 to 20)
#    0.000    2.333    1.667    1.000    0.000    3.333 
#    3.000    0.000    0.000    0.000    0.000    0.000 
#    0.000    0.000    0.000    0.000    0.000    0.000 
#
# Total GULP energy -595283.055171 kJ/mol
# GULP energy per Si atom -12401.730316 kJ/mol
# Density = 1.787408 g / cm^3
# Si number density = 17.914850 Si / 1000 Ang^3
#
#
#
# Elastic Constant Matrix: (Units=GPa)
#
#
# Indices 1 2 3 4 5 6 
#
# 1 95.4162 61.8077 51.8319 0.0000 0.0000 0.0000
# 2 61.8077 121.9290 51.9151 0.0000 0.0000 0.0000
# 3 51.8319 51.9151 67.8094 0.0000 0.0000 0.0000
# 4 0.0000 0.0000 0.0000 35.1536 0.0000 0.0000
# 5 0.0000 0.0000 0.0000 0.0000 23.7321 0.0000
# 6 0.0000 0.0000 0.0000 0.0000 0.0000 21.0677
#
#
#
# Elastic Compliance Matrix: (Units=1/GPa)
#
#
# Indices 1 2 3 4 5 6 
#
# 1 0.020064 -0.005402 -0.011201 0.000000 0.000000 0.000000
# 2 -0.005402 0.013622 -0.006300 0.000000 0.000000 0.000000
# 3 -0.011201 -0.006300 0.028133 0.000000 0.000000 0.000000
# 4 0.000000 0.000000 0.000000 0.028447 0.000000 0.000000
# 5 0.000000 0.000000 0.000000 0.000000 0.042137 0.000000
# 6 0.000000 0.000000 0.000000 0.000000 0.000000 0.047466
#
#
# Mechanical properties :
#
#
# Convention : Reuss Voigt Hill
#
# Bulk Modulus (GPa) = 62.44959 68.47378 65.46168
# Shear Modulus (GPa) = 21.64392 23.96400 22.80396
#
# Velocity S-wave (km/s) = 3.47962 3.66137 3.57165
# Velocity P-wave (km/s) = 7.14692 7.49526 7.32316
#
# Compressibility (1/GPa) = 0.01601292
#
# Stress axis : x y z
#
# Youngs Moduli (GPa) = 49.84072 73.40951 35.54606
#
# Poissons Ratio (x) = 0.39653 0.39815
# Poissons Ratio (y) = 0.26922 0.22395
# Poissons Ratio (z) = 0.55826 0.46251
#
# Static dielectric constant tensor:
#      x y z
#    x 3.339880 0.000000 0.000000 
#    y 0.000000 3.368990 0.000000 
#    z 0.000000 0.000000 3.300620 
# 
# 
# High freq. dielectric constant tensor:
#      x y z
#    x 1.680860 0.000000 0.000000 
#    y 0.000000 1.695380 0.000000 
#    z 0.000000 0.000000 1.695130 
# 
# From -- ./inp_files/5642.got.cif
#   From: 2010.03.12/outbox.cif.g09.slc.cpg/sg55_3_cif.got.tgz:5642.got - 2010.04.16 15:19:21.
