data_PCOD8225118
_publ_section_title
;
Structure prediction by ZEFSAII (Michael W. Deem and Ramdas Pophale) SiO2 
 PCOD8225118
Probable space group: P B A M
;
_chemical_formula_sum "Si O2"
_cell_formula_units_Z 56
_cell_length_a 21.479854
_cell_length_b 14.578838
_cell_length_c 9.515399
_cell_angle_alpha 90.000000
_cell_angle_beta 90.000000
_cell_angle_gamma 90.000000
_cell_volume 2979.759678
_symmetry_space_group_name_H-M "P B A M"
_symmetry_group_IT_number 55
_symmetry_cell_setting 'orthorhombic'
loop_
_space_group_symop_operation_xyz
x,y,z
-x,-y,z
1/2+x,1/2-y,-z
1/2-x,1/2+y,-z
-x,-y,-z
x,y,-z
1/2-x,1/2+y,z
1/2+x,1/2-y,z
loop_
_atom_site_type_symbol
_atom_site_label
_atom_site_fract_x
_atom_site_fract_y
_atom_site_fract_z
Si Si1 0.689822 0.585999 0.835971
Si Si2 0.092833 0.803788 0.659896
Si Si3 0.813750 0.686607 0.162712
Si Si4 0.848345 0.886609 0.839400
Si Si5 0.441542 0.110710 0.665499
Si Si6 0.969360 0.907587 0.340286
Si Si7 0.919120 0.589581 0.666175
O O1 0.631217 0.628458 0.756968
O O2 0.752403 0.634749 0.781147
O O3 0.692004 0.477194 0.801606
O O4 0.680627 0.605294 0.000000
O O5 0.117323 0.813440 0.500000
O O6 0.098075 0.698971 0.716993
O O7 0.019752 0.826996 0.667505
O O8 0.805886 0.796306 0.185055
O O9 0.871837 0.653760 0.252547
O O10 0.825551 0.662411 0.000000
O O11 0.909830 0.878045 0.747179
O O12 0.870809 0.892178 0.000000
O O13 0.449768 0.116477 0.500000
O O14 0.511957 0.111935 0.724371
O O15 0.405410 0.017277 0.705066
O O16 0.947309 0.925607 0.500000
O O17 0.000000 0.000000 0.278017
O O18 0.911978 0.607261 0.500000
#
# Coordination Sequence:
#
# PCOD8225118 Si02
#       7
#     8   8   8   8   8   8   8
#     4  10  22  38  53  72 103 141 178 215 259 309
#     4  10  19  33  53  79 110 138 170 214 264 314
#     4  10  22  38  54  75 105 140 179 222 264 307
#     4  10  21  37  56  77 105 142 180 217 264 324
#     4   8  16  31  54  81 108 135 165 210 263 312
#     4  10  19  32  54  84 112 137 168 218 272 314
#     4   9  17  34  57  79 103 136 175 210 256 316
#
# _framework density 18.793461000000001
#
# number of rings (size 3 to 8) (size 9 to 14) (size 15 to 20)
#    0.000    2.429    1.429    1.714    0.000    4.286 
#    0.000    4.286    0.000    0.000    0.000    0.000 
#    0.000    0.000    0.000    0.000    0.000    0.000 
#
# Total GULP energy -694263.440346 kJ/mol
# GULP energy per Si atom -12397.561435 kJ/mol
# Density = 1.875069 g / cm^3
# Si number density = 18.793461 Si / 1000 Ang^3
#
#
#
# Elastic Constant Matrix: (Units=GPa)
#
#
# Indices 1 2 3 4 5 6 
#
# 1 74.9615 41.2016 31.4041 0.0000 0.0000 0.0000
# 2 41.2016 142.8657 32.9893 0.0000 0.0000 0.0000
# 3 31.4041 32.9893 43.8729 0.0000 0.0000 0.0000
# 4 0.0000 0.0000 0.0000 22.9128 0.0000 0.0000
# 5 0.0000 0.0000 0.0000 0.0000 28.6829 0.0000
# 6 0.0000 0.0000 0.0000 0.0000 0.0000 29.7055
#
#
#
# Elastic Compliance Matrix: (Units=1/GPa)
#
#
# Indices 1 2 3 4 5 6 
#
# 1 0.020055 -0.002988 -0.012109 0.000000 0.000000 0.000000
# 2 -0.002988 0.008915 -0.004565 0.000000 0.000000 0.000000
# 3 -0.012109 -0.004565 0.034893 0.000000 0.000000 0.000000
# 4 0.000000 0.000000 0.000000 0.043644 0.000000 0.000000
# 5 0.000000 0.000000 0.000000 0.000000 0.034864 0.000000
# 6 0.000000 0.000000 0.000000 0.000000 0.000000 0.033664
#
#
# Mechanical properties :
#
#
# Convention : Reuss Voigt Hill
#
# Bulk Modulus (GPa) = 40.74920 52.54335 46.64627
# Shear Modulus (GPa) = 22.36746 26.66723 24.51735
#
# Velocity S-wave (km/s) = 3.45363 3.77100 3.61580
# Velocity P-wave (km/s) = 6.13459 6.85417 6.50433
#
# Compressibility (1/GPa) = 0.02454036
#
# Stress axis : x y z
#
# Youngs Moduli (GPa) = 49.86241 112.16596 28.65884
#
# Poissons Ratio (x) = 0.33512 0.34703
# Poissons Ratio (y) = 0.14897 0.13083
# Poissons Ratio (z) = 0.60378 0.51205
#
# Static dielectric constant tensor:
#      x y z
#    x 3.199110 0.000000 0.000000 
#    y 0.000000 4.047080 0.000000 
#    z 0.000000 0.000000 3.219500 
# 
# 
# High freq. dielectric constant tensor:
#      x y z
#    x 1.707430 0.000000 0.000000 
#    y 0.000000 1.754400 0.000000 
#    z 0.000000 0.000000 1.706120 
# 
# From -- ./inp_files/8785.got.cif
#   From: 2010.03.12/outbox.cif.g09.slc.cpg/sg55_5_cif.got.tgz:8785.got - 2010.04.16 15:19:21.
