data_PCOD8225228
_publ_section_title
;
Structure prediction by ZEFSAII (Michael W. Deem and Ramdas Pophale) SiO2 
 PCOD8225228
Probable space group: P B A M
;
_chemical_formula_sum "Si O2"
_cell_formula_units_Z 56
_cell_length_a 15.884594
_cell_length_b 19.322435
_cell_length_c 8.910307
_cell_angle_alpha 90.000000
_cell_angle_beta 90.000000
_cell_angle_gamma 90.000000
_cell_volume 2734.831930
_symmetry_space_group_name_H-M "P B A M"
_symmetry_group_IT_number 55
_symmetry_cell_setting 'orthorhombic'
loop_
_space_group_symop_operation_xyz
x,y,z
-x,-y,z
1/2+x,1/2-y,-z
1/2-x,1/2+y,-z
-x,-y,-z
x,y,-z
1/2-x,1/2+y,z
1/2+x,1/2-y,z
loop_
_atom_site_type_symbol
_atom_site_label
_atom_site_fract_x
_atom_site_fract_y
_atom_site_fract_z
Si Si1 0.535661 0.276428 0.323075
Si Si2 0.636660 0.375844 0.164053
Si Si3 0.128844 0.712209 0.177921
Si Si4 0.760147 0.059066 0.672144
Si Si5 0.204677 0.590513 0.676063
Si Si6 0.584976 0.525334 0.163387
Si Si7 0.784526 0.710838 0.673591
O O1 0.521956 0.284230 0.500000
O O2 0.548755 0.350821 0.241164
O O3 0.455833 0.240639 0.251591
O O4 0.623370 0.238201 0.280504
O O5 0.712276 0.363513 0.282715
O O6 0.638284 0.456750 0.135624
O O7 0.652122 0.339953 0.000000
O O8 0.132547 0.631854 0.233311
O O9 0.209580 0.757269 0.227805
O O10 0.121193 0.714760 0.000000
O O11 0.779536 0.045111 0.500000
O O12 0.707030 0.128003 0.702254
O O13 0.710699 0.990006 0.729688
O O14 0.852868 0.073997 0.743041
O O15 0.186988 0.596349 0.500000
O O16 0.500000 0.500000 0.248138
O O17 0.562360 0.559335 0.000000
O O18 0.763384 0.725744 0.500000
#
# Coordination Sequence:
#
# PCOD8225228 Si02
#       7
#     8   8   8   8   8   8   8
#     4  11  23  39  61  86 119 158 200 248 302 358
#     4  10  19  33  54  81 116 152 192 237 286 347
#     4  12  25  39  61  89 121 158 202 250 300 358
#     4   9  20  37  59  85 112 148 195 246 298 356
#     4  10  19  37  61  85 115 154 196 238 293 354
#     4   9  19  33  49  76 115 154 190 231 285 352
#     4  10  22  42  64  90 121 154 198 251 305 361
#
# _framework density 20.476576999999999
#
# number of rings (size 3 to 8) (size 9 to 14) (size 15 to 20)
#    0.000    1.857    1.429    2.571    2.000    2.571 
#    0.000    0.714    0.000    4.286    0.000    0.000 
#    0.000    0.000    0.000    0.000    0.000    0.000 
#
# Total GULP energy -693756.616920 kJ/mol
# GULP energy per Si atom -12388.511016 kJ/mol
# Density = 2.042997 g / cm^3
# Si number density = 20.476577 Si / 1000 Ang^3
#
#
#
# Elastic Constant Matrix: (Units=GPa)
#
#
# Indices 1 2 3 4 5 6 
#
# 1 74.7613 10.7173 28.3349 0.0000 0.0000 0.0000
# 2 10.7173 54.1605 24.4707 0.0000 0.0000 0.0000
# 3 28.3349 24.4707 108.3154 0.0000 0.0000 0.0000
# 4 0.0000 0.0000 0.0000 16.2978 0.0000 0.0000
# 5 0.0000 0.0000 0.0000 0.0000 26.2960 0.0000
# 6 0.0000 0.0000 0.0000 0.0000 0.0000 18.6473
#
#
#
# Elastic Compliance Matrix: (Units=1/GPa)
#
#
# Indices 1 2 3 4 5 6 
#
# 1 0.014933 -0.001325 -0.003607 0.000000 0.000000 0.000000
# 2 -0.001325 0.020680 -0.004325 0.000000 0.000000 0.000000
# 3 -0.003607 -0.004325 0.011153 0.000000 0.000000 0.000000
# 4 0.000000 0.000000 0.000000 0.061358 0.000000 0.000000
# 5 0.000000 0.000000 0.000000 0.000000 0.038029 0.000000
# 6 0.000000 0.000000 0.000000 0.000000 0.000000 0.053627
#
#
# Mechanical properties :
#
#
# Convention : Reuss Voigt Hill
#
# Bulk Modulus (GPa) = 35.39705 40.47588 37.93646
# Shear Modulus (GPa) = 21.95754 23.82916 22.89335
#
# Velocity S-wave (km/s) = 3.27819 3.41505 3.34732
# Velocity P-wave (km/s) = 5.62608 5.94642 5.78847
#
# Compressibility (1/GPa) = 0.02825095
#
# Stress axis : x y z
#
# Youngs Moduli (GPa) = 66.96594 48.35545 89.66136
#
# Poissons Ratio (x) = 0.06408 0.32341
# Poissons Ratio (y) = 0.08874 0.38782
# Poissons Ratio (z) = 0.24155 0.20916
#
# Static dielectric constant tensor:
#      x y z
#    x 3.651030 0.000000 0.000000 
#    y 0.000000 3.949110 0.000000 
#    z 0.000000 0.000000 3.938430 
# 
# 
# High freq. dielectric constant tensor:
#      x y z
#    x 1.782240 0.000000 0.000000 
#    y 0.000000 1.804410 0.000000 
#    z 0.000000 0.000000 1.802500 
# 
# From -- ./inp_files/6004.got.cif
#   From: 2010.03.12/outbox.cif.g09.slc.cpg/sg55_4_cif.got.tgz:6004.got - 2010.04.16 15:19:21.
