data_PCOD8225339
_publ_section_title
;
Structure prediction by ZEFSAII (Michael W. Deem and Ramdas Pophale) SiO2 
 PCOD8225339
Probable space group: P B A M
;
_chemical_formula_sum "Si O2"
_cell_formula_units_Z 64
_cell_length_a 12.807619
_cell_length_b 27.603615
_cell_length_c 8.944662
_cell_angle_alpha 90.000000
_cell_angle_beta 90.000000
_cell_angle_gamma 90.000000
_cell_volume 3162.265248
_symmetry_space_group_name_H-M "P B A M"
_symmetry_group_IT_number 55
_symmetry_cell_setting 'orthorhombic'
loop_
_space_group_symop_operation_xyz
x,y,z
-x,-y,z
1/2+x,1/2-y,-z
1/2-x,1/2+y,-z
-x,-y,-z
x,y,-z
1/2-x,1/2+y,z
1/2+x,1/2-y,z
loop_
_atom_site_type_symbol
_atom_site_label
_atom_site_fract_x
_atom_site_fract_y
_atom_site_fract_z
Si Si1 0.515930 0.656944 0.676334
Si Si2 0.592941 0.036596 0.667539
Si Si3 0.240154 0.801375 0.674903
Si Si4 0.457813 0.551018 0.322536
Si Si5 0.686791 0.296349 0.822308
Si Si6 0.869446 0.365164 0.827228
Si Si7 0.100910 0.366679 0.171668
Si Si8 0.772448 0.449425 0.330564
O O1 0.497010 0.660685 0.500000
O O2 0.623277 0.683307 0.723570
O O3 0.521741 0.599725 0.723793
O O4 0.422102 0.684984 0.756519
O O5 0.582369 0.059126 0.500000
O O6 0.594640 0.076432 0.795911
O O7 0.500000 0.000000 0.699412
O O8 0.700088 0.006146 0.679790
O O9 0.244771 0.789452 0.500000
O O10 0.284942 0.757127 0.769149
O O11 0.316341 0.845547 0.712646
O O12 0.500000 0.500000 0.254149
O O13 0.454870 0.545536 0.500000
O O14 0.341315 0.558483 0.258188
O O15 0.781900 0.329244 0.761955
O O16 0.677507 0.296085 0.000000
O O17 0.859512 0.417433 0.751378
O O18 0.985579 0.343909 0.798989
O O19 0.849062 0.373275 0.000000
O O20 0.135183 0.358236 0.000000
O O21 0.772076 0.431165 0.500000
#
# Coordination Sequence:
#
# PCOD8225339 Si02
#       8
#     8   8   8   8   8   8   8   8
#     4  10  22  42  67  96 127 160 207 260 310 371
#     4  10  20  34  55  87 122 161 207 256 305 352
#     4  11  26  44  65  94 125 159 205 261 314 371
#     4   9  18  33  58  89 121 159 200 247 304 365
#     4  11  24  43  67  91 122 161 203 256 315 378
#     4  10  22  39  60  88 122 158 202 253 306 367
#     4  11  24  41  61  88 125 170 211 252 312 375
#     4  10  19  33  58  87 119 160 206 253 301 360
#
# _framework density 20.238657
#
# number of rings (size 3 to 8) (size 9 to 14) (size 15 to 20)
#    0.000    1.750    2.500    1.125    3.500    2.750 
#    0.000    0.000    0.000    0.750    0.000    0.000 
#    0.000    0.000    0.000    0.000    0.000    0.000 
#
# Total GULP energy -793479.609065 kJ/mol
# GULP energy per Si atom -12398.118892 kJ/mol
# Density = 2.019259 g / cm^3
# Si number density = 20.238657 Si / 1000 Ang^3
#
#
#
# Elastic Constant Matrix: (Units=GPa)
#
#
# Indices 1 2 3 4 5 6 
#
# 1 128.3759 51.4624 43.6763 0.0000 0.0000 0.0000
# 2 51.4624 108.1860 29.8321 0.0000 0.0000 0.0000
# 3 43.6763 29.8321 44.0461 0.0000 0.0000 0.0000
# 4 0.0000 0.0000 0.0000 10.6752 0.0000 0.0000
# 5 0.0000 0.0000 0.0000 0.0000 29.4043 0.0000
# 6 0.0000 0.0000 0.0000 0.0000 0.0000 33.8686
#
#
#
# Elastic Compliance Matrix: (Units=1/GPa)
#
#
# Indices 1 2 3 4 5 6 
#
# 1 0.012559 -0.003123 -0.010338 0.000000 0.000000 0.000000
# 2 -0.003123 0.012143 -0.005127 0.000000 0.000000 0.000000
# 3 -0.010338 -0.005127 0.036427 0.000000 0.000000 0.000000
# 4 0.000000 0.000000 0.000000 0.093675 0.000000 0.000000
# 5 0.000000 0.000000 0.000000 0.000000 0.034009 0.000000
# 6 0.000000 0.000000 0.000000 0.000000 0.000000 0.029526
#
#
# Mechanical properties :
#
#
# Convention : Reuss Voigt Hill
#
# Bulk Modulus (GPa) = 41.75012 58.94994 50.35003
# Shear Modulus (GPa) = 18.97537 25.16544 22.07040
#
# Velocity S-wave (km/s) = 3.06532 3.53006 3.30587
# Velocity P-wave (km/s) = 5.76211 6.76799 6.28521
#
# Compressibility (1/GPa) = 0.02395203
#
# Stress axis : x y z
#
# Youngs Moduli (GPa) = 79.62453 82.35275 27.45192
#
# Poissons Ratio (x) = 0.25722 0.28380
# Poissons Ratio (y) = 0.24870 0.14075
# Poissons Ratio (z) = 0.82316 0.42223
#
# Static dielectric constant tensor:
#      x y z
#    x 3.920230 0.000000 0.000000 
#    y 0.000000 3.752580 0.000000 
#    z 0.000000 0.000000 3.399850 
# 
# 
# High freq. dielectric constant tensor:
#      x y z
#    x 1.803270 0.000000 0.000000 
#    y 0.000000 1.792220 0.000000 
#    z 0.000000 0.000000 1.768550 
# 
# From -- ./inp_files/4506.got.cif
#   From: 2010.03.12/outbox.cif.g09.slc.cpg/sg55_3_cif.got.tgz:4506.got - 2010.04.16 15:19:21.
