data_PCOD8225128
_publ_section_title
;
Structure prediction by ZEFSAII (Michael W. Deem and Ramdas Pophale) SiO2 
 PCOD8225128
Probable space group: P B A M
;
_chemical_formula_sum "Si O2"
_cell_formula_units_Z 64
_cell_length_a 21.373877
_cell_length_b 15.587013
_cell_length_c 9.274050
_cell_angle_alpha 90.000000
_cell_angle_beta 90.000000
_cell_angle_gamma 90.000000
_cell_volume 3089.695188
_symmetry_space_group_name_H-M "P B A M"
_symmetry_group_IT_number 55
_symmetry_cell_setting 'orthorhombic'
loop_
_space_group_symop_operation_xyz
x,y,z
-x,-y,z
1/2+x,1/2-y,-z
1/2-x,1/2+y,-z
-x,-y,-z
x,y,-z
1/2-x,1/2+y,z
1/2+x,1/2-y,z
loop_
_atom_site_type_symbol
_atom_site_label
_atom_site_fract_x
_atom_site_fract_y
_atom_site_fract_z
Si Si1 0.695783 0.543215 0.168957
Si Si2 0.888157 0.811486 0.658576
Si Si3 0.576817 0.159446 0.832012
Si Si4 0.925957 0.495292 0.660689
Si Si5 0.066688 0.665373 0.163043
Si Si6 0.186202 0.761584 0.834612
Si Si7 0.934338 0.956175 0.163653
Si Si8 0.753456 0.889487 0.661332
O O1 0.703899 0.642641 0.220297
O O2 0.623683 0.518480 0.200950
O O3 0.744807 0.480890 0.253178
O O4 0.710794 0.534672 0.000000
O O5 0.912899 0.785017 0.500000
O O6 0.878615 0.728668 0.757977
O O7 0.937621 0.874204 0.733271
O O8 0.823891 0.860363 0.646792
O O9 0.598417 0.070180 0.763392
O O10 0.505012 0.185492 0.795493
O O11 0.590906 0.155648 0.000000
O O12 0.897551 0.503264 0.500000
O O13 0.904000 0.406073 0.730682
O O14 0.000000 0.500000 0.655353
O O15 0.110440 0.749452 0.176138
O O16 0.067495 0.628418 0.000000
O O17 0.217079 0.686090 0.742508
O O18 0.207949 0.750668 0.000000
O O19 0.927670 0.923075 0.000000
O O20 0.000000 0.000000 0.190005
O O21 0.725283 0.903437 0.500000
#
# Coordination Sequence:
#
# PCOD8225128 Si02
#       8
#     8   8   8   8   8   8   8   8
#     4   9  19  37  61  87 115 149 188 235 287 338
#     4  10  21  36  53  77 111 148 187 230 278 332
#     4  10  19  32  55  82 112 147 187 228 275 332
#     4   9  17  31  50  73 108 147 181 219 269 325
#     4   9  19  34  54  82 114 144 182 231 281 334
#     4  10  21  38  62  88 115 147 189 241 289 340
#     4   9  18  32  56  85 115 148 183 222 275 339
#     4  10  22  41  60  80 112 150 191 237 284 337
#
# _framework density 20.714017999999999
#
# number of rings (size 3 to 8) (size 9 to 14) (size 15 to 20)
#    0.000    2.500    0.000    1.500    1.750    4.750 
#    2.250    0.000    0.000    0.000    0.000    0.000 
#    0.000    0.000    0.000    0.000    0.000    0.000 
#
# Total GULP energy -793308.335069 kJ/mol
# GULP energy per Si atom -12395.442735 kJ/mol
# Density = 2.066687 g / cm^3
# Si number density = 20.714018 Si / 1000 Ang^3
#
#
#
# Elastic Constant Matrix: (Units=GPa)
#
#
# Indices 1 2 3 4 5 6 
#
# 1 21.2735 17.1502 13.2268 0.0000 0.0000 0.0000
# 2 17.1502 132.0102 61.2532 0.0000 0.0000 0.0000
# 3 13.2268 61.2532 121.8954 0.0000 0.0000 0.0000
# 4 0.0000 0.0000 0.0000 23.2360 0.0000 0.0000
# 5 0.0000 0.0000 0.0000 0.0000 15.1640 0.0000
# 6 0.0000 0.0000 0.0000 0.0000 0.0000 22.5148
#
#
#
# Elastic Compliance Matrix: (Units=1/GPa)
#
#
# Indices 1 2 3 4 5 6 
#
# 1 0.053338 -0.005534 -0.003007 0.000000 0.000000 0.000000
# 2 -0.005534 0.010453 -0.004652 0.000000 0.000000 0.000000
# 3 -0.003007 -0.004652 0.010868 0.000000 0.000000 0.000000
# 4 0.000000 0.000000 0.000000 0.043037 0.000000 0.000000
# 5 0.000000 0.000000 0.000000 0.000000 0.065946 0.000000
# 6 0.000000 0.000000 0.000000 0.000000 0.000000 0.044415
#
#
# Mechanical properties :
#
#
# Convention : Reuss Voigt Hill
#
# Bulk Modulus (GPa) = 20.71584 50.93771 35.82678
# Shear Modulus (GPa) = 18.48208 24.41955 21.45081
#
# Velocity S-wave (km/s) = 2.99030 3.43722 3.22152
# Velocity P-wave (km/s) = 4.68456 6.35586 5.58310
#
# Compressibility (1/GPa) = 0.04827223
#
# Stress axis : x y z
#
# Youngs Moduli (GPa) = 18.74845 95.66876 92.01597
#
# Poissons Ratio (x) = 0.52946 0.27665
# Poissons Ratio (y) = 0.10376 0.42806
# Poissons Ratio (z) = 0.05637 0.44506
#
# Static dielectric constant tensor:
#      x y z
#    x 3.548810 0.000000 0.000000 
#    y 0.000000 3.809160 0.000000 
#    z 0.000000 0.000000 4.062280 
# 
# 
# High freq. dielectric constant tensor:
#      x y z
#    x 1.793670 0.000000 0.000000 
#    y 0.000000 1.810280 0.000000 
#    z 0.000000 0.000000 1.812380 
# 
# From -- ./inp_files/9697.got.cif
#   From: 2010.03.12/outbox.cif.g09.slc.cpg/sg55_5_cif.got.tgz:9697.got - 2010.04.16 15:19:21.
