data_PCOD8225936
_publ_section_title
;
Structure prediction by ZEFSAII (Michael W. Deem and Ramdas Pophale) SiO2 
 PCOD8225936
Probable space group: P B A M
;
_chemical_formula_sum "Si O2"
_cell_formula_units_Z 64
_cell_length_a 12.112298
_cell_length_b 12.114581
_cell_length_c 22.192668
_cell_angle_alpha 90.000000
_cell_angle_beta 90.000000
_cell_angle_gamma 90.000000
_cell_volume 3256.450354
_symmetry_space_group_name_H-M "P B A M"
_symmetry_group_IT_number 55
_symmetry_cell_setting 'orthorhombic'
loop_
_space_group_symop_operation_xyz
x,y,z
-x,-y,z
1/2+x,1/2-y,-z
1/2-x,1/2+y,-z
-x,-y,-z
x,y,-z
1/2-x,1/2+y,z
1/2+x,1/2-y,z
loop_
_atom_site_type_symbol
_atom_site_label
_atom_site_fract_x
_atom_site_fract_y
_atom_site_fract_z
Si Si1 0.097570 0.761073 0.837371
Si Si2 0.585055 0.094870 0.569954
Si Si3 0.757479 0.111710 0.747691
Si Si4 0.178306 0.962216 0.618311
Si Si5 0.113611 0.937130 0.932814
Si Si6 0.033962 0.169082 0.626719
Si Si7 0.911005 0.795329 0.757922
Si Si8 0.256745 0.561440 0.165598
O O1 0.139484 0.847579 0.787232
O O2 0.087608 0.820464 0.901471
O O3 0.174882 0.658711 0.850404
O O4 0.981478 0.725909 0.807481
O O5 0.565464 0.117736 0.500000
O O6 0.711299 0.056374 0.579569
O O7 0.559456 0.207844 0.604775
O O8 0.500000 0.000000 0.592941
O O9 0.793025 0.047607 0.688300
O O10 0.682330 0.215375 0.730744
O O11 0.693157 0.026249 0.791722
O O12 0.084065 0.872478 0.600589
O O13 0.131563 0.085604 0.605941
O O14 0.204329 0.007804 0.896846
O O15 0.160284 0.915624 0.000000
O O16 0.000000 0.000000 0.936430
O O17 0.021562 0.164701 0.699330
O O18 0.860875 0.898107 0.794485
#
# Coordination Sequence:
#
# PCOD8225936 Si02
#       8
#     8   8   8   8   8   8   8   8
#     4  10  21  34  56  84 120 157 196 244 304 362
#     4  11  28  49  68  92 130 175 220 269 319 379
#     4  10  20  33  57  91 122 155 196 240 306 373
#     4  11  23  41  68 100 127 168 215 263 324 391
#     4  10  20  36  59  82 109 156 208 249 294 358
#     4  11  24  40  70 100 130 168 213 266 324 392
#     4  11  19  34  58  90 126 158 190 248 307 374
#     4  10  21  35  55  85 120 156 195 247 300 361
#
# _framework density 19.653300999999999
#
# number of rings (size 3 to 8) (size 9 to 14) (size 15 to 20)
#    0.000    1.500    5.000    0.000    1.750    3.000 
#    0.000    1.250    0.000    0.000    0.000    3.500 
#    0.000    0.000    0.000    0.000    0.000    0.000 
#
# Total GULP energy -793394.820237 kJ/mol
# GULP energy per Si atom -12396.794066 kJ/mol
# Density = 1.960857 g / cm^3
# Si number density = 19.653301 Si / 1000 Ang^3
#
#
#
# Elastic Constant Matrix: (Units=GPa)
#
#
# Indices 1 2 3 4 5 6 
#
# 1 75.7326 30.2704 16.1369 0.0000 0.0000 0.0000
# 2 30.2704 99.4491 28.6346 0.0000 0.0000 0.0000
# 3 16.1369 28.6346 76.9417 0.0000 0.0000 0.0000
# 4 0.0000 0.0000 0.0000 28.2170 0.0000 0.0000
# 5 0.0000 0.0000 0.0000 0.0000 19.3047 0.0000
# 6 0.0000 0.0000 0.0000 0.0000 0.0000 24.4738
#
#
#
# Elastic Compliance Matrix: (Units=1/GPa)
#
#
# Indices 1 2 3 4 5 6 
#
# 1 0.015217 -0.004158 -0.001644 0.000000 0.000000 0.000000
# 2 -0.004158 0.012399 -0.003742 0.000000 0.000000 0.000000
# 3 -0.001644 -0.003742 0.014734 0.000000 0.000000 0.000000
# 4 0.000000 0.000000 0.000000 0.035440 0.000000 0.000000
# 5 0.000000 0.000000 0.000000 0.000000 0.051801 0.000000
# 6 0.000000 0.000000 0.000000 0.000000 0.000000 0.040860
#
#
# Mechanical properties :
#
#
# Convention : Reuss Voigt Hill
#
# Bulk Modulus (GPa) = 42.99044 44.68968 43.84006
# Shear Modulus (GPa) = 25.34310 26.20454 25.77382
#
# Velocity S-wave (km/s) = 3.59487 3.65545 3.62529
# Velocity P-wave (km/s) = 6.25721 6.37219 6.31496
#
# Compressibility (1/GPa) = 0.02326098
#
# Stress axis : x y z
#
# Youngs Moduli (GPa) = 65.71714 80.65422 67.86891
#
# Poissons Ratio (x) = 0.33539 0.11156
# Poissons Ratio (y) = 0.27328 0.25397
# Poissons Ratio (z) = 0.10803 0.30182
#
# Static dielectric constant tensor:
#      x y z
#    x 3.531960 0.000000 0.000000 
#    y 0.000000 3.602820 0.000000 
#    z 0.000000 0.000000 3.622040 
# 
# 
# High freq. dielectric constant tensor:
#      x y z
#    x 1.758820 0.000000 0.000000 
#    y 0.000000 1.770080 0.000000 
#    z 0.000000 0.000000 1.759430 
# 
# From -- ./inp_files/23563.got.cif
#   From: 2010.03.12/outbox.cif.g09.slc.cpg/sg55_12_cif.got.tgz:23563.got - 2010.04.16 15:19:21.
