data_PCOD8225108
_publ_section_title
;
Structure prediction by ZEFSAII (Michael W. Deem and Ramdas Pophale) SiO2 
 PCOD8225108
Probable space group: P B A M
;
_chemical_formula_sum "Si O2"
_cell_formula_units_Z 48
_cell_length_a 10.242631
_cell_length_b 28.896378
_cell_length_c 8.705322
_cell_angle_alpha 90.000000
_cell_angle_beta 90.000000
_cell_angle_gamma 90.000000
_cell_volume 2576.557131
_symmetry_space_group_name_H-M "P B A M"
_symmetry_group_IT_number 55
_symmetry_cell_setting 'orthorhombic'
loop_
_space_group_symop_operation_xyz
x,y,z
-x,-y,z
1/2+x,1/2-y,-z
1/2-x,1/2+y,-z
-x,-y,-z
x,y,-z
1/2-x,1/2+y,z
1/2+x,1/2-y,z
loop_
_atom_site_type_symbol
_atom_site_label
_atom_site_fract_x
_atom_site_fract_y
_atom_site_fract_z
Si Si1 0.505981 0.721106 0.180835
Si Si2 0.869998 0.473377 0.680790
Si Si3 0.279209 0.117258 0.179704
Si Si4 0.274835 0.214728 0.319199
Si Si5 0.121575 0.971504 0.681094
Si Si6 0.017832 0.884597 0.176728
O O1 0.606276 0.752454 0.272911
O O2 0.357735 0.730611 0.234435
O O3 0.546235 0.668461 0.219103
O O4 0.513796 0.731449 0.000000
O O5 0.858431 0.463953 0.500000
O O6 0.872273 0.424243 0.766896
O O7 0.753130 0.505324 0.744167
O O8 0.000000 0.500000 0.725650
O O9 0.317686 0.163240 0.271500
O O10 0.131060 0.103180 0.220071
O O11 0.295989 0.127716 0.000000
O O12 0.251007 0.217302 0.500000
O O13 0.120036 0.973979 0.500000
O O14 0.114330 0.917819 0.729260
O O15 0.000000 0.000000 0.751523
O O16 0.045318 0.894079 0.000000
#
# Coordination Sequence:
#
# PCOD8225108 Si02
#       6
#     8   8   8   8   8   8
#     4  10  21  40  61  85 118 154 191 236 291 348
#     4  10  21  37  54  77 112 148 183 231 284 336
#     4  10  20  36  58  82 110 149 190 230 280 342
#     4  11  22  38  62  90 116 150 193 240 290 346
#     4  10  19  32  54  81 106 140 182 226 274 324
#     4   9  19  34  56  83 108 141 184 230 276 327
#
# _framework density 18.629511000000001
#
# number of rings (size 3 to 8) (size 9 to 14) (size 15 to 20)
#    0.000    2.000    1.667    3.500    0.000    4.667 
#    3.000    0.000    0.000    0.000    0.000    0.000 
#    0.000    0.000    0.000    0.000    0.000    0.000 
#
# Total GULP energy -595315.114851 kJ/mol
# GULP energy per Si atom -12402.398226 kJ/mol
# Density = 1.858711 g / cm^3
# Si number density = 18.629511 Si / 1000 Ang^3
#
#
#
# Elastic Constant Matrix: (Units=GPa)
#
#
# Indices 1 2 3 4 5 6 
#
# 1 97.1131 60.2164 22.3093 0.0000 0.0000 0.0000
# 2 60.2164 114.0077 30.2592 0.0000 0.0000 0.0000
# 3 22.3093 30.2592 56.2075 0.0000 0.0000 0.0000
# 4 0.0000 0.0000 0.0000 37.0882 0.0000 0.0000
# 5 0.0000 0.0000 0.0000 0.0000 24.8330 0.0000
# 6 0.0000 0.0000 0.0000 0.0000 0.0000 32.0133
#
#
#
# Elastic Compliance Matrix: (Units=1/GPa)
#
#
# Indices 1 2 3 4 5 6 
#
# 1 0.015509 -0.007651 -0.002037 0.000000 0.000000 0.000000
# 2 -0.007651 0.014008 -0.004504 0.000000 0.000000 0.000000
# 3 -0.002037 -0.004504 0.021025 0.000000 0.000000 0.000000
# 4 0.000000 0.000000 0.000000 0.026963 0.000000 0.000000
# 5 0.000000 0.000000 0.000000 0.000000 0.040269 0.000000
# 6 0.000000 0.000000 0.000000 0.000000 0.000000 0.031237
#
#
# Mechanical properties :
#
#
# Convention : Reuss Voigt Hill
#
# Bulk Modulus (GPa) = 45.13190 54.76646 49.94918
# Shear Modulus (GPa) = 27.05902 29.08979 28.07440
#
# Velocity S-wave (km/s) = 3.81528 3.95586 3.88620
# Velocity P-wave (km/s) = 6.60962 7.09412 6.85615
#
# Compressibility (1/GPa) = 0.02215728
#
# Stress axis : x y z
#
# Youngs Moduli (GPa) = 64.47714 71.38761 47.56331
#
# Poissons Ratio (x) = 0.54620 0.09688
# Poissons Ratio (y) = 0.49332 0.21424
# Poissons Ratio (z) = 0.13133 0.32156
#
# Static dielectric constant tensor:
#      x y z
#    x 3.369600 0.000000 0.000000 
#    y 0.000000 3.485300 0.000000 
#    z 0.000000 0.000000 3.333610 
# 
# 
# High freq. dielectric constant tensor:
#      x y z
#    x 1.709010 0.000000 0.000000 
#    y 0.000000 1.731290 0.000000 
#    z 0.000000 0.000000 1.723460 
# 
# From -- ./inp_files/2839.got.cif
#   From: 2010.03.12/outbox.cif.g09.slc.cpg/sg55_2_cif.got.tgz:2839.got - 2010.04.16 15:19:21.
