data_PCOD8225156
_publ_section_title
;
Structure prediction by ZEFSAII (Michael W. Deem and Ramdas Pophale) SiO2 
 PCOD8225156
Probable space group: P B A M
;
_chemical_formula_sum "Si O2"
_cell_formula_units_Z 48
_cell_length_a 30.077863
_cell_length_b 10.092956
_cell_length_c 8.757450
_cell_angle_alpha 90.000000
_cell_angle_beta 90.000000
_cell_angle_gamma 90.000000
_cell_volume 2658.538924
_symmetry_space_group_name_H-M "P B A M"
_symmetry_group_IT_number 55
_symmetry_cell_setting 'orthorhombic'
loop_
_space_group_symop_operation_xyz
x,y,z
-x,-y,z
1/2+x,1/2-y,-z
1/2-x,1/2+y,-z
-x,-y,-z
x,y,-z
1/2-x,1/2+y,z
1/2+x,1/2-y,z
loop_
_atom_site_type_symbol
_atom_site_label
_atom_site_fract_x
_atom_site_fract_y
_atom_site_fract_z
Si Si1 0.210063 0.344806 0.179875
Si Si2 0.046391 0.154832 0.319511
Si Si3 0.881295 0.351591 0.819388
Si Si4 0.553495 0.642923 0.319356
Si Si5 0.884684 0.629694 0.318743
Si Si6 0.282053 0.142870 0.178162
O O1 0.163539 0.323834 0.263690
O O2 0.244812 0.238974 0.250755
O O3 0.229821 0.490511 0.214506
O O4 0.201666 0.326251 0.000000
O O5 0.047502 0.155632 0.500000
O O6 0.079761 0.264639 0.252885
O O7 0.996011 0.186702 0.268046
O O8 0.061324 0.008485 0.266191
O O9 0.911659 0.230240 0.772047
O O10 0.899013 0.487103 0.745388
O O11 0.831224 0.323977 0.758213
O O12 0.881182 0.371175 0.000000
O O13 0.560496 0.661248 0.500000
O O14 0.885564 0.624233 0.500000
O O15 0.281794 0.172132 0.000000
#
# Coordination Sequence:
#
# PCOD8225156 Si02
#       6
#     8   8   8   8   8   8
#     4   9  17  32  50  69  93 126 163 200 238 285
#     4   8  17  33  53  73  97 129 166 201 246 303
#     4  10  20  34  50  74 103 132 165 203 243 292
#     4   9  17  34  55  73  95 129 167 206 247 294
#     4  10  19  33  51  73  99 130 164 202 244 292
#     4   8  16  30  48  66  91 124 157 190 235 288
#
# _framework density 18.055029000000001
#
# number of rings (size 3 to 8) (size 9 to 14) (size 15 to 20)
#    0.000    3.000    0.000    3.000    0.000    2.000 
#    0.000   14.167    0.000    0.000    0.000    0.000 
#    0.000    0.000    0.000    0.000    0.000    0.000 
#
# Total GULP energy -595036.017349 kJ/mol
# GULP energy per Si atom -12396.583695 kJ/mol
# Density = 1.801394 g / cm^3
# Si number density = 18.055029 Si / 1000 Ang^3
#
#
#
# Elastic Constant Matrix: (Units=GPa)
#
#
# Indices 1 2 3 4 5 6 
#
# 1 62.5857 42.2631 18.2806 0.0000 0.0000 0.0000
# 2 42.2631 80.4772 19.4836 0.0000 0.0000 0.0000
# 3 18.2806 19.4836 39.9702 0.0000 0.0000 0.0000
# 4 0.0000 0.0000 0.0000 21.6985 0.0000 0.0000
# 5 0.0000 0.0000 0.0000 0.0000 25.6037 0.0000
# 6 0.0000 0.0000 0.0000 0.0000 0.0000 45.2616
#
#
#
# Elastic Compliance Matrix: (Units=1/GPa)
#
#
# Indices 1 2 3 4 5 6 
#
# 1 0.025938 -0.012188 -0.005922 0.000000 0.000000 0.000000
# 2 -0.012188 0.019815 -0.004085 0.000000 0.000000 0.000000
# 3 -0.005922 -0.004085 0.029718 0.000000 0.000000 0.000000
# 4 0.000000 0.000000 0.000000 0.046086 0.000000 0.000000
# 5 0.000000 0.000000 0.000000 0.000000 0.039057 0.000000
# 6 0.000000 0.000000 0.000000 0.000000 0.000000 0.022094
#
#
# Mechanical properties :
#
#
# Convention : Reuss Voigt Hill
#
# Bulk Modulus (GPa) = 32.17257 38.12085 35.14671
# Shear Modulus (GPa) = 21.05633 25.37984 23.21808
#
# Velocity S-wave (km/s) = 3.41872 3.75333 3.58992
# Velocity P-wave (km/s) = 5.78285 6.32003 6.05740
#
# Compressibility (1/GPa) = 0.03108238
#
# Stress axis : x y z
#
# Youngs Moduli (GPa) = 38.55341 50.46594 33.64938
#
# Poissons Ratio (x) = 0.61507 0.19927
# Poissons Ratio (y) = 0.46988 0.13745
# Poissons Ratio (z) = 0.22831 0.20615
#
# Static dielectric constant tensor:
#      x y z
#    x 3.609910 0.000000 0.000000 
#    y 0.000000 3.585540 0.000000 
#    z 0.000000 0.000000 2.998210 
# 
# 
# High freq. dielectric constant tensor:
#      x y z
#    x 1.703090 0.000000 0.000000 
#    y 0.000000 1.705920 0.000000 
#    z 0.000000 0.000000 1.669210 
# 
# From -- ./inp_files/10532.got.cif
#   From: 2010.03.12/outbox.cif.g09.slc.cpg/sg55_6_cif.got.tgz:10532.got - 2010.04.16 15:19:21.
