data_PCOD8225570
_publ_section_title
;
Structure prediction by ZEFSAII (Michael W. Deem and Ramdas Pophale) SiO2 
 PCOD8225570
Probable space group: P B A M
;
_chemical_formula_sum "Si O2"
_cell_formula_units_Z 48
_cell_length_a 15.303892
_cell_length_b 11.268174
_cell_length_c 13.377963
_cell_angle_alpha 90.000000
_cell_angle_beta 90.000000
_cell_angle_gamma 90.000000
_cell_volume 2306.988488
_symmetry_space_group_name_H-M "P B A M"
_symmetry_group_IT_number 55
_symmetry_cell_setting 'orthorhombic'
loop_
_space_group_symop_operation_xyz
x,y,z
-x,-y,z
1/2+x,1/2-y,-z
1/2-x,1/2+y,-z
-x,-y,-z
x,y,-z
1/2-x,1/2+y,z
1/2+x,1/2-y,z
loop_
_atom_site_type_symbol
_atom_site_label
_atom_site_fract_x
_atom_site_fract_y
_atom_site_fract_z
Si Si1 0.710019 0.115778 0.388087
Si Si2 0.638161 0.734716 0.293764
Si Si3 0.279940 0.047901 0.198818
Si Si4 0.092301 0.015970 0.795168
Si Si5 0.552557 0.251602 0.300676
Si Si6 0.571843 0.096494 0.113318
O O1 0.711262 0.063512 0.500000
O O2 0.788090 0.212222 0.377335
O O3 0.618702 0.184068 0.372666
O O4 0.721299 0.008196 0.310655
O O5 0.674501 0.824619 0.209671
O O6 0.619654 0.613009 0.238719
O O7 0.545602 0.778162 0.340235
O O8 0.181514 0.064804 0.152706
O O9 0.333196 0.963940 0.124143
O O10 0.070696 0.106545 0.702949
O O11 0.000000 0.000000 0.857583
O O12 0.562742 0.208761 0.185577
O O13 0.500000 0.000000 0.144593
O O14 0.559092 0.140721 0.000000
#
# Coordination Sequence:
#
# PCOD8225570 Si02
#       6
#     8   8   8   8   8   8
#     4  10  22  35  54  84 115 153 199 244 295 355
#     4  10  19  35  58  82 110 158 195 241 296 358
#     4  10  19  37  59  82 115 152 195 248 299 355
#     4   9  19  35  60  83 110 155 194 233 300 361
#     4  10  19  37  60  83 120 153 194 247 304 354
#     4  10  20  35  61  92 119 153 198 247 302 365
#
# _framework density 20.806345
#
# number of rings (size 3 to 8) (size 9 to 14) (size 15 to 20)
#    0.000    2.167    3.333    0.000    0.000    1.333 
#    0.000    1.667    0.000   27.500    0.000    0.000 
#    0.000    0.000    0.000    0.000    0.000    0.000 
#
# Total GULP energy -594635.417567 kJ/mol
# GULP energy per Si atom -12388.237866 kJ/mol
# Density = 2.075899 g / cm^3
# Si number density = 20.806345 Si / 1000 Ang^3
#
#
#
# Elastic Constant Matrix: (Units=GPa)
#
#
# Indices 1 2 3 4 5 6 
#
# 1 196.1440 26.6852 5.2775 0.0000 0.0000 0.0000
# 2 26.6852 88.5269 14.8483 0.0000 0.0000 0.0000
# 3 5.2775 14.8483 66.8480 0.0000 0.0000 0.0000
# 4 0.0000 0.0000 0.0000 10.3007 0.0000 0.0000
# 5 0.0000 0.0000 0.0000 0.0000 11.1227 0.0000
# 6 0.0000 0.0000 0.0000 0.0000 0.0000 36.0666
#
#
#
# Elastic Compliance Matrix: (Units=1/GPa)
#
#
# Indices 1 2 3 4 5 6 
#
# 1 0.005317 -0.001592 -0.000066 0.000000 0.000000 0.000000
# 2 -0.001592 0.012210 -0.002586 0.000000 0.000000 0.000000
# 3 -0.000066 -0.002586 0.015539 0.000000 0.000000 0.000000
# 4 0.000000 0.000000 0.000000 0.097081 0.000000 0.000000
# 5 0.000000 0.000000 0.000000 0.000000 0.089906 0.000000
# 6 0.000000 0.000000 0.000000 0.000000 0.000000 0.027726
#
#
# Mechanical properties :
#
#
# Convention : Reuss Voigt Hill
#
# Bulk Modulus (GPa) = 40.68843 49.46009 45.07426
# Shear Modulus (GPa) = 18.90648 31.81185 25.35916
#
# Velocity S-wave (km/s) = 3.01772 3.91442 3.49495
# Velocity P-wave (km/s) = 5.63386 6.65233 6.16417
#
# Compressibility (1/GPa) = 0.02457701
#
# Stress axis : x y z
#
# Youngs Moduli (GPa) = 188.09014 81.90317 64.35413
#
# Poissons Ratio (x) = 0.13035 0.00426
# Poissons Ratio (y) = 0.29935 0.16644
# Poissons Ratio (z) = 0.01246 0.21183
#
# Static dielectric constant tensor:
#      x y z
#    x 4.945870 0.000000 0.000000 
#    y 0.000000 3.796040 0.000000 
#    z 0.000000 0.000000 3.047160 
# 
# 
# High freq. dielectric constant tensor:
#      x y z
#    x 1.854470 0.000000 0.000000 
#    y 0.000000 1.822750 0.000000 
#    z 0.000000 0.000000 1.736570 
# 
# From -- ./inp_files/18269.got.cif
#   From: 2010.03.12/outbox.cif.g09.slc.cpg/sg55_10_cif.got.tgz:18269.got - 2010.04.16 15:19:21.
