data_PCOD8225067
_publ_section_title
;
Structure prediction by ZEFSAII (Michael W. Deem and Ramdas Pophale) SiO2 
 PCOD8225067
Probable space group: P B A M
;
_chemical_formula_sum "Si O2"
_cell_formula_units_Z 52
_cell_length_a 5.050379
_cell_length_b 17.102473
_cell_length_c 31.709556
_cell_angle_alpha 90.000000
_cell_angle_beta 90.000000
_cell_angle_gamma 90.000000
_cell_volume 2738.880254
_symmetry_space_group_name_H-M "P B A M"
_symmetry_group_IT_number 55
_symmetry_cell_setting 'orthorhombic'
loop_
_space_group_symop_operation_xyz
x,y,z
-x,-y,z
1/2+x,1/2-y,-z
1/2-x,1/2+y,-z
-x,-y,-z
x,y,-z
1/2-x,1/2+y,z
1/2+x,1/2-y,z
loop_
_atom_site_type_symbol
_atom_site_label
_atom_site_fract_x
_atom_site_fract_y
_atom_site_fract_z
Si Si1 0.005033 0.090906 0.865807
Si Si2 0.601144 0.695443 0.212374
Si Si3 0.654637 0.697292 0.606375
Si Si4 0.993352 0.591914 0.918659
Si Si5 0.075663 0.696389 0.000000
Si Si6 0.258095 0.948790 0.548320
Si Si7 0.216563 0.799131 0.698451
O O1 0.292372 0.115360 0.883026
O O2 0.928780 0.128212 0.821582
O O3 0.793112 0.115721 0.901180
O O4 0.000000 0.000000 0.856830
O O5 0.362074 0.754349 0.206118
O O6 0.625833 0.654320 0.259120
O O7 0.362044 0.732005 0.599893
O O8 0.720467 0.631071 0.573105
O O9 0.667060 0.658639 0.653515
O O10 0.000000 0.500000 0.929917
O O11 0.047025 0.641325 0.959903
O O12 0.365186 0.733958 0.000000
O O13 0.315960 0.925725 0.500000
O O14 0.500000 0.000000 0.566731
O O15 0.000000 0.000000 0.553132
O O16 0.527955 0.778209 0.699849
#
# Coordination Sequence:
#
# PCOD8225067 Si02
#       7
#     8   8   8   8   4   8   8
#     4  10  21  36  55  78 104 135 172 210 247 296
#     4  10  19  32  53  77 103 136 170 207 255 307
#     4  10  19  33  55  78 102 136 182 227 259 310
#     4  10  22  40  57  74 104 143 170 197 252 312
#     4  12  25  38  57  84 108 128 166 220 253 286
#     4  10  21  36  52  74 108 143 173 216 277 331
#     4   8  16  30  48  73 102 132 167 209 259 305
#
# _framework density 18.985859999999999
#
# number of rings (size 3 to 8) (size 9 to 14) (size 15 to 20)
#    0.000    2.154    0.000    3.000    0.000    4.308 
#    0.000    3.846    0.000    2.769    0.000    0.000 
#    0.000    0.000    0.000    0.000    0.000    0.000 
#
# Total GULP energy -644505.383996 kJ/mol
# GULP energy per Si atom -12394.334308 kJ/mol
# Density = 1.894265 g / cm^3
# Si number density = 18.985860 Si / 1000 Ang^3
#
#
#
# Elastic Constant Matrix: (Units=GPa)
#
#
# Indices 1 2 3 4 5 6 
#
# 1 104.1657 20.8058 18.6467 0.0000 0.0000 0.0000
# 2 20.8058 55.0446 60.2579 0.0000 0.0000 0.0000
# 3 18.6467 60.2579 126.9397 0.0000 0.0000 0.0000
# 4 0.0000 0.0000 0.0000 -0.6204 0.0000 0.0000
# 5 0.0000 0.0000 0.0000 0.0000 84.1418 0.0000
# 6 0.0000 0.0000 0.0000 0.0000 0.0000 22.6482
#
#
#
# Elastic Compliance Matrix: (Units=1/GPa)
#
#
# Indices 1 2 3 4 5 6 
#
# 1 0.010414 -0.004709 0.000705 0.000000 0.000000 0.000000
# 2 -0.004709 0.039950 -0.018272 0.000000 0.000000 0.000000
# 3 0.000705 -0.018272 0.016448 0.000000 0.000000 0.000000
# 4 0.000000 0.000000 0.000000 -1.611852 0.000000 0.000000
# 5 0.000000 0.000000 0.000000 0.000000 0.011885 0.000000
# 6 0.000000 0.000000 0.000000 0.000000 0.000000 0.044154
#
#
# Mechanical properties :
#
#
# Convention : Reuss Voigt Hill
#
# Bulk Modulus (GPa) = 44.92181 53.95233 49.43707
# Shear Modulus (GPa) = -3.47940 33.66323 15.09192
#
# Velocity S-wave (km/s) = -1.35521 4.21535 2.82246
# Velocity P-wave (km/s) = 4.61121 7.22295 6.05947
#
# Compressibility (1/GPa) = 0.02226090
#
# Stress axis : x y z
#
# Youngs Moduli (GPa) = 96.02182 25.03137 60.79761
#
# Poissons Ratio (x) = 0.11786 -0.04288
# Poissons Ratio (y) = 0.45212 1.11092
# Poissons Ratio (z) = -0.06773 0.45738
#
# Static dielectric constant tensor:
#      x y z
#    x 3.881890 0.000000 0.000000 
#    y 0.000000 3.085000 0.000000 
#    z 0.000000 0.000000 3.763580 
# 
# 
# High freq. dielectric constant tensor:
#      x y z
#    x 1.765140 0.000000 0.000000 
#    y 0.000000 1.696730 0.000000 
#    z 0.000000 0.000000 1.753230 
# 
# From -- ./inp_files/23841.got.cif
#   From: 2010.03.12/outbox.cif.g09.slc.cpg/sg55_12_cif.got.tgz:23841.got - 2010.04.16 15:19:21.
