data_PCOD8225325
_publ_section_title
;
Structure prediction by ZEFSAII (Michael W. Deem and Ramdas Pophale) SiO2 
 PCOD8225325
Probable space group: P B A M
;
_chemical_formula_sum "Si O2"
_cell_formula_units_Z 48
_cell_length_a 14.601813
_cell_length_b 19.985855
_cell_length_c 8.682492
_cell_angle_alpha 90.000000
_cell_angle_beta 90.000000
_cell_angle_gamma 90.000000
_cell_volume 2533.809186
_symmetry_space_group_name_H-M "P B A M"
_symmetry_group_IT_number 55
_symmetry_cell_setting 'orthorhombic'
loop_
_space_group_symop_operation_xyz
x,y,z
-x,-y,z
1/2+x,1/2-y,-z
1/2-x,1/2+y,-z
-x,-y,-z
x,y,-z
1/2-x,1/2+y,z
1/2+x,1/2-y,z
loop_
_atom_site_type_symbol
_atom_site_label
_atom_site_fract_x
_atom_site_fract_y
_atom_site_fract_z
Si Si1 0.717889 0.474399 0.176822
Si Si2 0.423324 0.051325 0.822224
Si Si3 0.071775 0.943378 0.680209
Si Si4 0.608154 0.809615 0.320718
Si Si5 0.314815 0.664574 0.679076
Si Si6 0.997850 0.808857 0.179160
O O1 0.825914 0.484887 0.201042
O O2 0.667182 0.541695 0.232104
O O3 0.680496 0.413540 0.279337
O O4 0.694827 0.458373 0.000000
O O5 0.430547 0.117311 0.718815
O O6 0.500000 0.000000 0.763944
O O7 0.438787 0.071523 0.000000
O O8 0.090684 0.944868 0.500000
O O9 0.036366 0.870879 0.725444
O O10 0.000000 0.000000 0.731717
O O11 0.591320 0.795004 0.500000
O O12 0.715763 0.805369 0.278344
O O13 0.556522 0.756239 0.217022
O O14 0.336572 0.672234 0.500000
O O15 0.392245 0.704512 0.773646
O O16 0.004821 0.824869 0.000000
#
# Coordination Sequence:
#
# PCOD8225325 Si02
#       6
#     8   8   8   8   8   8
#     4  10  19  33  57  86 114 147 189 236 284 339
#     4   9  19  38  62  87 117 152 191 236 286 340
#     4  11  22  36  57  84 117 153 189 235 288 343
#     4  10  22  40  61  85 116 152 193 238 286 346
#     4  10  20  37  60  83 111 150 190 231 286 345
#     4  12  24  38  60  86 116 152 192 240 290 345
#
# _framework density 18.943809000000002
#
# number of rings (size 3 to 8) (size 9 to 14) (size 15 to 20)
#    0.000    1.667    1.667    3.500    0.000    3.667 
#    3.000    0.000    0.000    0.000    0.000    0.000 
#    0.000    0.000    0.000    0.000    0.000    0.000 
#
# Total GULP energy -595436.214812 kJ/mol
# GULP energy per Si atom -12404.921142 kJ/mol
# Density = 1.890069 g / cm^3
# Si number density = 18.943809 Si / 1000 Ang^3
#
#
#
# Elastic Constant Matrix: (Units=GPa)
#
#
# Indices 1 2 3 4 5 6 
#
# 1 114.6236 55.3437 36.0629 0.0000 0.0000 0.0000
# 2 55.3437 76.5691 21.0663 0.0000 0.0000 0.0000
# 3 36.0629 21.0663 55.9475 0.0000 0.0000 0.0000
# 4 0.0000 0.0000 0.0000 33.1420 0.0000 0.0000
# 5 0.0000 0.0000 0.0000 0.0000 31.2191 0.0000
# 6 0.0000 0.0000 0.0000 0.0000 0.0000 35.1495
#
#
#
# Elastic Compliance Matrix: (Units=1/GPa)
#
#
# Indices 1 2 3 4 5 6 
#
# 1 0.015160 -0.009224 -0.006298 0.000000 0.000000 0.000000
# 2 -0.009224 0.020182 -0.001653 0.000000 0.000000 0.000000
# 3 -0.006298 -0.001653 0.022556 0.000000 0.000000 0.000000
# 4 0.000000 0.000000 0.000000 0.030173 0.000000 0.000000
# 5 0.000000 0.000000 0.000000 0.000000 0.032032 0.000000
# 6 0.000000 0.000000 0.000000 0.000000 0.000000 0.028450
#
#
# Mechanical properties :
#
#
# Convention : Reuss Voigt Hill
#
# Bulk Modulus (GPa) = 42.47035 52.45399 47.46217
# Shear Modulus (GPa) = 26.21175 28.87994 27.54584
#
# Velocity S-wave (km/s) = 3.72379 3.90873 3.81738
# Velocity P-wave (km/s) = 6.39973 6.93687 6.67371
#
# Compressibility (1/GPa) = 0.02354584
#
# Stress axis : x y z
#
# Youngs Moduli (GPa) = 65.96465 49.54815 44.33351
#
# Poissons Ratio (x) = 0.45705 0.27923
# Poissons Ratio (y) = 0.60849 0.07330
# Poissons Ratio (z) = 0.41547 0.08193
#
# Static dielectric constant tensor:
#      x y z
#    x 3.702670 0.000000 0.000000 
#    y 0.000000 3.241660 0.000000 
#    z 0.000000 0.000000 3.483870 
# 
# 
# High freq. dielectric constant tensor:
#      x y z
#    x 1.745590 0.000000 0.000000 
#    y 0.000000 1.714960 0.000000 
#    z 0.000000 0.000000 1.747320 
# 
# From -- ./inp_files/5679.got.cif
#   From: 2010.03.12/outbox.cif.g09.slc.cpg/sg55_3_cif.got.tgz:5679.got - 2010.04.16 15:19:21.
