data_PCOD8225874
_publ_section_title
;
Structure prediction by ZEFSAII (Michael W. Deem and Ramdas Pophale) SiO2 
 PCOD8225874
Probable space group: P B A M
;
_chemical_formula_sum "Si O2"
_cell_formula_units_Z 40
_cell_length_a 13.096965
_cell_length_b 18.163444
_cell_length_c 9.350369
_cell_angle_alpha 90.000000
_cell_angle_beta 90.000000
_cell_angle_gamma 90.000000
_cell_volume 2224.321790
_symmetry_space_group_name_H-M "P B A M"
_symmetry_group_IT_number 55
_symmetry_cell_setting 'orthorhombic'
loop_
_space_group_symop_operation_xyz
x,y,z
-x,-y,z
1/2+x,1/2-y,-z
1/2-x,1/2+y,-z
-x,-y,-z
x,y,-z
1/2-x,1/2+y,z
1/2+x,1/2-y,z
loop_
_atom_site_type_symbol
_atom_site_label
_atom_site_fract_x
_atom_site_fract_y
_atom_site_fract_z
Si Si1 0.826302 0.678566 0.666313
Si Si2 0.889984 0.840078 0.334024
Si Si3 0.313244 0.523525 0.166244
Si Si4 0.113492 0.890411 0.336081
Si Si5 0.096163 0.453869 0.834660
O O1 0.850166 0.668894 0.500000
O O2 0.852538 0.760415 0.717870
O O3 0.707808 0.662858 0.702421
O O4 0.899258 0.622249 0.749039
O O5 0.863458 0.853775 0.500000
O O6 0.829326 0.898155 0.239123
O O7 0.010997 0.845032 0.306381
O O8 0.386807 0.462972 0.238148
O O9 0.196231 0.502353 0.192797
O O10 0.341167 0.528154 0.000000
O O11 0.120047 0.917220 0.500000
O O12 0.000000 0.500000 0.777562
O O13 0.082946 0.433407 0.000000
#
# Coordination Sequence:
#
# PCOD8225874 Si02
#       5
#     8   8   8   8   8
#     4   9  19  34  51  74 101 129 165 204 241 289
#     4  10  20  33  51  75 102 131 162 201 249 293
#     4  10  20  33  51  75  99 127 167 206 240 289
#     4   9  18  34  52  70  99 134 162 197 247 293
#     4   9  19  36  54  72  99 133 165 201 247 294
#
# _framework density 17.98301
#
# number of rings (size 3 to 8) (size 9 to 14) (size 15 to 20)
#    0.000    2.600    0.000    1.200    0.000    6.800 
#    0.000    2.000    0.000    0.000    0.000    0.000 
#    0.000    0.000    0.000    0.000    0.000    0.000 
#
# Total GULP energy -496156.925430 kJ/mol
# GULP energy per Si atom -12403.923136 kJ/mol
# Density = 1.794208 g / cm^3
# Si number density = 17.983010 Si / 1000 Ang^3
#
#
#
# Elastic Constant Matrix: (Units=GPa)
#
#
# Indices 1 2 3 4 5 6 
#
# 1 72.8746 65.3843 42.7433 0.0000 0.0000 0.0000
# 2 65.3843 177.2067 78.2575 0.0000 0.0000 0.0000
# 3 42.7433 78.2575 78.5321 0.0000 0.0000 0.0000
# 4 0.0000 0.0000 0.0000 14.1568 0.0000 0.0000
# 5 0.0000 0.0000 0.0000 0.0000 24.0862 0.0000
# 6 0.0000 0.0000 0.0000 0.0000 0.0000 29.3183
#
#
#
# Elastic Compliance Matrix: (Units=1/GPa)
#
#
# Indices 1 2 3 4 5 6 
#
# 1 0.022535 -0.005176 -0.007107 0.000000 0.000000 0.000000
# 2 -0.005176 0.011267 -0.008411 0.000000 0.000000 0.000000
# 3 -0.007107 -0.008411 0.024983 0.000000 0.000000 0.000000
# 4 0.000000 0.000000 0.000000 0.070637 0.000000 0.000000
# 5 0.000000 0.000000 0.000000 0.000000 0.041518 0.000000
# 6 0.000000 0.000000 0.000000 0.000000 0.000000 0.034108
#
#
# Mechanical properties :
#
#
# Convention : Reuss Voigt Hill
#
# Bulk Modulus (GPa) = 57.47990 77.93152 67.70571
# Shear Modulus (GPa) = 19.82273 22.99414 21.40844
#
# Velocity S-wave (km/s) = 3.32370 3.57971 3.45408
# Velocity P-wave (km/s) = 6.83828 7.77921 7.32387
#
# Compressibility (1/GPa) = 0.01739739
#
# Stress axis : x y z
#
# Youngs Moduli (GPa) = 44.37560 88.75322 40.02692
#
# Poissons Ratio (x) = 0.45939 0.28448
# Poissons Ratio (y) = 0.22969 0.33665
# Poissons Ratio (z) = 0.31539 0.74647
#
# Static dielectric constant tensor:
#      x y z
#    x 3.385700 0.000000 0.000000 
#    y 0.000000 3.318270 0.000000 
#    z 0.000000 0.000000 3.329170 
# 
# 
# High freq. dielectric constant tensor:
#      x y z
#    x 1.699870 0.000000 0.000000 
#    y 0.000000 1.694240 0.000000 
#    z 0.000000 0.000000 1.693920 
# 
# From -- ./inp_files/3604.got.cif
#   From: 2010.03.12/outbox.cif.g09.slc.cpg/sg55_2_cif.got.tgz:3604.got - 2010.04.16 15:19:21.
