data_PCOD8225588
_publ_section_title
;
Structure prediction by ZEFSAII (Michael W. Deem and Ramdas Pophale) SiO2 
 PCOD8225588
Probable space group: P B A M
;
_chemical_formula_sum "Si O2"
_cell_formula_units_Z 64
_cell_length_a 19.295698
_cell_length_b 19.716708
_cell_length_c 9.144475
_cell_angle_alpha 90.000000
_cell_angle_beta 90.000000
_cell_angle_gamma 90.000000
_cell_volume 3478.993961
_symmetry_space_group_name_H-M "P B A M"
_symmetry_group_IT_number 55
_symmetry_cell_setting 'orthorhombic'
loop_
_space_group_symop_operation_xyz
x,y,z
-x,-y,z
1/2+x,1/2-y,-z
1/2-x,1/2+y,-z
-x,-y,-z
x,y,-z
1/2-x,1/2+y,z
1/2+x,1/2-y,z
loop_
_atom_site_type_symbol
_atom_site_label
_atom_site_fract_x
_atom_site_fract_y
_atom_site_fract_z
Si Si1 0.685430 0.589361 0.666536
Si Si2 0.971978 0.074036 0.669481
Si Si3 0.222351 0.146460 0.171608
Si Si4 0.910461 0.684483 0.327770
Si Si5 0.434666 0.953748 0.828526
Si Si6 0.743062 0.223872 0.664943
Si Si7 0.713411 0.992050 0.172408
Si Si8 0.066727 0.179483 0.172905
O O1 0.699892 0.566866 0.500000
O O2 0.608040 0.572478 0.714533
O O3 0.695675 0.669942 0.684835
O O4 0.738800 0.551575 0.769327
O O5 0.982624 0.094411 0.500000
O O6 0.009445 0.127321 0.772997
O O7 0.000000 0.000000 0.703619
O O8 0.261088 0.212122 0.234890
O O9 0.259107 0.079501 0.236985
O O10 0.141602 0.148766 0.217283
O O11 0.231638 0.149031 0.000000
O O12 0.925856 0.685517 0.500000
O O13 0.941464 0.615998 0.260036
O O14 0.828865 0.687416 0.291101
O O15 0.947001 0.749004 0.252439
O O16 0.500000 0.000000 0.787514
O O17 0.365858 0.994928 0.780417
O O18 0.432797 0.936236 0.000000
O O19 0.737588 0.250885 0.500000
O O20 0.721199 0.991634 0.000000
O O21 0.060587 0.190196 0.000000
#
# Coordination Sequence:
#
# PCOD8225588 Si02
#       8
#     8   8   8   8   8   8   8   8
#     4  10  20  35  55  79 110 141 180 227 268 321
#     4  10  21  36  54  79 113 150 184 223 275 329
#     4   9  19  34  53  79 108 139 177 224 268 317
#     4  10  19  35  59  81 106 141 185 228 271 328
#     4  10  21  37  56  79 111 145 179 226 280 333
#     4   9  18  33  53  77 103 135 175 221 266 315
#     4  10  20  35  56  81 108 140 180 224 273 326
#     4  10  20  35  56  81 111 146 186 229 274 326
#
# _framework density 18.396122999999999
#
# number of rings (size 3 to 8) (size 9 to 14) (size 15 to 20)
#    0.000    2.250    1.250    1.500    0.000    3.000 
#    2.250    0.000    0.000    0.000    0.000    0.000 
#    0.000    0.000    0.000    0.000    0.000    0.000 
#
# Total GULP energy -793761.355964 kJ/mol
# GULP energy per Si atom -12402.521187 kJ/mol
# Density = 1.835425 g / cm^3
# Si number density = 18.396123 Si / 1000 Ang^3
#
#
#
# Elastic Constant Matrix: (Units=GPa)
#
#
# Indices 1 2 3 4 5 6 
#
# 1 107.7616 62.3062 35.7333 0.0000 0.0000 0.0000
# 2 62.3062 129.6129 51.0646 0.0000 0.0000 0.0000
# 3 35.7333 51.0646 47.0521 0.0000 0.0000 0.0000
# 4 0.0000 0.0000 0.0000 52.7452 0.0000 0.0000
# 5 0.0000 0.0000 0.0000 0.0000 22.1765 0.0000
# 6 0.0000 0.0000 0.0000 0.0000 0.0000 28.3454
#
#
#
# Elastic Compliance Matrix: (Units=1/GPa)
#
#
# Indices 1 2 3 4 5 6 
#
# 1 0.013668 -0.004334 -0.005676 0.000000 0.000000 0.000000
# 2 -0.004334 0.014852 -0.012828 0.000000 0.000000 0.000000
# 3 -0.005676 -0.012828 0.039486 0.000000 0.000000 0.000000
# 4 0.000000 0.000000 0.000000 0.018959 0.000000 0.000000
# 5 0.000000 0.000000 0.000000 0.000000 0.045093 0.000000
# 6 0.000000 0.000000 0.000000 0.000000 0.000000 0.035279
#
#
# Mechanical properties :
#
#
# Convention : Reuss Voigt Hill
#
# Bulk Modulus (GPa) = 44.78320 64.73720 54.76020
# Shear Modulus (GPa) = 22.68023 29.67490 26.17757
#
# Velocity S-wave (km/s) = 3.51505 4.02071 3.77635
# Velocity P-wave (km/s) = 6.39303 7.53803 6.98901
#
# Compressibility (1/GPa) = 0.02232980
#
# Stress axis : x y z
#
# Youngs Moduli (GPa) = 73.16459 67.32890 25.32566
#
# Poissons Ratio (x) = 0.29179 0.14376
# Poissons Ratio (y) = 0.31708 0.32487
# Poissons Ratio (z) = 0.41532 0.86368
#
# Static dielectric constant tensor:
#      x y z
#    x 3.346920 0.000000 0.000000 
#    y 0.000000 3.469620 0.000000 
#    z 0.000000 0.000000 3.317640 
# 
# 
# High freq. dielectric constant tensor:
#      x y z
#    x 1.702180 0.000000 0.000000 
#    y 0.000000 1.722210 0.000000 
#    z 0.000000 0.000000 1.710000 
# 
# From -- ./inp_files/9036.got.cif
#   From: 2010.03.12/outbox.cif.g09.slc.cpg/sg55_5_cif.got.tgz:9036.got - 2010.04.16 15:19:21.
