data_PCOD8225980
_publ_section_title
;
Structure prediction by ZEFSAII (Michael W. Deem and Ramdas Pophale) SiO2 
 PCOD8225980
Probable space group: P B A M
;
_chemical_formula_sum "Si O2"
_cell_formula_units_Z 56
_cell_length_a 19.121844
_cell_length_b 18.900715
_cell_length_c 8.905773
_cell_angle_alpha 90.000000
_cell_angle_beta 90.000000
_cell_angle_gamma 90.000000
_cell_volume 3218.693519
_symmetry_space_group_name_H-M "P B A M"
_symmetry_group_IT_number 55
_symmetry_cell_setting 'orthorhombic'
loop_
_space_group_symop_operation_xyz
x,y,z
-x,-y,z
1/2+x,1/2-y,-z
1/2-x,1/2+y,-z
-x,-y,-z
x,y,-z
1/2-x,1/2+y,z
1/2+x,1/2-y,z
loop_
_atom_site_type_symbol
_atom_site_label
_atom_site_fract_x
_atom_site_fract_y
_atom_site_fract_z
Si Si1 0.325694 0.247582 0.829354
Si Si2 0.699173 0.981448 0.823281
Si Si3 0.114051 0.249122 0.676182
Si Si4 0.946094 0.438481 0.323165
Si Si5 0.978556 0.291754 0.174162
Si Si6 0.712703 0.142020 0.826770
Si Si7 0.230101 0.139788 0.674888
O O1 0.408210 0.253769 0.799670
O O2 0.289095 0.323284 0.800350
O O3 0.295429 0.189379 0.716903
O O4 0.311057 0.221937 0.000000
O O5 0.628030 0.955099 0.749549
O O6 0.763672 0.933575 0.765209
O O7 0.716577 0.061189 0.774169
O O8 0.691703 0.973519 0.000000
O O9 0.101217 0.254574 0.500000
O O10 0.154735 0.319282 0.727382
O O11 0.158182 0.179150 0.719153
O O12 0.040509 0.243516 0.760751
O O13 0.936028 0.431470 0.500000
O O14 0.977058 0.365981 0.259810
O O15 0.000000 0.500000 0.279904
O O16 0.991575 0.307588 0.000000
O O17 0.689662 0.148149 0.000000
O O18 0.233533 0.123132 0.500000
#
# Coordination Sequence:
#
# PCOD8225980 Si02
#       7
#     8   8   8   8   8   8   8
#     4   9  18  34  54  76 101 132 173 216 260 311
#     4  11  21  33  52  77 104 137 173 213 260 311
#     4  10  21  35  52  76 105 137 174 215 261 311
#     4  11  23  35  49  73 109 145 173 208 255 312
#     4  11  21  33  53  78 103 136 174 214 260 311
#     4   9  19  35  54  76 104 135 171 216 261 310
#     4  10  20  34  53  75 101 136 176 216 258 310
#
# _framework density 17.398364000000001
#
# number of rings (size 3 to 8) (size 9 to 14) (size 15 to 20)
#    0.000    1.857    1.429    3.000    0.000    6.857 
#    0.000    0.000    0.000    0.857    0.000    6.000 
#    0.000    0.000    0.000    0.000    0.000    0.000 
#
# Total GULP energy -694545.255637 kJ/mol
# GULP energy per Si atom -12402.593851 kJ/mol
# Density = 1.735876 g / cm^3
# Si number density = 17.398364 Si / 1000 Ang^3
#
#
#
# Elastic Constant Matrix: (Units=GPa)
#
#
# Indices 1 2 3 4 5 6 
#
# 1 97.7470 24.2025 25.6612 0.0000 0.0000 0.0000
# 2 24.2025 49.3945 10.1911 0.0000 0.0000 0.0000
# 3 25.6612 10.1911 53.0985 0.0000 0.0000 0.0000
# 4 0.0000 0.0000 0.0000 23.7654 0.0000 0.0000
# 5 0.0000 0.0000 0.0000 0.0000 27.5705 0.0000
# 6 0.0000 0.0000 0.0000 0.0000 0.0000 23.6623
#
#
#
# Elastic Compliance Matrix: (Units=1/GPa)
#
#
# Indices 1 2 3 4 5 6 
#
# 1 0.012901 -0.005243 -0.005229 0.000000 0.000000 0.000000
# 2 -0.005243 0.023210 -0.001921 0.000000 0.000000 0.000000
# 3 -0.005229 -0.001921 0.021729 0.000000 0.000000 0.000000
# 4 0.000000 0.000000 0.000000 0.042078 0.000000 0.000000
# 5 0.000000 0.000000 0.000000 0.000000 0.036271 0.000000
# 6 0.000000 0.000000 0.000000 0.000000 0.000000 0.042261
#
#
# Mechanical properties :
#
#
# Convention : Reuss Voigt Hill
#
# Bulk Modulus (GPa) = 30.25227 35.59441 32.92334
# Shear Modulus (GPa) = 23.33688 24.34533 23.84110
#
# Velocity S-wave (km/s) = 3.66639 3.74476 3.70578
# Velocity P-wave (km/s) = 5.94550 6.26104 6.10530
#
# Compressibility (1/GPa) = 0.03305537
#
# Stress axis : x y z
#
# Youngs Moduli (GPa) = 77.51186 43.08428 46.02245
#
# Poissons Ratio (x) = 0.22587 0.24064
# Poissons Ratio (y) = 0.40637 0.08841
# Poissons Ratio (z) = 0.40528 0.08277
#
# Static dielectric constant tensor:
#      x y z
#    x 3.304810 0.000000 0.000000 
#    y 0.000000 3.327100 0.000000 
#    z 0.000000 0.000000 3.344380 
# 
# 
# High freq. dielectric constant tensor:
#      x y z
#    x 1.666730 0.000000 0.000000 
#    y 0.000000 1.659910 0.000000 
#    z 0.000000 0.000000 1.685060 
# 
# From -- ./inp_files/7833.got.cif
#   From: 2010.03.12/outbox.cif.g09.slc.cpg/sg55_4_cif.got.tgz:7833.got - 2010.04.16 15:19:21.
