data_PCOD8225238
_publ_section_title
;
Structure prediction by ZEFSAII (Michael W. Deem and Ramdas Pophale) SiO2 
 PCOD8225238
Probable space group: P B A M
;
_chemical_formula_sum "Si O2"
_cell_formula_units_Z 56
_cell_length_a 5.222189
_cell_length_b 17.298459
_cell_length_c 30.494619
_cell_angle_alpha 90.000000
_cell_angle_beta 90.000000
_cell_angle_gamma 90.000000
_cell_volume 2754.756483
_symmetry_space_group_name_H-M "P B A M"
_symmetry_group_IT_number 55
_symmetry_cell_setting 'orthorhombic'
loop_
_space_group_symop_operation_xyz
x,y,z
-x,-y,z
1/2+x,1/2-y,-z
1/2-x,1/2+y,-z
-x,-y,-z
x,y,-z
1/2-x,1/2+y,z
1/2+x,1/2-y,z
loop_
_atom_site_type_symbol
_atom_site_label
_atom_site_fract_x
_atom_site_fract_y
_atom_site_fract_z
Si Si1 0.253860 0.451215 0.449574
Si Si2 0.274492 0.198403 0.858720
Si Si3 0.699604 0.298773 0.953296
Si Si4 0.743987 0.703171 0.292387
Si Si5 0.264626 0.296711 0.604504
Si Si6 0.750064 0.462144 0.818684
Si Si7 0.250096 0.470470 0.277806
O O1 0.500000 0.500000 0.434792
O O2 0.280167 0.425279 0.500000
O O3 0.233761 0.376558 0.419891
O O4 0.000000 0.500000 0.441626
O O5 0.546828 0.240089 0.851879
O O6 0.252611 0.157411 0.907290
O O7 0.250728 0.130270 0.823535
O O8 0.405786 0.270855 0.952827
O O9 0.740023 0.345145 0.000000
O O10 0.491708 0.748852 0.277389
O O11 0.745132 0.686656 0.343940
O O12 0.748991 0.620692 0.268272
O O13 0.531774 0.258511 0.590390
O O14 0.500000 0.500000 0.841216
O O15 0.750055 0.480842 0.767181
O O16 0.000000 0.500000 0.841310
O O17 0.500000 0.500000 0.304644
O O18 0.000000 0.500000 0.304605
#
# Coordination Sequence:
#
# PCOD8225238 Si02
#       7
#     8   8   8   8   8   8   8
#     4  10  21  36  54  80 113 147 183 219 257 309
#     4  10  19  33  55  79 102 135 177 217 256 302
#     4   8  14  25  44  72 101 127 163 211 255 296
#     4  10  21  38  58  81 107 136 177 224 264 313
#     4  10  21  36  56  82 109 139 178 223 269 312
#     4  10  21  38  53  74 107 139 171 212 262 316
#     4  10  21  38  56  78 105 137 173 212 267 320
#
# _framework density 20.328475999999998
#
# number of rings (size 3 to 8) (size 9 to 14) (size 15 to 20)
#    0.000    2.286    0.000    2.571    0.000    1.714 
#    0.000   17.143    0.000    0.857    0.000    0.000 
#    0.000    0.000    0.000    0.000    0.000    0.000 
#
# Total GULP energy -693952.015926 kJ/mol
# GULP energy per Si atom -12392.000284 kJ/mol
# Density = 2.028221 g / cm^3
# Si number density = 20.328476 Si / 1000 Ang^3
#
#
#
# Elastic Constant Matrix: (Units=GPa)
#
#
# Indices 1 2 3 4 5 6 
#
# 1 161.1251 31.9151 8.4165 0.0000 0.0000 0.0000
# 2 31.9151 98.2077 27.1887 0.0000 0.0000 0.0000
# 3 8.4165 27.1887 41.0992 0.0000 0.0000 0.0000
# 4 0.0000 0.0000 0.0000 9.1055 0.0000 0.0000
# 5 0.0000 0.0000 0.0000 0.0000 3.8480 0.0000
# 6 0.0000 0.0000 0.0000 0.0000 0.0000 33.0927
#
#
#
# Elastic Compliance Matrix: (Units=1/GPa)
#
#
# Indices 1 2 3 4 5 6 
#
# 1 0.006634 -0.002179 0.000083 0.000000 0.000000 0.000000
# 2 -0.002179 0.013181 -0.008274 0.000000 0.000000 0.000000
# 3 0.000083 -0.008274 0.029788 0.000000 0.000000 0.000000
# 4 0.000000 0.000000 0.000000 0.109824 0.000000 0.000000
# 5 0.000000 0.000000 0.000000 0.000000 0.259878 0.000000
# 6 0.000000 0.000000 0.000000 0.000000 0.000000 0.030218
#
#
# Mechanical properties :
#
#
# Convention : Reuss Voigt Hill
#
# Bulk Modulus (GPa) = 34.64593 48.38584 41.51589
# Shear Modulus (GPa) = 10.41922 24.73668 17.57795
#
# Velocity S-wave (km/s) = 2.26640 3.49212 2.94376
# Velocity P-wave (km/s) = 4.89171 6.33353 5.65873
#
# Compressibility (1/GPa) = 0.02886342
#
# Stress axis : x y z
#
# Youngs Moduli (GPa) = 150.74821 75.86639 33.57084
#
# Poissons Ratio (x) = 0.16529 -0.00278
# Poissons Ratio (y) = 0.32843 0.27775
# Poissons Ratio (z) = -0.01249 0.62769
#
# Static dielectric constant tensor:
#      x y z
#    x 11.650350 0.000000 0.000000 
#    y 0.000000 3.352060 0.000000 
#    z 0.000000 0.000000 3.686920 
# 
# 
# High freq. dielectric constant tensor:
#      x y z
#    x 1.832180 0.000000 0.000000 
#    y 0.000000 1.765580 0.000000 
#    z 0.000000 0.000000 1.776320 
# 
# From -- ./inp_files/24059.got.cif
#   From: 2010.03.12/outbox.cif.g09.slc.cpg/sg55_13_cif.got.tgz:24059.got - 2010.04.16 15:19:21.
