data_PCOD8225942
_publ_section_title
;
Structure prediction by ZEFSAII (Michael W. Deem and Ramdas Pophale) SiO2 
 PCOD8225942
Probable space group: P B A M
;
_chemical_formula_sum "Si O2"
_cell_formula_units_Z 56
_cell_length_a 17.767087
_cell_length_b 13.143835
_cell_length_c 13.893639
_cell_angle_alpha 90.000000
_cell_angle_beta 90.000000
_cell_angle_gamma 90.000000
_cell_volume 3244.549004
_symmetry_space_group_name_H-M "P B A M"
_symmetry_group_IT_number 55
_symmetry_cell_setting 'orthorhombic'
loop_
_space_group_symop_operation_xyz
x,y,z
-x,-y,z
1/2+x,1/2-y,-z
1/2-x,1/2+y,-z
-x,-y,-z
x,y,-z
1/2-x,1/2+y,z
1/2+x,1/2-y,z
loop_
_atom_site_type_symbol
_atom_site_label
_atom_site_fract_x
_atom_site_fract_y
_atom_site_fract_z
Si Si1 0.217898 0.592491 0.110300
Si Si2 0.782744 0.611587 0.772843
Si Si3 0.136202 0.229074 0.891586
Si Si4 0.489605 0.385808 0.885768
Si Si5 0.366390 0.261263 0.221417
Si Si6 0.391060 0.930914 0.391223
Si Si7 0.048374 0.655929 0.610228
O O1 0.233881 0.488657 0.166099
O O2 0.296443 0.649726 0.112733
O O3 0.152886 0.658457 0.162390
O O4 0.192910 0.571517 0.000000
O O5 0.846676 0.672288 0.829715
O O6 0.708942 0.677809 0.753514
O O7 0.816270 0.587571 0.669124
O O8 0.061376 0.177639 0.849872
O O9 0.122572 0.266259 0.000000
O O10 0.500000 0.500000 0.846116
O O11 0.414854 0.335537 0.844612
O O12 0.482316 0.387087 0.000000
O O13 0.411201 0.235659 0.319136
O O14 0.368995 0.905818 0.500000
O O15 0.460759 0.858201 0.360594
O O16 0.412240 0.047848 0.379359
O O17 0.055272 0.695425 0.500000
#
# Coordination Sequence:
#
# PCOD8225942 Si02
#       7
#     8   8   8   8   8   8   8
#     4  10  20  34  50  74 109 143 175 216 261 306
#     4  11  20  32  52  77 106 135 168 215 265 306
#     4   9  19  33  49  71 101 137 177 209 249 308
#     4  10  20  35  53  74 102 141 181 214 249 304
#     4  11  21  33  54  81 107 137 179 219 263 312
#     4   9  18  34  56  77 100 134 172 210 262 320
#     4   9  18  35  57  78 102 133 171 217 263 314
#
# _framework density 17.259719
#
# number of rings (size 3 to 8) (size 9 to 14) (size 15 to 20)
#    0.000    2.143    1.429    3.429    0.000    3.429 
#    0.000    0.000    0.000    3.857    0.000    0.000 
#    0.000    0.000    0.000    0.000    0.000    0.000 
#
# Total GULP energy -694390.998169 kJ/mol
# GULP energy per Si atom -12399.839253 kJ/mol
# Density = 1.722044 g / cm^3
# Si number density = 17.259719 Si / 1000 Ang^3
#
#
#
# Elastic Constant Matrix: (Units=GPa)
#
#
# Indices 1 2 3 4 5 6 
#
# 1 52.8002 2.1435 18.9325 0.0000 0.0000 0.0000
# 2 2.1435 56.7680 20.1256 0.0000 0.0000 0.0000
# 3 18.9325 20.1256 68.2234 0.0000 0.0000 0.0000
# 4 0.0000 0.0000 0.0000 23.9934 0.0000 0.0000
# 5 0.0000 0.0000 0.0000 0.0000 29.4580 0.0000
# 6 0.0000 0.0000 0.0000 0.0000 0.0000 20.8580
#
#
#
# Elastic Compliance Matrix: (Units=1/GPa)
#
#
# Indices 1 2 3 4 5 6 
#
# 1 0.021136 0.001431 -0.006287 0.000000 0.000000 0.000000
# 2 0.001431 0.019770 -0.006229 0.000000 0.000000 0.000000
# 3 -0.006287 -0.006229 0.018240 0.000000 0.000000 0.000000
# 4 0.000000 0.000000 0.000000 0.041678 0.000000 0.000000
# 5 0.000000 0.000000 0.000000 0.000000 0.033947 0.000000
# 6 0.000000 0.000000 0.000000 0.000000 0.000000 0.047943
#
#
# Mechanical properties :
#
#
# Convention : Reuss Voigt Hill
#
# Bulk Modulus (GPa) = 27.04564 28.91052 27.97808
# Shear Modulus (GPa) = 23.01922 23.96788 23.49355
#
# Velocity S-wave (km/s) = 3.65594 3.73052 3.69342
# Velocity P-wave (km/s) = 5.79008 5.94494 5.86802
#
# Compressibility (1/GPa) = 0.03697454
#
# Stress axis : x y z
#
# Youngs Moduli (GPa) = 47.31331 50.58195 54.82430
#
# Poissons Ratio (x) = -0.07238 0.34470
# Poissons Ratio (y) = -0.06771 0.34151
# Poissons Ratio (z) = 0.29748 0.31508
#
# Static dielectric constant tensor:
#      x y z
#    x 3.217120 0.000000 0.000000 
#    y 0.000000 3.169570 0.000000 
#    z 0.000000 0.000000 3.228870 
# 
# 
# High freq. dielectric constant tensor:
#      x y z
#    x 1.670390 0.000000 0.000000 
#    y 0.000000 1.662870 0.000000 
#    z 0.000000 0.000000 1.662230 
# 
# From -- ./inp_files/18360.got.cif
#   From: 2010.03.12/outbox.cif.g09.slc.cpg/sg55_10_cif.got.tgz:18360.got - 2010.04.16 15:19:21.
