data_PCOD8225439
_publ_section_title
;
Structure prediction by ZEFSAII (Michael W. Deem and Ramdas Pophale) SiO2 
 PCOD8225439
Probable space group: P B A M
;
_chemical_formula_sum "Si O2"
_cell_formula_units_Z 56
_cell_length_a 16.841497
_cell_length_b 19.471284
_cell_length_c 9.000948
_cell_angle_alpha 90.000000
_cell_angle_beta 90.000000
_cell_angle_gamma 90.000000
_cell_volume 2951.641013
_symmetry_space_group_name_H-M "P B A M"
_symmetry_group_IT_number 55
_symmetry_cell_setting 'orthorhombic'
loop_
_space_group_symop_operation_xyz
x,y,z
-x,-y,z
1/2+x,1/2-y,-z
1/2-x,1/2+y,-z
-x,-y,-z
x,y,-z
1/2-x,1/2+y,z
1/2+x,1/2-y,z
loop_
_atom_site_type_symbol
_atom_site_label
_atom_site_fract_x
_atom_site_fract_y
_atom_site_fract_z
Si Si1 0.842171 0.852412 0.324304
Si Si2 0.328408 0.392972 0.174202
Si Si3 0.408728 0.199376 0.669929
Si Si4 0.760603 0.470262 0.176252
Si Si5 0.573287 0.954190 0.328081
Si Si6 0.759441 0.250434 0.825662
Si Si7 0.479279 0.342286 0.672200
O O1 0.830940 0.854274 0.500000
O O2 0.817496 0.777474 0.262452
O O3 0.933170 0.865344 0.277497
O O4 0.786160 0.908152 0.249650
O O5 0.283146 0.460424 0.228306
O O6 0.275834 0.327689 0.224144
O O7 0.415808 0.389648 0.244491
O O8 0.341442 0.392166 0.000000
O O9 0.378291 0.206218 0.500000
O O10 0.450650 0.125830 0.694581
O O11 0.333884 0.202273 0.779534
O O12 0.469026 0.261159 0.708828
O O13 0.850455 0.473934 0.231934
O O14 0.759692 0.461446 0.000000
O O15 0.592293 0.969894 0.500000
O O16 0.500000 0.000000 0.271048
O O17 0.744682 0.257493 0.000000
O O18 0.466568 0.356310 0.500000
#
# Coordination Sequence:
#
# PCOD8225439 Si02
#       7
#     8   8   8   8   8   8   8
#     4  11  22  36  56  85 117 149 191 237 284 341
#     4   9  21  39  57  81 115 150 190 238 284 338
#     4   9  17  34  56  78 108 142 182 228 279 334
#     4  11  23  39  58  82 115 155 194 234 286 343
#     4  10  21  36  57  85 116 149 187 233 285 341
#     4  10  19  34  57  81 106 144 190 233 283 338
#     4   9  20  36  56  82 110 147 191 237 284 333
#
# _framework density 18.972497000000001
#
# number of rings (size 3 to 8) (size 9 to 14) (size 15 to 20)
#    0.000    2.143    1.429    1.286    0.000    4.857 
#    0.000    4.286    0.000    0.000    0.000    0.000 
#    0.000    0.000    0.000    0.000    0.000    0.000 
#
# Total GULP energy -694453.155034 kJ/mol
# GULP energy per Si atom -12400.949197 kJ/mol
# Density = 1.892931 g / cm^3
# Si number density = 18.972497 Si / 1000 Ang^3
#
#
#
# Elastic Constant Matrix: (Units=GPa)
#
#
# Indices 1 2 3 4 5 6 
#
# 1 130.5584 52.3959 47.7629 0.0000 0.0000 0.0000
# 2 52.3959 75.2290 29.6460 0.0000 0.0000 0.0000
# 3 47.7629 29.6460 59.9303 0.0000 0.0000 0.0000
# 4 0.0000 0.0000 0.0000 24.0966 0.0000 0.0000
# 5 0.0000 0.0000 0.0000 0.0000 16.8467 0.0000
# 6 0.0000 0.0000 0.0000 0.0000 0.0000 27.8054
#
#
#
# Elastic Compliance Matrix: (Units=1/GPa)
#
#
# Indices 1 2 3 4 5 6 
#
# 1 0.012686 -0.006026 -0.007129 0.000000 0.000000 0.000000
# 2 -0.006026 0.019374 -0.004781 0.000000 0.000000 0.000000
# 3 -0.007129 -0.004781 0.024733 0.000000 0.000000 0.000000
# 4 0.000000 0.000000 0.000000 0.041500 0.000000 0.000000
# 5 0.000000 0.000000 0.000000 0.000000 0.059359 0.000000
# 6 0.000000 0.000000 0.000000 0.000000 0.000000 0.035964
#
#
# Mechanical properties :
#
#
# Convention : Reuss Voigt Hill
#
# Bulk Modulus (GPa) = 47.80185 58.36971 53.08578
# Shear Modulus (GPa) = 21.14499 22.81060 21.97780
#
# Velocity S-wave (km/s) = 3.34205 3.47118 3.40722
# Velocity P-wave (km/s) = 6.33580 6.84819 6.59697
#
# Compressibility (1/GPa) = 0.02091969
#
# Stress axis : x y z
#
# Youngs Moduli (GPa) = 78.82694 51.61569 40.43151
#
# Poissons Ratio (x) = 0.31104 0.28826
# Poissons Ratio (y) = 0.47502 0.19331
# Poissons Ratio (z) = 0.56200 0.24678
#
# Static dielectric constant tensor:
#      x y z
#    x 3.482420 0.000000 0.000000 
#    y 0.000000 3.719350 0.000000 
#    z 0.000000 0.000000 3.441490 
# 
# 
# High freq. dielectric constant tensor:
#      x y z
#    x 1.730340 0.000000 0.000000 
#    y 0.000000 1.743680 0.000000 
#    z 0.000000 0.000000 1.736840 
# 
# From -- ./inp_files/6143.got.cif
#   From: 2010.03.12/outbox.cif.g09.slc.cpg/sg55_4_cif.got.tgz:6143.got - 2010.04.16 15:19:21.
