data_PCOD8225907
_publ_section_title
;
Structure prediction by ZEFSAII (Michael W. Deem and Ramdas Pophale) SiO2 
 PCOD8225907
Probable space group: P B A M
;
_chemical_formula_sum "Si O2"
_cell_formula_units_Z 56
_cell_length_a 21.985642
_cell_length_b 14.309064
_cell_length_c 8.945323
_cell_angle_alpha 90.000000
_cell_angle_beta 90.000000
_cell_angle_gamma 90.000000
_cell_volume 2814.144572
_symmetry_space_group_name_H-M "P B A M"
_symmetry_group_IT_number 55
_symmetry_cell_setting 'orthorhombic'
loop_
_space_group_symop_operation_xyz
x,y,z
-x,-y,z
1/2+x,1/2-y,-z
1/2-x,1/2+y,-z
-x,-y,-z
x,y,-z
1/2-x,1/2+y,z
1/2+x,1/2-y,z
loop_
_atom_site_type_symbol
_atom_site_label
_atom_site_fract_x
_atom_site_fract_y
_atom_site_fract_z
Si Si1 0.714738 0.098783 0.674540
Si Si2 0.285831 0.088710 0.828001
Si Si3 0.000011 0.391676 0.324150
Si Si4 0.143986 0.903828 0.325977
Si Si5 0.606593 0.777575 0.174007
Si Si6 0.852921 0.909473 0.170811
Si Si7 0.612418 0.206168 0.825976
O O1 0.701582 0.112442 0.500000
O O2 0.785438 0.110272 0.714869
O O3 0.678714 0.175376 0.769404
O O4 0.692192 0.996075 0.723291
O O5 0.327502 0.177957 0.792714
O O6 0.216771 0.116180 0.789387
O O7 0.293169 0.057200 0.000000
O O8 0.993809 0.377852 0.500000
O O9 0.062353 0.346007 0.270467
O O10 0.000000 0.500000 0.278669
O O11 0.943967 0.342791 0.244996
O O12 0.131439 0.895396 0.500000
O O13 0.104244 0.825390 0.244190
O O14 0.122307 0.006153 0.272331
O O15 0.592521 0.768609 0.000000
O O16 0.893454 0.817627 0.199661
O O17 0.857648 0.942632 0.000000
O O18 0.605095 0.181042 0.000000
#
# Coordination Sequence:
#
# PCOD8225907 Si02
#       7
#     8   8   8   8   8   8   8
#     4  10  20  33  53  84 119 152 185 226 278 333
#     4   9  18  33  55  83 114 148 184 225 276 332
#     4  11  25  43  61  83 113 147 184 229 279 332
#     4  10  21  36  56  84 117 151 186 227 277 332
#     4  11  22  37  59  84 112 149 191 234 279 329
#     4   9  19  36  57  83 114 146 183 228 277 330
#     4  11  22  37  59  84 111 147 190 234 280 331
#
# _framework density 19.899474999999999
#
# number of rings (size 3 to 8) (size 9 to 14) (size 15 to 20)
#    0.000    1.857    0.000    3.857    0.000    8.571 
#    0.000    3.571    0.000    4.286    0.000    0.000 
#    0.000    0.000    0.000    0.000    0.000    0.000 
#
# Total GULP energy -694645.824294 kJ/mol
# GULP energy per Si atom -12404.389720 kJ/mol
# Density = 1.985418 g / cm^3
# Si number density = 19.899475 Si / 1000 Ang^3
#
#
#
# Elastic Constant Matrix: (Units=GPa)
#
#
# Indices 1 2 3 4 5 6 
#
# 1 52.9222 43.9446 33.4923 0.0000 0.0000 0.0000
# 2 43.9446 136.3215 63.2286 0.0000 0.0000 0.0000
# 3 33.4923 63.2286 85.5444 0.0000 0.0000 0.0000
# 4 0.0000 0.0000 0.0000 31.1322 0.0000 0.0000
# 5 0.0000 0.0000 0.0000 0.0000 30.4154 0.0000
# 6 0.0000 0.0000 0.0000 0.0000 0.0000 32.9580
#
#
#
# Elastic Compliance Matrix: (Units=1/GPa)
#
#
# Indices 1 2 3 4 5 6 
#
# 1 0.028012 -0.006000 -0.006532 0.000000 0.000000 0.000000
# 2 -0.006000 0.012448 -0.006851 0.000000 0.000000 0.000000
# 3 -0.006532 -0.006851 0.019311 0.000000 0.000000 0.000000
# 4 0.000000 0.000000 0.000000 0.032121 0.000000 0.000000
# 5 0.000000 0.000000 0.000000 0.000000 0.032878 0.000000
# 6 0.000000 0.000000 0.000000 0.000000 0.000000 0.030342
#
#
# Mechanical properties :
#
#
# Convention : Reuss Voigt Hill
#
# Bulk Modulus (GPa) = 47.61112 61.79100 54.70106
# Shear Modulus (GPa) = 24.89046 27.84263 26.36654
#
# Velocity S-wave (km/s) = 3.54052 3.74460 3.64399
# Velocity P-wave (km/s) = 6.37898 7.05797 6.72705
#
# Compressibility (1/GPa) = 0.02100350
#
# Stress axis : x y z
#
# Youngs Moduli (GPa) = 35.69898 80.33737 51.78313
#
# Poissons Ratio (x) = 0.48203 0.33827
# Poissons Ratio (y) = 0.21420 0.35478
# Poissons Ratio (z) = 0.23320 0.55041
#
# Static dielectric constant tensor:
#      x y z
#    x 3.475850 0.000000 0.000000 
#    y 0.000000 3.661070 0.000000 
#    z 0.000000 0.000000 3.625040 
# 
# 
# High freq. dielectric constant tensor:
#      x y z
#    x 1.756550 0.000000 0.000000 
#    y 0.000000 1.785420 0.000000 
#    z 0.000000 0.000000 1.783520 
# 
# From -- ./inp_files/8776.got.cif
#   From: 2010.03.12/outbox.cif.g09.slc.cpg/sg55_5_cif.got.tgz:8776.got - 2010.04.16 15:19:21.
