data_PCOD8225916
_publ_section_title
;
Structure prediction by ZEFSAII (Michael W. Deem and Ramdas Pophale) SiO2 
 PCOD8225916
Probable space group: P B A M
;
_chemical_formula_sum "Si O2"
_cell_formula_units_Z 48
_cell_length_a 29.094205
_cell_length_b 9.509407
_cell_length_c 9.047542
_cell_angle_alpha 90.000000
_cell_angle_beta 90.000000
_cell_angle_gamma 90.000000
_cell_volume 2503.171111
_symmetry_space_group_name_H-M "P B A M"
_symmetry_group_IT_number 55
_symmetry_cell_setting 'orthorhombic'
loop_
_space_group_symop_operation_xyz
x,y,z
-x,-y,z
1/2+x,1/2-y,-z
1/2-x,1/2+y,-z
-x,-y,-z
x,y,-z
1/2-x,1/2+y,z
1/2+x,1/2-y,z
loop_
_atom_site_type_symbol
_atom_site_label
_atom_site_fract_x
_atom_site_fract_y
_atom_site_fract_z
Si Si1 0.365579 0.003248 0.676009
Si Si2 0.288526 0.187943 0.173434
Si Si3 0.123872 0.187200 0.324805
Si Si4 0.800214 0.988383 0.173250
Si Si5 0.020473 0.145241 0.323595
Si Si6 0.960708 0.386621 0.664435
O O1 0.364665 0.010972 0.500000
O O2 0.327613 0.104693 0.741324
O O3 0.414726 0.054936 0.742229
O O4 0.357897 0.841163 0.725019
O O5 0.240627 0.116599 0.219704
O O6 0.288284 0.351691 0.221651
O O7 0.297437 0.171377 0.000000
O O8 0.125541 0.169842 0.500000
O O9 0.154254 0.063617 0.255311
O O10 0.072013 0.168131 0.264276
O O11 0.809485 0.981651 0.000000
O O12 0.021392 0.162220 0.500000
O O13 0.984240 0.255393 0.252385
O O14 0.000000 0.000000 0.269081
O O15 0.945676 0.340367 0.500000
O O16 0.000000 0.500000 0.655328
#
# Coordination Sequence:
#
# PCOD8225916 Si02
#       6
#     8   8   8   8   8   8
#     4  10  20  33  55  85 113 142 178 221 268 313
#     4  10  22  40  60  80 103 138 181 222 268 327
#     4  10  20  34  54  84 115 142 177 222 268 314
#     4  10  22  40  60  79 103 139 181 221 269 326
#     4   9  17  28  46  75 110 145 179 214 258 312
#     4   9  15  28  48  73 108 145 178 213 254 308
#
# _framework density 19.175675999999999
#
# number of rings (size 3 to 8) (size 9 to 14) (size 15 to 20)
#    0.000    2.333    1.667    1.000    2.333    3.333 
#    0.000    0.000    0.000    2.000    0.000    0.000 
#    0.000    0.000    0.000    0.000    0.000    0.000 
#
# Total GULP energy -594962.587099 kJ/mol
# GULP energy per Si atom -12395.053898 kJ/mol
# Density = 1.913203 g / cm^3
# Si number density = 19.175676 Si / 1000 Ang^3
#
#
#
# Elastic Constant Matrix: (Units=GPa)
#
#
# Indices 1 2 3 4 5 6 
#
# 1 105.4618 59.1774 25.3782 0.0000 0.0000 0.0000
# 2 59.1774 162.2267 26.8720 0.0000 0.0000 0.0000
# 3 25.3782 26.8720 18.0740 0.0000 0.0000 0.0000
# 4 0.0000 0.0000 0.0000 24.5464 0.0000 0.0000
# 5 0.0000 0.0000 0.0000 0.0000 -10.0323 0.0000
# 6 0.0000 0.0000 0.0000 0.0000 0.0000 44.0349
#
#
#
# Elastic Compliance Matrix: (Units=1/GPa)
#
#
# Indices 1 2 3 4 5 6 
#
# 1 0.015136 -0.002655 -0.017306 0.000000 0.000000 0.000000
# 2 -0.002655 0.008644 -0.009124 0.000000 0.000000 0.000000
# 3 -0.017306 -0.009124 0.093194 0.000000 0.000000 0.000000
# 4 0.000000 0.000000 0.000000 0.040739 0.000000 0.000000
# 5 0.000000 0.000000 0.000000 0.000000 -0.099678 0.000000
# 6 0.000000 0.000000 0.000000 0.000000 0.000000 0.022709
#
#
# Mechanical properties :
#
#
# Convention : Reuss Voigt Hill
#
# Bulk Modulus (GPa) = 17.00572 56.51307 36.75939
# Shear Modulus (GPa) = 31.54257 23.33213 27.43735
#
# Velocity S-wave (km/s) = 4.06017 3.49199 3.78675
# Velocity P-wave (km/s) = 5.55586 6.76712 6.19118
#
# Compressibility (1/GPa) = 0.05880374
#
# Stress axis : x y z
#
# Youngs Moduli (GPa) = 66.06615 115.68774 10.73036
#
# Poissons Ratio (x) = 0.30712 0.18570
# Poissons Ratio (y) = 0.17539 0.09790
# Poissons Ratio (z) = 1.14336 1.05553
#
# Static dielectric constant tensor:
#      x y z
#    x 3.631100 0.000000 0.000000 
#    y 0.000000 3.601240 0.000000 
#    z 0.000000 0.000000 3.006580 
# 
# 
# High freq. dielectric constant tensor:
#      x y z
#    x 1.760000 0.000000 0.000000 
#    y 0.000000 1.765080 0.000000 
#    z 0.000000 0.000000 1.689510 
# 
# From -- ./inp_files/2787.got.cif
#   From: 2010.03.12/outbox.cif.g09.slc.cpg/sg55_2_cif.got.tgz:2787.got - 2010.04.16 15:19:21.
