data_PCOD8225765
_publ_section_title
;
Structure prediction by ZEFSAII (Michael W. Deem and Ramdas Pophale) SiO2 
 PCOD8225765
Probable space group: P B A M
;
_chemical_formula_sum "Si O2"
_cell_formula_units_Z 48
_cell_length_a 26.986478
_cell_length_b 9.998035
_cell_length_c 8.780133
_cell_angle_alpha 90.000000
_cell_angle_beta 90.000000
_cell_angle_gamma 90.000000
_cell_volume 2368.983064
_symmetry_space_group_name_H-M "P B A M"
_symmetry_group_IT_number 55
_symmetry_cell_setting 'orthorhombic'
loop_
_space_group_symop_operation_xyz
x,y,z
-x,-y,z
1/2+x,1/2-y,-z
1/2-x,1/2+y,-z
-x,-y,-z
x,y,-z
1/2-x,1/2+y,z
1/2+x,1/2-y,z
loop_
_atom_site_type_symbol
_atom_site_label
_atom_site_fract_x
_atom_site_fract_y
_atom_site_fract_z
Si Si1 0.778731 0.123322 0.819718
Si Si2 0.111887 0.955271 0.180701
Si Si3 0.927094 0.762241 0.180511
Si Si4 0.289004 0.097484 0.678063
Si Si5 0.602123 0.995926 0.322706
Si Si6 0.460401 0.225592 0.180493
O O1 0.832951 0.077804 0.763193
O O2 0.768984 0.275909 0.771596
O O3 0.738769 0.033866 0.734692
O O4 0.772309 0.109085 0.000000
O O5 0.074085 0.844396 0.245542
O O6 0.095903 0.099884 0.243684
O O7 0.108881 0.954119 0.000000
O O8 0.895171 0.642990 0.251084
O O9 0.983918 0.754009 0.234504
O O10 0.922960 0.754304 0.000000
O O11 0.279054 0.119186 0.500000
O O12 0.346958 0.080078 0.713569
O O13 0.592316 0.010071 0.500000
O O14 0.556897 0.915191 0.248615
O O15 0.456709 0.215475 0.000000
#
# Coordination Sequence:
#
# PCOD8225765 Si02
#       6
#     8   8   8   8   8   8
#     4  11  23  41  67  95 119 154 204 257 301 355
#     4   9  19  37  61  91 121 149 191 247 301 352
#     4  10  21  36  60  91 121 157 199 247 300 353
#     4  11  25  44  63  88 124 164 199 246 312 372
#     4  11  24  40  58  84 122 164 200 242 296 353
#     4  10  19  37  63  88 118 157 200 248 301 353
#
# _framework density 20.261861
#
# number of rings (size 3 to 8) (size 9 to 14) (size 15 to 20)
#    0.000    1.667    1.667    2.500    2.333    6.667 
#    0.000    1.667    0.000    2.000    0.000    0.000 
#    0.000    0.000    0.000    0.000    0.000    0.000 
#
# Total GULP energy -595482.196118 kJ/mol
# GULP energy per Si atom -12405.879086 kJ/mol
# Density = 2.021574 g / cm^3
# Si number density = 20.261861 Si / 1000 Ang^3
#
#
#
# Elastic Constant Matrix: (Units=GPa)
#
#
# Indices 1 2 3 4 5 6 
#
# 1 56.9538 14.7654 33.1230 0.0000 0.0000 0.0000
# 2 14.7654 118.9943 16.5012 0.0000 0.0000 0.0000
# 3 33.1230 16.5012 31.0174 0.0000 0.0000 0.0000
# 4 0.0000 0.0000 0.0000 14.4345 0.0000 0.0000
# 5 0.0000 0.0000 0.0000 0.0000 22.5094 0.0000
# 6 0.0000 0.0000 0.0000 0.0000 0.0000 41.8876
#
#
#
# Elastic Compliance Matrix: (Units=1/GPa)
#
#
# Indices 1 2 3 4 5 6 
#
# 1 0.046494 0.001205 -0.050291 0.000000 0.000000 0.000000
# 2 0.001205 0.009104 -0.006130 0.000000 0.000000 0.000000
# 3 -0.050291 -0.006130 0.089206 0.000000 0.000000 0.000000
# 4 0.000000 0.000000 0.000000 0.069279 0.000000 0.000000
# 5 0.000000 0.000000 0.000000 0.000000 0.044426 0.000000
# 6 0.000000 0.000000 0.000000 0.000000 0.000000 0.023873
#
#
# Mechanical properties :
#
#
# Convention : Reuss Voigt Hill
#
# Bulk Modulus (GPa) = 29.09363 37.30496 33.19930
# Shear Modulus (GPa) = 12.36790 25.27133 18.81961
#
# Velocity S-wave (km/s) = 2.47331 3.53545 3.05096
# Velocity P-wave (km/s) = 4.74830 5.92599 5.36953
#
# Compressibility (1/GPa) = 0.03437178
#
# Stress axis : x y z
#
# Youngs Moduli (GPa) = 21.50822 109.83774 11.20999
#
# Poissons Ratio (x) = -0.13233 0.56376
# Poissons Ratio (y) = -0.02591 0.06872
# Poissons Ratio (z) = 1.08167 0.67331
#
# Static dielectric constant tensor:
#      x y z
#    x 3.774920 0.000000 0.000000 
#    y 0.000000 3.803520 0.000000 
#    z 0.000000 0.000000 3.396880 
# 
# 
# High freq. dielectric constant tensor:
#      x y z
#    x 1.798690 0.000000 0.000000 
#    y 0.000000 1.808590 0.000000 
#    z 0.000000 0.000000 1.769840 
# 
# From -- ./inp_files/2852.got.cif
#   From: 2010.03.12/outbox.cif.g09.slc.cpg/sg55_2_cif.got.tgz:2852.got - 2010.04.16 15:19:21.
