data_PCOD8225241
_publ_section_title
;
Structure prediction by ZEFSAII (Michael W. Deem and Ramdas Pophale) SiO2 
 PCOD8225241
Probable space group: P B A M
;
_chemical_formula_sum "Si O2"
_cell_formula_units_Z 64
_cell_length_a 18.401770
_cell_length_b 20.601187
_cell_length_c 9.033316
_cell_angle_alpha 90.000000
_cell_angle_beta 90.000000
_cell_angle_gamma 90.000000
_cell_volume 3424.514783
_symmetry_space_group_name_H-M "P B A M"
_symmetry_group_IT_number 55
_symmetry_cell_setting 'orthorhombic'
loop_
_space_group_symop_operation_xyz
x,y,z
-x,-y,z
1/2+x,1/2-y,-z
1/2-x,1/2+y,-z
-x,-y,-z
x,y,-z
1/2-x,1/2+y,z
1/2+x,1/2-y,z
loop_
_atom_site_type_symbol
_atom_site_label
_atom_site_fract_x
_atom_site_fract_y
_atom_site_fract_z
Si Si1 0.040897 0.434746 0.325505
Si Si2 0.956680 0.938593 0.324361
Si Si3 0.706420 0.059460 0.324562
Si Si4 0.791774 0.184651 0.328270
Si Si5 0.460205 0.312725 0.671472
Si Si6 0.290717 0.566249 0.675775
Si Si7 0.043117 0.680762 0.826246
Si Si8 0.710350 0.816841 0.826021
O O1 0.035869 0.422806 0.500000
O O2 0.123561 0.440568 0.270158
O O3 0.000000 0.500000 0.278134
O O4 0.004742 0.374888 0.244617
O O5 0.963481 0.939761 0.500000
O O6 0.873569 0.942901 0.273296
O O7 0.992403 0.872161 0.265283
O O8 0.000000 0.000000 0.257084
O O9 0.711620 0.058221 0.500000
O O10 0.746852 0.123552 0.265341
O O11 0.745787 0.995245 0.262589
O O12 0.774359 0.198113 0.500000
O O13 0.876281 0.169013 0.304388
O O14 0.766633 0.246705 0.235081
O O15 0.476906 0.298748 0.500000
O O16 0.483211 0.249440 0.762579
O O17 0.283784 0.573244 0.500000
O O18 0.260719 0.630789 0.749135
O O19 0.126933 0.668348 0.783893
O O20 0.030781 0.681192 0.000000
O O21 0.723302 0.818132 0.000000
#
# Coordination Sequence:
#
# PCOD8225241 Si02
#       8
#     8   8   8   8   8   8   8   8
#     4  10  20  34  53  76 102 131 166 210 255 300
#     4   9  17  30  52  82 109 132 165 210 254 296
#     4   9  18  32  52  78 103 129 167 212 252 294
#     4   9  17  32  54  76 100 133 171 208 248 297
#     4   9  17  31  53  78 103 133 168 206 248 295
#     4  10  19  33  55  79 104 135 169 206 251 303
#     4  10  21  36  53  73 100 135 171 208 252 301
#     4  10  21  36  52  73 103 135 169 210 252 298
#
# _framework density 18.688780000000001
#
# number of rings (size 3 to 8) (size 9 to 14) (size 15 to 20)
#    0.000    2.500    0.000    2.250    0.000    6.750 
#    0.000    7.500    0.000    3.000    0.000    0.000 
#    0.000    0.000    0.000    0.000    0.000    0.000 
#
# Total GULP energy -793762.607759 kJ/mol
# GULP energy per Si atom -12402.540746 kJ/mol
# Density = 1.864624 g / cm^3
# Si number density = 18.688780 Si / 1000 Ang^3
#
#
#
# Elastic Constant Matrix: (Units=GPa)
#
#
# Indices 1 2 3 4 5 6 
#
# 1 125.8016 98.4465 41.9899 0.0000 0.0000 0.0000
# 2 98.4465 170.4608 43.5343 0.0000 0.0000 0.0000
# 3 41.9899 43.5343 36.5416 0.0000 0.0000 0.0000
# 4 0.0000 0.0000 0.0000 -7.4258 0.0000 0.0000
# 5 0.0000 0.0000 0.0000 0.0000 14.4247 0.0000
# 6 0.0000 0.0000 0.0000 0.0000 0.0000 44.0969
#
#
#
# Elastic Compliance Matrix: (Units=1/GPa)
#
#
# Indices 1 2 3 4 5 6 
#
# 1 0.017307 -0.007066 -0.011469 0.000000 0.000000 0.000000
# 2 -0.007066 0.011317 -0.005363 0.000000 0.000000 0.000000
# 3 -0.011469 -0.005363 0.046934 0.000000 0.000000 0.000000
# 4 0.000000 0.000000 0.000000 -0.134665 0.000000 0.000000
# 5 0.000000 0.000000 0.000000 0.000000 0.069326 0.000000
# 6 0.000000 0.000000 0.000000 0.000000 0.000000 0.022677
#
#
# Mechanical properties :
#
#
# Convention : Reuss Voigt Hill
#
# Bulk Modulus (GPa) = 36.02044 77.86059 56.94052
# Shear Modulus (GPa) = 55.58930 20.14136 37.86533
#
# Velocity S-wave (km/s) = 5.45979 3.28643 4.50610
# Velocity P-wave (km/s) = 7.68514 7.49353 7.58994
#
# Compressibility (1/GPa) = 0.02776202
#
# Stress axis : x y z
#
# Youngs Moduli (GPa) = 57.78107 88.36235 21.30645
#
# Poissons Ratio (x) = 0.62438 0.24436
# Poissons Ratio (y) = 0.40829 0.11427
# Poissons Ratio (z) = 0.66268 0.47389
#
# Static dielectric constant tensor:
#      x y z
#    x 3.613300 0.000000 0.000000 
#    y 0.000000 3.631420 0.000000 
#    z 0.000000 0.000000 3.096160 
# 
# 
# High freq. dielectric constant tensor:
#      x y z
#    x 1.729690 0.000000 0.000000 
#    y 0.000000 1.742170 0.000000 
#    z 0.000000 0.000000 1.690340 
# 
# From -- ./inp_files/7961.got.cif
#   From: 2010.03.12/outbox.cif.g09.slc.cpg/sg55_4_cif.got.tgz:7961.got - 2010.04.16 15:19:21.
