data_PCOD8225970
_publ_section_title
;
Structure prediction by ZEFSAII (Michael W. Deem and Ramdas Pophale) SiO2 
 PCOD8225970
Probable space group: P B A M
;
_chemical_formula_sum "Si O2"
_cell_formula_units_Z 56
_cell_length_a 21.766510
_cell_length_b 14.781642
_cell_length_c 8.924487
_cell_angle_alpha 90.000000
_cell_angle_beta 90.000000
_cell_angle_gamma 90.000000
_cell_volume 2871.406914
_symmetry_space_group_name_H-M "P B A M"
_symmetry_group_IT_number 55
_symmetry_cell_setting 'orthorhombic'
loop_
_space_group_symop_operation_xyz
x,y,z
-x,-y,z
1/2+x,1/2-y,-z
1/2-x,1/2+y,-z
-x,-y,-z
x,y,-z
1/2-x,1/2+y,z
1/2+x,1/2-y,z
loop_
_atom_site_type_symbol
_atom_site_label
_atom_site_fract_x
_atom_site_fract_y
_atom_site_fract_z
Si Si1 0.399686 0.340061 0.830595
Si Si2 0.357155 0.165174 0.321459
Si Si3 0.779946 0.827908 0.323705
Si Si4 0.041255 0.140165 0.829630
Si Si5 0.889627 0.705181 0.677835
Si Si6 0.569407 0.008610 0.677770
Si Si7 0.367463 0.513347 0.323306
O O1 0.396730 0.247876 0.738573
O O2 0.468954 0.374902 0.825420
O O3 0.357089 0.416290 0.753811
O O4 0.377135 0.324343 0.000000
O O5 0.357298 0.166636 0.500000
O O6 0.288204 0.175070 0.253897
O O7 0.388575 0.073172 0.261235
O O8 0.773361 0.823710 0.500000
O O9 0.822513 0.743230 0.271376
O O10 0.810835 0.922562 0.276229
O O11 0.057649 0.236914 0.757939
O O12 0.070200 0.059477 0.733619
O O13 0.065897 0.136014 0.000000
O O14 0.898110 0.716417 0.500000
O O15 0.898280 0.601782 0.730051
O O16 0.566340 0.005220 0.500000
O O17 0.500000 0.000000 0.742667
O O18 0.371557 0.499322 0.500000
#
# Coordination Sequence:
#
# PCOD8225970 Si02
#       7
#     8   8   8   8   8   8   8
#     4  11  23  36  50  75 110 142 173 213 262 313
#     4  10  20  35  55  76 102 138 178 220 266 314
#     4   8  17  33  53  79 103 127 167 217 263 307
#     4  10  20  34  52  77 110 141 170 211 262 316
#     4   9  17  32  54  77 103 134 173 220 264 314
#     4   9  17  29  49  77 102 128 169 219 263 302
#     4  10  20  35  57  81 104 134 174 217 262 317
#
# _framework density 19.502635000000001
#
# number of rings (size 3 to 8) (size 9 to 14) (size 15 to 20)
#    0.000    2.429    0.000    3.429    0.000    6.286 
#    0.000    8.571    0.000    2.571    0.000    0.000 
#    0.000    0.000    0.000    0.000    0.000    0.000 
#
# Total GULP energy -694331.354497 kJ/mol
# GULP energy per Si atom -12398.774187 kJ/mol
# Density = 1.945825 g / cm^3
# Si number density = 19.502635 Si / 1000 Ang^3
#
#
#
# Elastic Constant Matrix: (Units=GPa)
#
#
# Indices 1 2 3 4 5 6 
#
# 1 96.0276 36.7558 19.2747 0.0000 0.0000 0.0000
# 2 36.7558 144.8021 22.6365 0.0000 0.0000 0.0000
# 3 19.2747 22.6365 39.8883 0.0000 0.0000 0.0000
# 4 0.0000 0.0000 0.0000 11.6428 0.0000 0.0000
# 5 0.0000 0.0000 0.0000 0.0000 11.4463 0.0000
# 6 0.0000 0.0000 0.0000 0.0000 0.0000 22.0311
#
#
#
# Elastic Compliance Matrix: (Units=1/GPa)
#
#
# Indices 1 2 3 4 5 6 
#
# 1 0.012246 -0.002396 -0.004558 0.000000 0.000000 0.000000
# 2 -0.002396 0.008047 -0.003409 0.000000 0.000000 0.000000
# 3 -0.004558 -0.003409 0.029207 0.000000 0.000000 0.000000
# 4 0.000000 0.000000 0.000000 0.085890 0.000000 0.000000
# 5 0.000000 0.000000 0.000000 0.000000 0.087364 0.000000
# 6 0.000000 0.000000 0.000000 0.000000 0.000000 0.045390
#
#
# Mechanical properties :
#
#
# Convention : Reuss Voigt Hill
#
# Bulk Modulus (GPa) = 34.75284 48.67244 41.71264
# Shear Modulus (GPa) = 16.75264 22.49411 19.62337
#
# Velocity S-wave (km/s) = 2.93404 3.39984 3.17549
# Velocity P-wave (km/s) = 5.41630 6.35790 5.90590
#
# Compressibility (1/GPa) = 0.02877463
#
# Stress axis : x y z
#
# Youngs Moduli (GPa) = 81.66243 124.26922 34.23848
#
# Poissons Ratio (x) = 0.29773 0.15605
# Poissons Ratio (y) = 0.19565 0.11672
# Poissons Ratio (z) = 0.37219 0.42363
#
# Static dielectric constant tensor:
#      x y z
#    x 3.720720 0.000000 0.000000 
#    y 0.000000 3.710050 0.000000 
#    z 0.000000 0.000000 3.297700 
# 
# 
# High freq. dielectric constant tensor:
#      x y z
#    x 1.754460 0.000000 0.000000 
#    y 0.000000 1.769740 0.000000 
#    z 0.000000 0.000000 1.728090 
# 
# From -- ./inp_files/8675.got.cif
#   From: 2010.03.12/outbox.cif.g09.slc.cpg/sg55_5_cif.got.tgz:8675.got - 2010.04.16 15:19:21.
