data_PCOD8225650
_publ_section_title
;
Structure prediction by ZEFSAII (Michael W. Deem and Ramdas Pophale) SiO2 
 PCOD8225650
Probable space group: P B A M
;
_chemical_formula_sum "Si O2"
_cell_formula_units_Z 64
_cell_length_a 9.009545
_cell_length_b 19.699060
_cell_length_c 18.732453
_cell_angle_alpha 90.000000
_cell_angle_beta 90.000000
_cell_angle_gamma 90.000000
_cell_volume 3324.627657
_symmetry_space_group_name_H-M "P B A M"
_symmetry_group_IT_number 55
_symmetry_cell_setting 'orthorhombic'
loop_
_space_group_symop_operation_xyz
x,y,z
-x,-y,z
1/2+x,1/2-y,-z
1/2-x,1/2+y,-z
-x,-y,-z
x,y,-z
1/2-x,1/2+y,z
1/2+x,1/2-y,z
loop_
_atom_site_type_symbol
_atom_site_label
_atom_site_fract_x
_atom_site_fract_y
_atom_site_fract_z
Si Si1 0.322911 0.162908 0.581063
Si Si2 0.335393 0.479148 0.789705
Si Si3 0.659571 0.968923 0.921839
Si Si4 0.644405 0.664217 0.718707
Si Si5 0.121498 0.245249 0.212949
Si Si6 0.381435 0.060451 0.703371
Si Si7 0.111030 0.657650 0.833472
Si Si8 0.484933 0.300415 0.581412
O O1 0.335706 0.137786 0.500000
O O2 0.360902 0.097351 0.628217
O O3 0.441273 0.222210 0.596977
O O4 0.158695 0.190816 0.597161
O O5 0.500000 0.500000 0.807482
O O6 0.248123 0.487326 0.863802
O O7 0.322859 0.402990 0.762708
O O8 0.274592 0.528571 0.728088
O O9 0.636494 0.890639 0.900534
O O10 0.500000 0.000000 0.927850
O O11 0.737998 0.971747 0.000000
O O12 0.493958 0.698883 0.745445
O O13 0.786548 0.712107 0.728600
O O14 0.614110 0.651850 0.634096
O O15 0.235764 0.198893 0.170086
O O16 0.030177 0.292378 0.156844
O O17 0.429113 0.115481 0.762082
O O18 0.500000 0.000000 0.697519
O O19 0.444386 0.320436 0.500000
#
# Coordination Sequence:
#
# PCOD8225650 Si02
#       8
#     8   8   8   8   8   8   8   8
#     4  10  21  37  55  79 109 143 187 234 284 341
#     4  11  22  36  58  85 112 143 184 231 274 321
#     4  10  21  39  61  82 111 150 185 218 262 324
#     4  11  19  33  53  80 108 139 184 228 273 327
#     4  10  20  31  56  81 107 140 177 228 277 320
#     4  11  22  36  55  77 109 150 188 229 276 332
#     4  10  19  36  55  83 110 138 179 222 270 323
#     4  10  20  34  54  78 107 142 181 232 288 338
#
# _framework density 19.250275999999999
#
# number of rings (size 3 to 8) (size 9 to 14) (size 15 to 20)
#    0.000    1.625    0.000    8.250    0.000    1.500 
#    0.000    1.250    0.000    5.250    0.000    0.000 
#    0.000    0.000    0.000    0.000    0.000    0.000 
#
# Total GULP energy -793477.753437 kJ/mol
# GULP energy per Si atom -12398.089897 kJ/mol
# Density = 1.920646 g / cm^3
# Si number density = 19.250276 Si / 1000 Ang^3
#
#
#
# Elastic Constant Matrix: (Units=GPa)
#
#
# Indices 1 2 3 4 5 6 
#
# 1 102.3930 51.7740 46.2607 0.0000 0.0000 0.0000
# 2 51.7740 120.4292 73.9048 0.0000 0.0000 0.0000
# 3 46.2607 73.9048 125.5662 0.0000 0.0000 0.0000
# 4 0.0000 0.0000 0.0000 -2.0992 0.0000 0.0000
# 5 0.0000 0.0000 0.0000 0.0000 20.5112 0.0000
# 6 0.0000 0.0000 0.0000 0.0000 0.0000 -38.3563
#
#
#
# Elastic Compliance Matrix: (Units=1/GPa)
#
#
# Indices 1 2 3 4 5 6 
#
# 1 0.012900 -0.004116 -0.002330 0.000000 0.000000 0.000000
# 2 -0.004116 0.014312 -0.006907 0.000000 0.000000 0.000000
# 3 -0.002330 -0.006907 0.012888 0.000000 0.000000 0.000000
# 4 0.000000 0.000000 0.000000 -0.476378 0.000000 0.000000
# 5 0.000000 0.000000 0.000000 0.000000 0.048754 0.000000
# 6 0.000000 0.000000 0.000000 0.000000 0.000000 -0.026071
#
#
# Mechanical properties :
#
#
# Convention : Reuss Voigt Hill
#
# Bulk Modulus (GPa) = 74.66415 76.91859 75.79137
# Shear Modulus (GPa) = -13.07449 7.77441 -2.65004
#
# Velocity S-wave (km/s) = -2.60894 2.01181 -1.17457
# Velocity P-wave (km/s) = 5.45846 6.74095 6.13332
#
# Compressibility (1/GPa) = 0.01339331
#
# Stress axis : x y z
#
# Youngs Moduli (GPa) = 77.51783 69.87153 77.59304
#
# Poissons Ratio (x) = 0.28760 0.18080
# Poissons Ratio (y) = 0.31907 0.53595
# Poissons Ratio (z) = 0.18062 0.48262
#
# Static dielectric constant tensor:
#      x y z
#    x 3.670780 0.000000 0.000000 
#    y 0.000000 3.616060 0.000000 
#    z 0.000000 0.000000 3.621050 
# 
# 
# High freq. dielectric constant tensor:
#      x y z
#    x 1.763170 0.000000 0.000000 
#    y 0.000000 1.747650 0.000000 
#    z 0.000000 0.000000 1.733240 
# 
# From -- ./inp_files/21107.got.cif
#   From: 2010.03.12/outbox.cif.g09.slc.cpg/sg55_11_cif.got.tgz:21107.got - 2010.04.16 15:19:21.
