data_PCOD8225266
_publ_section_title
;
Structure prediction by ZEFSAII (Michael W. Deem and Ramdas Pophale) SiO2 
 PCOD8225266
Probable space group: P B A M
;
_chemical_formula_sum "Si O2"
_cell_formula_units_Z 40
_cell_length_a 10.359840
_cell_length_b 21.483110
_cell_length_c 8.698508
_cell_angle_alpha 90.000000
_cell_angle_beta 90.000000
_cell_angle_gamma 90.000000
_cell_volume 1935.953704
_symmetry_space_group_name_H-M "P B A M"
_symmetry_group_IT_number 55
_symmetry_cell_setting 'orthorhombic'
loop_
_space_group_symop_operation_xyz
x,y,z
-x,-y,z
1/2+x,1/2-y,-z
1/2-x,1/2+y,-z
-x,-y,-z
x,y,-z
1/2-x,1/2+y,z
1/2+x,1/2-y,z
loop_
_atom_site_type_symbol
_atom_site_label
_atom_site_fract_x
_atom_site_fract_y
_atom_site_fract_z
Si Si1 0.025048 0.193084 0.317994
Si Si2 0.663653 0.042183 0.822207
Si Si3 0.046907 0.933768 0.178264
Si Si4 0.308456 0.215342 0.682261
Si Si5 0.591428 0.917042 0.681102
O O1 0.018843 0.192437 0.500000
O O2 0.160019 0.225365 0.264560
O O3 0.025087 0.122039 0.263270
O O4 0.903715 0.231666 0.248215
O O5 0.800831 0.074099 0.794013
O O6 0.560386 0.079213 0.720029
O O7 0.670088 0.970303 0.770219
O O8 0.622970 0.044861 0.000000
O O9 0.009945 0.930294 0.000000
O O10 0.000000 0.000000 0.246432
O O11 0.319698 0.217249 0.500000
O O12 0.355958 0.148483 0.741829
O O13 0.611271 0.925799 0.500000
#
# Coordination Sequence:
#
# PCOD8225266 Si02
#       5
#     8   8   8   8   8
#     4  10  21  38  60  85 113 148 188 229 280 335
#     4  10  20  34  54  81 112 147 186 229 282 331
#     4  10  22  39  57  80 113 149 188 235 285 334
#     4   9  20  36  57  84 114 145 182 230 280 332
#     4  10  19  33  55  83 113 146 187 229 277 334
#
# _framework density 20.661650000000002
#
# number of rings (size 3 to 8) (size 9 to 14) (size 15 to 20)
#    0.000    2.200    0.000    3.600    2.800    2.000 
#    0.000    4.000    0.000    0.000    0.000    0.000 
#    0.000    0.000    0.000    0.000    0.000    0.000 
#
# Total GULP energy -495988.416440 kJ/mol
# GULP energy per Si atom -12399.710411 kJ/mol
# Density = 2.061462 g / cm^3
# Si number density = 20.661650 Si / 1000 Ang^3
#
#
#
# Elastic Constant Matrix: (Units=GPa)
#
#
# Indices 1 2 3 4 5 6 
#
# 1 124.2895 67.0395 18.1129 0.0000 0.0000 0.0000
# 2 67.0395 115.0957 12.8811 0.0000 0.0000 0.0000
# 3 18.1129 12.8811 27.8190 0.0000 0.0000 0.0000
# 4 0.0000 0.0000 0.0000 13.0298 0.0000 0.0000
# 5 0.0000 0.0000 0.0000 0.0000 18.2513 0.0000
# 6 0.0000 0.0000 0.0000 0.0000 0.0000 35.8094
#
#
#
# Elastic Compliance Matrix: (Units=1/GPa)
#
#
# Indices 1 2 3 4 5 6 
#
# 1 0.012350 -0.006637 -0.004968 0.000000 0.000000 0.000000
# 2 -0.006637 0.012731 -0.001573 0.000000 0.000000 0.000000
# 3 -0.004968 -0.001573 0.039909 0.000000 0.000000 0.000000
# 4 0.000000 0.000000 0.000000 0.076747 0.000000 0.000000
# 5 0.000000 0.000000 0.000000 0.000000 0.054791 0.000000
# 6 0.000000 0.000000 0.000000 0.000000 0.000000 0.027926
#
#
# Mechanical properties :
#
#
# Convention : Reuss Voigt Hill
#
# Bulk Modulus (GPa) = 25.88418 51.47456 38.67937
# Shear Modulus (GPa) = 18.96190 24.69616 21.82903
#
# Velocity S-wave (km/s) = 3.03270 3.46101 3.25391
# Velocity P-wave (km/s) = 4.98175 6.39833 5.73396
#
# Compressibility (1/GPa) = 0.03863363
#
# Stress axis : x y z
#
# Youngs Moduli (GPa) = 80.97342 78.55134 25.05679
#
# Poissons Ratio (x) = 0.52137 0.12447
# Poissons Ratio (y) = 0.53745 0.03942
# Poissons Ratio (z) = 0.40224 0.12357
#
# Static dielectric constant tensor:
#      x y z
#    x 4.044490 0.000000 0.000000 
#    y 0.000000 3.791550 0.000000 
#    z 0.000000 0.000000 3.400880 
# 
# 
# High freq. dielectric constant tensor:
#      x y z
#    x 1.824070 0.000000 0.000000 
#    y 0.000000 1.806750 0.000000 
#    z 0.000000 0.000000 1.779180 
# 
# From -- ./inp_files/3842.got.cif
#   From: 2010.03.12/outbox.cif.g09.slc.cpg/sg55_2_cif.got.tgz:3842.got - 2010.04.16 15:19:21.
