data_PCOD8225529
_publ_section_title
;
Structure prediction by ZEFSAII (Michael W. Deem and Ramdas Pophale) SiO2 
 PCOD8225529
Probable space group: P B A M
;
_chemical_formula_sum "Si O2"
_cell_formula_units_Z 48
_cell_length_a 17.417560
_cell_length_b 14.493665
_cell_length_c 11.091811
_cell_angle_alpha 90.000000
_cell_angle_beta 90.000000
_cell_angle_gamma 90.000000
_cell_volume 2800.064239
_symmetry_space_group_name_H-M "P B A M"
_symmetry_group_IT_number 55
_symmetry_cell_setting 'orthorhombic'
loop_
_space_group_symop_operation_xyz
x,y,z
-x,-y,z
1/2+x,1/2-y,-z
1/2-x,1/2+y,-z
-x,-y,-z
x,y,-z
1/2-x,1/2+y,z
1/2+x,1/2-y,z
loop_
_atom_site_type_symbol
_atom_site_label
_atom_site_fract_x
_atom_site_fract_y
_atom_site_fract_z
Si Si1 0.814107 0.305496 0.500000
Si Si2 0.678644 0.564667 0.750531
Si Si3 0.989788 0.103570 0.705973
Si Si4 0.517019 0.752833 0.500000
Si Si5 0.276553 0.772750 0.288793
Si Si6 0.754891 0.004690 0.500000
Si Si7 0.141066 0.119567 0.139804
Si Si8 0.868443 0.654115 0.500000
O O1 0.905097 0.310713 0.500000
O O2 0.793860 0.252957 0.376961
O O3 0.765423 0.398394 0.500000
O O4 0.594530 0.609845 0.765157
O O5 0.744926 0.638394 0.785485
O O6 0.692679 0.530404 0.613530
O O7 0.684039 0.477751 0.839775
O O8 0.996593 0.185633 0.611789
O O9 0.055796 0.119429 0.805127
O O10 0.000000 0.000000 0.649724
O O11 0.460115 0.841133 0.500000
O O12 0.302694 0.695975 0.195547
O O13 0.346788 0.793143 0.377417
O O14 0.671831 0.054663 0.500000
O O15 0.132471 0.140992 0.000000
#
# Coordination Sequence:
#
# PCOD8225529 Si02
#       8
#     4   8   8   4   8   4   8   4
#     4  11  20  31  59  80 112 130 175 223 273 333
#     4  10  20  35  57  78 111 137 178 221 276 324
#     4  10  21  32  51  81 112 138 169 218 271 330
#     4  12  18  33  53  85 109 136 171 211 280 340
#     4  10  19  36  53  81 106 142 175 224 273 322
#     4  10  19  35  53  84 107 141 168 222 278 326
#     4  11  23  37  54  76 107 149 190 223 262 307
#     4   9  20  31  54  78 109 136 171 214 277 332
#
# _framework density 17.142464
#
# number of rings (size 3 to 8) (size 9 to 14) (size 15 to 20)
#    0.000    1.667    5.000    1.250    0.000    6.000 
#    0.000    0.000    0.000    0.000    0.000    0.000 
#    0.000    8.000    0.000    0.000    0.000    0.000 
#
# Total GULP energy -594859.874662 kJ/mol
# GULP energy per Si atom -12392.914055 kJ/mol
# Density = 1.710345 g / cm^3
# Si number density = 17.142464 Si / 1000 Ang^3
#
#
#
# Elastic Constant Matrix: (Units=GPa)
#
#
# Indices 1 2 3 4 5 6 
#
# 1 107.4080 32.6748 29.4099 0.0000 0.0000 0.0000
# 2 32.6748 70.9373 27.0522 0.0000 0.0000 0.0000
# 3 29.4099 27.0522 81.6501 0.0000 0.0000 0.0000
# 4 0.0000 0.0000 0.0000 9.6491 0.0000 0.0000
# 5 0.0000 0.0000 0.0000 0.0000 8.8448 0.0000
# 6 0.0000 0.0000 0.0000 0.0000 0.0000 28.5136
#
#
#
# Elastic Compliance Matrix: (Units=1/GPa)
#
#
# Indices 1 2 3 4 5 6 
#
# 1 0.011321 -0.004189 -0.002690 0.000000 0.000000 0.000000
# 2 -0.004189 0.017686 -0.004351 0.000000 0.000000 0.000000
# 3 -0.002690 -0.004351 0.014658 0.000000 0.000000 0.000000
# 4 0.000000 0.000000 0.000000 0.103637 0.000000 0.000000
# 5 0.000000 0.000000 0.000000 0.000000 0.113061 0.000000
# 6 0.000000 0.000000 0.000000 0.000000 0.000000 0.035071
#
#
# Mechanical properties :
#
#
# Convention : Reuss Voigt Hill
#
# Bulk Modulus (GPa) = 47.15790 48.69655 47.92722
# Shear Modulus (GPa) = 15.38650 20.79207 18.08928
#
# Velocity S-wave (km/s) = 2.99919 3.48645 3.25196
# Velocity P-wave (km/s) = 6.28989 6.68399 6.48993
#
# Compressibility (1/GPa) = 0.02120535
#
# Stress axis : x y z
#
# Youngs Moduli (GPa) = 88.33026 56.54318 68.22313
#
# Poissons Ratio (x) = 0.23685 0.18352
# Poissons Ratio (y) = 0.37000 0.29682
# Poissons Ratio (z) = 0.23761 0.24601
#
# Static dielectric constant tensor:
#      x y z
#    x 3.194370 0.000000 0.000000 
#    y 0.000000 3.239160 0.000000 
#    z 0.000000 0.000000 2.907660 
# 
# 
# High freq. dielectric constant tensor:
#      x y z
#    x 1.666690 0.000000 0.000000 
#    y 0.000000 1.662600 0.000000 
#    z 0.000000 0.000000 1.632150 
# 
# From -- ./inp_files/14204.got.cif
#   From: 2010.03.12/outbox.cif.g09.slc.cpg/sg55_8_cif.got.tgz:14204.got - 2010.04.16 15:19:21.
