data_PCOD8225952
_publ_section_title
;
Structure prediction by ZEFSAII (Michael W. Deem and Ramdas Pophale) SiO2 
 PCOD8225952
Probable space group: P B A M
;
_chemical_formula_sum "Si O2"
_cell_formula_units_Z 56
_cell_length_a 23.246693
_cell_length_b 13.965468
_cell_length_c 9.305287
_cell_angle_alpha 90.000000
_cell_angle_beta 90.000000
_cell_angle_gamma 90.000000
_cell_volume 3020.970238
_symmetry_space_group_name_H-M "P B A M"
_symmetry_group_IT_number 55
_symmetry_cell_setting 'orthorhombic'
loop_
_space_group_symop_operation_xyz
x,y,z
-x,-y,z
1/2+x,1/2-y,-z
1/2-x,1/2+y,-z
-x,-y,-z
x,y,-z
1/2-x,1/2+y,z
1/2+x,1/2-y,z
loop_
_atom_site_type_symbol
_atom_site_label
_atom_site_fract_x
_atom_site_fract_y
_atom_site_fract_z
Si Si1 0.970100 0.402416 0.334007
Si Si2 0.047027 0.217960 0.663226
Si Si3 0.435141 0.381576 0.667896
Si Si4 0.343005 0.476689 0.167951
Si Si5 0.837382 0.807928 0.168090
Si Si6 0.271744 0.297910 0.164393
Si Si7 0.114322 0.702808 0.834681
O O1 0.951329 0.404459 0.500000
O O2 0.912362 0.392915 0.236369
O O3 0.000000 0.500000 0.286490
O O4 0.013508 0.315724 0.302184
O O5 0.069081 0.217821 0.500000
O O6 0.101460 0.214035 0.764683
O O7 0.004526 0.125926 0.687889
O O8 0.419568 0.384827 0.500000
O O9 0.404485 0.470463 0.748261
O O10 0.409175 0.288127 0.739157
O O11 0.318217 0.582178 0.195900
O O12 0.297858 0.396938 0.230089
O O13 0.355093 0.456154 0.000000
O O14 0.788058 0.738369 0.236037
O O15 0.843766 0.789540 0.000000
O O16 0.316538 0.208959 0.176599
O O17 0.258074 0.320472 0.000000
O O18 0.094264 0.711787 0.000000
#
# Coordination Sequence:
#
# PCOD8225952 Si02
#       7
#     8   8   8   8   8   8   8
#     4   9  18  34  53  73 103 141 174 207 257 316
#     4   9  19  34  50  72 103 135 165 208 258 300
#     4   9  17  31  52  74  99 132 165 200 253 309
#     4   9  18  33  53  74  98 131 171 212 253 304
#     4  10  20  34  52  74 102 137 171 208 261 311
#     4   8  16  33  51  70  98 132 167 209 254 300
#     4   9  16  29  51  76 100 128 169 216 253 294
#
# _framework density 18.537091
#
# number of rings (size 3 to 8) (size 9 to 14) (size 15 to 20)
#    0.000    3.000    0.000    2.571    0.000    4.286 
#    2.571    6.429    0.000    0.000    0.000    0.000 
#    0.000    0.000    0.000    0.000    0.000    0.000 
#
# Total GULP energy -693798.244008 kJ/mol
# GULP energy per Si atom -12389.254357 kJ/mol
# Density = 1.849490 g / cm^3
# Si number density = 18.537091 Si / 1000 Ang^3
#
#
#
# Elastic Constant Matrix: (Units=GPa)
#
#
# Indices 1 2 3 4 5 6 
#
# 1 100.1821 30.8977 36.4687 0.0000 0.0000 0.0000
# 2 30.8977 49.2800 23.0810 0.0000 0.0000 0.0000
# 3 36.4687 23.0810 53.8261 0.0000 0.0000 0.0000
# 4 0.0000 0.0000 0.0000 21.9814 0.0000 0.0000
# 5 0.0000 0.0000 0.0000 0.0000 8.1092 0.0000
# 6 0.0000 0.0000 0.0000 0.0000 0.0000 23.7979
#
#
#
# Elastic Compliance Matrix: (Units=1/GPa)
#
#
# Indices 1 2 3 4 5 6 
#
# 1 0.014376 -0.005570 -0.007352 0.000000 0.000000 0.000000
# 2 -0.005570 0.027550 -0.008040 0.000000 0.000000 0.000000
# 3 -0.007352 -0.008040 0.027007 0.000000 0.000000 0.000000
# 4 0.000000 0.000000 0.000000 0.045493 0.000000 0.000000
# 5 0.000000 0.000000 0.000000 0.000000 0.123316 0.000000
# 6 0.000000 0.000000 0.000000 0.000000 0.000000 0.042020
#
#
# Mechanical properties :
#
#
# Convention : Reuss Voigt Hill
#
# Bulk Modulus (GPa) = 37.02356 42.68700 39.85528
# Shear Modulus (GPa) = 15.11996 18.30044 16.71020
#
# Velocity S-wave (km/s) = 2.85907 3.14544 3.00567
# Velocity P-wave (km/s) = 5.56014 6.02242 5.79589
#
# Compressibility (1/GPa) = 0.02700983
#
# Stress axis : x y z
#
# Youngs Moduli (GPa) = 69.56084 36.29744 37.02785
#
# Poissons Ratio (x) = 0.20219 0.27221
# Poissons Ratio (y) = 0.38747 0.29769
# Poissons Ratio (z) = 0.51138 0.29182
#
# Static dielectric constant tensor:
#      x y z
#    x 3.739610 0.000000 0.000000 
#    y 0.000000 3.560890 0.000000 
#    z 0.000000 0.000000 3.421750 
# 
# 
# High freq. dielectric constant tensor:
#      x y z
#    x 1.712570 0.000000 0.000000 
#    y 0.000000 1.708260 0.000000 
#    z 0.000000 0.000000 1.704290 
# 
# From -- ./inp_files/6061.got.cif
#   From: 2010.03.12/outbox.cif.g09.slc.cpg/sg55_4_cif.got.tgz:6061.got - 2010.04.16 15:19:21.
