data_PCOD8225044
_publ_section_title
;
Structure prediction by ZEFSAII (Michael W. Deem and Ramdas Pophale) SiO2 
 PCOD8225044
Probable space group: P B A M
;
_chemical_formula_sum "Si O2"
_cell_formula_units_Z 64
_cell_length_a 8.813870
_cell_length_b 18.379990
_cell_length_c 20.486755
_cell_angle_alpha 90.000000
_cell_angle_beta 90.000000
_cell_angle_gamma 90.000000
_cell_volume 3318.830596
_symmetry_space_group_name_H-M "P B A M"
_symmetry_group_IT_number 55
_symmetry_cell_setting 'orthorhombic'
loop_
_space_group_symop_operation_xyz
x,y,z
-x,-y,z
1/2+x,1/2-y,-z
1/2-x,1/2+y,-z
-x,-y,-z
x,y,-z
1/2-x,1/2+y,z
1/2+x,1/2-y,z
loop_
_atom_site_type_symbol
_atom_site_label
_atom_site_fract_x
_atom_site_fract_y
_atom_site_fract_z
Si Si1 0.086042 0.655772 0.788203
Si Si2 0.936708 0.811750 0.790560
Si Si3 0.603572 0.295838 0.931040
Si Si4 0.567852 0.074877 0.674877
Si Si5 0.529173 0.659120 0.426538
Si Si6 0.078568 0.926134 0.303891
Si Si7 0.123716 0.305399 0.573400
Si Si8 0.435284 0.154374 0.069767
O O1 0.982116 0.727628 0.780470
O O2 0.031874 0.596162 0.737137
O O3 0.063506 0.614913 0.859396
O O4 0.259823 0.677565 0.773453
O O5 0.966905 0.834033 0.866705
O O6 0.041916 0.862177 0.746540
O O7 0.574067 0.209914 0.930898
O O8 0.784174 0.297558 0.928755
O O9 0.544330 0.331262 0.000000
O O10 0.741868 0.063919 0.694653
O O11 0.545328 0.135323 0.619303
O O12 0.500000 0.000000 0.646760
O O13 0.491834 0.631313 0.500000
O O14 0.511724 0.593109 0.375702
O O15 0.418768 0.724069 0.404219
O O16 0.696838 0.691078 0.422404
O O17 0.000000 0.000000 0.279878
O O18 0.063812 0.319418 0.500000
O O19 0.440071 0.108239 0.000000
#
# Coordination Sequence:
#
# PCOD8225044 Si02
#       8
#     8   8   8   8   8   8   8   8
#     4  10  19  32  52  77 105 136 171 211 254 302
#     4  10  19  32  52  77 105 136 171 211 254 302
#     4   8  14  25  43  69  99 129 162 203 250 297
#     4  11  23  37  53  74 103 137 173 213 256 303
#     4   9  19  36  57  80 104 131 165 205 249 298
#     4  11  23  37  53  74 103 137 173 213 256 303
#     4   9  19  36  57  80 104 131 165 205 249 298
#     4   8  14  25  43  69  99 129 162 203 250 297
#
# _framework density 19.283901
#
# number of rings (size 3 to 8) (size 9 to 14) (size 15 to 20)
#    0.000    2.500    0.000    2.250    0.000    5.500 
#    0.000    0.000    0.000    0.750    0.000    0.000 
#    0.000    0.000    0.000    0.000    0.000    0.000 
#
# Total GULP energy -792924.572708 kJ/mol
# GULP energy per Si atom -12389.446449 kJ/mol
# Density = 1.924001 g / cm^3
# Si number density = 19.283901 Si / 1000 Ang^3
#
#
#
# Elastic Constant Matrix: (Units=GPa)
#
#
# Indices 1 2 3 4 5 6 
#
# 1 49.2849 7.3016 15.8915 0.0000 0.0000 0.0000
# 2 7.3016 41.6849 14.1691 0.0000 0.0000 0.0000
# 3 15.8915 14.1691 78.5780 0.0000 0.0000 0.0000
# 4 0.0000 0.0000 0.0000 7.1911 0.0000 0.0000
# 5 0.0000 0.0000 0.0000 0.0000 25.2632 0.0000
# 6 0.0000 0.0000 0.0000 0.0000 0.0000 26.2145
#
#
#
# Elastic Compliance Matrix: (Units=1/GPa)
#
#
# Indices 1 2 3 4 5 6 
#
# 1 0.021945 -0.002488 -0.003990 0.000000 0.000000 0.000000
# 2 -0.002488 0.025838 -0.004156 0.000000 0.000000 0.000000
# 3 -0.003990 -0.004156 0.014282 0.000000 0.000000 0.000000
# 4 0.000000 0.000000 0.000000 0.139061 0.000000 0.000000
# 5 0.000000 0.000000 0.000000 0.000000 0.039583 0.000000
# 6 0.000000 0.000000 0.000000 0.000000 0.000000 0.038147
#
#
# Mechanical properties :
#
#
# Convention : Reuss Voigt Hill
#
# Bulk Modulus (GPa) = 24.51049 27.14135 25.82592
# Shear Modulus (GPa) = 15.93764 20.54613 18.24189
#
# Velocity S-wave (km/s) = 2.87796 3.26767 3.07899
# Velocity P-wave (km/s) = 4.87663 5.32373 5.10508
#
# Compressibility (1/GPa) = 0.04079885
#
# Stress axis : x y z
#
# Youngs Moduli (GPa) = 45.56812 38.70284 70.01607
#
# Poissons Ratio (x) = 0.09629 0.27933
# Poissons Ratio (y) = 0.11337 0.29098
# Poissons Ratio (z) = 0.18180 0.16085
#
# Static dielectric constant tensor:
#      x y z
#    x 3.510320 0.000000 0.000000 
#    y 0.000000 3.080720 0.000000 
#    z 0.000000 0.000000 4.174140 
# 
# 
# High freq. dielectric constant tensor:
#      x y z
#    x 1.754220 0.000000 0.000000 
#    y 0.000000 1.697390 0.000000 
#    z 0.000000 0.000000 1.776850 
# 
# From -- ./inp_files/22702.got.cif
#   From: 2010.03.12/outbox.cif.g09.slc.cpg/sg55_12_cif.got.tgz:22702.got - 2010.04.16 15:19:21.
