data_PCOD8225052
_publ_section_title
;
Structure prediction by ZEFSAII (Michael W. Deem and Ramdas Pophale) SiO2 
 PCOD8225052
Probable space group: P B A M
;
_chemical_formula_sum "Si O2"
_cell_formula_units_Z 64
_cell_length_a 19.234279
_cell_length_b 20.819678
_cell_length_c 8.864338
_cell_angle_alpha 90.000000
_cell_angle_beta 90.000000
_cell_angle_gamma 90.000000
_cell_volume 3549.737407
_symmetry_space_group_name_H-M "P B A M"
_symmetry_group_IT_number 55
_symmetry_cell_setting 'orthorhombic'
loop_
_space_group_symop_operation_xyz
x,y,z
-x,-y,z
1/2+x,1/2-y,-z
1/2-x,1/2+y,-z
-x,-y,-z
x,y,-z
1/2-x,1/2+y,z
1/2+x,1/2-y,z
loop_
_atom_site_type_symbol
_atom_site_label
_atom_site_fract_x
_atom_site_fract_y
_atom_site_fract_z
Si Si1 0.323778 0.512847 0.178388
Si Si2 0.824015 0.133090 0.177545
Si Si3 0.471560 0.815711 0.177051
Si Si4 0.467188 0.316935 0.179929
Si Si5 0.957280 0.937197 0.321915
Si Si6 0.462171 0.062987 0.327245
Si Si7 0.671669 0.128047 0.177636
Si Si8 0.183295 0.505954 0.673150
O O1 0.335085 0.439704 0.234587
O O2 0.378915 0.557643 0.261951
O O3 0.246849 0.534230 0.229426
O O4 0.331585 0.520936 0.000000
O O5 0.886756 0.177739 0.238241
O O6 0.746968 0.157468 0.227700
O O7 0.828257 0.132411 0.000000
O O8 0.500671 0.749065 0.244550
O O9 0.516231 0.874150 0.238295
O O10 0.389740 0.822340 0.219238
O O11 0.481925 0.815546 0.000000
O O12 0.510101 0.375377 0.245797
O O13 0.471880 0.320083 0.000000
O O14 0.957460 0.928432 0.500000
O O15 0.000000 0.000000 0.271002
O O16 0.485718 0.071290 0.500000
O O17 0.500000 0.000000 0.258927
O O18 0.379378 0.056232 0.311471
O O19 0.656947 0.062424 0.265331
O O20 0.672528 0.111852 0.000000
O O21 0.206353 0.497627 0.500000
#
# Coordination Sequence:
#
# PCOD8225052 Si02
#       8
#     8   8   8   8   8   8   8   8
#     4  10  19  33  55  81 107 142 180 223 277 326
#     4   8  15  29  51  73  99 135 176 217 265 324
#     4  10  21  34  53  80 110 142 186 235 274 320
#     4  10  20  36  54  77 108 146 186 225 276 328
#     4  11  22  35  54  82 111 140 179 225 270 319
#     4  10  20  35  54  77 107 144 181 217 275 334
#     4   9  17  31  50  76 104 137 179 227 276 322
#     4  10  19  32  52  79 109 140 178 227 272 326
#
# _framework density 18.029502000000001
#
# number of rings (size 3 to 8) (size 9 to 14) (size 15 to 20)
#    0.000    2.250    2.500    1.875    0.000    2.250 
#    0.000    1.250    0.000    3.000    0.000    0.000 
#    0.000    0.000    0.000    0.000    0.000    0.000 
#
# Total GULP energy -793445.690512 kJ/mol
# GULP energy per Si atom -12397.588914 kJ/mol
# Density = 1.798847 g / cm^3
# Si number density = 18.029502 Si / 1000 Ang^3
#
#
#
# Elastic Constant Matrix: (Units=GPa)
#
#
# Indices 1 2 3 4 5 6 
#
# 1 144.0701 71.8522 23.7987 0.0000 0.0000 0.0000
# 2 71.8522 115.3028 22.1964 0.0000 0.0000 0.0000
# 3 23.7987 22.1964 24.2027 0.0000 0.0000 0.0000
# 4 0.0000 0.0000 0.0000 15.3284 0.0000 0.0000
# 5 0.0000 0.0000 0.0000 0.0000 14.8917 0.0000
# 6 0.0000 0.0000 0.0000 0.0000 0.0000 25.1404
#
#
#
# Elastic Compliance Matrix: (Units=1/GPa)
#
#
# Indices 1 2 3 4 5 6 
#
# 1 0.010603 -0.005587 -0.005303 0.000000 0.000000 0.000000
# 2 -0.005587 0.013476 -0.006865 0.000000 0.000000 0.000000
# 3 -0.005303 -0.006865 0.052828 0.000000 0.000000 0.000000
# 4 0.000000 0.000000 0.000000 0.065239 0.000000 0.000000
# 5 0.000000 0.000000 0.000000 0.000000 0.067151 0.000000
# 6 0.000000 0.000000 0.000000 0.000000 0.000000 0.039777
#
#
# Mechanical properties :
#
#
# Convention : Reuss Voigt Hill
#
# Bulk Modulus (GPa) = 24.15584 57.69670 40.92627
# Shear Modulus (GPa) = 16.75701 22.12065 19.43883
#
# Velocity S-wave (km/s) = 3.05195 3.50653 3.28711
# Velocity P-wave (km/s) = 5.08392 6.96169 6.09555
#
# Compressibility (1/GPa) = 0.04139785
#
# Stress axis : x y z
#
# Youngs Moduli (GPa) = 94.31034 74.20656 18.92931
#
# Poissons Ratio (x) = 0.41458 0.10038
# Poissons Ratio (y) = 0.52689 0.12996
# Poissons Ratio (z) = 0.50009 0.50945
#
# Static dielectric constant tensor:
#      x y z
#    x 3.838470 0.000000 0.000000 
#    y 0.000000 3.187510 0.000000 
#    z 0.000000 0.000000 3.199820 
# 
# 
# High freq. dielectric constant tensor:
#      x y z
#    x 1.718790 0.000000 0.000000 
#    y 0.000000 1.665350 0.000000 
#    z 0.000000 0.000000 1.686830 
# 
# From -- ./inp_files/9021.got.cif
#   From: 2010.03.12/outbox.cif.g09.slc.cpg/sg55_5_cif.got.tgz:9021.got - 2010.04.16 15:19:21.
