data_PCOD8225615
_publ_section_title
;
Structure prediction by ZEFSAII (Michael W. Deem and Ramdas Pophale) SiO2 
 PCOD8225615
Probable space group: P B A M
;
_chemical_formula_sum "Si O2"
_cell_formula_units_Z 64
_cell_length_a 29.013232
_cell_length_b 12.345896
_cell_length_c 9.327633
_cell_angle_alpha 90.000000
_cell_angle_beta 90.000000
_cell_angle_gamma 90.000000
_cell_volume 3341.105392
_symmetry_space_group_name_H-M "P B A M"
_symmetry_group_IT_number 55
_symmetry_cell_setting 'orthorhombic'
loop_
_space_group_symop_operation_xyz
x,y,z
-x,-y,z
1/2+x,1/2-y,-z
1/2-x,1/2+y,-z
-x,-y,-z
x,y,-z
1/2-x,1/2+y,z
1/2+x,1/2-y,z
loop_
_atom_site_type_symbol
_atom_site_label
_atom_site_fract_x
_atom_site_fract_y
_atom_site_fract_z
Si Si1 0.250795 0.101994 0.158737
Si Si2 0.819143 0.198888 0.160815
Si Si3 0.178914 0.211895 0.660588
Si Si4 0.575770 0.226791 0.670202
Si Si5 0.002924 0.127464 0.169043
Si Si6 0.554344 0.009560 0.162542
Si Si7 0.582507 0.774524 0.169698
Si Si8 0.746442 0.087961 0.660752
O O1 0.285486 0.200060 0.154900
O O2 0.201185 0.127602 0.229417
O O3 0.276148 0.010944 0.252731
O O4 0.240865 0.058022 0.000000
O O5 0.868411 0.232227 0.227453
O O6 0.795692 0.112520 0.265093
O O7 0.825328 0.151385 0.000000
O O8 0.180029 0.163543 0.500000
O O9 0.127403 0.238000 0.708109
O O10 0.209232 0.319100 0.667126
O O11 0.566665 0.221971 0.500000
O O12 0.543815 0.317381 0.742442
O O13 0.568631 0.107789 0.735303
O O14 0.956218 0.188366 0.217948
O O15 0.012201 0.143712 0.000000
O O16 0.000000 0.000000 0.207623
O O17 0.573520 0.896245 0.228240
O O18 0.500000 0.000000 0.158859
O O19 0.572620 0.030499 0.000000
O O20 0.583277 0.783374 0.000000
O O21 0.757496 0.052434 0.500000
#
# Coordination Sequence:
#
# PCOD8225615 Si02
#       8
#     8   8   8   8   8   8   8   8
#     4  10  20  34  55  82 108 139 184 237 281 319
#     4   9  19  35  54  79 110 141 183 234 274 318
#     4   9  21  39  55  77 112 152 186 221 273 336
#     4  11  23  38  57  85 118 148 188 238 283 332
#     4  10  21  39  61  83 111 150 193 231 276 339
#     4  10  19  35  60  84 114 152 187 228 280 338
#     4   9  18  35  57  84 114 146 184 230 281 330
#     4  10  20  36  56  77 109 150 184 220 274 337
#
# _framework density 19.155339000000001
#
# number of rings (size 3 to 8) (size 9 to 14) (size 15 to 20)
#    0.000    2.250    1.250    1.125    1.750    3.500 
#    0.000    2.500    0.000    0.000    0.000    0.000 
#    0.000    0.000    0.000    0.000    0.000    0.000 
#
# Total GULP energy -793413.430824 kJ/mol
# GULP energy per Si atom -12397.084857 kJ/mol
# Density = 1.911174 g / cm^3
# Si number density = 19.155339 Si / 1000 Ang^3
#
#
#
# Elastic Constant Matrix: (Units=GPa)
#
#
# Indices 1 2 3 4 5 6 
#
# 1 118.0000 26.4309 37.6956 0.0000 0.0000 0.0000
# 2 26.4309 91.4256 40.0550 0.0000 0.0000 0.0000
# 3 37.6956 40.0550 103.9227 0.0000 0.0000 0.0000
# 4 0.0000 0.0000 0.0000 32.7210 0.0000 0.0000
# 5 0.0000 0.0000 0.0000 0.0000 4.5100 0.0000
# 6 0.0000 0.0000 0.0000 0.0000 0.0000 -13.4556
#
#
#
# Elastic Compliance Matrix: (Units=1/GPa)
#
#
# Indices 1 2 3 4 5 6 
#
# 1 0.009760 -0.001529 -0.002951 0.000000 0.000000 0.000000
# 2 -0.001529 0.013400 -0.004610 0.000000 0.000000 0.000000
# 3 -0.002951 -0.004610 0.012470 0.000000 0.000000 0.000000
# 4 0.000000 0.000000 0.000000 0.030561 0.000000 0.000000
# 5 0.000000 0.000000 0.000000 0.000000 0.221728 0.000000
# 6 0.000000 0.000000 0.000000 0.000000 0.000000 -0.074318
#
#
# Mechanical properties :
#
#
# Convention : Reuss Voigt Hill
#
# Bulk Modulus (GPa) = 57.30771 57.96791 57.63781
# Shear Modulus (GPa) = 21.04413 18.69955 19.87184
#
# Velocity S-wave (km/s) = 3.31812 3.12782 3.22437
# Velocity P-wave (km/s) = 6.68298 6.58574 6.63454
#
# Compressibility (1/GPa) = 0.01744966
#
# Stress axis : x y z
#
# Youngs Moduli (GPa) = 102.46259 74.62938 80.19386
#
# Poissons Ratio (x) = 0.11408 0.23664
# Poissons Ratio (y) = 0.15663 0.36970
# Poissons Ratio (z) = 0.30236 0.34405
#
# Static dielectric constant tensor:
#      x y z
#    x 3.563610 0.000000 0.000000 
#    y 0.000000 3.240900 0.000000 
#    z 0.000000 0.000000 3.604830 
# 
# 
# High freq. dielectric constant tensor:
#      x y z
#    x 1.744710 0.000000 0.000000 
#    y 0.000000 1.751150 0.000000 
#    z 0.000000 0.000000 1.734110 
# 
# From -- ./inp_files/10758.got.cif
#   From: 2010.03.12/outbox.cif.g09.slc.cpg/sg55_6_cif.got.tgz:10758.got - 2010.04.16 15:19:21.
