data_PCOD8225417
_publ_section_title
;
Structure prediction by ZEFSAII (Michael W. Deem and Ramdas Pophale) SiO2 
 PCOD8225417
Probable space group: P B A M
;
_chemical_formula_sum "Si O2"
_cell_formula_units_Z 52
_cell_length_a 14.733092
_cell_length_b 19.284797
_cell_length_c 9.398518
_cell_angle_alpha 90.000000
_cell_angle_beta 90.000000
_cell_angle_gamma 90.000000
_cell_volume 2670.350998
_symmetry_space_group_name_H-M "P B A M"
_symmetry_group_IT_number 55
_symmetry_cell_setting 'orthorhombic'
loop_
_space_group_symop_operation_xyz
x,y,z
-x,-y,z
1/2+x,1/2-y,-z
1/2-x,1/2+y,-z
-x,-y,-z
x,y,-z
1/2-x,1/2+y,z
1/2+x,1/2-y,z
loop_
_atom_site_type_symbol
_atom_site_label
_atom_site_fract_x
_atom_site_fract_y
_atom_site_fract_z
Si Si1 0.183487 0.063127 0.340499
Si Si2 0.500000 0.500000 0.266395
Si Si3 0.597707 0.625353 0.161110
Si Si4 0.710923 0.304207 0.831332
Si Si5 0.085187 0.724192 0.831244
Si Si6 0.225685 0.450629 0.169105
Si Si7 0.399331 0.830807 0.831484
O O1 0.217844 0.078737 0.500000
O O2 0.089786 0.019068 0.355749
O O3 0.163577 0.133763 0.254967
O O4 0.263505 0.022257 0.255561
O O5 0.519486 0.567641 0.170863
O O6 0.571277 0.698269 0.234540
O O7 0.691566 0.596994 0.222703
O O8 0.617372 0.644662 0.000000
O O9 0.665265 0.232256 0.779990
O O10 0.817015 0.305032 0.786981
O O11 0.697215 0.315935 0.000000
O O12 0.001823 0.677844 0.770765
O O13 0.076286 0.725387 0.000000
O O14 0.136703 0.406918 0.215713
O O15 0.228453 0.467270 0.000000
O O16 0.397329 0.828808 0.000000
#
# Coordination Sequence:
#
# PCOD8225417 Si02
#       7
#     8   4   8   8   8   8   8
#     4  11  23  37  52  73 107 143 177 220 269 319
#     4  10  20  32  52  76 105 142 179 212 269 332
#     4   9  15  26  47  80 112 135 164 213 265 317
#     4  10  19  34  56  82 110 140 176 219 268 318
#     4   9  16  27  49  80 111 138 170 216 269 316
#     4   9  17  32  53  76 103 136 174 213 259 312
#     4   9  16  29  53  82 108 134 171 220 266 312
#
# _framework density 19.473096000000002
#
# number of rings (size 3 to 8) (size 9 to 14) (size 15 to 20)
#    0.000    2.462    1.538    1.846    0.000    3.077 
#    0.000    1.538    0.000    6.462    0.000    0.000 
#    0.000    0.000    0.000    0.000    0.000    0.000 
#
# Total GULP energy -644230.926691 kJ/mol
# GULP energy per Si atom -12389.056283 kJ/mol
# Density = 1.942877 g / cm^3
# Si number density = 19.473096 Si / 1000 Ang^3
#
#
#
# Elastic Constant Matrix: (Units=GPa)
#
#
# Indices 1 2 3 4 5 6 
#
# 1 85.5222 7.2063 11.0476 0.0000 0.0000 0.0000
# 2 7.2063 69.6342 22.8538 0.0000 0.0000 0.0000
# 3 11.0476 22.8538 49.2491 0.0000 0.0000 0.0000
# 4 0.0000 0.0000 0.0000 6.4089 0.0000 0.0000
# 5 0.0000 0.0000 0.0000 0.0000 8.6005 0.0000
# 6 0.0000 0.0000 0.0000 0.0000 0.0000 30.3263
#
#
#
# Elastic Compliance Matrix: (Units=1/GPa)
#
#
# Indices 1 2 3 4 5 6 
#
# 1 0.012052 -0.000425 -0.002507 0.000000 0.000000 0.000000
# 2 -0.000425 0.016956 -0.007773 0.000000 0.000000 0.000000
# 3 -0.002507 -0.007773 0.024474 0.000000 0.000000 0.000000
# 4 0.000000 0.000000 0.000000 0.156032 0.000000 0.000000
# 5 0.000000 0.000000 0.000000 0.000000 0.116273 0.000000
# 6 0.000000 0.000000 0.000000 0.000000 0.000000 0.032975
#
#
# Mechanical properties :
#
#
# Convention : Reuss Voigt Hill
#
# Bulk Modulus (GPa) = 31.17784 31.84678 31.51231
# Shear Modulus (GPa) = 12.79225 19.95367 16.37296
#
# Velocity S-wave (km/s) = 2.56582 3.20453 2.90280
# Velocity P-wave (km/s) = 4.98231 5.48469 5.23952
#
# Compressibility (1/GPa) = 0.03207406
#
# Stress axis : x y z
#
# Youngs Moduli (GPa) = 82.97069 58.97690 40.85931
#
# Poissons Ratio (x) = 0.02504 0.10242
# Poissons Ratio (y) = 0.03523 0.31760
# Poissons Ratio (z) = 0.20797 0.45843
#
# Static dielectric constant tensor:
#      x y z
#    x 3.793450 0.000000 0.000000 
#    y 0.000000 3.754500 0.000000 
#    z 0.000000 0.000000 2.921400 
# 
# 
# High freq. dielectric constant tensor:
#      x y z
#    x 1.756020 0.000000 0.000000 
#    y 0.000000 1.763120 0.000000 
#    z 0.000000 0.000000 1.688960 
# 
# From -- ./inp_files/5905.got.cif
#   From: 2010.03.12/outbox.cif.g09.slc.cpg/sg55_3_cif.got.tgz:5905.got - 2010.04.16 15:19:21.
