data_PCOD8225061
_publ_section_title
;
Structure prediction by ZEFSAII (Michael W. Deem and Ramdas Pophale) SiO2 
 PCOD8225061
Probable space group: P B A M
;
_chemical_formula_sum "Si O2"
_cell_formula_units_Z 64
_cell_length_a 12.002335
_cell_length_b 28.986163
_cell_length_c 9.176846
_cell_angle_alpha 90.000000
_cell_angle_beta 90.000000
_cell_angle_gamma 90.000000
_cell_volume 3192.639761
_symmetry_space_group_name_H-M "P B A M"
_symmetry_group_IT_number 55
_symmetry_cell_setting 'orthorhombic'
loop_
_space_group_symop_operation_xyz
x,y,z
-x,-y,z
1/2+x,1/2-y,-z
1/2-x,1/2+y,-z
-x,-y,-z
x,y,-z
1/2-x,1/2+y,z
1/2+x,1/2-y,z
loop_
_atom_site_type_symbol
_atom_site_label
_atom_site_fract_x
_atom_site_fract_y
_atom_site_fract_z
Si Si1 0.525427 0.428721 0.666353
Si Si2 0.459206 0.273290 0.165472
Si Si3 0.966823 0.687700 0.668102
Si Si4 0.366175 0.652040 0.166978
Si Si5 0.754000 0.162715 0.829319
Si Si6 0.340043 0.121166 0.668264
Si Si7 0.192595 0.941157 0.828063
Si Si8 0.759678 0.476112 0.664073
O O1 0.489819 0.419067 0.500000
O O2 0.551604 0.380960 0.745318
O O3 0.424238 0.452522 0.751047
O O4 0.630817 0.462045 0.672482
O O5 0.458253 0.229087 0.269112
O O6 0.580599 0.297189 0.176099
O O7 0.363635 0.308905 0.216124
O O8 0.436351 0.257213 0.000000
O O9 0.943489 0.697647 0.500000
O O10 0.035592 0.640197 0.689823
O O11 0.850527 0.684819 0.749417
O O12 0.243568 0.652409 0.236662
O O13 0.359156 0.635093 0.000000
O O14 0.766617 0.109561 0.781410
O O15 0.731686 0.166127 0.000000
O O16 0.300474 0.124478 0.500000
O O17 0.334755 0.067432 0.717247
O O18 0.279724 0.979853 0.769193
O O19 0.179054 0.945693 0.000000
O O20 0.792943 0.490349 0.500000
#
# Coordination Sequence:
#
# PCOD8225061 Si02
#       8
#     8   8   8   8   8   8   8   8
#     4  10  19  32  52  81 121 160 192 235 295 352
#     4  10  22  41  62  86 119 157 193 238 300 361
#     4  11  25  42  63  90 117 152 202 252 294 348
#     4  10  19  34  58  87 116 152 196 236 286 350
#     4  10  23  44  63  85 122 160 196 242 299 357
#     4   9  21  41  59  83 122 157 193 245 298 350
#     4  11  21  35  56  85 118 154 201 252 293 347
#     4   9  19  35  55  81 116 159 197 236 299 363
#
# _framework density 20.046106999999999
#
# number of rings (size 3 to 8) (size 9 to 14) (size 15 to 20)
#    0.000    2.000    1.250    2.625    1.750    7.500 
#    0.000    0.625    0.000    3.750    0.000    0.000 
#    0.000    0.000    0.000    0.000    0.000    0.000 
#
# Total GULP energy -793667.501433 kJ/mol
# GULP energy per Si atom -12401.054710 kJ/mol
# Density = 2.000048 g / cm^3
# Si number density = 20.046107 Si / 1000 Ang^3
#
#
#
# Elastic Constant Matrix: (Units=GPa)
#
#
# Indices 1 2 3 4 5 6 
#
# 1 66.5801 31.0042 32.2772 0.0000 0.0000 0.0000
# 2 31.0042 109.1361 48.5175 0.0000 0.0000 0.0000
# 3 32.2772 48.5175 86.3237 0.0000 0.0000 0.0000
# 4 0.0000 0.0000 0.0000 34.2907 0.0000 0.0000
# 5 0.0000 0.0000 0.0000 0.0000 24.4364 0.0000
# 6 0.0000 0.0000 0.0000 0.0000 0.0000 16.6123
#
#
#
# Elastic Compliance Matrix: (Units=1/GPa)
#
#
# Indices 1 2 3 4 5 6 
#
# 1 0.019051 -0.002993 -0.005441 0.000000 0.000000 0.000000
# 2 -0.002993 0.012685 -0.006010 0.000000 0.000000 0.000000
# 3 -0.005441 -0.006010 0.016997 0.000000 0.000000 0.000000
# 4 0.000000 0.000000 0.000000 0.029162 0.000000 0.000000
# 5 0.000000 0.000000 0.000000 0.000000 0.040923 0.000000
# 6 0.000000 0.000000 0.000000 0.000000 0.000000 0.060196
#
#
# Mechanical properties :
#
#
# Convention : Reuss Voigt Hill
#
# Bulk Modulus (GPa) = 50.39377 53.95975 52.17676
# Shear Modulus (GPa) = 23.30802 25.08395 24.19599
#
# Velocity S-wave (km/s) = 3.41357 3.54123 3.47798
# Velocity P-wave (km/s) = 6.38201 6.61034 6.49718
#
# Compressibility (1/GPa) = 0.01984372
#
# Stress axis : x y z
#
# Youngs Moduli (GPa) = 52.49034 78.83187 58.83449
#
# Poissons Ratio (x) = 0.23597 0.32012
# Poissons Ratio (y) = 0.15712 0.35362
# Poissons Ratio (z) = 0.28560 0.47381
#
# Static dielectric constant tensor:
#      x y z
#    x 3.400080 0.000000 0.000000 
#    y 0.000000 3.710100 0.000000 
#    z 0.000000 0.000000 3.673790 
# 
# 
# High freq. dielectric constant tensor:
#      x y z
#    x 1.760360 0.000000 0.000000 
#    y 0.000000 1.786860 0.000000 
#    z 0.000000 0.000000 1.783910 
# 
# From -- ./inp_files/4617.got.cif
#   From: 2010.03.12/outbox.cif.g09.slc.cpg/sg55_3_cif.got.tgz:4617.got - 2010.04.16 15:19:21.
