data_PCOD8225937
_publ_section_title
;
Structure prediction by ZEFSAII (Michael W. Deem and Ramdas Pophale) SiO2 
 PCOD8225937
Probable space group: P B A M
;
_chemical_formula_sum "Si O2"
_cell_formula_units_Z 48
_cell_length_a 25.248948
_cell_length_b 8.687649
_cell_length_c 11.211188
_cell_angle_alpha 90.000000
_cell_angle_beta 90.000000
_cell_angle_gamma 90.000000
_cell_volume 2459.218908
_symmetry_space_group_name_H-M "P B A M"
_symmetry_group_IT_number 55
_symmetry_cell_setting 'orthorhombic'
loop_
_space_group_symop_operation_xyz
x,y,z
-x,-y,z
1/2+x,1/2-y,-z
1/2-x,1/2+y,-z
-x,-y,-z
x,y,-z
1/2-x,1/2+y,z
1/2+x,1/2-y,z
loop_
_atom_site_type_symbol
_atom_site_label
_atom_site_fract_x
_atom_site_fract_y
_atom_site_fract_z
Si Si1 0.612999 0.172518 0.221674
Si Si2 0.387699 0.177983 0.142895
Si Si3 0.743039 0.486364 0.000000
Si Si4 0.798906 0.809572 0.637031
Si Si5 0.176186 0.287832 0.000000
Si Si6 0.504172 0.182265 0.867978
Si Si7 0.295095 0.373820 0.758049
O O1 0.644727 0.222933 0.339823
O O2 0.642567 0.260741 0.114121
O O3 0.551424 0.228273 0.223991
O O4 0.616711 0.992791 0.195125
O O5 0.446646 0.246101 0.170741
O O6 0.348031 0.275638 0.223627
O O7 0.377537 0.181896 0.000000
O O8 0.732912 0.303058 0.000000
O O9 0.716459 0.552422 0.116302
O O10 0.805833 0.530465 0.000000
O O11 0.783957 0.784879 0.500000
O O12 0.752705 0.736516 0.717634
O O13 0.804334 0.991459 0.661863
O O14 0.500000 0.000000 0.875474
O O15 0.519576 0.243878 0.000000
#
# Coordination Sequence:
#
# PCOD8225937 Si02
#       7
#     8   8   4   8   4   8   8
#     4  11  19  35  62  86 122 156 191 240 290 352
#     4  10  20  33  60  95 125 148 181 234 307 370
#     4  12  22  34  53  89 121 145 182 241 307 358
#     4  12  27  43  59  80 114 164 209 243 280 338
#     4  12  22  32  54  89 122 156 186 228 309 352
#     4   8  15  30  54  90 124 151 180 229 296 365
#     4  12  23  39  60  84 120 151 190 245 296 356
#
# _framework density 19.518393
#
# number of rings (size 3 to 8) (size 9 to 14) (size 15 to 20)
#    0.000    1.167    5.833    2.500    2.333    0.000 
#    0.000    1.667    0.000   10.500    0.000    0.000 
#    0.000    0.000    0.000    0.000    0.000    0.000 
#
# Total GULP energy -594821.413682 kJ/mol
# GULP energy per Si atom -12392.112785 kJ/mol
# Density = 1.947397 g / cm^3
# Si number density = 19.518393 Si / 1000 Ang^3
#
#
#
# Elastic Constant Matrix: (Units=GPa)
#
#
# Indices 1 2 3 4 5 6 
#
# 1 158.2742 44.8520 30.1033 0.0000 0.0000 0.0000
# 2 44.8520 71.5229 23.0928 0.0000 0.0000 0.0000
# 3 30.1033 23.0928 67.0515 0.0000 0.0000 0.0000
# 4 0.0000 0.0000 0.0000 21.8036 0.0000 0.0000
# 5 0.0000 0.0000 0.0000 0.0000 128.6312 0.0000
# 6 0.0000 0.0000 0.0000 0.0000 0.0000 26.5851
#
#
#
# Elastic Compliance Matrix: (Units=1/GPa)
#
#
# Indices 1 2 3 4 5 6 
#
# 1 0.007933 -0.004303 -0.002080 0.000000 0.000000 0.000000
# 2 -0.004303 0.018065 -0.004290 0.000000 0.000000 0.000000
# 3 -0.002080 -0.004290 0.017325 0.000000 0.000000 0.000000
# 4 0.000000 0.000000 0.000000 0.045864 0.000000 0.000000
# 5 0.000000 0.000000 0.000000 0.000000 0.007774 0.000000
# 6 0.000000 0.000000 0.000000 0.000000 0.000000 0.037615
#
#
# Mechanical properties :
#
#
# Convention : Reuss Voigt Hill
#
# Bulk Modulus (GPa) = 45.50004 54.77164 50.13584
# Shear Modulus (GPa) = 30.62825 48.65734 39.64279
#
# Velocity S-wave (km/s) = 3.96561 4.99831 4.51160
# Velocity P-wave (km/s) = 6.65808 7.83794 7.27198
#
# Compressibility (1/GPa) = 0.02197800
#
# Stress axis : x y z
#
# Youngs Moduli (GPa) = 126.05259 55.35484 57.72034
#
# Poissons Ratio (x) = 0.23822 0.12003
# Poissons Ratio (y) = 0.54246 0.24760
# Poissons Ratio (z) = 0.26213 0.23745
#
# Static dielectric constant tensor:
#      x y z
#    x 4.036050 0.000000 0.000000 
#    y 0.000000 3.573920 0.000000 
#    z 0.000000 0.000000 3.120010 
# 
# 
# High freq. dielectric constant tensor:
#      x y z
#    x 1.774700 0.000000 0.000000 
#    y 0.000000 1.748260 0.000000 
#    z 0.000000 0.000000 1.720650 
# 
# From -- ./inp_files/15653.got.cif
#   From: 2010.03.12/outbox.cif.g09.slc.cpg/sg55_8_cif.got.tgz:15653.got - 2010.04.16 15:19:21.
