data_PCOD8225944
_publ_section_title
;
Structure prediction by ZEFSAII (Michael W. Deem and Ramdas Pophale) SiO2 
 PCOD8225944
Probable space group: P B A M
;
_chemical_formula_sum "Si O2"
_cell_formula_units_Z 36
_cell_length_a 27.791478
_cell_length_b 5.271367
_cell_length_c 12.875253
_cell_angle_alpha 90.000000
_cell_angle_beta 90.000000
_cell_angle_gamma 90.000000
_cell_volume 1886.212719
_symmetry_space_group_name_H-M "P B A M"
_symmetry_group_IT_number 55
_symmetry_cell_setting 'orthorhombic'
loop_
_space_group_symop_operation_xyz
x,y,z
-x,-y,z
1/2+x,1/2-y,-z
1/2-x,1/2+y,-z
-x,-y,-z
x,y,-z
1/2-x,1/2+y,z
1/2+x,1/2-y,z
loop_
_atom_site_type_symbol
_atom_site_label
_atom_site_fract_x
_atom_site_fract_y
_atom_site_fract_z
Si Si1 0.053145 0.616628 0.617948
Si Si2 0.500000 0.500000 0.726971
Si Si3 0.570135 0.373299 0.883406
Si Si4 0.219805 0.644517 0.120431
Si Si5 0.116590 0.602519 0.806868
O O1 0.070956 0.588913 0.500000
O O2 0.096070 0.521997 0.692615
O O3 0.000000 0.500000 0.636064
O O4 0.042794 0.905457 0.651615
O O5 0.525836 0.300710 0.806017
O O6 0.591322 0.646864 0.851345
O O7 0.608446 0.144566 0.878924
O O8 0.550699 0.394939 0.000000
O O9 0.250224 0.893819 0.146759
O O10 0.173551 0.650184 0.195509
O O11 0.203403 0.647872 0.000000
#
# Coordination Sequence:
#
# PCOD8225944 Si02
#       5
#     8   4   8   8   8
#     4  10  20  37  57  79 110 149 192 234 274 322
#     4  10  20  34  50  80 110 152 188 228 266 332
#     4  11  21  33  52  78 116 151 181 222 271 332
#     4  10  20  35  57  81 108 143 181 224 277 335
#     4  11  22  37  56  84 112 147 190 229 277 330
#
# _framework density 19.085863
#
# number of rings (size 3 to 8) (size 9 to 14) (size 15 to 20)
#    0.000    1.556    2.222    4.000    0.000    1.778 
#    0.000    3.333    0.000    1.333    0.000    0.000 
#    0.000    0.000    0.000    0.000    0.000    0.000 
#
# Total GULP energy -445989.101518 kJ/mol
# GULP energy per Si atom -12388.586153 kJ/mol
# Density = 1.904242 g / cm^3
# Si number density = 19.085863 Si / 1000 Ang^3
#
#
#
# Elastic Constant Matrix: (Units=GPa)
#
#
# Indices 1 2 3 4 5 6 
#
# 1 107.2149 22.9676 58.0597 0.0000 0.0000 0.0000
# 2 22.9676 103.6715 32.1508 0.0000 0.0000 0.0000
# 3 58.0597 32.1508 126.7410 0.0000 0.0000 0.0000
# 4 0.0000 0.0000 0.0000 12.7451 0.0000 0.0000
# 5 0.0000 0.0000 0.0000 0.0000 26.7603 0.0000
# 6 0.0000 0.0000 0.0000 0.0000 0.0000 26.7354
#
#
#
# Elastic Compliance Matrix: (Units=1/GPa)
#
#
# Indices 1 2 3 4 5 6 
#
# 1 0.012515 -0.001080 -0.005459 0.000000 0.000000 0.000000
# 2 -0.001080 0.010563 -0.002185 0.000000 0.000000 0.000000
# 3 -0.005459 -0.002185 0.010945 0.000000 0.000000 0.000000
# 4 0.000000 0.000000 0.000000 0.078461 0.000000 0.000000
# 5 0.000000 0.000000 0.000000 0.000000 0.037369 0.000000
# 6 0.000000 0.000000 0.000000 0.000000 0.000000 0.037404
#
#
# Mechanical properties :
#
#
# Convention : Reuss Voigt Hill
#
# Bulk Modulus (GPa) = 60.33069 62.66484 61.49777
# Shear Modulus (GPa) = 23.78369 28.21145 25.99757
#
# Velocity S-wave (km/s) = 3.53390 3.84882 3.69472
# Velocity P-wave (km/s) = 6.95198 7.25642 7.10583
#
# Compressibility (1/GPa) = 0.01657531
#
# Stress axis : x y z
#
# Youngs Moduli (GPa) = 79.90713 94.67361 91.36478
#
# Poissons Ratio (x) = 0.10220 0.49876
# Poissons Ratio (y) = 0.08626 0.19963
# Poissons Ratio (z) = 0.43622 0.20685
#
# Static dielectric constant tensor:
#      x y z
#    x 3.398350 0.000000 0.000000 
#    y 0.000000 3.620790 0.000000 
#    z 0.000000 0.000000 3.399140 
# 
# 
# High freq. dielectric constant tensor:
#      x y z
#    x 1.721880 0.000000 0.000000 
#    y 0.000000 1.754220 0.000000 
#    z 0.000000 0.000000 1.725670 
# 
# From -- ./inp_files/11319.got.cif
#   From: 2010.03.12/outbox.cif.g09.slc.cpg/sg55_6_cif.got.tgz:11319.got - 2010.04.16 15:19:21.
