data_PCOD8225671
_publ_section_title
;
Structure prediction by ZEFSAII (Michael W. Deem and Ramdas Pophale) SiO2 
 PCOD8225671
Probable space group: P B A M
;
_chemical_formula_sum "Si O2"
_cell_formula_units_Z 40
_cell_length_a 13.071458
_cell_length_b 4.986238
_cell_length_c 27.513732
_cell_angle_alpha 90.000000
_cell_angle_beta 90.000000
_cell_angle_gamma 90.000000
_cell_volume 1793.273532
_symmetry_space_group_name_H-M "P B A M"
_symmetry_group_IT_number 55
_symmetry_cell_setting 'orthorhombic'
loop_
_space_group_symop_operation_xyz
x,y,z
-x,-y,z
1/2+x,1/2-y,-z
1/2-x,1/2+y,-z
-x,-y,-z
x,y,-z
1/2-x,1/2+y,z
1/2+x,1/2-y,z
loop_
_atom_site_type_symbol
_atom_site_label
_atom_site_fract_x
_atom_site_fract_y
_atom_site_fract_z
Si Si1 0.683358 0.215263 0.500000
Si Si2 0.680966 0.179233 0.604514
Si Si3 0.500000 0.500000 0.141267
Si Si4 0.065139 0.258469 0.300932
Si Si5 0.684957 0.314203 0.207618
Si Si6 0.324739 0.943367 0.000000
Si Si7 0.500000 0.000000 0.923241
O O1 0.715791 0.526534 0.500000
O O2 0.624778 0.152878 0.551145
O O3 0.724726 0.477362 0.609510
O O4 0.603663 0.123096 0.648057
O O5 0.589891 0.390029 0.174661
O O6 0.536472 0.746503 0.108211
O O7 0.154911 0.170711 0.264348
O O8 0.000000 0.500000 0.276248
O O9 0.000000 0.000000 0.312997
O O10 0.778265 0.514127 0.196091
O O11 0.399590 0.918370 0.953785
O O12 0.262224 0.218650 0.000000
#
# Coordination Sequence:
#
# PCOD8225671 Si02
#       7
#     4   8   4   8   8   4   4
#     4   8  16  30  54  80 112 146 194 258 318 387
#     4  10  19  36  58  85 112 154 207 258 322 398
#     4  12  26  45  68 102 144 173 230 286 330 398
#     4  12  24  40  61  87 125 164 213 275 329 388
#     4  12  26  44  68  95 129 181 225 275 339 397
#     4  11  24  45  74 104 142 185 232 271 323 397
#     4  11  26  44  70 106 142 182 222 283 336 376
#
# _framework density 22.305579000000002
#
# number of rings (size 3 to 8) (size 9 to 14) (size 15 to 20)
#    0.000    1.000    1.000    6.000    1.400    6.400 
#    0.000    1.000    0.000    0.000    0.000    0.000 
#    0.000    0.000    0.000    0.000    0.000    0.000 
#
# Total GULP energy -495919.314835 kJ/mol
# GULP energy per Si atom -12397.982871 kJ/mol
# Density = 2.225481 g / cm^3
# Si number density = 22.305579 Si / 1000 Ang^3
#
#
#
# Elastic Constant Matrix: (Units=GPa)
#
#
# Indices 1 2 3 4 5 6 
#
# 1 81.7891 18.2397 42.3876 0.0000 0.0000 0.0000
# 2 18.2397 105.7869 34.4369 0.0000 0.0000 0.0000
# 3 42.3876 34.4369 126.5524 0.0000 0.0000 0.0000
# 4 0.0000 0.0000 0.0000 22.6781 0.0000 0.0000
# 5 0.0000 0.0000 0.0000 0.0000 -11.7928 0.0000
# 6 0.0000 0.0000 0.0000 0.0000 0.0000 42.1173
#
#
#
# Elastic Compliance Matrix: (Units=1/GPa)
#
#
# Indices 1 2 3 4 5 6 
#
# 1 0.014897 -0.001036 -0.004708 0.000000 0.000000 0.000000
# 2 -0.001036 0.010444 -0.002495 0.000000 0.000000 0.000000
# 3 -0.004708 -0.002495 0.010158 0.000000 0.000000 0.000000
# 4 0.000000 0.000000 0.000000 0.044095 0.000000 0.000000
# 5 0.000000 0.000000 0.000000 0.000000 -0.084797 0.000000
# 6 0.000000 0.000000 0.000000 0.000000 0.000000 0.023743
#
#
# Mechanical properties :
#
#
# Convention : Reuss Voigt Hill
#
# Bulk Modulus (GPa) = 52.57278 56.02855 54.30067
# Shear Modulus (GPa) = 120.89527 25.20479 73.05003
#
# Velocity S-wave (km/s) = 7.37002 3.36516 5.72894
# Velocity P-wave (km/s) = 9.80018 6.34604 8.25578
#
# Compressibility (1/GPa) = 0.01902125
#
# Stress axis : x y z
#
# Youngs Moduli (GPa) = 67.12542 95.75089 98.44829
#
# Poissons Ratio (x) = 0.09920 0.46348
# Poissons Ratio (y) = 0.06955 0.24562
# Poissons Ratio (z) = 0.31602 0.23889
#
# Static dielectric constant tensor:
#      x y z
#    x 3.548850 0.000000 0.000000 
#    y 0.000000 2.801280 0.000000 
#    z 0.000000 0.000000 4.352490 
# 
# 
# High freq. dielectric constant tensor:
#      x y z
#    x 1.850500 0.000000 0.000000 
#    y 0.000000 1.900120 0.000000 
#    z 0.000000 0.000000 1.896360 
# 
# From -- ./inp_files/23930.got.cif
#   From: 2010.03.12/outbox.cif.g09.slc.cpg/sg55_12_cif.got.tgz:23930.got - 2010.04.16 15:19:21.
