data_PCOD8225090
_publ_section_title
;
Structure prediction by ZEFSAII (Michael W. Deem and Ramdas Pophale) SiO2 
 PCOD8225090
Probable space group: P B A M
;
_chemical_formula_sum "Si O2"
_cell_formula_units_Z 56
_cell_length_a 24.445418
_cell_length_b 14.261064
_cell_length_c 8.854008
_cell_angle_alpha 90.000000
_cell_angle_beta 90.000000
_cell_angle_gamma 90.000000
_cell_volume 3086.663644
_symmetry_space_group_name_H-M "P B A M"
_symmetry_group_IT_number 55
_symmetry_cell_setting 'orthorhombic'
loop_
_space_group_symop_operation_xyz
x,y,z
-x,-y,z
1/2+x,1/2-y,-z
1/2-x,1/2+y,-z
-x,-y,-z
x,y,-z
1/2-x,1/2+y,z
1/2+x,1/2-y,z
loop_
_atom_site_type_symbol
_atom_site_label
_atom_site_fract_x
_atom_site_fract_y
_atom_site_fract_z
Si Si1 0.897196 0.188116 0.671678
Si Si2 0.001141 0.107806 0.822684
Si Si3 0.108223 0.164676 0.672662
Si Si4 0.707936 0.231749 0.179167
Si Si5 0.824869 0.014030 0.667416
Si Si6 0.811258 0.336762 0.323341
Si Si7 0.282737 0.981954 0.825077
O O1 0.919892 0.185893 0.500000
O O2 0.846882 0.117592 0.691670
O O3 0.869410 0.287359 0.713199
O O4 0.945062 0.161657 0.786138
O O5 0.048177 0.169559 0.744320
O O6 0.011433 0.108588 0.000000
O O7 0.000000 0.000000 0.763047
O O8 0.106226 0.199610 0.500000
O O9 0.150685 0.227654 0.764054
O O10 0.124832 0.056268 0.685439
O O11 0.759609 0.286853 0.245219
O O12 0.707693 0.123511 0.233225
O O13 0.711515 0.238877 0.000000
O O14 0.798396 0.003251 0.500000
O O15 0.780258 0.990665 0.793835
O O16 0.798768 0.334824 0.500000
O O17 0.819553 0.443143 0.265215
O O18 0.296119 0.992601 0.000000
#
# Coordination Sequence:
#
# PCOD8225090 Si02
#       7
#     8   8   8   8   8   8   8
#     4  10  21  37  56  80 112 149 189 230 273 329
#     4  11  23  36  55  83 115 150 185 227 279 335
#     4  11  22  36  57  82 112 152 189 229 278 329
#     4  11  23  37  55  82 115 150 188 231 282 336
#     4  10  19  32  53  81 114 149 187 227 269 330
#     4  11  22  36  57  83 112 149 190 233 280 332
#     4  11  23  36  54  81 116 153 186 230 282 336
#
# _framework density 18.142567
#
# number of rings (size 3 to 8) (size 9 to 14) (size 15 to 20)
#    0.000    1.286    4.286    2.143    0.000    4.571 
#    0.000    0.000    0.000    0.857    0.000    6.000 
#    0.000    0.000    0.000    0.000    0.000    0.000 
#
# Total GULP energy -694451.688111 kJ/mol
# GULP energy per Si atom -12400.923002 kJ/mol
# Density = 1.810127 g / cm^3
# Si number density = 18.142567 Si / 1000 Ang^3
#
#
#
# Elastic Constant Matrix: (Units=GPa)
#
#
# Indices 1 2 3 4 5 6 
#
# 1 80.7452 28.6025 29.5855 0.0000 0.0000 0.0000
# 2 28.6025 90.7500 39.3019 0.0000 0.0000 0.0000
# 3 29.5855 39.3019 71.7103 0.0000 0.0000 0.0000
# 4 0.0000 0.0000 0.0000 28.3641 0.0000 0.0000
# 5 0.0000 0.0000 0.0000 0.0000 27.3811 0.0000
# 6 0.0000 0.0000 0.0000 0.0000 0.0000 23.6871
#
#
#
# Elastic Compliance Matrix: (Units=1/GPa)
#
#
# Indices 1 2 3 4 5 6 
#
# 1 0.015078 -0.002699 -0.004742 0.000000 0.000000 0.000000
# 2 -0.002699 0.014932 -0.007070 0.000000 0.000000 0.000000
# 3 -0.004742 -0.007070 0.019776 0.000000 0.000000 0.000000
# 4 0.000000 0.000000 0.000000 0.035256 0.000000 0.000000
# 5 0.000000 0.000000 0.000000 0.000000 0.036522 0.000000
# 6 0.000000 0.000000 0.000000 0.000000 0.000000 0.042217
#
#
# Mechanical properties :
#
#
# Convention : Reuss Voigt Hill
#
# Bulk Modulus (GPa) = 48.15833 48.68725 48.42279
# Shear Modulus (GPa) = 25.03463 25.60081 25.31772
#
# Velocity S-wave (km/s) = 3.71871 3.76052 3.73967
# Velocity P-wave (km/s) = 6.71121 6.76384 6.73758
#
# Compressibility (1/GPa) = 0.02076484
#
# Stress axis : x y z
#
# Youngs Moduli (GPa) = 66.32190 66.97099 50.56593
#
# Poissons Ratio (x) = 0.18074 0.23976
# Poissons Ratio (y) = 0.17899 0.35751
# Poissons Ratio (z) = 0.31447 0.47350
#
# Static dielectric constant tensor:
#      x y z
#    x 3.116700 0.000000 0.000000 
#    y 0.000000 3.510410 0.000000 
#    z 0.000000 0.000000 3.373600 
# 
# 
# High freq. dielectric constant tensor:
#      x y z
#    x 1.684510 0.000000 0.000000 
#    y 0.000000 1.698400 0.000000 
#    z 0.000000 0.000000 1.710990 
# 
# From -- ./inp_files/8663.got.cif
#   From: 2010.03.12/outbox.cif.g09.slc.cpg/sg55_5_cif.got.tgz:8663.got - 2010.04.16 15:19:21.
