data_PCOD8225571
_publ_section_title
;
Structure prediction by ZEFSAII (Michael W. Deem and Ramdas Pophale) SiO2 
 PCOD8225571
Probable space group: P B A M
;
_chemical_formula_sum "Si O2"
_cell_formula_units_Z 64
_cell_length_a 15.488321
_cell_length_b 22.885766
_cell_length_c 9.385031
_cell_angle_alpha 90.000000
_cell_angle_beta 90.000000
_cell_angle_gamma 90.000000
_cell_volume 3326.637704
_symmetry_space_group_name_H-M "P B A M"
_symmetry_group_IT_number 55
_symmetry_cell_setting 'orthorhombic'
loop_
_space_group_symop_operation_xyz
x,y,z
-x,-y,z
1/2+x,1/2-y,-z
1/2-x,1/2+y,-z
-x,-y,-z
x,y,-z
1/2-x,1/2+y,z
1/2+x,1/2-y,z
loop_
_atom_site_type_symbol
_atom_site_label
_atom_site_fract_x
_atom_site_fract_y
_atom_site_fract_z
Si Si1 0.311305 0.302007 0.340413
Si Si2 0.760920 0.433757 0.833482
Si Si3 0.865033 0.640682 0.334071
Si Si4 0.005965 0.840610 0.337553
Si Si5 0.260042 0.200173 0.160985
Si Si6 0.926671 0.742717 0.163076
Si Si7 0.565493 0.447632 0.164674
Si Si8 0.901289 0.508317 0.333062
O O1 0.297417 0.279006 0.500000
O O2 0.231383 0.341205 0.290764
O O3 0.390846 0.346961 0.331140
O O4 0.323118 0.242831 0.248654
O O5 0.760571 0.366253 0.782071
O O6 0.666129 0.462612 0.803181
O O7 0.836068 0.465877 0.748203
O O8 0.782212 0.438488 0.000000
O O9 0.886254 0.652008 0.500000
O O10 0.928116 0.678845 0.235173
O O11 0.875465 0.573721 0.293279
O O12 0.972062 0.836427 0.500000
O O13 0.992088 0.780739 0.254065
O O14 0.960152 0.894223 0.263018
O O15 0.164266 0.224898 0.175257
O O16 0.293295 0.201604 0.000000
O O17 0.957170 0.736878 0.000000
O O18 0.500000 0.500000 0.201378
O O19 0.555720 0.428498 0.000000
O O20 0.891944 0.494967 0.500000
O O21 0.000000 0.500000 0.282699
#
# Coordination Sequence:
#
# PCOD8225571 Si02
#       8
#     8   8   8   8   8   8   8   8
#     4   9  20  35  53  81 114 147 183 230 283 343
#     4  10  21  39  61  86 118 153 195 245 292 345
#     4   9  19  38  59  79 112 149 189 239 291 341
#     4  11  22  35  55  86 121 152 189 234 284 346
#     4   9  18  35  56  80 110 144 185 234 284 338
#     4  10  19  35  58  82 113 148 188 234 284 343
#     4  10  22  40  60  85 120 159 197 243 296 351
#     4  10  23  41  60  84 114 152 198 245 294 348
#
# _framework density 19.238645000000002
#
# number of rings (size 3 to 8) (size 9 to 14) (size 15 to 20)
#    0.000    2.250    1.250    0.750    1.750    4.500 
#    0.000    3.750    0.000    0.000    0.000    0.000 
#    0.000    0.000    0.000    0.000    0.000    0.000 
#
# Total GULP energy -793465.992221 kJ/mol
# GULP energy per Si atom -12397.906128 kJ/mol
# Density = 1.919486 g / cm^3
# Si number density = 19.238645 Si / 1000 Ang^3
#
#
#
# Elastic Constant Matrix: (Units=GPa)
#
#
# Indices 1 2 3 4 5 6 
#
# 1 95.7658 50.3196 39.9624 0.0000 0.0000 0.0000
# 2 50.3196 119.9232 53.2992 0.0000 0.0000 0.0000
# 3 39.9624 53.2992 77.9933 0.0000 0.0000 0.0000
# 4 0.0000 0.0000 0.0000 36.6785 0.0000 0.0000
# 5 0.0000 0.0000 0.0000 0.0000 26.6240 0.0000
# 6 0.0000 0.0000 0.0000 0.0000 0.0000 27.9346
#
#
#
# Elastic Compliance Matrix: (Units=1/GPa)
#
#
# Indices 1 2 3 4 5 6 
#
# 1 0.014504 -0.003997 -0.004700 0.000000 0.000000 0.000000
# 2 -0.003997 0.013078 -0.006889 0.000000 0.000000 0.000000
# 3 -0.004700 -0.006889 0.019938 0.000000 0.000000 0.000000
# 4 0.000000 0.000000 0.000000 0.027264 0.000000 0.000000
# 5 0.000000 0.000000 0.000000 0.000000 0.037560 0.000000
# 6 0.000000 0.000000 0.000000 0.000000 0.000000 0.035798
#
#
# Mechanical properties :
#
#
# Convention : Reuss Voigt Hill
#
# Bulk Modulus (GPa) = 61.17332 64.53832 62.85582
# Shear Modulus (GPa) = 27.06195 28.25417 27.65806
#
# Velocity S-wave (km/s) = 3.75460 3.83641 3.79572
# Velocity P-wave (km/s) = 7.11773 7.29678 7.20781
#
# Compressibility (1/GPa) = 0.01634700
#
# Stress axis : x y z
#
# Youngs Moduli (GPa) = 68.94887 76.46712 50.15624
#
# Poissons Ratio (x) = 0.30562 0.23574
# Poissons Ratio (y) = 0.27557 0.34553
# Poissons Ratio (z) = 0.32406 0.52679
#
# Static dielectric constant tensor:
#      x y z
#    x 3.551440 0.000000 0.000000 
#    y 0.000000 3.528120 0.000000 
#    z 0.000000 0.000000 3.556090 
# 
# 
# High freq. dielectric constant tensor:
#      x y z
#    x 1.747880 0.000000 0.000000 
#    y 0.000000 1.746410 0.000000 
#    z 0.000000 0.000000 1.747520 
# 
# From -- ./inp_files/8031.got.cif
#   From: 2010.03.12/outbox.cif.g09.slc.cpg/sg55_5_cif.got.tgz:8031.got - 2010.04.16 15:19:21.
