data_PCOD8225036
_publ_section_title
;
Structure prediction by ZEFSAII (Michael W. Deem and Ramdas Pophale) SiO2 
 PCOD8225036
Probable space group: P B A M
;
_chemical_formula_sum "Si O2"
_cell_formula_units_Z 48
_cell_length_a 16.408266
_cell_length_b 18.135369
_cell_length_c 9.044630
_cell_angle_alpha 90.000000
_cell_angle_beta 90.000000
_cell_angle_gamma 90.000000
_cell_volume 2691.410174
_symmetry_space_group_name_H-M "P B A M"
_symmetry_group_IT_number 55
_symmetry_cell_setting 'orthorhombic'
loop_
_space_group_symop_operation_xyz
x,y,z
-x,-y,z
1/2+x,1/2-y,-z
1/2-x,1/2+y,-z
-x,-y,-z
x,y,-z
1/2-x,1/2+y,z
1/2+x,1/2-y,z
loop_
_atom_site_type_symbol
_atom_site_label
_atom_site_fract_x
_atom_site_fract_y
_atom_site_fract_z
Si Si1 0.005814 0.834199 0.829321
Si Si2 0.667558 0.090001 0.324772
Si Si3 0.517074 0.164648 0.172332
Si Si4 0.917339 0.954410 0.333746
Si Si5 0.578427 0.949039 0.337652
Si Si6 0.167705 0.920757 0.826426
O O1 0.094862 0.864762 0.787574
O O2 0.004031 0.748529 0.790643
O O3 0.934834 0.874580 0.736883
O O4 0.986993 0.849931 0.000000
O O5 0.671073 0.101874 0.500000
O O6 0.597682 0.142778 0.260972
O O7 0.752452 0.112854 0.250628
O O8 0.650775 0.003628 0.284960
O O9 0.438341 0.116784 0.222682
O O10 0.532319 0.150975 0.000000
O O11 0.884125 0.944070 0.500000
O O12 0.850357 0.998032 0.238588
O O13 0.000000 0.000000 0.331730
O O14 0.597827 0.915381 0.500000
O O15 0.500000 0.000000 0.350361
O O16 0.182470 0.928003 0.000000
#
# Coordination Sequence:
#
# PCOD8225036 Si02
#       6
#     8   8   8   8   8   8
#     4   9  19  34  51  74 103 133 165 203 248 300
#     4  10  20  34  51  73 101 131 167 211 255 300
#     4  10  19  32  52  76 101 131 168 206 247 300
#     4   9  17  30  50  74  97 125 163 202 240 290
#     4   8  16  31  49  69  95 126 159 198 243 292
#     4  10  19  33  53  74  99 132 168 209 255 298
#
# _framework density 17.834516000000001
#
# number of rings (size 3 to 8) (size 9 to 14) (size 15 to 20)
#    0.000    2.667    0.000    3.000    0.000    7.667 
#    0.000    1.667    0.000    6.000    0.000    0.000 
#    0.000    0.000    0.000    0.000    0.000    0.000 
#
# Total GULP energy -595108.770707 kJ/mol
# GULP energy per Si atom -12398.099390 kJ/mol
# Density = 1.779392 g / cm^3
# Si number density = 17.834516 Si / 1000 Ang^3
#
#
#
# Elastic Constant Matrix: (Units=GPa)
#
#
# Indices 1 2 3 4 5 6 
#
# 1 77.7574 38.9691 48.2615 0.0000 0.0000 0.0000
# 2 38.9691 111.3983 62.1963 0.0000 0.0000 0.0000
# 3 48.2615 62.1963 112.3750 0.0000 0.0000 0.0000
# 4 0.0000 0.0000 0.0000 23.6693 0.0000 0.0000
# 5 0.0000 0.0000 0.0000 0.0000 27.6908 0.0000
# 6 0.0000 0.0000 0.0000 0.0000 0.0000 18.2890
#
#
#
# Elastic Compliance Matrix: (Units=1/GPa)
#
#
# Indices 1 2 3 4 5 6 
#
# 1 0.018156 -0.002891 -0.006197 0.000000 0.000000 0.000000
# 2 -0.002891 0.013452 -0.006203 0.000000 0.000000 0.000000
# 3 -0.006197 -0.006203 0.014994 0.000000 0.000000 0.000000
# 4 0.000000 0.000000 0.000000 0.042249 0.000000 0.000000
# 5 0.000000 0.000000 0.000000 0.000000 0.036113 0.000000
# 6 0.000000 0.000000 0.000000 0.000000 0.000000 0.054678
#
#
# Mechanical properties :
#
#
# Convention : Reuss Voigt Hill
#
# Bulk Modulus (GPa) = 62.43125 66.70938 64.57032
# Shear Modulus (GPa) = 23.19499 24.07006 23.63253
#
# Velocity S-wave (km/s) = 3.61025 3.67772 3.64414
# Velocity P-wave (km/s) = 7.24295 7.45118 7.34780
#
# Compressibility (1/GPa) = 0.01601762
#
# Stress axis : x y z
#
# Youngs Moduli (GPa) = 55.07863 74.33979 66.69464
#
# Poissons Ratio (x) = 0.21493 0.41332
# Poissons Ratio (y) = 0.15924 0.41374
# Poissons Ratio (z) = 0.34133 0.46116
#
# Static dielectric constant tensor:
#      x y z
#    x 3.272860 0.000000 0.000000 
#    y 0.000000 3.293960 0.000000 
#    z 0.000000 0.000000 3.419630 
# 
# 
# High freq. dielectric constant tensor:
#      x y z
#    x 1.671190 0.000000 0.000000 
#    y 0.000000 1.675640 0.000000 
#    z 0.000000 0.000000 1.701950 
# 
# From -- ./inp_files/7549.got.cif
#   From: 2010.03.12/outbox.cif.g09.slc.cpg/sg55_4_cif.got.tgz:7549.got - 2010.04.16 15:19:21.
