data_PCOD8225962
_publ_section_title
;
Structure prediction by ZEFSAII (Michael W. Deem and Ramdas Pophale) SiO2 
 PCOD8225962
Probable space group: P B A M
;
_chemical_formula_sum "Si O2"
_cell_formula_units_Z 48
_cell_length_a 28.823333
_cell_length_b 10.372512
_cell_length_c 8.783437
_cell_angle_alpha 90.000000
_cell_angle_beta 90.000000
_cell_angle_gamma 90.000000
_cell_volume 2625.987387
_symmetry_space_group_name_H-M "P B A M"
_symmetry_group_IT_number 55
_symmetry_cell_setting 'orthorhombic'
loop_
_space_group_symop_operation_xyz
x,y,z
-x,-y,z
1/2+x,1/2-y,-z
1/2-x,1/2+y,-z
-x,-y,-z
x,y,-z
1/2-x,1/2+y,z
1/2+x,1/2-y,z
loop_
_atom_site_type_symbol
_atom_site_label
_atom_site_fract_x
_atom_site_fract_y
_atom_site_fract_z
Si Si1 0.524163 0.872528 0.819269
Si Si2 0.473651 0.623161 0.178092
Si Si3 0.217799 0.726789 0.679345
Si Si4 0.612064 0.771287 0.676954
Si Si5 0.722888 0.499047 0.821783
Si Si6 0.882624 0.005778 0.175228
O O1 0.494298 0.753567 0.750090
O O2 0.577343 0.866950 0.764054
O O3 0.500000 0.000000 0.753474
O O4 0.524043 0.873986 0.000000
O O5 0.500000 0.500000 0.249687
O O6 0.418225 0.611534 0.209165
O O7 0.484310 0.627872 0.000000
O O8 0.223625 0.748418 0.500000
O O9 0.164751 0.695233 0.723641
O O10 0.247317 0.605378 0.732620
O O11 0.234500 0.857396 0.762614
O O12 0.603682 0.789438 0.500000
O O13 0.601219 0.624675 0.722283
O O14 0.669481 0.462134 0.786668
O O15 0.734432 0.492592 0.000000
O O16 0.886427 0.050846 0.000000
#
# Coordination Sequence:
#
# PCOD8225962 Si02
#       6
#     8   8   8   8   8   8
#     4  10  20  34  52  76 105 140 178 215 264 321
#     4   9  15  28  53  77 101 132 168 210 257 308
#     4  10  21  38  58  79 110 149 182 220 280 343
#     4  10  20  34  54  77 105 141 179 215 263 320
#     4  10  20  35  57  84 110 138 183 236 275 317
#     4   9  17  32  55  79 104 134 175 222 266 310
#
# _framework density 18.278839000000001
#
# number of rings (size 3 to 8) (size 9 to 14) (size 15 to 20)
#    0.000    2.333    1.667    1.500    0.000    3.000 
#    3.000    1.667    0.000    0.000    0.000    0.000 
#    0.000    0.000    0.000    0.000    0.000    0.000 
#
# Total GULP energy -595131.500738 kJ/mol
# GULP energy per Si atom -12398.572932 kJ/mol
# Density = 1.823724 g / cm^3
# Si number density = 18.278839 Si / 1000 Ang^3
#
#
#
# Elastic Constant Matrix: (Units=GPa)
#
#
# Indices 1 2 3 4 5 6 
#
# 1 112.8814 70.9347 23.3643 0.0000 0.0000 0.0000
# 2 70.9347 123.0657 21.1716 0.0000 0.0000 0.0000
# 3 23.3643 21.1716 29.6839 0.0000 0.0000 0.0000
# 4 0.0000 0.0000 0.0000 21.8556 0.0000 0.0000
# 5 0.0000 0.0000 0.0000 0.0000 25.1598 0.0000
# 6 0.0000 0.0000 0.0000 0.0000 0.0000 33.1969
#
#
#
# Elastic Compliance Matrix: (Units=1/GPa)
#
#
# Indices 1 2 3 4 5 6 
#
# 1 0.014878 -0.007479 -0.006377 0.000000 0.000000 0.000000
# 2 -0.007479 0.013022 -0.003401 0.000000 0.000000 0.000000
# 3 -0.006377 -0.003401 0.041133 0.000000 0.000000 0.000000
# 4 0.000000 0.000000 0.000000 0.045755 0.000000 0.000000
# 5 0.000000 0.000000 0.000000 0.000000 0.039746 0.000000
# 6 0.000000 0.000000 0.000000 0.000000 0.000000 0.030123
#
#
# Mechanical properties :
#
#
# Convention : Reuss Voigt Hill
#
# Bulk Modulus (GPa) = 28.96851 55.17468 42.07160
# Shear Modulus (GPa) = 21.67538 26.05316 23.86427
#
# Velocity S-wave (km/s) = 3.44731 3.77943 3.61718
# Velocity P-wave (km/s) = 5.63274 7.02111 6.36490
#
# Compressibility (1/GPa) = 0.03452025
#
# Stress axis : x y z
#
# Youngs Moduli (GPa) = 67.21139 76.79546 24.31145
#
# Poissons Ratio (x) = 0.57434 0.15503
# Poissons Ratio (y) = 0.50267 0.08268
# Poissons Ratio (z) = 0.42858 0.26117
#
# Static dielectric constant tensor:
#      x y z
#    x 3.545450 0.000000 0.000000 
#    y 0.000000 3.374340 0.000000 
#    z 0.000000 0.000000 3.203480 
# 
# 
# High freq. dielectric constant tensor:
#      x y z
#    x 1.718290 0.000000 0.000000 
#    y 0.000000 1.693610 0.000000 
#    z 0.000000 0.000000 1.692910 
# 
# From -- ./inp_files/2795.got.cif
#   From: 2010.03.12/outbox.cif.g09.slc.cpg/sg55_2_cif.got.tgz:2795.got - 2010.04.16 15:19:21.
