data_PCOD8225861
_publ_section_title
;
Structure prediction by ZEFSAII (Michael W. Deem and Ramdas Pophale) SiO2 
 PCOD8225861
Probable space group: P B A M
;
_chemical_formula_sum "Si O2"
_cell_formula_units_Z 64
_cell_length_a 19.367089
_cell_length_b 19.772804
_cell_length_c 8.946881
_cell_angle_alpha 90.000000
_cell_angle_beta 90.000000
_cell_angle_gamma 90.000000
_cell_volume 3426.133416
_symmetry_space_group_name_H-M "P B A M"
_symmetry_group_IT_number 55
_symmetry_cell_setting 'orthorhombic'
loop_
_space_group_symop_operation_xyz
x,y,z
-x,-y,z
1/2+x,1/2-y,-z
1/2-x,1/2+y,-z
-x,-y,-z
x,y,-z
1/2-x,1/2+y,z
1/2+x,1/2-y,z
loop_
_atom_site_type_symbol
_atom_site_label
_atom_site_fract_x
_atom_site_fract_y
_atom_site_fract_z
Si Si1 0.760957 0.992794 0.327875
Si Si2 0.240989 0.648228 0.176129
Si Si3 0.610047 0.017868 0.328515
Si Si4 0.904198 0.033269 0.325343
Si Si5 0.949277 0.655360 0.323665
Si Si6 0.620401 0.278846 0.823516
Si Si7 0.533176 0.392926 0.676821
Si Si8 0.398264 0.132597 0.324090
O O1 0.769428 0.969004 0.500000
O O2 0.762646 0.926267 0.227452
O O3 0.691029 0.034863 0.306068
O O4 0.823792 0.043221 0.282067
O O5 0.302113 0.699468 0.226225
O O6 0.167247 0.669896 0.248292
O O7 0.231733 0.648733 0.000000
O O8 0.588360 0.012844 0.500000
O O9 0.566790 0.079880 0.259229
O O10 0.594519 0.944073 0.257968
O O11 0.917688 0.032285 0.500000
O O12 0.953594 0.093861 0.267595
O O13 0.925249 0.958896 0.268353
O O14 0.934195 0.659106 0.500000
O O15 0.897350 0.705619 0.241646
O O16 0.030089 0.671754 0.290125
O O17 0.562304 0.329027 0.762645
O O18 0.614775 0.276773 0.000000
O O19 0.539340 0.378766 0.500000
O O20 0.382634 0.129435 0.500000
#
# Coordination Sequence:
#
# PCOD8225861 Si02
#       8
#     8   8   8   8   8   8   8   8
#     4   9  15  28  52  78 103 130 164 209 257 306
#     4  10  20  33  50  74 103 136 171 208 249 299
#     4   8  15  29  53  82 105 124 156 210 266 307
#     4   8  14  25  47  77 103 128 165 214 261 295
#     4  10  20  35  55  78 103 135 171 211 261 316
#     4  11  23  36  49  71 106 145 179 210 250 305
#     4   9  16  29  49  72  99 134 173 215 257 299
#     4   9  18  34  58  82 101 125 166 217 266 312
#
# _framework density 18.679950999999999
#
# number of rings (size 3 to 8) (size 9 to 14) (size 15 to 20)
#    0.000    2.750    1.250    2.625    0.000    3.500 
#    0.000    5.625    0.000    6.750    0.000    0.000 
#    0.000    0.000    0.000    0.000    0.000    0.000 
#
# Total GULP energy -792967.824428 kJ/mol
# GULP energy per Si atom -12390.122257 kJ/mol
# Density = 1.863743 g / cm^3
# Si number density = 18.679951 Si / 1000 Ang^3
#
#
#
# Elastic Constant Matrix: (Units=GPa)
#
#
# Indices 1 2 3 4 5 6 
#
# 1 135.8739 35.8593 36.0464 0.0000 0.0000 0.0000
# 2 35.8593 60.1940 21.4846 0.0000 0.0000 0.0000
# 3 36.0464 21.4846 43.7360 0.0000 0.0000 0.0000
# 4 0.0000 0.0000 0.0000 9.1182 0.0000 0.0000
# 5 0.0000 0.0000 0.0000 0.0000 16.1217 0.0000
# 6 0.0000 0.0000 0.0000 0.0000 0.0000 29.4330
#
#
#
# Elastic Compliance Matrix: (Units=1/GPa)
#
#
# Indices 1 2 3 4 5 6 
#
# 1 0.010047 -0.003674 -0.006476 0.000000 0.000000 0.000000
# 2 -0.003674 0.021489 -0.007528 0.000000 0.000000 0.000000
# 3 -0.006476 -0.007528 0.031900 0.000000 0.000000 0.000000
# 4 0.000000 0.000000 0.000000 0.109671 0.000000 0.000000
# 5 0.000000 0.000000 0.000000 0.000000 0.062028 0.000000
# 6 0.000000 0.000000 0.000000 0.000000 0.000000 0.033975
#
#
# Mechanical properties :
#
#
# Convention : Reuss Voigt Hill
#
# Bulk Modulus (GPa) = 35.61266 47.39827 41.50546
# Shear Modulus (GPa) = 15.93236 20.69547 18.31392
#
# Velocity S-wave (km/s) = 2.92363 3.33212 3.13454
# Velocity P-wave (km/s) = 5.52294 6.34295 5.94709
#
# Compressibility (1/GPa) = 0.02807990
#
# Stress axis : x y z
#
# Youngs Moduli (GPa) = 99.52741 46.53636 31.34811
#
# Poissons Ratio (x) = 0.17098 0.20301
# Poissons Ratio (y) = 0.36567 0.23598
# Poissons Ratio (z) = 0.64455 0.35032
#
# Static dielectric constant tensor:
#      x y z
#    x 3.842300 0.000000 0.000000 
#    y 0.000000 3.240930 0.000000 
#    z 0.000000 0.000000 3.073790 
# 
# 
# High freq. dielectric constant tensor:
#      x y z
#    x 1.746970 0.000000 0.000000 
#    y 0.000000 1.691550 0.000000 
#    z 0.000000 0.000000 1.686300 
# 
# From -- ./inp_files/8978.got.cif
#   From: 2010.03.12/outbox.cif.g09.slc.cpg/sg55_5_cif.got.tgz:8978.got - 2010.04.16 15:19:21.
