data_PCOD8225722
_publ_section_title
;
Structure prediction by ZEFSAII (Michael W. Deem and Ramdas Pophale) SiO2 
 PCOD8225722
Probable space group: P B A M
;
_chemical_formula_sum "Si O2"
_cell_formula_units_Z 48
_cell_length_a 28.972740
_cell_length_b 9.495845
_cell_length_c 8.640270
_cell_angle_alpha 90.000000
_cell_angle_beta 90.000000
_cell_angle_gamma 90.000000
_cell_volume 2377.116684
_symmetry_space_group_name_H-M "P B A M"
_symmetry_group_IT_number 55
_symmetry_cell_setting 'orthorhombic'
loop_
_space_group_symop_operation_xyz
x,y,z
-x,-y,z
1/2+x,1/2-y,-z
1/2-x,1/2+y,-z
-x,-y,-z
x,y,-z
1/2-x,1/2+y,z
1/2+x,1/2-y,z
loop_
_atom_site_type_symbol
_atom_site_label
_atom_site_fract_x
_atom_site_fract_y
_atom_site_fract_z
Si Si1 0.378297 0.312477 0.317871
Si Si2 0.784806 0.688600 0.816415
Si Si3 0.021613 0.850000 0.819393
Si Si4 0.459849 0.888629 0.171826
Si Si5 0.699206 0.505680 0.184187
Si Si6 0.366570 0.013115 0.184613
O O1 0.373512 0.312666 0.500000
O O2 0.431266 0.331729 0.271896
O O3 0.349843 0.443861 0.249301
O O4 0.357403 0.167263 0.252761
O O5 0.738065 0.614937 0.755616
O O6 0.827158 0.593087 0.758024
O O7 0.789568 0.848131 0.752625
O O8 0.784285 0.692034 0.000000
O O9 0.982345 0.747460 0.746752
O O10 0.031050 0.814047 0.000000
O O11 0.000000 0.000000 0.794422
O O12 0.414650 0.951820 0.255081
O O13 0.500000 0.000000 0.164746
O O14 0.443533 0.844415 0.000000
O O15 0.696771 0.502929 0.000000
O O16 0.367881 0.029110 0.000000
#
# Coordination Sequence:
#
# PCOD8225722 Si02
#       6
#     8   8   8   8   8   8
#     4  12  25  39  55  82 120 163 199 234 286 344
#     4   9  19  35  64  96 116 142 187 247 301 343
#     4  10  21  37  61  88 114 149 194 243 293 342
#     4   9  16  30  55  87 115 143 184 234 283 331
#     4  10  20  38  62  89 117 147 191 243 297 350
#     4  10  19  36  62  89 118 149 191 243 288 339
#
# _framework density 20.192530000000001
#
# number of rings (size 3 to 8) (size 9 to 14) (size 15 to 20)
#    0.000    2.000    1.667    2.500    2.333    3.000 
#    0.000    5.833    0.000    0.000    0.000    0.000 
#    0.000    0.000    0.000    0.000    0.000    0.000 
#
# Total GULP energy -595068.678662 kJ/mol
# GULP energy per Si atom -12397.264139 kJ/mol
# Density = 2.014657 g / cm^3
# Si number density = 20.192530 Si / 1000 Ang^3
#
#
#
# Elastic Constant Matrix: (Units=GPa)
#
#
# Indices 1 2 3 4 5 6 
#
# 1 87.4259 43.7635 18.4626 0.0000 0.0000 0.0000
# 2 43.7635 151.0569 29.2209 0.0000 0.0000 0.0000
# 3 18.4626 29.2209 41.1156 0.0000 0.0000 0.0000
# 4 0.0000 0.0000 0.0000 6.5440 0.0000 0.0000
# 5 0.0000 0.0000 0.0000 0.0000 8.7708 0.0000
# 6 0.0000 0.0000 0.0000 0.0000 0.0000 42.7626
#
#
#
# Elastic Compliance Matrix: (Units=1/GPa)
#
#
# Indices 1 2 3 4 5 6 
#
# 1 0.013903 -0.003270 -0.003919 0.000000 0.000000 0.000000
# 2 -0.003270 0.008444 -0.004533 0.000000 0.000000 0.000000
# 3 -0.003919 -0.004533 0.029303 0.000000 0.000000 0.000000
# 4 0.000000 0.000000 0.000000 0.152811 0.000000 0.000000
# 5 0.000000 0.000000 0.000000 0.000000 0.114014 0.000000
# 6 0.000000 0.000000 0.000000 0.000000 0.000000 0.023385
#
#
# Mechanical properties :
#
#
# Convention : Reuss Voigt Hill
#
# Bulk Modulus (GPa) = 35.45311 51.38804 43.42058
# Shear Modulus (GPa) = 13.34380 24.15892 18.75136
#
# Velocity S-wave (km/s) = 2.57345 3.46270 3.05065
# Velocity P-wave (km/s) = 5.14061 6.44137 5.82740
#
# Compressibility (1/GPa) = 0.02820627
#
# Stress axis : x y z
#
# Youngs Moduli (GPa) = 71.92884 118.42468 34.12607
#
# Poissons Ratio (x) = 0.38721 0.13374
# Poissons Ratio (y) = 0.23518 0.15470
# Poissons Ratio (z) = 0.28190 0.53683
#
# Static dielectric constant tensor:
#      x y z
#    x 3.810150 0.000000 0.000000 
#    y 0.000000 3.978980 0.000000 
#    z 0.000000 0.000000 3.137080 
# 
# 
# High freq. dielectric constant tensor:
#      x y z
#    x 1.803190 0.000000 0.000000 
#    y 0.000000 1.807390 0.000000 
#    z 0.000000 0.000000 1.728000 
# 
# From -- ./inp_files/2798.got.cif
#   From: 2010.03.12/outbox.cif.g09.slc.cpg/sg55_2_cif.got.tgz:2798.got - 2010.04.16 15:19:21.
