data_PCOD8225639
_publ_section_title
;
Structure prediction by ZEFSAII (Michael W. Deem and Ramdas Pophale) SiO2 
 PCOD8225639
Probable space group: P B A M
;
_chemical_formula_sum "Si O2"
_cell_formula_units_Z 44
_cell_length_a 32.480793
_cell_length_b 5.046908
_cell_length_c 13.146367
_cell_angle_alpha 90.000000
_cell_angle_beta 90.000000
_cell_angle_gamma 90.000000
_cell_volume 2155.052050
_symmetry_space_group_name_H-M "P B A M"
_symmetry_group_IT_number 55
_symmetry_cell_setting 'orthorhombic'
loop_
_space_group_symop_operation_xyz
x,y,z
-x,-y,z
1/2+x,1/2-y,-z
1/2-x,1/2+y,-z
-x,-y,-z
x,y,-z
1/2-x,1/2+y,z
1/2+x,1/2-y,z
loop_
_atom_site_type_symbol
_atom_site_label
_atom_site_fract_x
_atom_site_fract_y
_atom_site_fract_z
Si Si1 0.416980 0.161806 0.113198
Si Si2 0.723046 0.152679 0.500000
Si Si3 0.340283 0.811849 0.320272
Si Si4 0.027466 0.742562 0.298711
Si Si5 0.137738 0.157964 0.885720
Si Si6 0.385894 0.308356 0.385620
O O1 0.456050 0.189466 0.185442
O O2 0.381115 0.371796 0.141213
O O3 0.399397 0.866486 0.121559
O O4 0.432991 0.221262 0.000000
O O5 0.761550 0.351187 0.500000
O O6 0.698336 0.203407 0.395697
O O7 0.328734 0.732191 0.202692
O O8 0.375050 0.608813 0.358091
O O9 0.360635 0.102173 0.316149
O O10 0.065425 0.774340 0.375362
O O11 0.000000 0.500000 0.337288
O O12 0.000000 0.000000 0.299677
O O13 0.157593 0.162399 0.000000
O O14 0.372276 0.243517 0.500000
#
# Coordination Sequence:
#
# PCOD8225639 Si02
#       6
#     8   4   8   8   8   8
#     4  10  20  35  55  81 115 152 206 263 304 353
#     4  12  26  42  66 104 132 150 188 236 304 362
#     4  12  21  41  68  90 123 163 193 246 294 360
#     4  12  24  36  54  79 120 159 206 264 314 353
#     4  10  19  35  62  91 114 152 209 254 287 348
#     4  12  23  40  62  87 112 162 218 244 300 366
#
# _framework density 20.417138999999999
#
# number of rings (size 3 to 8) (size 9 to 14) (size 15 to 20)
#    0.000    0.727    5.455    3.273    0.000    1.455 
#    0.000    0.000    0.000    1.091    0.000    0.000 
#    0.000    0.000    0.000    0.000    0.000    0.000 
#
# Total GULP energy -545613.543857 kJ/mol
# GULP energy per Si atom -12400.307815 kJ/mol
# Density = 2.037067 g / cm^3
# Si number density = 20.417139 Si / 1000 Ang^3
#
#
#
# Elastic Constant Matrix: (Units=GPa)
#
#
# Indices 1 2 3 4 5 6 
#
# 1 61.9241 17.4620 30.0145 0.0000 0.0000 0.0000
# 2 17.4620 102.3074 10.5054 0.0000 0.0000 0.0000
# 3 30.0145 10.5054 102.3787 0.0000 0.0000 0.0000
# 4 0.0000 0.0000 0.0000 26.9723 0.0000 0.0000
# 5 0.0000 0.0000 0.0000 0.0000 31.3751 0.0000
# 6 0.0000 0.0000 0.0000 0.0000 0.0000 27.6408
#
#
#
# Elastic Compliance Matrix: (Units=1/GPa)
#
#
# Indices 1 2 3 4 5 6 
#
# 1 0.019577 -0.002781 -0.005454 0.000000 0.000000 0.000000
# 2 -0.002781 0.010274 -0.000239 0.000000 0.000000 0.000000
# 3 -0.005454 -0.000239 0.011391 0.000000 0.000000 0.000000
# 4 0.000000 0.000000 0.000000 0.037075 0.000000 0.000000
# 5 0.000000 0.000000 0.000000 0.000000 0.031872 0.000000
# 6 0.000000 0.000000 0.000000 0.000000 0.000000 0.036178
#
#
# Mechanical properties :
#
#
# Convention : Reuss Voigt Hill
#
# Bulk Modulus (GPa) = 41.16360 42.50824 41.83592
# Shear Modulus (GPa) = 29.16928 31.10618 30.13773
#
# Velocity S-wave (km/s) = 3.78387 3.90748 3.84617
# Velocity P-wave (km/s) = 6.26860 6.42051 6.34501
#
# Compressibility (1/GPa) = 0.02429331
#
# Stress axis : x y z
#
# Youngs Moduli (GPa) = 51.08134 97.33580 87.78785
#
# Poissons Ratio (x) = 0.27072 0.47879
# Poissons Ratio (y) = 0.14207 0.02096
# Poissons Ratio (z) = 0.27859 0.02324
#
# Static dielectric constant tensor:
#      x y z
#    x 3.190050 0.000000 0.000000 
#    y 0.000000 3.891020 0.000000 
#    z 0.000000 0.000000 4.308720 
# 
# 
# High freq. dielectric constant tensor:
#      x y z
#    x 1.742500 0.000000 0.000000 
#    y 0.000000 1.823940 0.000000 
#    z 0.000000 0.000000 1.820570 
# 
# From -- ./inp_files/20112.got.cif
#   From: 2010.03.12/outbox.cif.g09.slc.cpg/sg55_11_cif.got.tgz:20112.got - 2010.04.16 15:19:21.
