data_PCOD8225726
_publ_section_title
;
Structure prediction by ZEFSAII (Michael W. Deem and Ramdas Pophale) SiO2 
 PCOD8225726
Probable space group: P B A M
;
_chemical_formula_sum "Si O2"
_cell_formula_units_Z 64
_cell_length_a 15.284452
_cell_length_b 8.511060
_cell_length_c 22.857317
_cell_angle_alpha 90.000000
_cell_angle_beta 90.000000
_cell_angle_gamma 90.000000
_cell_volume 2973.437237
_symmetry_space_group_name_H-M "P B A M"
_symmetry_group_IT_number 55
_symmetry_cell_setting 'orthorhombic'
loop_
_space_group_symop_operation_xyz
x,y,z
-x,-y,z
1/2+x,1/2-y,-z
1/2-x,1/2+y,-z
-x,-y,-z
x,y,-z
1/2-x,1/2+y,z
1/2+x,1/2-y,z
loop_
_atom_site_type_symbol
_atom_site_label
_atom_site_fract_x
_atom_site_fract_y
_atom_site_fract_z
Si Si1 0.128129 0.794812 0.227546
Si Si2 0.648556 0.180001 0.114920
Si Si3 0.813795 0.349504 0.933246
Si Si4 0.972601 0.179531 0.884030
Si Si5 0.524013 0.317297 0.566439
Si Si6 0.805486 0.856704 0.225667
Si Si7 0.365130 0.279247 0.640068
Si Si8 0.316444 0.634497 0.358688
O O1 0.046100 0.777496 0.184245
O O2 0.201644 0.663767 0.214883
O O3 0.096350 0.774019 0.294025
O O4 0.171832 0.963234 0.213376
O O5 0.718200 0.280970 0.078538
O O6 0.550762 0.212258 0.090986
O O7 0.644772 0.238761 0.182157
O O8 0.669098 0.996364 0.109438
O O9 0.885156 0.213824 0.921135
O O10 0.819469 0.406538 0.000000
O O11 0.000000 0.000000 0.891439
O O12 0.500000 0.500000 0.570404
O O13 0.533238 0.259256 0.500000
O O14 0.443548 0.227319 0.597340
O O15 0.614278 0.275503 0.599863
O O16 0.832841 0.811317 0.291825
O O17 0.284450 0.165666 0.625683
O O18 0.328750 0.452126 0.629556
#
# Coordination Sequence:
#
# PCOD8225726 Si02
#       8
#     8   8   8   8   8   8   8   8
#     4  10  20  36  60  93 124 159 201 257 319 377
#     4  12  24  43  69  94 125 163 207 259 315 374
#     4  12  28  49  69  93 127 167 209 255 311 374
#     4  12  25  41  67  99 125 162 208 257 314 380
#     4   9  18  33  55  84 119 164 211 247 295 370
#     4  10  19  36  62  89 126 157 200 253 318 373
#     4   9  19  34  57  83 120 158 204 250 310 358
#     4   9  19  34  56  87 117 159 200 257 303 362
#
# _framework density 21.523910999999998
#
# number of rings (size 3 to 8) (size 9 to 14) (size 15 to 20)
#    0.000    1.625    2.500    2.250    1.750    2.750 
#    0.000    0.625    0.000    0.750    0.000    0.000 
#    0.000    0.000    0.000    0.000    0.000    0.000 
#
# Total GULP energy -793580.340108 kJ/mol
# GULP energy per Si atom -12399.692814 kJ/mol
# Density = 2.147492 g / cm^3
# Si number density = 21.523911 Si / 1000 Ang^3
#
#
#
# Elastic Constant Matrix: (Units=GPa)
#
#
# Indices 1 2 3 4 5 6 
#
# 1 128.9392 28.3929 48.8254 0.0000 0.0000 0.0000
# 2 28.3929 50.0057 25.3799 0.0000 0.0000 0.0000
# 3 48.8254 25.3799 108.2130 0.0000 0.0000 0.0000
# 4 0.0000 0.0000 0.0000 20.2460 0.0000 0.0000
# 5 0.0000 0.0000 0.0000 0.0000 28.5092 0.0000
# 6 0.0000 0.0000 0.0000 0.0000 0.0000 31.1707
#
#
#
# Elastic Compliance Matrix: (Units=1/GPa)
#
#
# Indices 1 2 3 4 5 6 
#
# 1 0.009961 -0.003831 -0.003596 0.000000 0.000000 0.000000
# 2 -0.003831 0.024173 -0.003941 0.000000 0.000000 0.000000
# 3 -0.003596 -0.003941 0.011788 0.000000 0.000000 0.000000
# 4 0.000000 0.000000 0.000000 0.049393 0.000000 0.000000
# 5 0.000000 0.000000 0.000000 0.000000 0.035076 0.000000
# 6 0.000000 0.000000 0.000000 0.000000 0.000000 0.032081
#
#
# Mechanical properties :
#
#
# Convention : Reuss Voigt Hill
#
# Bulk Modulus (GPa) = 43.12865 54.70603 48.91734
# Shear Modulus (GPa) = 25.91537 28.28916 27.10226
#
# Velocity S-wave (km/s) = 3.47367 3.62928 3.55233
# Velocity P-wave (km/s) = 6.01412 6.56001 6.29299
#
# Compressibility (1/GPa) = 0.02318644
#
# Stress axis : x y z
#
# Youngs Moduli (GPa) = 100.39405 41.36855 84.83354
#
# Poissons Ratio (x) = 0.15847 0.30505
# Poissons Ratio (y) = 0.38457 0.33433
# Poissons Ratio (z) = 0.36100 0.16304
#
# Static dielectric constant tensor:
#      x y z
#    x 4.073510 0.000000 0.000000 
#    y 0.000000 3.649410 0.000000 
#    z 0.000000 0.000000 3.977560 
# 
# 
# High freq. dielectric constant tensor:
#      x y z
#    x 1.852550 0.000000 0.000000 
#    y 0.000000 1.824020 0.000000 
#    z 0.000000 0.000000 1.840250 
# 
# From -- ./inp_files/23626.got.cif
#   From: 2010.03.12/outbox.cif.g09.slc.cpg/sg55_12_cif.got.tgz:23626.got - 2010.04.16 15:19:21.
