data_PCOD8225830
_publ_section_title
;
Structure prediction by ZEFSAII (Michael W. Deem and Ramdas Pophale) SiO2 
 PCOD8225830
Probable space group: P B A M
;
_chemical_formula_sum "Si O2"
_cell_formula_units_Z 48
_cell_length_a 29.956021
_cell_length_b 8.598098
_cell_length_c 9.450281
_cell_angle_alpha 90.000000
_cell_angle_beta 90.000000
_cell_angle_gamma 90.000000
_cell_volume 2434.059776
_symmetry_space_group_name_H-M "P B A M"
_symmetry_group_IT_number 55
_symmetry_cell_setting 'orthorhombic'
loop_
_space_group_symop_operation_xyz
x,y,z
-x,-y,z
1/2+x,1/2-y,-z
1/2-x,1/2+y,-z
-x,-y,-z
x,y,-z
1/2-x,1/2+y,z
1/2+x,1/2-y,z
loop_
_atom_site_type_symbol
_atom_site_label
_atom_site_fract_x
_atom_site_fract_y
_atom_site_fract_z
Si Si1 0.283024 0.208018 0.662414
Si Si2 0.808867 0.940443 0.662067
Si Si3 0.615058 0.292117 0.162596
Si Si4 0.359290 0.065216 0.162655
Si Si5 0.965055 0.721584 0.341199
Si Si6 0.439339 0.137115 0.341286
O O1 0.293341 0.162605 0.500000
O O2 0.231307 0.177179 0.697604
O O3 0.292080 0.386982 0.693917
O O4 0.312721 0.099708 0.762112
O O5 0.824406 0.920627 0.500000
O O6 0.850323 0.906556 0.762821
O O7 0.566484 0.316057 0.234040
O O8 0.631514 0.116439 0.180855
O O9 0.610902 0.340500 0.000000
O O10 0.398463 0.168283 0.234913
O O11 0.356710 0.115273 0.000000
O O12 0.958551 0.787428 0.500000
O O13 0.952054 0.542286 0.338190
O O14 0.017132 0.737690 0.295315
O O15 0.424362 0.184509 0.500000
#
# Coordination Sequence:
#
# PCOD8225830 Si02
#       6
#     8   8   8   8   8   8
#     4  10  21  37  57  78  99 128 168 212 257 304
#     4  10  21  37  57  78  99 128 168 212 257 304
#     4  10  20  32  49  76 108 140 171 205 250 302
#     4  10  20  32  49  76 108 140 171 205 250 302
#     4   8  14  26  46  72 101 134 172 212 251 291
#     4   8  14  26  46  72 101 134 172 212 251 291
#
# _framework density 19.720139
#
# number of rings (size 3 to 8) (size 9 to 14) (size 15 to 20)
#    0.000    2.667    0.000    3.000    0.000    5.333 
#    0.000    3.333    0.000    1.000    0.000    7.000 
#    0.000    0.000    0.000    0.000    0.000    0.000 
#
# Total GULP energy -595175.822965 kJ/mol
# GULP energy per Si atom -12399.496312 kJ/mol
# Density = 1.967525 g / cm^3
# Si number density = 19.720139 Si / 1000 Ang^3
#
#
#
# Elastic Constant Matrix: (Units=GPa)
#
#
# Indices 1 2 3 4 5 6 
#
# 1 39.1087 -4.9469 20.9430 0.0000 0.0000 0.0000
# 2 -4.9469 19.3765 10.2472 0.0000 0.0000 0.0000
# 3 20.9430 10.2472 89.3620 0.0000 0.0000 0.0000
# 4 0.0000 0.0000 0.0000 20.8300 0.0000 0.0000
# 5 0.0000 0.0000 0.0000 0.0000 19.9461 0.0000
# 6 0.0000 0.0000 0.0000 0.0000 0.0000 19.6252
#
#
#
# Elastic Compliance Matrix: (Units=1/GPa)
#
#
# Indices 1 2 3 4 5 6 
#
# 1 0.032017 0.012926 -0.008986 0.000000 0.000000 0.000000
# 2 0.012926 0.060160 -0.009928 0.000000 0.000000 0.000000
# 3 -0.008986 -0.009928 0.014435 0.000000 0.000000 0.000000
# 4 0.000000 0.000000 0.000000 0.048008 0.000000 0.000000
# 5 0.000000 0.000000 0.000000 0.000000 0.050135 0.000000
# 6 0.000000 0.000000 0.000000 0.000000 0.000000 0.050955
#
#
# Mechanical properties :
#
#
# Convention : Reuss Voigt Hill
#
# Bulk Modulus (GPa) = 10.56681 22.25930 16.41306
# Shear Modulus (GPa) = 16.70961 20.18719 18.44840
#
# Velocity S-wave (km/s) = 2.91406 3.20298 3.06193
# Velocity P-wave (km/s) = 4.08563 4.99909 4.56526
#
# Compressibility (1/GPa) = 0.09463598
#
# Stress axis : x y z
#
# Youngs Moduli (GPa) = 31.23371 16.62248 69.27708
#
# Poissons Ratio (x) = -0.21486 0.62250
# Poissons Ratio (y) = -0.40373 0.68778
# Poissons Ratio (z) = 0.28066 0.16503
#
# Static dielectric constant tensor:
#      x y z
#    x 3.838620 0.000000 0.000000 
#    y 0.000000 3.175280 0.000000 
#    z 0.000000 0.000000 3.630610 
# 
# 
# High freq. dielectric constant tensor:
#      x y z
#    x 1.779000 0.000000 0.000000 
#    y 0.000000 1.733910 0.000000 
#    z 0.000000 0.000000 1.762440 
# 
# From -- ./inp_files/2889.got.cif
#   From: 2010.03.12/outbox.cif.g09.slc.cpg/sg55_2_cif.got.tgz:2889.got - 2010.04.16 15:19:21.
