data_PCOD8225735
_publ_section_title
;
Structure prediction by ZEFSAII (Michael W. Deem and Ramdas Pophale) SiO2 
 PCOD8225735
Probable space group: P B A M
;
_chemical_formula_sum "Si O2"
_cell_formula_units_Z 44
_cell_length_a 8.257752
_cell_length_b 13.843308
_cell_length_c 18.563277
_cell_angle_alpha 90.000000
_cell_angle_beta 90.000000
_cell_angle_gamma 90.000000
_cell_volume 2122.053665
_symmetry_space_group_name_H-M "P B A M"
_symmetry_group_IT_number 55
_symmetry_cell_setting 'orthorhombic'
loop_
_space_group_symop_operation_xyz
x,y,z
-x,-y,z
1/2+x,1/2-y,-z
1/2-x,1/2+y,-z
-x,-y,-z
x,y,-z
1/2-x,1/2+y,z
1/2+x,1/2-y,z
loop_
_atom_site_type_symbol
_atom_site_label
_atom_site_fract_x
_atom_site_fract_y
_atom_site_fract_z
Si Si1 0.920181 0.803646 0.500000
Si Si2 0.000000 0.000000 0.873412
Si Si3 0.513206 0.206487 0.176572
Si Si4 0.228005 0.395869 0.500000
Si Si5 0.203209 0.833733 0.080373
Si Si6 0.291916 0.617350 0.765693
Si Si7 0.827820 0.953890 0.607091
O O1 0.911342 0.686449 0.500000
O O2 0.826892 0.848799 0.569281
O O3 0.107606 0.833257 0.500000
O O4 0.086441 0.925092 0.925676
O O5 0.857996 0.954807 0.825507
O O6 0.647915 0.144646 0.134303
O O7 0.399513 0.247302 0.113675
O O8 0.398910 0.138888 0.224657
O O9 0.596695 0.286022 0.229167
O O10 0.207974 0.466805 0.430017
O O11 0.263081 0.806065 0.000000
O O12 0.297478 0.561168 0.690823
O O13 0.000000 0.000000 0.592180
#
# Coordination Sequence:
#
# PCOD8225735 Si02
#       7
#     4   4   8   4   8   8   8
#     4   9  19  35  58  86 116 147 203 231 281 359
#     4  10  21  34  58  81 118 150 186 240 296 359
#     4   9  21  35  57  85 112 148 200 245 283 355
#     4   9  19  37  60  86 118 153 197 240 290 351
#     4  10  19  37  58  84 114 152 191 239 297 350
#     4  10  19  37  56  80 115 151 196 238 297 349
#     4   9  18  35  60  82 114 164 192 235 300 351
#
# _framework density 20.734632000000001
#
# number of rings (size 3 to 8) (size 9 to 14) (size 15 to 20)
#    0.000    2.545    0.909    1.909    0.000    3.636 
#    3.273    5.455    4.000    0.000    0.000    0.000 
#    0.000    0.000    0.000    0.000    0.000    0.000 
#
# Total GULP energy -545267.040222 kJ/mol
# GULP energy per Si atom -12392.432732 kJ/mol
# Density = 2.068744 g / cm^3
# Si number density = 20.734632 Si / 1000 Ang^3
#
#
#
# Elastic Constant Matrix: (Units=GPa)
#
#
# Indices 1 2 3 4 5 6 
#
# 1 71.2134 14.3836 18.6653 0.0000 0.0000 0.0000
# 2 14.3836 69.2469 31.7320 0.0000 0.0000 0.0000
# 3 18.6653 31.7320 87.1602 0.0000 0.0000 0.0000
# 4 0.0000 0.0000 0.0000 -5.7419 0.0000 0.0000
# 5 0.0000 0.0000 0.0000 0.0000 18.9267 0.0000
# 6 0.0000 0.0000 0.0000 0.0000 0.0000 26.4302
#
#
#
# Elastic Compliance Matrix: (Units=1/GPa)
#
#
# Indices 1 2 3 4 5 6 
#
# 1 0.015102 -0.001986 -0.002511 0.000000 0.000000 0.000000
# 2 -0.001986 0.017594 -0.005980 0.000000 0.000000 0.000000
# 3 -0.002511 -0.005980 0.014188 0.000000 0.000000 0.000000
# 4 0.000000 0.000000 0.000000 -0.174157 0.000000 0.000000
# 5 0.000000 0.000000 0.000000 0.000000 0.052835 0.000000
# 6 0.000000 0.000000 0.000000 0.000000 0.000000 0.037836
#
#
# Mechanical properties :
#
#
# Convention : Reuss Voigt Hill
#
# Bulk Modulus (GPa) = 38.56644 39.68691 39.12667
# Shear Modulus (GPa) = -713.74642 18.77895 -347.48374
#
# Velocity S-wave (km/s) = -18.57354 3.01272 -12.95955
# Velocity P-wave (km/s) = 21.00781 5.59320 14.31859
#
# Compressibility (1/GPa) = 0.02592928
#
# Stress axis : x y z
#
# Youngs Moduli (GPa) = 66.21816 56.83773 70.48242
#
# Poissons Ratio (x) = 0.11289 0.17697
# Poissons Ratio (y) = 0.13152 0.42148
# Poissons Ratio (z) = 0.16627 0.33989
#
# Static dielectric constant tensor:
#      x y z
#    x 3.875180 0.000000 0.000000 
#    y 0.000000 3.798480 0.000000 
#    z 0.000000 0.000000 3.584770 
# 
# 
# High freq. dielectric constant tensor:
#      x y z
#    x 1.804690 0.000000 0.000000 
#    y 0.000000 1.806230 0.000000 
#    z 0.000000 0.000000 1.804300 
# 
# From -- ./inp_files/20738.got.cif
#   From: 2010.03.12/outbox.cif.g09.slc.cpg/sg55_11_cif.got.tgz:20738.got - 2010.04.16 15:19:21.
