data_PCOD8225938
_publ_section_title
;
Structure prediction by ZEFSAII (Michael W. Deem and Ramdas Pophale) SiO2 
 PCOD8225938
Probable space group: P B A M
;
_chemical_formula_sum "Si O2"
_cell_formula_units_Z 40
_cell_length_a 29.577624
_cell_length_b 6.241159
_cell_length_c 7.796726
_cell_angle_alpha 90.000000
_cell_angle_beta 90.000000
_cell_angle_gamma 90.000000
_cell_volume 1439.265127
_symmetry_space_group_name_H-M "P B A M"
_symmetry_group_IT_number 55
_symmetry_cell_setting 'orthorhombic'
loop_
_space_group_symop_operation_xyz
x,y,z
-x,-y,z
1/2+x,1/2-y,-z
1/2-x,1/2+y,-z
-x,-y,-z
x,y,-z
1/2-x,1/2+y,z
1/2+x,1/2-y,z
loop_
_atom_site_type_symbol
_atom_site_label
_atom_site_fract_x
_atom_site_fract_y
_atom_site_fract_z
Si Si1 0.628280 0.913913 0.809541
Si Si2 0.655329 0.425863 0.190312
Si Si3 0.788847 0.018489 0.500000
Si Si4 0.438675 0.680918 0.298183
Si Si5 0.314733 0.008243 0.500000
Si Si6 0.964412 0.293214 0.299537
O O1 0.636513 0.662820 0.779529
O O2 0.658491 0.053837 0.675015
O O3 0.573913 0.952016 0.782053
O O4 0.644123 0.980259 0.000000
O O5 0.694509 0.381013 0.333843
O O6 0.610016 0.270783 0.204157
O O7 0.676600 0.399247 0.000000
O O8 0.736199 0.083010 0.500000
O O9 0.815007 0.237621 0.500000
O O10 0.428815 0.680616 0.500000
O O11 0.481824 0.842932 0.257746
O O12 0.455150 0.448100 0.235455
O O13 0.956179 0.306696 0.500000
#
# Coordination Sequence:
#
# PCOD8225938 Si02
#       6
#     8   8   4   8   4   8
#     4   9  16  26  41  61  86 116 147 178 217 264
#     4   9  16  26  41  61  86 116 147 178 217 264
#     4  10  20  34  49  65  87 115 148 188 227 262
#     4   8  12  19  33  54  83 117 146 171 205 255
#     4  10  20  34  49  65  87 115 148 188 227 262
#     4   8  12  19  33  54  83 117 146 171 205 255
#
# _framework density 27.791962000000002
#
# number of rings (size 3 to 8) (size 9 to 14) (size 15 to 20)
#    0.000    3.200    2.000    1.200    0.000    1.600 
#    0.000    4.000    0.000    0.000    0.000    0.000 
#    0.000    3.200    0.000    3.600    0.000    4.000 
#
# Total GULP energy -495895.563927 kJ/mol
# GULP energy per Si atom -12397.389098 kJ/mol
# Density = 2.772871 g / cm^3
# Si number density = 27.791962 Si / 1000 Ang^3
#
#
#
# Elastic Constant Matrix: (Units=GPa)
#
#
# Indices 1 2 3 4 5 6 
#
# 1 210.3151 58.2645 118.7823 0.0000 0.0000 0.0000
# 2 58.2645 95.9891 -1.7674 0.0000 0.0000 0.0000
# 3 118.7823 -1.7674 203.9824 0.0000 0.0000 0.0000
# 4 0.0000 0.0000 0.0000 -16.4634 0.0000 0.0000
# 5 0.0000 0.0000 0.0000 0.0000 23.9103 0.0000
# 6 0.0000 0.0000 0.0000 0.0000 0.0000 58.7127
#
#
#
# Elastic Compliance Matrix: (Units=1/GPa)
#
#
# Indices 1 2 3 4 5 6 
#
# 1 0.009568 -0.005911 -0.005623 0.000000 0.000000 0.000000
# 2 -0.005911 0.014072 0.003564 0.000000 0.000000 0.000000
# 3 -0.005623 0.003564 0.008208 0.000000 0.000000 0.000000
# 4 0.000000 0.000000 0.000000 -0.060741 0.000000 0.000000
# 5 0.000000 0.000000 0.000000 0.000000 0.041823 0.000000
# 6 0.000000 0.000000 0.000000 0.000000 0.000000 0.017032
#
#
# Mechanical properties :
#
#
# Convention : Reuss Voigt Hill
#
# Bulk Modulus (GPa) = 62.86452 95.64951 79.25701
# Shear Modulus (GPa) = 97.64919 35.56575 66.60747
#
# Velocity S-wave (km/s) = 5.93397 3.58119 4.90087
# Velocity P-wave (km/s) = 8.34375 7.18268 7.78489
#
# Compressibility (1/GPa) = 0.01590722
#
# Stress axis : x y z
#
# Youngs Moduli (GPa) = 104.51385 71.06528 121.83879
#
# Poissons Ratio (x) = 0.42009 0.68509
# Poissons Ratio (y) = 0.61781 -0.43425
# Poissons Ratio (z) = 0.58767 -0.25329
#
# Static dielectric constant tensor:
#      x y z
#    x 5.074380 0.000000 0.000000 
#    y 0.000000 5.924630 0.000000 
#    z 0.000000 0.000000 4.711340 
# 
# 
# High freq. dielectric constant tensor:
#      x y z
#    x 2.125310 0.000000 0.000000 
#    y 0.000000 2.220060 0.000000 
#    z 0.000000 0.000000 2.078850 
# 
# From -- ./inp_files/2520.got.cif
#   From: 2010.03.12/outbox.cif.g09.slc.cpg/sg55_2_cif.got.tgz:2520.got - 2010.04.16 15:19:21.
