data_PCOD8225182
_publ_section_title
;
Structure prediction by ZEFSAII (Michael W. Deem and Ramdas Pophale) SiO2 
 PCOD8225182
Probable space group: P B A M
;
_chemical_formula_sum "Si O2"
_cell_formula_units_Z 64
_cell_length_a 20.643264
_cell_length_b 19.295058
_cell_length_c 9.000102
_cell_angle_alpha 90.000000
_cell_angle_beta 90.000000
_cell_angle_gamma 90.000000
_cell_volume 3584.857414
_symmetry_space_group_name_H-M "P B A M"
_symmetry_group_IT_number 55
_symmetry_cell_setting 'orthorhombic'
loop_
_space_group_symop_operation_xyz
x,y,z
-x,-y,z
1/2+x,1/2-y,-z
1/2-x,1/2+y,-z
-x,-y,-z
x,y,-z
1/2-x,1/2+y,z
1/2+x,1/2-y,z
loop_
_atom_site_type_symbol
_atom_site_label
_atom_site_fract_x
_atom_site_fract_y
_atom_site_fract_z
Si Si1 0.690101 0.706012 0.175386
Si Si2 0.263392 0.581033 0.326624
Si Si3 0.372249 0.069762 0.828770
Si Si4 0.063956 0.712583 0.171449
Si Si5 0.432902 0.786597 0.326876
Si Si6 0.619710 0.065708 0.671752
Si Si7 0.732693 0.575387 0.670546
Si Si8 0.315354 0.710180 0.823445
O O1 0.625920 0.745067 0.231116
O O2 0.688877 0.627454 0.234253
O O3 0.753412 0.746429 0.235220
O O4 0.691814 0.704856 0.000000
O O5 0.261673 0.599328 0.500000
O O6 0.191172 0.588431 0.264480
O O7 0.290216 0.503288 0.300224
O O8 0.311299 0.632727 0.241514
O O9 0.423900 0.130834 0.808677
O O10 0.405276 0.999107 0.769107
O O11 0.351773 0.061366 0.000000
O O12 0.003471 0.735779 0.270926
O O13 0.049399 0.730369 0.000000
O O14 0.424817 0.769188 0.500000
O O15 0.425099 0.868477 0.296205
O O16 0.380443 0.744426 0.235018
O O17 0.618409 0.042972 0.500000
O O18 0.692778 0.084163 0.720122
O O19 0.724462 0.596387 0.500000
O O20 0.317322 0.706530 0.000000
#
# Coordination Sequence:
#
# PCOD8225182 Si02
#       8
#     8   8   8   8   8   8   8   8
#     4  10  20  35  56  81 109 141 181 226 272 321
#     4  10  20  34  54  82 114 144 178 226 276 324
#     4  10  19  33  53  77 109 147 188 227 268 322
#     4  10  22  39  53  76 112 146 185 229 272 327
#     4  11  23  38  55  79 110 148 188 227 277 330
#     4   9  19  34  50  75 111 145 183 225 267 324
#     4   9  18  33  53  80 111 140 176 223 272 320
#     4  11  21  36  58  84 110 143 185 229 276 326
#
# _framework density 17.852872000000001
#
# number of rings (size 3 to 8) (size 9 to 14) (size 15 to 20)
#    0.000    2.000    2.500    2.250    0.000    6.000 
#    0.000    2.500    0.000    0.750    0.000    5.250 
#    0.000    0.000    0.000    0.000    0.000    0.000 
#
# Total GULP energy -793770.536228 kJ/mol
# GULP energy per Si atom -12402.664629 kJ/mol
# Density = 1.781224 g / cm^3
# Si number density = 17.852872 Si / 1000 Ang^3
#
#
#
# Elastic Constant Matrix: (Units=GPa)
#
#
# Indices 1 2 3 4 5 6 
#
# 1 98.2976 49.7228 43.4572 0.0000 0.0000 0.0000
# 2 49.7228 88.9691 46.4688 0.0000 0.0000 0.0000
# 3 43.4572 46.4688 73.1304 0.0000 0.0000 0.0000
# 4 0.0000 0.0000 0.0000 34.4552 0.0000 0.0000
# 5 0.0000 0.0000 0.0000 0.0000 25.7311 0.0000
# 6 0.0000 0.0000 0.0000 0.0000 0.0000 21.8967
#
#
#
# Elastic Compliance Matrix: (Units=1/GPa)
#
#
# Indices 1 2 3 4 5 6 
#
# 1 0.015564 -0.005789 -0.005570 0.000000 0.000000 0.000000
# 2 -0.005789 0.018976 -0.008618 0.000000 0.000000 0.000000
# 3 -0.005570 -0.008618 0.022460 0.000000 0.000000 0.000000
# 4 0.000000 0.000000 0.000000 0.029023 0.000000 0.000000
# 5 0.000000 0.000000 0.000000 0.000000 0.038863 0.000000
# 6 0.000000 0.000000 0.000000 0.000000 0.000000 0.045669
#
#
# Mechanical properties :
#
#
# Convention : Reuss Voigt Hill
#
# Bulk Modulus (GPa) = 58.66410 59.96609 59.31509
# Shear Modulus (GPa) = 23.12744 24.46650 23.79697
#
# Velocity S-wave (km/s) = 3.60314 3.70598 3.65492
# Velocity P-wave (km/s) = 7.08810 7.20932 7.14897
#
# Compressibility (1/GPa) = 0.01704620
#
# Stress axis : x y z
#
# Youngs Moduli (GPa) = 64.25013 52.69707 44.52268
#
# Poissons Ratio (x) = 0.30506 0.24801
# Poissons Ratio (y) = 0.37194 0.38370
# Poissons Ratio (z) = 0.35790 0.45414
#
# Static dielectric constant tensor:
#      x y z
#    x 3.056010 0.000000 0.000000 
#    y 0.000000 3.426560 0.000000 
#    z 0.000000 0.000000 3.306760 
# 
# 
# High freq. dielectric constant tensor:
#      x y z
#    x 1.663720 0.000000 0.000000 
#    y 0.000000 1.692370 0.000000 
#    z 0.000000 0.000000 1.696580 
# 
# From -- ./inp_files/8993.got.cif
#   From: 2010.03.12/outbox.cif.g09.slc.cpg/sg55_5_cif.got.tgz:8993.got - 2010.04.16 15:19:21.
