data_PCOD8225531
_publ_section_title
;
Structure prediction by ZEFSAII (Michael W. Deem and Ramdas Pophale) SiO2 
 PCOD8225531
Probable space group: P B A M
;
_chemical_formula_sum "Si O2"
_cell_formula_units_Z 64
_cell_length_a 18.997863
_cell_length_b 22.973931
_cell_length_c 8.555272
_cell_angle_alpha 90.000000
_cell_angle_beta 90.000000
_cell_angle_gamma 90.000000
_cell_volume 3733.996320
_symmetry_space_group_name_H-M "P B A M"
_symmetry_group_IT_number 55
_symmetry_cell_setting 'orthorhombic'
loop_
_space_group_symop_operation_xyz
x,y,z
-x,-y,z
1/2+x,1/2-y,-z
1/2-x,1/2+y,-z
-x,-y,-z
x,y,-z
1/2-x,1/2+y,z
1/2+x,1/2-y,z
loop_
_atom_site_type_symbol
_atom_site_label
_atom_site_fract_x
_atom_site_fract_y
_atom_site_fract_z
Si Si1 0.503777 0.118118 0.317159
Si Si2 0.641501 0.942874 0.681051
Si Si3 0.647853 0.731866 0.182962
Si Si4 0.229421 0.334503 0.682175
Si Si5 0.501774 0.747343 0.315628
Si Si6 0.856545 0.769730 0.816891
Si Si7 0.766200 0.334810 0.318892
Si Si8 0.642715 0.066646 0.180328
O O1 0.520184 0.112330 0.500000
O O2 0.430651 0.088432 0.270598
O O3 0.500930 0.185165 0.266113
O O4 0.564021 0.084944 0.223952
O O5 0.638652 0.961232 0.500000
O O6 0.706280 0.899520 0.714606
O O7 0.653659 0.998808 0.786844
O O8 0.698376 0.677689 0.224857
O O9 0.569111 0.716880 0.236994
O O10 0.673074 0.789220 0.274212
O O11 0.651338 0.744245 0.000000
O O12 0.245230 0.329412 0.500000
O O13 0.169875 0.287998 0.729012
O O14 0.200898 0.398328 0.721413
O O15 0.505773 0.739037 0.500000
O O16 0.433637 0.714629 0.247075
O O17 0.804402 0.823529 0.780773
O O18 0.858363 0.757239 0.000000
O O19 0.748339 0.325833 0.500000
O O20 0.655879 0.079778 0.000000
#
# Coordination Sequence:
#
# PCOD8225531 Si02
#       8
#     8   8   8   8   8   8   8   8
#     4  10  20  35  52  71 101 142 183 216 247 300
#     4  10  21  37  54  72  99 139 184 217 252 304
#     4  11  21  33  52  78 107 133 166 218 267 308
#     4  11  21  36  54  72  99 138 178 214 256 312
#     4  11  20  34  54  77 104 142 177 209 255 314
#     4  11  21  33  51  78 106 133 168 217 268 308
#     4  10  19  35  54  74 100 137 178 214 255 312
#     4  12  24  35  50  75 105 137 177 221 266 305
#
# _framework density 17.139814000000001
#
# number of rings (size 3 to 8) (size 9 to 14) (size 15 to 20)
#    0.000    1.250    2.500    7.125    0.000    3.500 
#    0.000    0.000    0.000    0.000    0.000    0.875 
#    0.000    7.000    0.000    0.000    0.000    0.000 
#
# Total GULP energy -793933.570488 kJ/mol
# GULP energy per Si atom -12405.212039 kJ/mol
# Density = 1.710080 g / cm^3
# Si number density = 17.139814 Si / 1000 Ang^3
#
#
#
# Elastic Constant Matrix: (Units=GPa)
#
#
# Indices 1 2 3 4 5 6 
#
# 1 118.0186 34.9683 22.3918 0.0000 0.0000 0.0000
# 2 34.9683 60.0074 22.0459 0.0000 0.0000 0.0000
# 3 22.3918 22.0459 69.1753 0.0000 0.0000 0.0000
# 4 0.0000 0.0000 0.0000 18.9447 0.0000 0.0000
# 5 0.0000 0.0000 0.0000 0.0000 23.7670 0.0000
# 6 0.0000 0.0000 0.0000 0.0000 0.0000 21.7373
#
#
#
# Elastic Compliance Matrix: (Units=1/GPa)
#
#
# Indices 1 2 3 4 5 6 
#
# 1 0.010400 -0.005464 -0.001625 0.000000 0.000000 0.000000
# 2 -0.005464 0.021745 -0.005161 0.000000 0.000000 0.000000
# 3 -0.001625 -0.005161 0.016627 0.000000 0.000000 0.000000
# 4 0.000000 0.000000 0.000000 0.052785 0.000000 0.000000
# 5 0.000000 0.000000 0.000000 0.000000 0.042075 0.000000
# 6 0.000000 0.000000 0.000000 0.000000 0.000000 0.046004
#
#
# Mechanical properties :
#
#
# Convention : Reuss Voigt Hill
#
# Bulk Modulus (GPa) = 41.20057 45.11258 43.15657
# Shear Modulus (GPa) = 22.49947 24.07616 23.28782
#
# Velocity S-wave (km/s) = 3.62705 3.75199 3.69005
# Velocity P-wave (km/s) = 6.45219 6.71918 6.58704
#
# Compressibility (1/GPa) = 0.02427151
#
# Stress axis : x y z
#
# Youngs Moduli (GPa) = 96.14977 45.98845 60.14291
#
# Poissons Ratio (x) = 0.25126 0.09776
# Poissons Ratio (y) = 0.52532 0.31042
# Poissons Ratio (z) = 0.15628 0.23736
#
# Static dielectric constant tensor:
#      x y z
#    x 3.322380 0.000000 0.000000 
#    y 0.000000 3.006680 0.000000 
#    z 0.000000 0.000000 3.240310 
# 
# 
# High freq. dielectric constant tensor:
#      x y z
#    x 1.661370 0.000000 0.000000 
#    y 0.000000 1.629060 0.000000 
#    z 0.000000 0.000000 1.675250 
# 
# From -- ./inp_files/8184.got.cif
#   From: 2010.03.12/outbox.cif.g09.slc.cpg/sg55_5_cif.got.tgz:8184.got - 2010.04.16 15:19:21.
