data_PCOD8225343
_publ_section_title
;
Structure prediction by ZEFSAII (Michael W. Deem and Ramdas Pophale) SiO2 
 PCOD8225343
Probable space group: P B A M
;
_chemical_formula_sum "Si O2"
_cell_formula_units_Z 56
_cell_length_a 14.483759
_cell_length_b 12.768676
_cell_length_c 13.937474
_cell_angle_alpha 90.000000
_cell_angle_beta 90.000000
_cell_angle_gamma 90.000000
_cell_volume 2577.574503
_symmetry_space_group_name_H-M "P B A M"
_symmetry_group_IT_number 55
_symmetry_cell_setting 'orthorhombic'
loop_
_space_group_symop_operation_xyz
x,y,z
-x,-y,z
1/2+x,1/2-y,-z
1/2-x,1/2+y,-z
-x,-y,-z
x,y,-z
1/2-x,1/2+y,z
1/2+x,1/2-y,z
loop_
_atom_site_type_symbol
_atom_site_label
_atom_site_fract_x
_atom_site_fract_y
_atom_site_fract_z
Si Si1 0.902816 0.947087 0.201569
Si Si2 0.712609 0.046351 0.802281
Si Si3 0.560842 0.901812 0.222759
Si Si4 0.803640 0.647344 0.608251
Si Si5 0.572278 0.342678 0.607009
Si Si6 0.408403 0.779205 0.112770
Si Si7 0.612533 0.759295 0.393184
O O1 0.892095 0.925899 0.315598
O O2 0.892516 0.839710 0.143837
O O3 0.819630 0.025134 0.172413
O O4 0.000000 0.000000 0.174764
O O5 0.694058 0.056344 0.687303
O O6 0.680285 0.152512 0.854860
O O7 0.649908 0.947145 0.835568
O O8 0.504026 0.820916 0.157736
O O9 0.596019 0.850924 0.319486
O O10 0.500000 0.000000 0.253977
O O11 0.806721 0.600624 0.500000
O O12 0.888940 0.726064 0.626254
O O13 0.712088 0.713271 0.626785
O O14 0.600330 0.381831 0.500000
O O15 0.461890 0.334251 0.618979
O O16 0.418761 0.786359 0.000000
O O17 0.605334 0.807050 0.500000
#
# Coordination Sequence:
#
# PCOD8225343 Si02
#       7
#     8   8   8   8   8   8   8
#     4  12  25  42  69 100 132 170 218 265 319 391
#     4  11  24  40  69  98 128 174 218 262 326 395
#     4  10  21  39  65  96 126 169 219 266 328 392
#     4  10  20  36  60  93 134 175 215 256 309 381
#     4  10  19  36  60  90 133 177 213 252 310 380
#     4  11  26  49  70  94 129 164 212 284 344 382
#     4  10  19  33  59  90 130 178 212 251 314 382
#
# _framework density 21.725850999999999
#
# number of rings (size 3 to 8) (size 9 to 14) (size 15 to 20)
#    0.000    1.429    2.857    2.571    0.000    5.143 
#    0.000    1.429    0.000    0.000    0.000    0.000 
#    0.000    0.000    0.000    0.000    0.000    0.000 
#
# Total GULP energy -694444.258798 kJ/mol
# GULP energy per Si atom -12400.790336 kJ/mol
# Density = 2.167640 g / cm^3
# Si number density = 21.725851 Si / 1000 Ang^3
#
#
#
# Elastic Constant Matrix: (Units=GPa)
#
#
# Indices 1 2 3 4 5 6 
#
# 1 124.9602 38.8294 20.9531 0.0000 0.0000 0.0000
# 2 38.8294 87.8471 40.5654 0.0000 0.0000 0.0000
# 3 20.9531 40.5654 95.9581 0.0000 0.0000 0.0000
# 4 0.0000 0.0000 0.0000 9.9769 0.0000 0.0000
# 5 0.0000 0.0000 0.0000 0.0000 14.1661 0.0000
# 6 0.0000 0.0000 0.0000 0.0000 0.0000 26.2377
#
#
#
# Elastic Compliance Matrix: (Units=1/GPa)
#
#
# Indices 1 2 3 4 5 6 
#
# 1 0.009287 -0.003937 -0.000364 0.000000 0.000000 0.000000
# 2 -0.003937 0.015814 -0.005825 0.000000 0.000000 0.000000
# 3 -0.000364 -0.005825 0.012963 0.000000 0.000000 0.000000
# 4 0.000000 0.000000 0.000000 0.100232 0.000000 0.000000
# 5 0.000000 0.000000 0.000000 0.000000 0.070591 0.000000
# 6 0.000000 0.000000 0.000000 0.000000 0.000000 0.038113
#
#
# Mechanical properties :
#
#
# Convention : Reuss Voigt Hill
#
# Bulk Modulus (GPa) = 56.14239 56.60681 56.37460
# Shear Modulus (GPa) = 18.30234 23.97062 21.13648
#
# Velocity S-wave (km/s) = 2.90560 3.32523 3.12247
# Velocity P-wave (km/s) = 6.09541 6.39175 6.24534
#
# Compressibility (1/GPa) = 0.01781185
#
# Stress axis : x y z
#
# Youngs Moduli (GPa) = 107.67890 63.23660 77.14140
#
# Poissons Ratio (x) = 0.24897 0.02804
# Poissons Ratio (y) = 0.42394 0.44938
# Poissons Ratio (z) = 0.03914 0.36838
#
# Static dielectric constant tensor:
#      x y z
#    x 4.267000 0.000000 0.000000 
#    y 0.000000 3.697190 0.000000 
#    z 0.000000 0.000000 3.864140 
# 
# 
# High freq. dielectric constant tensor:
#      x y z
#    x 1.869500 0.000000 0.000000 
#    y 0.000000 1.840760 0.000000 
#    z 0.000000 0.000000 1.836180 
# 
# From -- ./inp_files/18952.got.cif
#   From: 2010.03.12/outbox.cif.g09.slc.cpg/sg55_10_cif.got.tgz:18952.got - 2010.04.16 15:19:21.
