data_PCOD8225064
_publ_section_title
;
Structure prediction by ZEFSAII (Michael W. Deem and Ramdas Pophale) SiO2 
 PCOD8225064
Probable space group: P B A M
;
_chemical_formula_sum "Si O2"
_cell_formula_units_Z 64
_cell_length_a 30.085361
_cell_length_b 10.413444
_cell_length_c 11.320671
_cell_angle_alpha 90.000000
_cell_angle_beta 90.000000
_cell_angle_gamma 90.000000
_cell_volume 3546.678172
_symmetry_space_group_name_H-M "P B A M"
_symmetry_group_IT_number 55
_symmetry_cell_setting 'orthorhombic'
loop_
_space_group_symop_operation_xyz
x,y,z
-x,-y,z
1/2+x,1/2-y,-z
1/2-x,1/2+y,-z
-x,-y,-z
x,y,-z
1/2-x,1/2+y,z
1/2+x,1/2-y,z
loop_
_atom_site_type_symbol
_atom_site_label
_atom_site_fract_x
_atom_site_fract_y
_atom_site_fract_z
Si Si1 0.844689 0.493532 0.869326
Si Si2 0.243774 0.504310 0.718659
Si Si3 0.943852 0.133552 0.632035
Si Si4 0.952804 0.837330 0.637174
Si Si5 0.368153 0.276251 0.207334
Si Si6 0.283985 0.261268 0.627814
Si Si7 0.101194 0.256398 0.859060
Si Si8 0.668287 0.467553 0.869838
O O1 0.801232 0.502024 0.791309
O O2 0.869685 0.355921 0.865406
O O3 0.880207 0.601869 0.835622
O O4 0.827015 0.518448 0.000000
O O5 0.247259 0.371056 0.649392
O O6 0.241246 0.625527 0.632237
O O7 0.287912 0.523018 0.793593
O O8 0.929535 0.171064 0.500000
O O9 0.913627 0.215303 0.720069
O O10 0.994569 0.171067 0.653325
O O11 0.935903 0.982562 0.651588
O O12 0.940536 0.790809 0.500000
O O13 0.934498 0.758836 0.751565
O O14 0.324763 0.270391 0.286170
O O15 0.362085 0.403755 0.128845
O O16 0.304905 0.280648 0.500000
O O17 0.138818 0.152475 0.829514
O O18 0.084895 0.241915 0.000000
O O19 0.686150 0.442057 0.000000
#
# Coordination Sequence:
#
# PCOD8225064 Si02
#       8
#     8   8   8   8   8   8   8   8
#     4  10  21  36  53  73 107 147 179 219 269 320
#     4  10  20  34  52  72  99 137 182 218 259 315
#     4   9  17  33  58  83 109 135 171 221 267 318
#     4   9  18  35  59  85 109 138 177 220 268 326
#     4  10  19  33  53  78 104 134 177 214 267 319
#     4  10  20  33  49  72 103 135 170 218 268 317
#     4  10  20  36  54  80 114 143 176 224 274 318
#     4  10  19  32  53  77 102 131 177 229 263 305
#
# _framework density 18.045052999999999
#
# number of rings (size 3 to 8) (size 9 to 14) (size 15 to 20)
#    0.000    2.250    1.250    3.000    0.000    0.000 
#    0.000   12.500    0.000    3.000    0.000    0.000 
#    0.000    0.000    0.000    0.000    0.000    0.000 
#
# Total GULP energy -792889.567626 kJ/mol
# GULP energy per Si atom -12388.899494 kJ/mol
# Density = 1.800398 g / cm^3
# Si number density = 18.045053 Si / 1000 Ang^3
#
#
#
# Elastic Constant Matrix: (Units=GPa)
#
#
# Indices 1 2 3 4 5 6 
#
# 1 53.9679 27.3798 27.0417 0.0000 0.0000 0.0000
# 2 27.3798 104.6402 22.1489 0.0000 0.0000 0.0000
# 3 27.0417 22.1489 76.8809 0.0000 0.0000 0.0000
# 4 0.0000 0.0000 0.0000 17.2116 0.0000 0.0000
# 5 0.0000 0.0000 0.0000 0.0000 74.8652 0.0000
# 6 0.0000 0.0000 0.0000 0.0000 0.0000 22.9114
#
#
#
# Elastic Compliance Matrix: (Units=1/GPa)
#
#
# Indices 1 2 3 4 5 6 
#
# 1 0.024660 -0.004916 -0.007258 0.000000 0.000000 0.000000
# 2 -0.004916 0.011157 -0.001485 0.000000 0.000000 0.000000
# 3 -0.007258 -0.001485 0.015988 0.000000 0.000000 0.000000
# 4 0.000000 0.000000 0.000000 0.058100 0.000000 0.000000
# 5 0.000000 0.000000 0.000000 0.000000 0.013357 0.000000
# 6 0.000000 0.000000 0.000000 0.000000 0.000000 0.043646
#
#
# Mechanical properties :
#
#
# Convention : Reuss Voigt Hill
#
# Bulk Modulus (GPa) = 40.83737 43.18108 42.00923
# Shear Modulus (GPa) = 24.70480 33.59221 29.14850
#
# Velocity S-wave (km/s) = 3.70410 4.31928 4.02346
# Velocity P-wave (km/s) = 6.40107 6.98974 6.70187
#
# Compressibility (1/GPa) = 0.02448737
#
# Stress axis : x y z
#
# Youngs Moduli (GPa) = 40.55104 89.62741 62.54812
#
# Poissons Ratio (x) = 0.44064 0.45394
# Poissons Ratio (y) = 0.19936 0.09289
# Poissons Ratio (z) = 0.29430 0.13311
#
# Static dielectric constant tensor:
#      x y z
#    x 3.124570 0.000000 0.000000 
#    y 0.000000 3.676890 0.000000 
#    z 0.000000 0.000000 3.467790 
# 
# 
# High freq. dielectric constant tensor:
#      x y z
#    x 1.683370 0.000000 0.000000 
#    y 0.000000 1.701560 0.000000 
#    z 0.000000 0.000000 1.704740 
# 
# From -- ./inp_files/13557.got.cif
#   From: 2010.03.12/outbox.cif.g09.slc.cpg/sg55_7_cif.got.tgz:13557.got - 2010.04.16 15:19:21.
