data_PCOD8225526
_publ_section_title
;
Structure prediction by ZEFSAII (Michael W. Deem and Ramdas Pophale) SiO2 
 PCOD8225526
Probable space group: P B A M
;
_chemical_formula_sum "Si O2"
_cell_formula_units_Z 64
_cell_length_a 11.191016
_cell_length_b 17.298234
_cell_length_c 14.719986
_cell_angle_alpha 90.000000
_cell_angle_beta 90.000000
_cell_angle_gamma 90.000000
_cell_volume 2849.565744
_symmetry_space_group_name_H-M "P B A M"
_symmetry_group_IT_number 55
_symmetry_cell_setting 'orthorhombic'
loop_
_space_group_symop_operation_xyz
x,y,z
-x,-y,z
1/2+x,1/2-y,-z
1/2-x,1/2+y,-z
-x,-y,-z
x,y,-z
1/2-x,1/2+y,z
1/2+x,1/2-y,z
loop_
_atom_site_type_symbol
_atom_site_label
_atom_site_fract_x
_atom_site_fract_y
_atom_site_fract_z
Si Si1 0.495727 0.890982 0.902016
Si Si2 0.699740 0.774811 0.099542
Si Si3 0.017200 0.377545 0.289835
Si Si4 0.220660 0.630793 0.395883
Si Si5 0.285574 0.396362 0.098108
Si Si6 0.229102 0.450437 0.604016
Si Si7 0.115950 0.207552 0.744167
Si Si8 0.574457 0.575613 0.735978
O O1 0.568616 0.812089 0.897760
O O2 0.523145 0.927115 0.801792
O O3 0.354943 0.881183 0.900511
O O4 0.531656 0.933313 0.000000
O O5 0.660052 0.687472 0.115649
O O6 0.790858 0.808066 0.174002
O O7 0.759723 0.786820 0.000000
O O8 0.905720 0.353110 0.349644
O O9 0.103587 0.431443 0.348554
O O10 0.081348 0.297700 0.259140
O O11 0.212103 0.656577 0.500000
O O12 0.255142 0.541169 0.386802
O O13 0.321152 0.683847 0.350055
O O14 0.340476 0.448586 0.178015
O O15 0.323060 0.431593 0.000000
O O16 0.222105 0.423501 0.500000
O O17 0.338056 0.404979 0.651722
O O18 0.003363 0.151011 0.757314
O O19 0.500000 0.500000 0.711432
#
# Coordination Sequence:
#
# PCOD8225526 Si02
#       8
#     8   8   8   8   8   8   8   8
#     4  10  19  34  62  95 130 170 213 263 324 386
#     4  10  20  37  64  98 135 178 221 267 324 388
#     4  12  23  41  73 100 133 168 225 283 335 388
#     4  11  26  47  68  95 130 173 224 282 339 404
#     4  10  21  38  62  95 133 174 221 270 322 388
#     4  11  25  48  72  94 125 176 230 275 340 412
#     4  12  25  40  65 103 139 173 221 277 332 396
#     4  12  25  43  66  95 133 182 221 267 341 405
#
# _framework density 22.459561999999998
#
# number of rings (size 3 to 8) (size 9 to 14) (size 15 to 20)
#    0.000    1.000    5.000    1.500    1.750    3.500 
#    0.000    0.000    0.000    3.000    0.000    0.000 
#    0.000    0.000    0.000    0.000    0.000    0.000 
#
# Total GULP energy -792839.685260 kJ/mol
# GULP energy per Si atom -12388.120082 kJ/mol
# Density = 2.240844 g / cm^3
# Si number density = 22.459562 Si / 1000 Ang^3
#
#
#
# Elastic Constant Matrix: (Units=GPa)
#
#
# Indices 1 2 3 4 5 6 
#
# 1 82.1551 -6.4943 42.9863 0.0000 0.0000 0.0000
# 2 -6.4943 40.2852 4.0923 0.0000 0.0000 0.0000
# 3 42.9863 4.0923 202.8696 0.0000 0.0000 0.0000
# 4 0.0000 0.0000 0.0000 64.0857 0.0000 0.0000
# 5 0.0000 0.0000 0.0000 0.0000 46.4557 0.0000
# 6 0.0000 0.0000 0.0000 0.0000 0.0000 25.3516
#
#
#
# Elastic Compliance Matrix: (Units=1/GPa)
#
#
# Indices 1 2 3 4 5 6 
#
# 1 0.013947 0.002554 -0.003007 0.000000 0.000000 0.000000
# 2 0.002554 0.025342 -0.001052 0.000000 0.000000 0.000000
# 3 -0.003007 -0.001052 0.005588 0.000000 0.000000 0.000000
# 4 0.000000 0.000000 0.000000 0.015604 0.000000 0.000000
# 5 0.000000 0.000000 0.000000 0.000000 0.021526 0.000000
# 6 0.000000 0.000000 0.000000 0.000000 0.000000 0.039445
#
#
# Mechanical properties :
#
#
# Convention : Reuss Voigt Hill
#
# Bulk Modulus (GPa) = 23.88583 45.16427 34.52505
# Shear Modulus (GPa) = 36.12258 46.16031 41.14144
#
# Velocity S-wave (km/s) = 4.01476 4.53842 4.28460
# Velocity P-wave (km/s) = 5.67003 6.90042 6.31526
#
# Compressibility (1/GPa) = 0.04186583
#
# Stress axis : x y z
#
# Youngs Moduli (GPa) = 71.69873 39.46084 178.96705
#
# Poissons Ratio (x) = -0.10078 0.53812
# Poissons Ratio (y) = -0.18311 0.18833
# Poissons Ratio (z) = 0.21558 0.04153
#
# Static dielectric constant tensor:
#      x y z
#    x 4.001490 0.000000 0.000000 
#    y 0.000000 3.770200 0.000000 
#    z 0.000000 0.000000 4.805730 
# 
# 
# High freq. dielectric constant tensor:
#      x y z
#    x 1.890730 0.000000 0.000000 
#    y 0.000000 1.859360 0.000000 
#    z 0.000000 0.000000 1.912020 
# 
# From -- ./inp_files/18561.got.cif
#   From: 2010.03.12/outbox.cif.g09.slc.cpg/sg55_10_cif.got.tgz:18561.got - 2010.04.16 15:19:21.
