data_PCOD8225984
_publ_section_title
;
Structure prediction by ZEFSAII (Michael W. Deem and Ramdas Pophale) SiO2 
 PCOD8225984
Probable space group: P B A M
;
_chemical_formula_sum "Si O2"
_cell_formula_units_Z 48
_cell_length_a 14.294323
_cell_length_b 9.130530
_cell_length_c 18.864792
_cell_angle_alpha 90.000000
_cell_angle_beta 90.000000
_cell_angle_gamma 90.000000
_cell_volume 2462.133517
_symmetry_space_group_name_H-M "P B A M"
_symmetry_group_IT_number 55
_symmetry_cell_setting 'orthorhombic'
loop_
_space_group_symop_operation_xyz
x,y,z
-x,-y,z
1/2+x,1/2-y,-z
1/2-x,1/2+y,-z
-x,-y,-z
x,y,-z
1/2-x,1/2+y,z
1/2+x,1/2-y,z
loop_
_atom_site_type_symbol
_atom_site_label
_atom_site_fract_x
_atom_site_fract_y
_atom_site_fract_z
Si Si1 0.369779 0.756727 0.849926
Si Si2 0.466792 0.337994 0.753717
Si Si3 0.800397 0.069027 0.151087
Si Si4 0.473468 0.165867 0.388818
Si Si5 0.820351 0.386693 0.500000
Si Si6 0.371628 0.781402 0.500000
Si Si7 0.060777 0.219333 0.000000
Si Si8 0.633598 0.608799 0.000000
O O1 0.458206 0.751651 0.799079
O O2 0.313697 0.604003 0.846494
O O3 0.302784 0.886564 0.822023
O O4 0.401020 0.796499 0.929586
O O5 0.500000 0.500000 0.735048
O O6 0.373435 0.345933 0.799780
O O7 0.449930 0.254460 0.681236
O O8 0.806075 0.131230 0.070767
O O9 0.376593 0.172743 0.432103
O O10 0.560957 0.237073 0.431487
O O11 0.500000 0.000000 0.370327
O O12 0.711596 0.337900 0.500000
O O13 0.821009 0.562090 0.500000
O O14 0.948486 0.229311 0.000000
O O15 0.088752 0.050575 0.000000
#
# Coordination Sequence:
#
# PCOD8225984 Si02
#       8
#     8   8   8   8   4   4   4   4
#     4  10  20  34  53  76 102 136 178 221 265 312
#     4  10  21  36  53  76 107 142 178 212 254 314
#     4  10  20  34  53  76 102 136 178 221 265 312
#     4   9  20  38  57  79 110 142 170 209 260 306
#     4   9  19  37  60  84 108 137 173 211 254 304
#     4   9  19  37  60  84 108 137 173 211 254 304
#     4   9  15  30  55  74  95 134 179 221 264 310
#     4   9  15  30  55  74  95 134 179 221 264 310
#
# _framework density 19.495287999999999
#
# number of rings (size 3 to 8) (size 9 to 14) (size 15 to 20)
#    0.000    2.500    1.667    1.500    0.000    4.000 
#    0.000    8.333    0.000    1.000    0.000    0.000 
#    0.000    0.000    0.000    0.000    0.000    0.000 
#
# Total GULP energy -595075.816777 kJ/mol
# GULP energy per Si atom -12397.412850 kJ/mol
# Density = 1.945092 g / cm^3
# Si number density = 19.495288 Si / 1000 Ang^3
#
#
#
# Elastic Constant Matrix: (Units=GPa)
#
#
# Indices 1 2 3 4 5 6 
#
# 1 29.3023 -7.0014 -10.0023 0.0000 0.0000 0.0000
# 2 -7.0014 10.6303 18.2108 0.0000 0.0000 0.0000
# 3 -10.0023 18.2108 108.3160 0.0000 0.0000 0.0000
# 4 0.0000 0.0000 0.0000 -3.5766 0.0000 0.0000
# 5 0.0000 0.0000 0.0000 0.0000 19.5648 0.0000
# 6 0.0000 0.0000 0.0000 0.0000 0.0000 35.8255
#
#
#
# Elastic Compliance Matrix: (Units=1/GPa)
#
#
# Indices 1 2 3 4 5 6 
#
# 1 0.040585 0.028526 -0.001048 0.000000 0.000000 0.000000
# 2 0.028526 0.152176 -0.022951 0.000000 0.000000 0.000000
# 3 -0.001048 -0.022951 0.012994 0.000000 0.000000 0.000000
# 4 0.000000 0.000000 0.000000 -0.279593 0.000000 0.000000
# 5 0.000000 0.000000 0.000000 0.000000 0.051112 0.000000
# 6 0.000000 0.000000 0.000000 0.000000 0.000000 0.027913
#
#
# Mechanical properties :
#
#
# Convention : Reuss Voigt Hill
#
# Bulk Modulus (GPa) = 4.65526 16.74031 10.69779
# Shear Modulus (GPa) = 73.81564 20.16549 46.99057
#
# Velocity S-wave (km/s) = 6.15999 3.21966 4.91486
# Velocity P-wave (km/s) = 7.27922 4.73573 6.14061
#
# Compressibility (1/GPa) = 0.21481066
#
# Stress axis : x y z
#
# Youngs Moduli (GPa) = 24.63951 6.57133 76.95834
#
# Poissons Ratio (x) = -0.18746 0.08067
# Poissons Ratio (y) = -0.70288 1.76624
# Poissons Ratio (z) = 0.02583 0.15082
#
# Static dielectric constant tensor:
#      x y z
#    x 3.518910 0.000000 0.000000 
#    y 0.000000 3.240280 0.000000 
#    z 0.000000 0.000000 3.582570 
# 
# 
# High freq. dielectric constant tensor:
#      x y z
#    x 1.763820 0.000000 0.000000 
#    y 0.000000 1.736560 0.000000 
#    z 0.000000 0.000000 1.758410 
# 
# From -- ./inp_files/21575.got.cif
#   From: 2010.03.12/outbox.cif.g09.slc.cpg/sg55_11_cif.got.tgz:21575.got - 2010.04.16 15:19:21.
