data_PCOD8225387
_publ_section_title
;
Structure prediction by ZEFSAII (Michael W. Deem and Ramdas Pophale) SiO2 
 PCOD8225387
Probable space group: P B A M
;
_chemical_formula_sum "Si O2"
_cell_formula_units_Z 56
_cell_length_a 14.626077
_cell_length_b 15.167388
_cell_length_c 13.729023
_cell_angle_alpha 90.000000
_cell_angle_beta 90.000000
_cell_angle_gamma 90.000000
_cell_volume 3045.638016
_symmetry_space_group_name_H-M "P B A M"
_symmetry_group_IT_number 55
_symmetry_cell_setting 'orthorhombic'
loop_
_space_group_symop_operation_xyz
x,y,z
-x,-y,z
1/2+x,1/2-y,-z
1/2-x,1/2+y,-z
-x,-y,-z
x,y,-z
1/2-x,1/2+y,z
1/2+x,1/2-y,z
loop_
_atom_site_type_symbol
_atom_site_label
_atom_site_fract_x
_atom_site_fract_y
_atom_site_fract_z
Si Si1 0.764443 0.253239 0.744684
Si Si2 0.121325 0.325968 0.386338
Si Si3 0.911564 0.317915 0.388795
Si Si4 0.289616 0.012189 0.609434
Si Si5 0.983980 0.898448 0.894624
Si Si6 0.810134 0.928429 0.211779
Si Si7 0.687036 0.609543 0.112134
O O1 0.677761 0.248294 0.671682
O O2 0.857132 0.249402 0.680332
O O3 0.760295 0.347099 0.801491
O O4 0.753685 0.173956 0.820934
O O5 0.130149 0.304809 0.500000
O O6 0.163878 0.420727 0.360562
O O7 0.015983 0.323593 0.353106
O O8 0.905775 0.283663 0.500000
O O9 0.867911 0.414623 0.380084
O O10 0.250463 0.008826 0.500000
O O11 0.202747 0.032209 0.679301
O O12 0.082744 0.860150 0.864984
O O13 0.910518 0.886198 0.808164
O O14 0.951431 0.858158 0.000000
O O15 0.000000 0.000000 0.913363
O O16 0.791373 0.007122 0.135604
O O17 0.712692 0.624744 0.000000
#
# Coordination Sequence:
#
# PCOD8225387 Si02
#       7
#     8   8   8   8   8   8   8
#     4  11  22  33  57  85 110 140 182 228 276 324
#     4  10  19  34  56  80 111 148 180 217 270 323
#     4   9  19  34  54  81 113 145 181 223 261 320
#     4   9  17  32  54  81 109 143 183 218 260 323
#     4   8  16  32  55  75  98 138 182 221 263 320
#     4  10  19  34  55  81 107 140 175 227 271 317
#     4  10  21  38  56  77 106 140 187 235 276 326
#
# _framework density 18.386952000000001
#
# number of rings (size 3 to 8) (size 9 to 14) (size 15 to 20)
#    0.000    2.429    1.429    2.143    2.000    3.429 
#    0.000    0.000    0.000    3.857    0.000    2.000 
#    0.000    0.000    0.000    0.000    0.000    0.000 
#
# Total GULP energy -693981.945955 kJ/mol
# GULP energy per Si atom -12392.534749 kJ/mol
# Density = 1.834510 g / cm^3
# Si number density = 18.386952 Si / 1000 Ang^3
#
#
#
# Elastic Constant Matrix: (Units=GPa)
#
#
# Indices 1 2 3 4 5 6 
#
# 1 95.5101 16.6138 60.4564 0.0000 0.0000 0.0000
# 2 16.6138 67.5020 35.6094 0.0000 0.0000 0.0000
# 3 60.4564 35.6094 96.4562 0.0000 0.0000 0.0000
# 4 0.0000 0.0000 0.0000 27.5914 0.0000 0.0000
# 5 0.0000 0.0000 0.0000 0.0000 40.8547 0.0000
# 6 0.0000 0.0000 0.0000 0.0000 0.0000 19.7225
#
#
#
# Elastic Compliance Matrix: (Units=1/GPa)
#
#
# Indices 1 2 3 4 5 6 
#
# 1 0.017538 0.001841 -0.011672 0.000000 0.000000 0.000000
# 2 0.001841 0.018590 -0.008017 0.000000 0.000000 0.000000
# 3 -0.011672 -0.008017 0.020643 0.000000 0.000000 0.000000
# 4 0.000000 0.000000 0.000000 0.036243 0.000000 0.000000
# 5 0.000000 0.000000 0.000000 0.000000 0.024477 0.000000
# 6 0.000000 0.000000 0.000000 0.000000 0.000000 0.050704
#
#
# Mechanical properties :
#
#
# Convention : Reuss Voigt Hill
#
# Bulk Modulus (GPa) = 47.44944 53.86972 50.65958
# Shear Modulus (GPa) = 23.70607 27.41965 25.56286
#
# Velocity S-wave (km/s) = 3.59456 3.86587 3.73268
# Velocity P-wave (km/s) = 6.56429 7.02054 6.79624
#
# Compressibility (1/GPa) = 0.02107506
#
# Stress axis : x y z
#
# Youngs Moduli (GPa) = 57.01864 53.79096 48.44300
#
# Poissons Ratio (x) = -0.09902 0.56543
# Poissons Ratio (y) = -0.10496 0.38836
# Poissons Ratio (z) = 0.66552 0.43124
#
# Static dielectric constant tensor:
#      x y z
#    x 3.535160 0.000000 0.000000 
#    y 0.000000 3.245320 0.000000 
#    z 0.000000 0.000000 3.461450 
# 
# 
# High freq. dielectric constant tensor:
#      x y z
#    x 1.696670 0.000000 0.000000 
#    y 0.000000 1.702540 0.000000 
#    z 0.000000 0.000000 1.710040 
# 
# From -- ./inp_files/14210.got.cif
#   From: 2010.03.12/outbox.cif.g09.slc.cpg/sg55_8_cif.got.tgz:14210.got - 2010.04.16 15:19:21.
