data_PCOD8225283
_publ_section_title
;
Structure prediction by ZEFSAII (Michael W. Deem and Ramdas Pophale) SiO2 
 PCOD8225283
Probable space group: P B A M
;
_chemical_formula_sum "Si O2"
_cell_formula_units_Z 64
_cell_length_a 22.132603
_cell_length_b 17.188368
_cell_length_c 8.602410
_cell_angle_alpha 90.000000
_cell_angle_beta 90.000000
_cell_angle_gamma 90.000000
_cell_volume 3272.557417
_symmetry_space_group_name_H-M "P B A M"
_symmetry_group_IT_number 55
_symmetry_cell_setting 'orthorhombic'
loop_
_space_group_symop_operation_xyz
x,y,z
-x,-y,z
1/2+x,1/2-y,-z
1/2-x,1/2+y,-z
-x,-y,-z
x,y,-z
1/2-x,1/2+y,z
1/2+x,1/2-y,z
loop_
_atom_site_type_symbol
_atom_site_label
_atom_site_fract_x
_atom_site_fract_y
_atom_site_fract_z
Si Si1 0.106410 0.727110 0.320005
Si Si2 0.562032 0.084935 0.317107
Si Si3 0.567847 0.924825 0.180810
Si Si4 0.529997 0.643946 0.818265
Si Si5 0.099903 0.125276 0.317125
Si Si6 0.637674 0.530379 0.181474
Si Si7 0.155879 0.286105 0.315946
Si Si8 0.214837 0.840052 0.682545
O O1 0.100571 0.706619 0.500000
O O2 0.110509 0.647194 0.224457
O O3 0.047895 0.777399 0.271678
O O4 0.167033 0.772962 0.278909
O O5 0.549315 0.090947 0.500000
O O6 0.500316 0.097845 0.224920
O O7 0.607697 0.150716 0.257935
O O8 0.589591 0.000501 0.276317
O O9 0.572453 0.943784 0.000000
O O10 0.463620 0.617523 0.770330
O O11 0.576286 0.575459 0.772624
O O12 0.533093 0.661666 0.000000
O O13 0.087912 0.130377 0.500000
O O14 0.135902 0.201144 0.255942
O O15 0.139826 0.050183 0.275754
O O16 0.695878 0.580930 0.230250
O O17 0.640420 0.511903 0.000000
O O18 0.159949 0.285506 0.500000
O O19 0.221359 0.310244 0.249753
O O20 0.217364 0.858169 0.500000
#
# Coordination Sequence:
#
# PCOD8225283 Si02
#       8
#     8   8   8   8   8   8   8   8
#     4  10  19  33  56  82 107 141 186 228 269 324
#     4  10  19  35  58  81 109 142 181 228 279 328
#     4  11  21  34  53  81 116 145 179 223 275 332
#     4  10  20  34  54  81 116 150 179 222 280 330
#     4  11  21  34  56  85 114 144 183 227 272 329
#     4  10  21  37  55  80 114 148 182 223 273 326
#     4   9  20  38  58  81 107 139 182 232 277 319
#     4   9  19  39  61  78 102 140 186 229 271 320
#
# _framework density 19.556571000000002
#
# number of rings (size 3 to 8) (size 9 to 14) (size 15 to 20)
#    0.000    2.000    0.000    4.875    0.000    4.500 
#    2.250    4.375    0.000    0.000    0.000    0.000 
#    0.000    0.000    0.000    0.000    0.000    0.000 
#
# Total GULP energy -793851.188269 kJ/mol
# GULP energy per Si atom -12403.924817 kJ/mol
# Density = 1.951206 g / cm^3
# Si number density = 19.556571 Si / 1000 Ang^3
#
#
#
# Elastic Constant Matrix: (Units=GPa)
#
#
# Indices 1 2 3 4 5 6 
#
# 1 91.6104 56.5072 19.6572 0.0000 0.0000 0.0000
# 2 56.5072 146.2526 22.1262 0.0000 0.0000 0.0000
# 3 19.6572 22.1262 46.0380 0.0000 0.0000 0.0000
# 4 0.0000 0.0000 0.0000 25.5749 0.0000 0.0000
# 5 0.0000 0.0000 0.0000 0.0000 15.0396 0.0000
# 6 0.0000 0.0000 0.0000 0.0000 0.0000 16.3712
#
#
#
# Elastic Compliance Matrix: (Units=1/GPa)
#
#
# Indices 1 2 3 4 5 6 
#
# 1 0.014950 -0.005188 -0.003890 0.000000 0.000000 0.000000
# 2 -0.005188 0.009174 -0.002194 0.000000 0.000000 0.000000
# 3 -0.003890 -0.002194 0.024437 0.000000 0.000000 0.000000
# 4 0.000000 0.000000 0.000000 0.039101 0.000000 0.000000
# 5 0.000000 0.000000 0.000000 0.000000 0.066491 0.000000
# 6 0.000000 0.000000 0.000000 0.000000 0.000000 0.061083
#
#
# Mechanical properties :
#
#
# Convention : Reuss Voigt Hill
#
# Bulk Modulus (GPa) = 38.43641 53.38692 45.91166
# Shear Modulus (GPa) = 20.28793 23.77117 22.02955
#
# Velocity S-wave (km/s) = 3.22436 3.49020 3.35991
# Velocity P-wave (km/s) = 5.79298 6.60302 6.21122
#
# Compressibility (1/GPa) = 0.02601700
#
# Stress axis : x y z
#
# Youngs Moduli (GPa) = 66.88742 109.00604 40.92216
#
# Poissons Ratio (x) = 0.56551 0.15920
# Poissons Ratio (y) = 0.34700 0.08978
# Poissons Ratio (z) = 0.26021 0.23915
#
# Static dielectric constant tensor:
#      x y z
#    x 3.501760 0.000000 0.000000 
#    y 0.000000 3.766400 0.000000 
#    z 0.000000 0.000000 3.456730 
# 
# 
# High freq. dielectric constant tensor:
#      x y z
#    x 1.743840 0.000000 0.000000 
#    y 0.000000 1.774340 0.000000 
#    z 0.000000 0.000000 1.756220 
# 
# From -- ./inp_files/9066.got.cif
#   From: 2010.03.12/outbox.cif.g09.slc.cpg/sg55_5_cif.got.tgz:9066.got - 2010.04.16 15:19:21.
