data_PCOD8225963
_publ_section_title
;
Structure prediction by ZEFSAII (Michael W. Deem and Ramdas Pophale) SiO2 
 PCOD8225963
Probable space group: P B A M
;
_chemical_formula_sum "Si O2"
_cell_formula_units_Z 48
_cell_length_a 16.474095
_cell_length_b 17.835302
_cell_length_c 9.276462
_cell_angle_alpha 90.000000
_cell_angle_beta 90.000000
_cell_angle_gamma 90.000000
_cell_volume 2725.614327
_symmetry_space_group_name_H-M "P B A M"
_symmetry_group_IT_number 55
_symmetry_cell_setting 'orthorhombic'
loop_
_space_group_symop_operation_xyz
x,y,z
-x,-y,z
1/2+x,1/2-y,-z
1/2-x,1/2+y,-z
-x,-y,-z
x,y,-z
1/2-x,1/2+y,z
1/2+x,1/2-y,z
loop_
_atom_site_type_symbol
_atom_site_label
_atom_site_fract_x
_atom_site_fract_y
_atom_site_fract_z
Si Si1 0.332675 0.825085 0.167466
Si Si2 0.832925 0.095398 0.835210
Si Si3 0.253260 0.057818 0.169431
Si Si4 0.912762 0.522540 0.828909
Si Si5 0.010970 0.915539 0.669094
Si Si6 0.149631 0.173290 0.670405
O O1 0.238406 0.844947 0.189982
O O2 0.387866 0.894354 0.222161
O O3 0.355857 0.756321 0.267874
O O4 0.349763 0.806281 0.000000
O O5 0.909439 0.120574 0.740616
O O6 0.803334 0.012596 0.790514
O O7 0.860665 0.095423 0.000000
O O8 0.225223 0.129945 0.258717
O O9 0.345226 0.038310 0.218212
O O10 0.248893 0.075989 0.000000
O O11 0.000000 0.500000 0.762142
O O12 0.915867 0.523589 0.000000
O O13 0.025235 0.914730 0.500000
O O14 0.933288 0.867640 0.714762
O O15 0.000000 0.000000 0.726917
O O16 0.162553 0.175548 0.500000
#
# Coordination Sequence:
#
# PCOD8225963 Si02
#       6
#     8   8   8   8   8   8
#     4   9  19  36  55  77 106 136 171 217 265 310
#     4   9  18  33  54  78 100 132 175 215 259 308
#     4   9  17  31  54  79 103 131 169 216 258 307
#     4   8  15  32  58  82 102 130 171 217 264 310
#     4  10  20  34  52  76 107 141 175 213 256 308
#     4  11  22  35  51  75 108 144 176 209 261 315
#
# _framework density 17.610707999999999
#
# number of rings (size 3 to 8) (size 9 to 14) (size 15 to 20)
#    0.000    2.667    1.667    2.500    0.000    2.333 
#    3.000    2.500    0.000    1.000    0.000    0.000 
#    0.000    0.000    0.000    0.000    0.000    0.000 
#
# Total GULP energy -595187.092480 kJ/mol
# GULP energy per Si atom -12399.731093 kJ/mol
# Density = 1.757063 g / cm^3
# Si number density = 17.610708 Si / 1000 Ang^3
#
#
#
# Elastic Constant Matrix: (Units=GPa)
#
#
# Indices 1 2 3 4 5 6 
#
# 1 139.4606 62.0684 46.4885 0.0000 0.0000 0.0000
# 2 62.0684 109.8753 40.3941 0.0000 0.0000 0.0000
# 3 46.4885 40.3941 46.7785 0.0000 0.0000 0.0000
# 4 0.0000 0.0000 0.0000 24.9798 0.0000 0.0000
# 5 0.0000 0.0000 0.0000 0.0000 20.7211 0.0000
# 6 0.0000 0.0000 0.0000 0.0000 0.0000 22.8262
#
#
#
# Elastic Compliance Matrix: (Units=1/GPa)
#
#
# Indices 1 2 3 4 5 6 
#
# 1 0.011514 -0.003366 -0.008536 0.000000 0.000000 0.000000
# 2 -0.003366 0.014318 -0.009019 0.000000 0.000000 0.000000
# 3 -0.008536 -0.009019 0.037648 0.000000 0.000000 0.000000
# 4 0.000000 0.000000 0.000000 0.040032 0.000000 0.000000
# 5 0.000000 0.000000 0.000000 0.000000 0.048260 0.000000
# 6 0.000000 0.000000 0.000000 0.000000 0.000000 0.043809
#
#
# Mechanical properties :
#
#
# Convention : Reuss Voigt Hill
#
# Bulk Modulus (GPa) = 46.21329 66.00183 56.10756
# Shear Modulus (GPa) = 20.43841 23.51631 21.97736
#
# Velocity S-wave (km/s) = 3.41041 3.65820 3.53647
# Velocity P-wave (km/s) = 6.46578 7.44331 6.97170
#
# Compressibility (1/GPa) = 0.02163880
#
# Stress axis : x y z
#
# Youngs Moduli (GPa) = 86.85061 69.83993 26.56160
#
# Poissons Ratio (x) = 0.23509 0.22673
# Poissons Ratio (y) = 0.29235 0.23956
# Poissons Ratio (z) = 0.74135 0.62988
#
# Static dielectric constant tensor:
#      x y z
#    x 3.481030 0.000000 0.000000 
#    y 0.000000 3.159280 0.000000 
#    z 0.000000 0.000000 2.994790 
# 
# 
# High freq. dielectric constant tensor:
#      x y z
#    x 1.686250 0.000000 0.000000 
#    y 0.000000 1.671330 0.000000 
#    z 0.000000 0.000000 1.659690 
# 
# From -- ./inp_files/7554.got.cif
#   From: 2010.03.12/outbox.cif.g09.slc.cpg/sg55_4_cif.got.tgz:7554.got - 2010.04.16 15:19:21.
