data_PCOD8225380
_publ_section_title
;
Structure prediction by ZEFSAII (Michael W. Deem and Ramdas Pophale) SiO2 
 PCOD8225380
Probable space group: P B A M
;
_chemical_formula_sum "Si O2"
_cell_formula_units_Z 56
_cell_length_a 8.649462
_cell_length_b 15.252212
_cell_length_c 21.274789
_cell_angle_alpha 90.000000
_cell_angle_beta 90.000000
_cell_angle_gamma 90.000000
_cell_volume 2806.643097
_symmetry_space_group_name_H-M "P B A M"
_symmetry_group_IT_number 55
_symmetry_cell_setting 'orthorhombic'
loop_
_space_group_symop_operation_xyz
x,y,z
-x,-y,z
1/2+x,1/2-y,-z
1/2-x,1/2+y,-z
-x,-y,-z
x,y,-z
1/2-x,1/2+y,z
1/2+x,1/2-y,z
loop_
_atom_site_type_symbol
_atom_site_label
_atom_site_fract_x
_atom_site_fract_y
_atom_site_fract_z
Si Si1 0.240017 0.860138 0.133183
Si Si2 0.679674 0.479369 0.212342
Si Si3 0.819949 0.980324 0.644207
Si Si4 0.284516 0.425451 0.000000
Si Si5 0.355974 0.617326 0.000000
Si Si6 0.681273 0.822110 0.573069
Si Si7 0.119544 0.181729 0.866598
Si Si8 0.672913 0.140383 0.573034
O O1 0.273917 0.942989 0.178035
O O2 0.290642 0.883795 0.062172
O O3 0.342853 0.779284 0.157511
O O4 0.061913 0.833154 0.136759
O O5 0.500000 0.500000 0.207755
O O6 0.734929 0.473016 0.283931
O O7 0.710416 0.387578 0.177176
O O8 0.720643 0.056266 0.612400
O O9 0.789168 0.888014 0.611199
O O10 0.000000 0.000000 0.637779
O O11 0.252829 0.529501 0.000000
O O12 0.466464 0.409712 0.000000
O O13 0.316371 0.672957 0.062132
O O14 0.718704 0.836515 0.500000
O O15 0.503466 0.837864 0.589098
O O16 0.722491 0.722984 0.592860
O O17 0.694347 0.117297 0.500000
#
# Coordination Sequence:
#
# PCOD8225380 Si02
#       8
#     8   8   8   4   4   8   8   8
#     4  10  19  34  55  78 104 136 178 222 268 319
#     4   9  20  37  54  74 105 146 185 218 256 319
#     4  11  22  36  56  82 113 150 189 226 272 326
#     4   9  15  28  55  80  99 134 177 217 264 322
#     4   9  15  28  55  80  99 134 177 217 264 322
#     4  10  21  38  60  86 114 144 181 227 277 327
#     4  10  19  34  55  78 104 136 178 222 268 319
#     4  10  21  38  60  86 114 144 181 227 277 327
#
# _framework density 19.952662
#
# number of rings (size 3 to 8) (size 9 to 14) (size 15 to 20)
#    0.000    2.143    1.429    2.143    0.000    4.571 
#    0.000    6.429    0.000    0.857    0.000    0.000 
#    0.000    0.000    0.000    0.000    0.000    0.000 
#
# Total GULP energy -694526.854110 kJ/mol
# GULP energy per Si atom -12402.265252 kJ/mol
# Density = 1.990725 g / cm^3
# Si number density = 19.952662 Si / 1000 Ang^3
#
#
#
# Elastic Constant Matrix: (Units=GPa)
#
#
# Indices 1 2 3 4 5 6 
#
# 1 29.2971 -5.4766 16.8470 0.0000 0.0000 0.0000
# 2 -5.4766 53.0765 21.5931 0.0000 0.0000 0.0000
# 3 16.8470 21.5931 96.4638 0.0000 0.0000 0.0000
# 4 0.0000 0.0000 0.0000 -10.2972 0.0000 0.0000
# 5 0.0000 0.0000 0.0000 0.0000 16.7538 0.0000
# 6 0.0000 0.0000 0.0000 0.0000 0.0000 36.8071
#
#
#
# Elastic Compliance Matrix: (Units=1/GPa)
#
#
# Indices 1 2 3 4 5 6 
#
# 1 0.040680 0.007798 -0.008850 0.000000 0.000000 0.000000
# 2 0.007798 0.022223 -0.006336 0.000000 0.000000 0.000000
# 3 -0.008850 -0.006336 0.013331 0.000000 0.000000 0.000000
# 4 0.000000 0.000000 0.000000 -0.097113 0.000000 0.000000
# 5 0.000000 0.000000 0.000000 0.000000 0.059688 0.000000
# 6 0.000000 0.000000 0.000000 0.000000 0.000000 0.027169
#
#
# Mechanical properties :
#
#
# Convention : Reuss Voigt Hill
#
# Bulk Modulus (GPa) = 16.27163 27.19604 21.73383
# Shear Modulus (GPa) = 49.38761 18.37766 33.88263
#
# Velocity S-wave (km/s) = 4.98057 3.03819 4.12533
# Velocity P-wave (km/s) = 6.42243 5.09582 5.79720
#
# Compressibility (1/GPa) = 0.06145667
#
# Stress axis : x y z
#
# Youngs Moduli (GPa) = 24.58205 44.99798 75.01512
#
# Poissons Ratio (x) = -0.35090 0.66390
# Poissons Ratio (y) = -0.19169 0.47533
# Poissons Ratio (z) = 0.21756 0.28513
#
# Static dielectric constant tensor:
#      x y z
#    x 3.292610 0.000000 0.000000 
#    y 0.000000 3.783880 0.000000 
#    z 0.000000 0.000000 3.756540 
# 
# 
# High freq. dielectric constant tensor:
#      x y z
#    x 1.750720 0.000000 0.000000 
#    y 0.000000 1.793140 0.000000 
#    z 0.000000 0.000000 1.775250 
# 
# From -- ./inp_files/22645.got.cif
#   From: 2010.03.12/outbox.cif.g09.slc.cpg/sg55_12_cif.got.tgz:22645.got - 2010.04.16 15:19:21.
