data_PCOD8225229
_publ_section_title
;
Structure prediction by ZEFSAII (Michael W. Deem and Ramdas Pophale) SiO2 
 PCOD8225229
Probable space group: P B A M
;
_chemical_formula_sum "Si O2"
_cell_formula_units_Z 64
_cell_length_a 23.471187
_cell_length_b 11.319913
_cell_length_c 12.846360
_cell_angle_alpha 90.000000
_cell_angle_beta 90.000000
_cell_angle_gamma 90.000000
_cell_volume 3413.172446
_symmetry_space_group_name_H-M "P B A M"
_symmetry_group_IT_number 55
_symmetry_cell_setting 'orthorhombic'
loop_
_space_group_symop_operation_xyz
x,y,z
-x,-y,z
1/2+x,1/2-y,-z
1/2-x,1/2+y,-z
-x,-y,-z
x,y,-z
1/2-x,1/2+y,z
1/2+x,1/2-y,z
loop_
_atom_site_type_symbol
_atom_site_label
_atom_site_fract_x
_atom_site_fract_y
_atom_site_fract_z
Si Si1 0.345426 0.945296 0.119013
Si Si2 0.845369 0.039323 0.619708
Si Si3 0.238814 0.567005 0.731272
Si Si4 0.364110 0.184648 0.618407
Si Si5 0.482897 0.324219 0.120839
Si Si6 0.051828 0.583796 0.781790
Si Si7 0.316807 0.685424 0.884381
Si Si8 0.086853 0.033652 0.806612
O O1 0.352503 0.805095 0.134090
O O2 0.290944 0.981561 0.186105
O O3 0.403282 0.007762 0.153300
O O4 0.333010 0.979552 0.000000
O O5 0.850690 0.998936 0.500000
O O6 0.855374 0.177334 0.633570
O O7 0.783112 0.007227 0.662738
O O8 0.894089 0.972540 0.685715
O O9 0.193294 0.621093 0.653361
O O10 0.268121 0.672518 0.797020
O O11 0.376040 0.150644 0.500000
O O12 0.419173 0.139894 0.680583
O O13 0.471335 0.188112 0.145066
O O14 0.535125 0.374025 0.188676
O O15 0.428259 0.404225 0.148873
O O16 0.498504 0.338126 0.000000
O O17 0.000000 0.500000 0.746708
O O18 0.360508 0.576891 0.876186
O O19 0.289335 0.685022 0.000000
#
# Coordination Sequence:
#
# PCOD8225229 Si02
#       8
#     8   8   8   8   8   8   8   8
#     4  10  21  36  54  83 118 153 189 228 279 337
#     4  10  20  37  59  83 112 147 188 234 285 331
#     4  10  20  34  58  84 113 146 189 232 278 336
#     4  10  21  39  58  79 110 146 186 236 287 332
#     4  11  21  36  57  83 114 148 186 225 277 335
#     4  11  23  38  58  83 112 149 191 236 281 337
#     4  10  19  33  54  81 116 153 185 225 279 332
#     4  10  20  35  55  82 112 146 190 229 272 328
#
# _framework density 18.750883000000002
#
# number of rings (size 3 to 8) (size 9 to 14) (size 15 to 20)
#    0.000    1.750    1.250    4.125    0.000    2.250 
#    0.000    1.875    0.000   14.250    0.000    0.000 
#    0.000    0.000    0.000    0.000    0.000    0.000 
#
# Total GULP energy -793721.723770 kJ/mol
# GULP energy per Si atom -12401.901934 kJ/mol
# Density = 1.870820 g / cm^3
# Si number density = 18.750883 Si / 1000 Ang^3
#
#
#
# Elastic Constant Matrix: (Units=GPa)
#
#
# Indices 1 2 3 4 5 6 
#
# 1 101.4275 44.2912 63.8017 0.0000 0.0000 0.0000
# 2 44.2912 90.4776 56.3364 0.0000 0.0000 0.0000
# 3 63.8017 56.3364 149.8343 0.0000 0.0000 0.0000
# 4 0.0000 0.0000 0.0000 28.5197 0.0000 0.0000
# 5 0.0000 0.0000 0.0000 0.0000 19.3839 0.0000
# 6 0.0000 0.0000 0.0000 0.0000 0.0000 31.0805
#
#
#
# Elastic Compliance Matrix: (Units=1/GPa)
#
#
# Indices 1 2 3 4 5 6 
#
# 1 0.014639 -0.004289 -0.004621 0.000000 0.000000 0.000000
# 2 -0.004289 0.015687 -0.004072 0.000000 0.000000 0.000000
# 3 -0.004621 -0.004072 0.010173 0.000000 0.000000 0.000000
# 4 0.000000 0.000000 0.000000 0.035063 0.000000 0.000000
# 5 0.000000 0.000000 0.000000 0.000000 0.051589 0.000000
# 6 0.000000 0.000000 0.000000 0.000000 0.000000 0.032175
#
#
# Mechanical properties :
#
#
# Convention : Reuss Voigt Hill
#
# Bulk Modulus (GPa) = 68.79758 74.51089 71.65424
# Shear Modulus (GPa) = 26.29709 27.61749 26.95729
#
# Velocity S-wave (km/s) = 3.74899 3.84195 3.79575
# Velocity P-wave (km/s) = 7.45049 7.71391 7.58334
#
# Compressibility (1/GPa) = 0.01453539
#
# Stress axis : x y z
#
# Youngs Moduli (GPa) = 68.31150 63.74510 98.30201
#
# Poissons Ratio (x) = 0.27340 0.45424
# Poissons Ratio (y) = 0.29298 0.40029
# Poissons Ratio (z) = 0.31566 0.25957
#
# Static dielectric constant tensor:
#      x y z
#    x 3.455920 0.000000 0.000000 
#    y 0.000000 3.471820 0.000000 
#    z 0.000000 0.000000 3.487690 
# 
# 
# High freq. dielectric constant tensor:
#      x y z
#    x 1.730840 0.000000 0.000000 
#    y 0.000000 1.734020 0.000000 
#    z 0.000000 0.000000 1.729590 
# 
# From -- ./inp_files/13596.got.cif
#   From: 2010.03.12/outbox.cif.g09.slc.cpg/sg55_7_cif.got.tgz:13596.got - 2010.04.16 15:19:21.
