data_PCOD8225370
_publ_section_title
;
Structure prediction by ZEFSAII (Michael W. Deem and Ramdas Pophale) SiO2 
 PCOD8225370
Probable space group: P B A M
;
_chemical_formula_sum "Si O2"
_cell_formula_units_Z 48
_cell_length_a 15.238017
_cell_length_b 18.749761
_cell_length_c 8.800085
_cell_angle_alpha 90.000000
_cell_angle_beta 90.000000
_cell_angle_gamma 90.000000
_cell_volume 2514.265042
_symmetry_space_group_name_H-M "P B A M"
_symmetry_group_IT_number 55
_symmetry_cell_setting 'orthorhombic'
loop_
_space_group_symop_operation_xyz
x,y,z
-x,-y,z
1/2+x,1/2-y,-z
1/2-x,1/2+y,-z
-x,-y,-z
x,y,-z
1/2-x,1/2+y,z
1/2+x,1/2-y,z
loop_
_atom_site_type_symbol
_atom_site_label
_atom_site_fract_x
_atom_site_fract_y
_atom_site_fract_z
Si Si1 0.093956 0.814418 0.678731
Si Si2 0.895228 0.816070 0.678910
Si Si3 0.097734 0.344519 0.679681
Si Si4 0.097825 0.654116 0.319339
Si Si5 0.241309 0.078199 0.178751
Si Si6 0.765673 0.072954 0.318744
O O1 0.104921 0.810854 0.500000
O O2 0.115822 0.734878 0.738981
O O3 0.161710 0.871888 0.745900
O O4 0.995041 0.837802 0.719368
O O5 0.875677 0.825387 0.500000
O O6 0.878885 0.735207 0.734757
O O7 0.831054 0.864823 0.774572
O O8 0.098036 0.341443 0.500000
O O9 0.170319 0.400091 0.739031
O O10 0.000605 0.368124 0.732661
O O11 0.109411 0.647988 0.500000
O O12 0.163503 0.599995 0.239792
O O13 0.213190 0.003071 0.248740
O O14 0.245351 0.071289 0.000000
O O15 0.769533 0.067534 0.500000
#
# Coordination Sequence:
#
# PCOD8225370 Si02
#       6
#     8   8   8   8   8   8
#     4   8  16  32  60  88 103 122 167 220 266 311
#     4   9  17  35  60  83 103 129 167 218 267 310
#     4   8  16  32  60  88 103 122 167 220 266 311
#     4   9  17  35  60  83 103 129 167 218 267 310
#     4  12  25  36  46  72 110 148 181 210 248 302
#     4  10  19  34  54  78 106 138 171 210 258 312
#
# _framework density 19.091066999999999
#
# number of rings (size 3 to 8) (size 9 to 14) (size 15 to 20)
#    0.000    2.667    0.000    4.500    0.000    4.000 
#    0.000   15.000    0.000    0.000    0.000    0.000 
#    0.000    0.000    0.000    0.000    0.000    0.000 
#
# Total GULP energy -595072.227732 kJ/mol
# GULP energy per Si atom -12397.338078 kJ/mol
# Density = 1.904761 g / cm^3
# Si number density = 19.091067 Si / 1000 Ang^3
#
#
#
# Elastic Constant Matrix: (Units=GPa)
#
#
# Indices 1 2 3 4 5 6 
#
# 1 74.7270 14.6456 18.3925 0.0000 0.0000 0.0000
# 2 14.6456 52.7469 14.2559 0.0000 0.0000 0.0000
# 3 18.3925 14.2559 42.0216 0.0000 0.0000 0.0000
# 4 0.0000 0.0000 0.0000 -4.0045 0.0000 0.0000
# 5 0.0000 0.0000 0.0000 0.0000 6.6858 0.0000
# 6 0.0000 0.0000 0.0000 0.0000 0.0000 16.8164
#
#
#
# Elastic Compliance Matrix: (Units=1/GPa)
#
#
# Indices 1 2 3 4 5 6 
#
# 1 0.015337 -0.002691 -0.005800 0.000000 0.000000 0.000000
# 2 -0.002691 0.021344 -0.006063 0.000000 0.000000 0.000000
# 3 -0.005800 -0.006063 0.028393 0.000000 0.000000 0.000000
# 4 0.000000 0.000000 0.000000 -0.249716 0.000000 0.000000
# 5 0.000000 0.000000 0.000000 0.000000 0.149571 0.000000
# 6 0.000000 0.000000 0.000000 0.000000 0.000000 0.059466
#
#
# Mechanical properties :
#
#
# Convention : Reuss Voigt Hill
#
# Bulk Modulus (GPa) = 27.80420 29.34263 28.57341
# Shear Modulus (GPa) = 76.34551 12.04629 44.19590
#
# Velocity S-wave (km/s) = 6.33064 2.51468 4.81667
# Velocity P-wave (km/s) = 8.24813 4.88208 6.77740
#
# Compressibility (1/GPa) = 0.03596579
#
# Stress axis : x y z
#
# Youngs Moduli (GPa) = 65.20190 46.85084 35.22011
#
# Poissons Ratio (x) = 0.12607 0.20428
# Poissons Ratio (y) = 0.17545 0.21355
# Poissons Ratio (z) = 0.37817 0.28407
#
# Static dielectric constant tensor:
#      x y z
#    x 3.991120 0.000000 0.000000 
#    y 0.000000 3.658280 0.000000 
#    z 0.000000 0.000000 2.979440 
# 
# 
# High freq. dielectric constant tensor:
#      x y z
#    x 1.758980 0.000000 0.000000 
#    y 0.000000 1.743040 0.000000 
#    z 0.000000 0.000000 1.690430 
# 
# From -- ./inp_files/5616.got.cif
#   From: 2010.03.12/outbox.cif.g09.slc.cpg/sg55_3_cif.got.tgz:5616.got - 2010.04.16 15:19:21.
