data_PCOD8225089
_publ_section_title
;
Structure prediction by ZEFSAII (Michael W. Deem and Ramdas Pophale) SiO2 
 PCOD8225089
Probable space group: P B A M
;
_chemical_formula_sum "Si O2"
_cell_formula_units_Z 64
_cell_length_a 24.678458
_cell_length_b 14.491926
_cell_length_c 9.198825
_cell_angle_alpha 90.000000
_cell_angle_beta 90.000000
_cell_angle_gamma 90.000000
_cell_volume 3289.852936
_symmetry_space_group_name_H-M "P B A M"
_symmetry_group_IT_number 55
_symmetry_cell_setting 'orthorhombic'
loop_
_space_group_symop_operation_xyz
x,y,z
-x,-y,z
1/2+x,1/2-y,-z
1/2-x,1/2+y,-z
-x,-y,-z
x,y,-z
1/2-x,1/2+y,z
1/2+x,1/2-y,z
loop_
_atom_site_type_symbol
_atom_site_label
_atom_site_fract_x
_atom_site_fract_y
_atom_site_fract_z
Si Si1 0.447773 0.938454 0.838208
Si Si2 0.195319 0.282823 0.173038
Si Si3 0.437891 0.484192 0.330417
Si Si4 0.402032 0.651309 0.172101
Si Si5 0.480477 0.770679 0.666692
Si Si6 0.329273 0.985282 0.166851
Si Si7 0.195781 0.684928 0.826678
Si Si8 0.598297 0.722000 0.334425
O O1 0.449395 0.862430 0.713919
O O2 0.393856 0.998040 0.813780
O O3 0.500000 0.000000 0.823380
O O4 0.445391 0.892346 0.000000
O O5 0.145916 0.218802 0.227450
O O6 0.190230 0.387614 0.237712
O O7 0.250658 0.236877 0.229510
O O8 0.193559 0.287132 0.000000
O O9 0.500000 0.500000 0.280290
O O10 0.432297 0.506833 0.500000
O O11 0.396500 0.549599 0.240810
O O12 0.418272 0.381650 0.293980
O O13 0.459240 0.688168 0.232743
O O14 0.402827 0.643310 0.000000
O O15 0.466895 0.746842 0.500000
O O16 0.544671 0.784126 0.688565
O O17 0.303248 0.078835 0.234547
O O18 0.311927 0.981198 0.000000
O O19 0.144478 0.741370 0.770778
O O20 0.192355 0.683249 0.000000
O O21 0.618989 0.728904 0.500000
#
# Coordination Sequence:
#
# PCOD8225089 Si02
#       8
#     8   8   8   8   8   8   8   8
#     4  10  19  32  53  81 113 150 188 233 288 343
#     4   9  19  36  58  84 115 149 187 239 293 336
#     4  10  20  38  58  79 116 162 193 224 292 361
#     4  11  21  35  58  87 114 145 194 247 286 330
#     4  11  21  35  55  80 113 153 190 230 287 349
#     4   9  17  33  55  81 115 148 180 228 288 336
#     4  10  21  37  61  86 109 149 197 235 282 345
#     4  10  22  39  57  79 116 155 185 232 292 343
#
# _framework density 19.453757
#
# number of rings (size 3 to 8) (size 9 to 14) (size 15 to 20)
#    0.000    2.000    2.500    1.500    0.000    4.000 
#    0.000    4.375    0.000    0.000    0.000    0.000 
#    0.000    0.000    0.000    0.000    0.000    0.000 
#
# Total GULP energy -793350.768273 kJ/mol
# GULP energy per Si atom -12396.105754 kJ/mol
# Density = 1.940948 g / cm^3
# Si number density = 19.453757 Si / 1000 Ang^3
#
#
#
# Elastic Constant Matrix: (Units=GPa)
#
#
# Indices 1 2 3 4 5 6 
#
# 1 91.4307 62.4996 26.3076 0.0000 0.0000 0.0000
# 2 62.4996 136.4053 33.0641 0.0000 0.0000 0.0000
# 3 26.3076 33.0641 44.0547 0.0000 0.0000 0.0000
# 4 0.0000 0.0000 0.0000 22.9913 0.0000 0.0000
# 5 0.0000 0.0000 0.0000 0.0000 10.7666 0.0000
# 6 0.0000 0.0000 0.0000 0.0000 0.0000 33.0660
#
#
#
# Elastic Compliance Matrix: (Units=1/GPa)
#
#
# Indices 1 2 3 4 5 6 
#
# 1 0.016852 -0.006457 -0.005217 0.000000 0.000000 0.000000
# 2 -0.006457 0.011435 -0.004727 0.000000 0.000000 0.000000
# 3 -0.005217 -0.004727 0.029362 0.000000 0.000000 0.000000
# 4 0.000000 0.000000 0.000000 0.043495 0.000000 0.000000
# 5 0.000000 0.000000 0.000000 0.000000 0.092880 0.000000
# 6 0.000000 0.000000 0.000000 0.000000 0.000000 0.030243
#
#
# Mechanical properties :
#
#
# Convention : Reuss Voigt Hill
#
# Bulk Modulus (GPa) = 40.24511 57.29259 48.76885
# Shear Modulus (GPa) = 18.84297 23.36608 21.10453
#
# Velocity S-wave (km/s) = 3.11562 3.46946 3.29729
# Velocity P-wave (km/s) = 5.80304 6.75012 6.29442
#
# Compressibility (1/GPa) = 0.02484774
#
# Stress axis : x y z
#
# Youngs Moduli (GPa) = 59.33947 87.44865 34.05744
#
# Poissons Ratio (x) = 0.56464 0.17769
# Poissons Ratio (y) = 0.38314 0.16098
# Poissons Ratio (z) = 0.30960 0.41334
#
# Static dielectric constant tensor:
#      x y z
#    x 3.562240 0.000000 0.000000 
#    y 0.000000 3.945470 0.000000 
#    z 0.000000 0.000000 3.247100 
# 
# 
# High freq. dielectric constant tensor:
#      x y z
#    x 1.751080 0.000000 0.000000 
#    y 0.000000 1.771600 0.000000 
#    z 0.000000 0.000000 1.722820 
# 
# From -- ./inp_files/9721.got.cif
#   From: 2010.03.12/outbox.cif.g09.slc.cpg/sg55_5_cif.got.tgz:9721.got - 2010.04.16 15:19:21.
