data_PCOD8225850
_publ_section_title
;
Structure prediction by ZEFSAII (Michael W. Deem and Ramdas Pophale) SiO2 
 PCOD8225850
Probable space group: P B A M
;
_chemical_formula_sum "Si O2"
_cell_formula_units_Z 48
_cell_length_a 18.265580
_cell_length_b 16.292022
_cell_length_c 9.106722
_cell_angle_alpha 90.000000
_cell_angle_beta 90.000000
_cell_angle_gamma 90.000000
_cell_volume 2710.007758
_symmetry_space_group_name_H-M "P B A M"
_symmetry_group_IT_number 55
_symmetry_cell_setting 'orthorhombic'
loop_
_space_group_symop_operation_xyz
x,y,z
-x,-y,z
1/2+x,1/2-y,-z
1/2-x,1/2+y,-z
-x,-y,-z
x,y,-z
1/2-x,1/2+y,z
1/2+x,1/2-y,z
loop_
_atom_site_type_symbol
_atom_site_label
_atom_site_fract_x
_atom_site_fract_y
_atom_site_fract_z
Si Si1 0.544113 0.083923 0.165062
Si Si2 0.582153 0.836409 0.328099
Si Si3 0.667864 0.999779 0.328039
Si Si4 0.457624 0.575593 0.826847
Si Si5 0.911814 0.176471 0.830661
Si Si6 0.819031 0.011923 0.169683
O O1 0.496333 0.151139 0.250475
O O2 0.620883 0.070072 0.247295
O O3 0.500000 0.000000 0.163905
O O4 0.559624 0.115216 0.000000
O O5 0.568378 0.830772 0.500000
O O6 0.616746 0.751746 0.268112
O O7 0.637977 0.909409 0.288528
O O8 0.662884 0.016923 0.500000
O O9 0.750578 0.006800 0.275853
O O10 0.500000 0.500000 0.751140
O O11 0.502826 0.657557 0.783058
O O12 0.371623 0.566046 0.785963
O O13 0.464479 0.565264 0.000000
O O14 0.861209 0.097327 0.803271
O O15 0.907731 0.203482 0.000000
O O16 0.794114 0.005073 0.000000
#
# Coordination Sequence:
#
# PCOD8225850 Si02
#       6
#     8   8   8   8   8   8
#     4   9  17  31  52  73  91 118 160 203 239 282
#     4  10  20  33  49  71 100 132 163 200 248 297
#     4  10  20  33  49  71 101 133 163 197 242 296
#     4   7  12  26  48  71  93 119 155 199 241 280
#     4   9  17  31  52  75  97 125 164 208 249 290
#     4   9  17  31  52  75  98 127 165 205 245 291
#
# _framework density 17.712126999999999
#
# number of rings (size 3 to 8) (size 9 to 14) (size 15 to 20)
#    0.000    3.000    0.000    3.500    0.000    4.667 
#    0.000    2.500    0.000    9.000    0.000    0.000 
#    0.000    0.000    0.000    0.000    0.000    0.000 
#
# Total GULP energy -594736.542157 kJ/mol
# GULP energy per Si atom -12390.344628 kJ/mol
# Density = 1.767181 g / cm^3
# Si number density = 17.712127 Si / 1000 Ang^3
#
#
#
# Elastic Constant Matrix: (Units=GPa)
#
#
# Indices 1 2 3 4 5 6 
#
# 1 98.6575 31.2829 44.1198 0.0000 0.0000 0.0000
# 2 31.2829 64.0680 37.5492 0.0000 0.0000 0.0000
# 3 44.1198 37.5492 84.2815 0.0000 0.0000 0.0000
# 4 0.0000 0.0000 0.0000 22.0823 0.0000 0.0000
# 5 0.0000 0.0000 0.0000 0.0000 24.0055 0.0000
# 6 0.0000 0.0000 0.0000 0.0000 0.0000 16.7242
#
#
#
# Elastic Compliance Matrix: (Units=1/GPa)
#
#
# Indices 1 2 3 4 5 6 
#
# 1 0.013754 -0.003378 -0.005695 0.000000 0.000000 0.000000
# 2 -0.003378 0.021954 -0.008013 0.000000 0.000000 0.000000
# 3 -0.005695 -0.008013 0.018416 0.000000 0.000000 0.000000
# 4 0.000000 0.000000 0.000000 0.045285 0.000000 0.000000
# 5 0.000000 0.000000 0.000000 0.000000 0.041657 0.000000
# 6 0.000000 0.000000 0.000000 0.000000 0.000000 0.059794
#
#
# Mechanical properties :
#
#
# Convention : Reuss Voigt Hill
#
# Bulk Modulus (GPa) = 50.11856 52.54564 51.33210
# Shear Modulus (GPa) = 20.68834 21.49939 21.09387
#
# Velocity S-wave (km/s) = 3.42136 3.48778 3.45473
# Velocity P-wave (km/s) = 6.63063 6.77867 6.70505
#
# Compressibility (1/GPa) = 0.01995269
#
# Stress axis : x y z
#
# Youngs Moduli (GPa) = 72.70604 45.55008 54.30056
#
# Poissons Ratio (x) = 0.15387 0.30924
# Poissons Ratio (y) = 0.24560 0.43509
# Poissons Ratio (z) = 0.41406 0.36497
#
# Static dielectric constant tensor:
#      x y z
#    x 3.309040 0.000000 0.000000 
#    y 0.000000 3.192890 0.000000 
#    z 0.000000 0.000000 3.143620 
# 
# 
# High freq. dielectric constant tensor:
#      x y z
#    x 1.677420 0.000000 0.000000 
#    y 0.000000 1.665960 0.000000 
#    z 0.000000 0.000000 1.672880 
# 
# From -- ./inp_files/7553.got.cif
#   From: 2010.03.12/outbox.cif.g09.slc.cpg/sg55_4_cif.got.tgz:7553.got - 2010.04.16 15:19:21.
