data_PCOD8225863
_publ_section_title
;
Structure prediction by ZEFSAII (Michael W. Deem and Ramdas Pophale) SiO2 
 PCOD8225863
Probable space group: P B A M
;
_chemical_formula_sum "Si O2"
_cell_formula_units_Z 64
_cell_length_a 14.456946
_cell_length_b 27.513019
_cell_length_c 8.677453
_cell_angle_alpha 90.000000
_cell_angle_beta 90.000000
_cell_angle_gamma 90.000000
_cell_volume 3451.493636
_symmetry_space_group_name_H-M "P B A M"
_symmetry_group_IT_number 55
_symmetry_cell_setting 'orthorhombic'
loop_
_space_group_symop_operation_xyz
x,y,z
-x,-y,z
1/2+x,1/2-y,-z
1/2-x,1/2+y,-z
-x,-y,-z
x,y,-z
1/2-x,1/2+y,z
1/2+x,1/2-y,z
loop_
_atom_site_type_symbol
_atom_site_label
_atom_site_fract_x
_atom_site_fract_y
_atom_site_fract_z
Si Si1 0.732759 0.636978 0.820677
Si Si2 0.400699 0.549684 0.679911
Si Si3 0.387108 0.282067 0.324070
Si Si4 0.599806 0.282778 0.324458
Si Si5 0.898436 0.320344 0.177040
Si Si6 0.790939 0.866350 0.824728
Si Si7 0.596171 0.552595 0.818488
Si Si8 0.412476 0.828499 0.320291
O O1 0.674742 0.685184 0.786012
O O2 0.675544 0.589873 0.766834
O O3 0.829218 0.636360 0.728904
O O4 0.755637 0.635204 0.000000
O O5 0.402519 0.538032 0.500000
O O6 0.326414 0.591437 0.713018
O O7 0.501847 0.567550 0.732625
O O8 0.371633 0.501180 0.770856
O O9 0.353958 0.288977 0.500000
O O10 0.493201 0.297778 0.303957
O O11 0.373702 0.226030 0.280690
O O12 0.631621 0.291590 0.500000
O O13 0.660723 0.315108 0.211507
O O14 0.614636 0.226790 0.277093
O O15 0.818913 0.360660 0.199527
O O16 0.994929 0.344197 0.230305
O O17 0.905570 0.303666 0.000000
O O18 0.814539 0.880495 0.000000
O O19 0.577821 0.554926 0.000000
O O20 0.433302 0.833386 0.500000
#
# Coordination Sequence:
#
# PCOD8225863 Si02
#       8
#     8   8   8   8   8   8   8   8
#     4  11  22  34  53  79 105 138 177 215 259 311
#     4  11  22  36  57  82 108 137 169 210 258 310
#     4  10  20  33  50  75 109 144 178 217 260 306
#     4   9  19  33  49  74 106 140 176 214 257 305
#     4  10  21  36  53  74 104 141 181 222 261 307
#     4  11  22  34  52  77 104 138 176 215 260 308
#     4  10  21  38  58  80 109 139 168 208 257 311
#     4  10  21  36  54  75 104 141 177 219 265 308
#
# _framework density 18.542698000000001
#
# number of rings (size 3 to 8) (size 9 to 14) (size 15 to 20)
#    0.000    1.750    0.000    6.375    0.000   11.000 
#    0.000    0.000    0.000    0.750    0.000    5.250 
#    0.000    0.000    0.000    0.000    0.000    0.000 
#
# Total GULP energy -793926.016693 kJ/mol
# GULP energy per Si atom -12405.094011 kJ/mol
# Density = 1.850049 g / cm^3
# Si number density = 18.542698 Si / 1000 Ang^3
#
#
#
# Elastic Constant Matrix: (Units=GPa)
#
#
# Indices 1 2 3 4 5 6 
#
# 1 103.4299 53.1346 31.4970 0.0000 0.0000 0.0000
# 2 53.1346 65.1458 19.3533 0.0000 0.0000 0.0000
# 3 31.4970 19.3533 58.1677 0.0000 0.0000 0.0000
# 4 0.0000 0.0000 0.0000 26.0635 0.0000 0.0000
# 5 0.0000 0.0000 0.0000 0.0000 27.1722 0.0000
# 6 0.0000 0.0000 0.0000 0.0000 0.0000 29.5521
#
#
#
# Elastic Compliance Matrix: (Units=1/GPa)
#
#
# Indices 1 2 3 4 5 6 
#
# 1 0.018056 -0.013119 -0.005412 0.000000 0.000000 0.000000
# 2 -0.013119 0.026566 -0.001735 0.000000 0.000000 0.000000
# 3 -0.005412 -0.001735 0.020700 0.000000 0.000000 0.000000
# 4 0.000000 0.000000 0.000000 0.038368 0.000000 0.000000
# 5 0.000000 0.000000 0.000000 0.000000 0.036802 0.000000
# 6 0.000000 0.000000 0.000000 0.000000 0.000000 0.033839
#
#
# Mechanical properties :
#
#
# Convention : Reuss Voigt Hill
#
# Bulk Modulus (GPa) = 40.34076 48.30148 44.32112
# Shear Modulus (GPa) = 22.40879 24.74145 23.57512
#
# Velocity S-wave (km/s) = 3.48012 3.65676 3.56953
# Velocity P-wave (km/s) = 6.16045 6.62832 6.39866
#
# Compressibility (1/GPa) = 0.02478882
#
# Stress axis : x y z
#
# Youngs Moduli (GPa) = 55.38239 37.64201 48.31016
#
# Poissons Ratio (x) = 0.49384 0.26147
# Poissons Ratio (y) = 0.72658 0.08382
# Poissons Ratio (z) = 0.29974 0.06531
#
# Static dielectric constant tensor:
#      x y z
#    x 3.496760 0.000000 0.000000 
#    y 0.000000 3.215080 0.000000 
#    z 0.000000 0.000000 3.499650 
# 
# 
# High freq. dielectric constant tensor:
#      x y z
#    x 1.720360 0.000000 0.000000 
#    y 0.000000 1.693120 0.000000 
#    z 0.000000 0.000000 1.733080 
# 
# From -- ./inp_files/6931.got.cif
#   From: 2010.03.12/outbox.cif.g09.slc.cpg/sg55_4_cif.got.tgz:6931.got - 2010.04.16 15:19:21.
