data_PCOD8225091
_publ_section_title
;
Structure prediction by ZEFSAII (Michael W. Deem and Ramdas Pophale) SiO2 
 PCOD8225091
Probable space group: P B A M
;
_chemical_formula_sum "Si O2"
_cell_formula_units_Z 64
_cell_length_a 16.386745
_cell_length_b 21.682983
_cell_length_c 9.156511
_cell_angle_alpha 90.000000
_cell_angle_beta 90.000000
_cell_angle_gamma 90.000000
_cell_volume 3253.432093
_symmetry_space_group_name_H-M "P B A M"
_symmetry_group_IT_number 55
_symmetry_cell_setting 'orthorhombic'
loop_
_space_group_symop_operation_xyz
x,y,z
-x,-y,z
1/2+x,1/2-y,-z
1/2-x,1/2+y,-z
-x,-y,-z
x,y,-z
1/2-x,1/2+y,z
1/2+x,1/2-y,z
loop_
_atom_site_type_symbol
_atom_site_label
_atom_site_fract_x
_atom_site_fract_y
_atom_site_fract_z
Si Si1 0.039259 0.623176 0.171391
Si Si2 0.344086 0.566422 0.327893
Si Si3 0.375950 0.897079 0.665059
Si Si4 0.037055 0.141798 0.835691
Si Si5 0.706720 0.655703 0.668549
Si Si6 0.407459 0.258693 0.171776
Si Si7 0.661624 0.963269 0.668634
Si Si8 0.110216 0.947125 0.166591
O O1 0.078957 0.688219 0.215622
O O2 0.090565 0.568043 0.239429
O O3 0.946912 0.621114 0.225423
O O4 0.038295 0.614148 0.000000
O O5 0.356150 0.560733 0.500000
O O6 0.384914 0.629900 0.268977
O O7 0.248866 0.564700 0.284792
O O8 0.392283 0.511478 0.250032
O O9 0.410367 0.896947 0.500000
O O10 0.304723 0.846166 0.682188
O O11 0.339172 0.964161 0.702519
O O12 0.986869 0.201614 0.780585
O O13 0.979358 0.082014 0.829906
O O14 0.069216 0.152771 0.000000
O O15 0.679229 0.652212 0.500000
O O16 0.672261 0.718238 0.740919
O O17 0.673516 0.596817 0.752930
O O18 0.391656 0.268540 0.000000
O O19 0.643962 0.949676 0.500000
O O20 0.139238 0.957133 0.000000
#
# Coordination Sequence:
#
# PCOD8225091 Si02
#       8
#     8   8   8   8   8   8   8   8
#     4  11  24  41  62  89 116 150 199 245 287 347
#     4  11  21  34  53  82 117 151 193 240 287 344
#     4  10  21  40  63  88 119 153 189 237 298 349
#     4   9  19  35  54  78 111 154 192 230 290 349
#     4  10  19  35  61  90 117 151 197 240 282 346
#     4   9  21  42  60  81 119 156 191 239 294 343
#     4  10  22  41  60  83 121 157 187 240 304 348
#     4  10  19  32  53  81 118 156 190 234 291 347
#
# _framework density 19.671534000000001
#
# number of rings (size 3 to 8) (size 9 to 14) (size 15 to 20)
#    0.000    2.000    1.250    3.000    0.000    9.000 
#    2.250    0.000    0.000    0.000    0.000    0.000 
#    0.000    0.000    0.000    0.000    0.000    0.000 
#
# Total GULP energy -793726.624855 kJ/mol
# GULP energy per Si atom -12401.978513 kJ/mol
# Density = 1.962676 g / cm^3
# Si number density = 19.671534 Si / 1000 Ang^3
#
#
#
# Elastic Constant Matrix: (Units=GPa)
#
#
# Indices 1 2 3 4 5 6 
#
# 1 95.8380 34.5556 48.3294 0.0000 0.0000 0.0000
# 2 34.5556 59.6549 35.4097 0.0000 0.0000 0.0000
# 3 48.3294 35.4097 88.9321 0.0000 0.0000 0.0000
# 4 0.0000 0.0000 0.0000 22.0430 0.0000 0.0000
# 5 0.0000 0.0000 0.0000 0.0000 22.5706 0.0000
# 6 0.0000 0.0000 0.0000 0.0000 0.0000 20.5929
#
#
#
# Elastic Compliance Matrix: (Units=1/GPa)
#
#
# Indices 1 2 3 4 5 6 
#
# 1 0.015521 -0.005217 -0.006358 0.000000 0.000000 0.000000
# 2 -0.005217 0.023705 -0.006603 0.000000 0.000000 0.000000
# 3 -0.006358 -0.006603 0.017329 0.000000 0.000000 0.000000
# 4 0.000000 0.000000 0.000000 0.045366 0.000000 0.000000
# 5 0.000000 0.000000 0.000000 0.000000 0.044306 0.000000
# 6 0.000000 0.000000 0.000000 0.000000 0.000000 0.048560
#
#
# Mechanical properties :
#
#
# Convention : Reuss Voigt Hill
#
# Bulk Modulus (GPa) = 49.50792 53.44603 51.47697
# Shear Modulus (GPa) = 21.01939 21.44998 21.23468
#
# Velocity S-wave (km/s) = 3.27237 3.30571 3.28908
# Velocity P-wave (km/s) = 6.28488 6.46518 6.37567
#
# Compressibility (1/GPa) = 0.02019879
#
# Stress axis : x y z
#
# Youngs Moduli (GPa) = 64.42689 42.18584 57.70758
#
# Poissons Ratio (x) = 0.22009 0.36689
# Poissons Ratio (y) = 0.33612 0.38105
# Poissons Ratio (z) = 0.40961 0.27856
#
# Static dielectric constant tensor:
#      x y z
#    x 3.519850 0.000000 0.000000 
#    y 0.000000 3.524040 0.000000 
#    z 0.000000 0.000000 3.606060 
# 
# 
# High freq. dielectric constant tensor:
#      x y z
#    x 1.764400 0.000000 0.000000 
#    y 0.000000 1.754300 0.000000 
#    z 0.000000 0.000000 1.770290 
# 
# From -- ./inp_files/8093.got.cif
#   From: 2010.03.12/outbox.cif.g09.slc.cpg/sg55_5_cif.got.tgz:8093.got - 2010.04.16 15:19:21.
