data_PCOD8225350
_publ_section_title
;
Structure prediction by ZEFSAII (Michael W. Deem and Ramdas Pophale) SiO2 
 PCOD8225350
Probable space group: P B A M
;
_chemical_formula_sum "Si O2"
_cell_formula_units_Z 56
_cell_length_a 15.113358
_cell_length_b 20.683293
_cell_length_c 9.107059
_cell_angle_alpha 90.000000
_cell_angle_beta 90.000000
_cell_angle_gamma 90.000000
_cell_volume 2846.812108
_symmetry_space_group_name_H-M "P B A M"
_symmetry_group_IT_number 55
_symmetry_cell_setting 'orthorhombic'
loop_
_space_group_symop_operation_xyz
x,y,z
-x,-y,z
1/2+x,1/2-y,-z
1/2-x,1/2+y,-z
-x,-y,-z
x,y,-z
1/2-x,1/2+y,z
1/2+x,1/2-y,z
loop_
_atom_site_type_symbol
_atom_site_label
_atom_site_fract_x
_atom_site_fract_y
_atom_site_fract_z
Si Si1 0.315700 0.736324 0.824712
Si Si2 0.487531 0.268853 0.163895
Si Si3 0.262971 0.467571 0.330702
Si Si4 0.569336 0.871335 0.836279
Si Si5 0.258787 0.110771 0.328505
Si Si6 0.675855 0.656066 0.824839
Si Si7 0.564614 0.059976 0.663448
O O1 0.416443 0.742190 0.760406
O O2 0.282678 0.667393 0.767139
O O3 0.255211 0.796406 0.766884
O O4 0.311880 0.735715 0.000000
O O5 0.426257 0.205646 0.160581
O O6 0.420600 0.320888 0.236942
O O7 0.510186 0.291928 0.000000
O O8 0.279107 0.449863 0.500000
O O9 0.291724 0.542261 0.300938
O O10 0.316100 0.417046 0.231833
O O11 0.160872 0.461644 0.286609
O O12 0.640132 0.899330 0.722093
O O13 0.470703 0.888290 0.780847
O O14 0.585648 0.899375 0.000000
O O15 0.257496 0.128857 0.500000
O O16 0.676251 0.656431 0.000000
O O17 0.566041 0.090212 0.500000
O O18 0.500000 0.000000 0.670379
#
# Coordination Sequence:
#
# PCOD8225350 Si02
#       7
#     8   8   8   8   8   8   8
#     4  10  20  38  62  86 114 148 190 238 284 338
#     4   9  19  36  58  84 114 144 182 238 294 334
#     4  10  22  38  55  78 115 157 192 233 286 340
#     4  11  20  34  57  84 112 146 189 236 285 343
#     4  11  22  38  57  81 116 154 190 233 285 341
#     4  10  20  37  59  85 116 148 187 239 290 338
#     4  10  19  34  51  74 113 152 181 222 284 343
#
# _framework density 19.671125
#
# number of rings (size 3 to 8) (size 9 to 14) (size 15 to 20)
#    0.000    1.857    2.857    1.714    0.000    3.714 
#    0.000    2.857    0.000    4.286    0.000    0.000 
#    0.000    0.000    0.000    0.000    0.000    0.000 
#
# Total GULP energy -694005.207854 kJ/mol
# GULP energy per Si atom -12392.950140 kJ/mol
# Density = 1.962635 g / cm^3
# Si number density = 19.671125 Si / 1000 Ang^3
#
#
#
# Elastic Constant Matrix: (Units=GPa)
#
#
# Indices 1 2 3 4 5 6 
#
# 1 63.3209 12.4694 9.8952 0.0000 0.0000 0.0000
# 2 12.4694 86.3016 19.7042 0.0000 0.0000 0.0000
# 3 9.8952 19.7042 31.8446 0.0000 0.0000 0.0000
# 4 0.0000 0.0000 0.0000 29.4841 0.0000 0.0000
# 5 0.0000 0.0000 0.0000 0.0000 21.2347 0.0000
# 6 0.0000 0.0000 0.0000 0.0000 0.0000 31.3351
#
#
#
# Elastic Compliance Matrix: (Units=1/GPa)
#
#
# Indices 1 2 3 4 5 6 
#
# 1 0.016750 -0.001434 -0.004317 0.000000 0.000000 0.000000
# 2 -0.001434 0.013616 -0.007980 0.000000 0.000000 0.000000
# 3 -0.004317 -0.007980 0.037681 0.000000 0.000000 0.000000
# 4 0.000000 0.000000 0.000000 0.033917 0.000000 0.000000
# 5 0.000000 0.000000 0.000000 0.000000 0.047093 0.000000
# 6 0.000000 0.000000 0.000000 0.000000 0.000000 0.031913
#
#
# Mechanical properties :
#
#
# Convention : Reuss Voigt Hill
#
# Bulk Modulus (GPa) = 24.63950 29.51163 27.07557
# Shear Modulus (GPa) = 22.52652 25.70399 24.11526
#
# Velocity S-wave (km/s) = 3.38769 3.61873 3.50511
# Velocity P-wave (km/s) = 5.27777 5.70047 5.49319
#
# Compressibility (1/GPa) = 0.04058524
#
# Stress axis : x y z
#
# Youngs Moduli (GPa) = 59.70257 73.44082 26.53831
#
# Poissons Ratio (x) = 0.10535 0.11457
# Poissons Ratio (y) = 0.08564 0.21176
# Poissons Ratio (z) = 0.25774 0.58603
#
# Static dielectric constant tensor:
#      x y z
#    x 3.741140 0.000000 0.000000 
#    y 0.000000 3.589940 0.000000 
#    z 0.000000 0.000000 3.384770 
# 
# 
# High freq. dielectric constant tensor:
#      x y z
#    x 1.758250 0.000000 0.000000 
#    y 0.000000 1.767020 0.000000 
#    z 0.000000 0.000000 1.743890 
# 
# From -- ./inp_files/6197.got.cif
#   From: 2010.03.12/outbox.cif.g09.slc.cpg/sg55_4_cif.got.tgz:6197.got - 2010.04.16 15:19:21.
