data_PCOD8225741
_publ_section_title
;
Structure prediction by ZEFSAII (Michael W. Deem and Ramdas Pophale) SiO2 
 PCOD8225741
Probable space group: P B A M
;
_chemical_formula_sum "Si O2"
_cell_formula_units_Z 40
_cell_length_a 10.034186
_cell_length_b 25.637396
_cell_length_c 7.748102
_cell_angle_alpha 90.000000
_cell_angle_beta 90.000000
_cell_angle_gamma 90.000000
_cell_volume 1993.202339
_symmetry_space_group_name_H-M "P B A M"
_symmetry_group_IT_number 55
_symmetry_cell_setting 'orthorhombic'
loop_
_space_group_symop_operation_xyz
x,y,z
-x,-y,z
1/2+x,1/2-y,-z
1/2-x,1/2+y,-z
-x,-y,-z
x,y,-z
1/2-x,1/2+y,z
1/2+x,1/2-y,z
loop_
_atom_site_type_symbol
_atom_site_label
_atom_site_fract_x
_atom_site_fract_y
_atom_site_fract_z
Si Si1 0.535494 0.126627 0.707788
Si Si2 0.731354 0.927377 0.300918
Si Si3 0.512419 0.601483 0.189145
Si Si4 0.900001 0.706480 0.000000
Si Si5 0.257858 0.958039 0.695268
Si Si6 0.905749 0.196818 0.000000
O O1 0.546742 0.138164 0.500000
O O2 0.389879 0.107375 0.768086
O O3 0.565430 0.177415 0.821132
O O4 0.638593 0.082760 0.776969
O O5 0.706689 0.936755 0.500000
O O6 0.867539 0.895874 0.274258
O O7 0.735660 0.985119 0.212456
O O8 0.608894 0.564974 0.300176
O O9 0.499619 0.575553 0.000000
O O10 0.571137 0.660373 0.170473
O O11 0.983702 0.758993 0.000000
O O12 0.742746 0.720221 0.000000
O O13 0.302672 0.965168 0.500000
#
# Coordination Sequence:
#
# PCOD8225741 Si02
#       6
#     8   8   8   4   8   4
#     4  10  22  41  64  92 126 160 204 250 298 366
#     4  10  21  35  58  92 126 165 200 236 295 361
#     4  10  21  38  54  89 119 159 200 249 300 357
#     4  12  24  48  67  89 118 158 203 259 323 352
#     4  10  19  37  60  85 127 167 198 244 295 358
#     4  10  26  42  67  85 116 156 201 263 315 358
#
# _framework density 20.068207999999998
#
# number of rings (size 3 to 8) (size 9 to 14) (size 15 to 20)
#    0.600    1.200    2.000    1.800    4.200    5.600 
#    0.000    4.000    0.000    0.000    0.000    0.000 
#    0.000    0.000    0.000    0.000    0.000    0.000 
#
# Total GULP energy -495711.586667 kJ/mol
# GULP energy per Si atom -12392.789667 kJ/mol
# Density = 2.002253 g / cm^3
# Si number density = 20.068208 Si / 1000 Ang^3
#
#
#
# Elastic Constant Matrix: (Units=GPa)
#
#
# Indices 1 2 3 4 5 6 
#
# 1 136.5299 28.2224 -1.4866 0.0000 0.0000 0.0000
# 2 28.2224 91.8218 15.2951 0.0000 0.0000 0.0000
# 3 -1.4866 15.2951 42.5407 0.0000 0.0000 0.0000
# 4 0.0000 0.0000 0.0000 21.8649 0.0000 0.0000
# 5 0.0000 0.0000 0.0000 0.0000 25.0856 0.0000
# 6 0.0000 0.0000 0.0000 0.0000 0.0000 28.5834
#
#
#
# Elastic Compliance Matrix: (Units=1/GPa)
#
#
# Indices 1 2 3 4 5 6 
#
# 1 0.007880 -0.002625 0.001219 0.000000 0.000000 0.000000
# 2 -0.002625 0.012459 -0.004571 0.000000 0.000000 0.000000
# 3 0.001219 -0.004571 0.025193 0.000000 0.000000 0.000000
# 4 0.000000 0.000000 0.000000 0.045735 0.000000 0.000000
# 5 0.000000 0.000000 0.000000 0.000000 0.039863 0.000000
# 6 0.000000 0.000000 0.000000 0.000000 0.000000 0.034985
#
#
# Mechanical properties :
#
#
# Convention : Reuss Voigt Hill
#
# Bulk Modulus (GPa) = 29.78143 39.43937 34.61040
# Shear Modulus (GPa) = 26.41816 30.36421 28.39119
#
# Velocity S-wave (km/s) = 3.63218 3.89401 3.76538
# Velocity P-wave (km/s) = 5.69760 6.31768 6.01564
#
# Compressibility (1/GPa) = 0.03357797
#
# Stress axis : x y z
#
# Youngs Moduli (GPa) = 126.89812 80.26336 39.69350
#
# Poissons Ratio (x) = 0.21071 -0.04840
# Poissons Ratio (y) = 0.33313 0.18145
# Poissons Ratio (z) = -0.15472 0.36690
#
# Static dielectric constant tensor:
#      x y z
#    x 3.725290 0.000000 0.000000 
#    y 0.000000 3.572760 0.000000 
#    z 0.000000 0.000000 3.566380 
# 
# 
# High freq. dielectric constant tensor:
#      x y z
#    x 1.801160 0.000000 0.000000 
#    y 0.000000 1.766360 0.000000 
#    z 0.000000 0.000000 1.764710 
# 
# From -- ./inp_files/2553.got.cif
#   From: 2010.03.12/outbox.cif.g09.slc.cpg/sg55_2_cif.got.tgz:2553.got - 2010.04.16 15:19:21.
