data_PCOD8225175
_publ_section_title
;
Structure prediction by ZEFSAII (Michael W. Deem and Ramdas Pophale) SiO2 
 PCOD8225175
Probable space group: P B A M
;
_chemical_formula_sum "Si O2"
_cell_formula_units_Z 48
_cell_length_a 18.099740
_cell_length_b 16.589743
_cell_length_c 8.998371
_cell_angle_alpha 90.000000
_cell_angle_beta 90.000000
_cell_angle_gamma 90.000000
_cell_volume 2701.941175
_symmetry_space_group_name_H-M "P B A M"
_symmetry_group_IT_number 55
_symmetry_cell_setting 'orthorhombic'
loop_
_space_group_symop_operation_xyz
x,y,z
-x,-y,z
1/2+x,1/2-y,-z
1/2-x,1/2+y,-z
-x,-y,-z
x,y,-z
1/2-x,1/2+y,z
1/2+x,1/2-y,z
loop_
_atom_site_type_symbol
_atom_site_label
_atom_site_fract_x
_atom_site_fract_y
_atom_site_fract_z
Si Si1 0.423419 0.160625 0.828072
Si Si2 0.410004 0.340743 0.826720
Si Si3 0.947928 0.923392 0.837099
Si Si4 0.171352 0.984922 0.324675
Si Si5 0.172683 0.507532 0.825331
Si Si6 0.548559 0.079670 0.666811
O O1 0.388905 0.248249 0.792516
O O2 0.499232 0.150606 0.736587
O O3 0.362655 0.094083 0.784779
O O4 0.445152 0.152408 0.000000
O O5 0.497221 0.351671 0.784460
O O6 0.357603 0.398487 0.731330
O O7 0.398300 0.362545 0.000000
O O8 0.882690 0.941310 0.721098
O O9 0.913308 0.904353 0.000000
O O10 0.000000 0.000000 0.849985
O O11 0.177795 0.982347 0.500000
O O12 0.249890 0.003448 0.255479
O O13 0.121474 0.435058 0.765049
O O14 0.183408 0.495902 0.000000
O O15 0.572178 0.103698 0.500000
O O16 0.500000 0.000000 0.667692
#
# Coordination Sequence:
#
# PCOD8225175 Si02
#       6
#     8   8   8   8   8   8
#     4   9  18  33  54  77  98 127 168 210 249 293
#     4   9  18  34  54  75  99 128 166 209 251 296
#     4   8  15  30  51  71  93 124 160 197 239 291
#     4  11  21  32  49  74 103 133 167 205 249 299
#     4  10  19  33  53  74  99 132 170 206 244 295
#     4   9  17  30  49  73 100 128 159 197 242 291
#
# _framework density 17.765006
#
# number of rings (size 3 to 8) (size 9 to 14) (size 15 to 20)
#    0.000    2.667    0.000    3.500    0.000    6.333 
#    0.000    1.667    0.000    4.000    0.000    0.000 
#    0.000    0.000    0.000    0.000    0.000    0.000 
#
# Total GULP energy -595028.651921 kJ/mol
# GULP energy per Si atom -12396.430248 kJ/mol
# Density = 1.772457 g / cm^3
# Si number density = 17.765006 Si / 1000 Ang^3
#
#
#
# Elastic Constant Matrix: (Units=GPa)
#
#
# Indices 1 2 3 4 5 6 
#
# 1 124.1273 44.7667 73.9309 0.0000 0.0000 0.0000
# 2 44.7667 74.5386 43.2943 0.0000 0.0000 0.0000
# 3 73.9309 43.2943 124.0924 0.0000 0.0000 0.0000
# 4 0.0000 0.0000 0.0000 15.2368 0.0000 0.0000
# 5 0.0000 0.0000 0.0000 0.0000 22.5225 0.0000
# 6 0.0000 0.0000 0.0000 0.0000 0.0000 17.4067
#
#
#
# Elastic Compliance Matrix: (Units=1/GPa)
#
#
# Indices 1 2 3 4 5 6 
#
# 1 0.013509 -0.004313 -0.006544 0.000000 0.000000 0.000000
# 2 -0.004313 0.018202 -0.003781 0.000000 0.000000 0.000000
# 3 -0.006544 -0.003781 0.013276 0.000000 0.000000 0.000000
# 4 0.000000 0.000000 0.000000 0.065631 0.000000 0.000000
# 5 0.000000 0.000000 0.000000 0.000000 0.044400 0.000000
# 6 0.000000 0.000000 0.000000 0.000000 0.000000 0.057449
#
#
# Mechanical properties :
#
#
# Convention : Reuss Voigt Hill
#
# Bulk Modulus (GPa) = 63.64336 71.86021 67.75179
# Shear Modulus (GPa) = 20.24458 21.75097 20.99777
#
# Velocity S-wave (km/s) = 3.37942 3.50290 3.44171
# Velocity P-wave (km/s) = 7.15054 7.54312 7.34945
#
# Compressibility (1/GPa) = 0.01571256
#
# Stress axis : x y z
#
# Youngs Moduli (GPa) = 74.02446 54.93856 75.32212
#
# Poissons Ratio (x) = 0.23692 0.49289
# Poissons Ratio (y) = 0.31923 0.28481
# Poissons Ratio (z) = 0.48440 0.20773
#
# Static dielectric constant tensor:
#      x y z
#    x 3.378300 0.000000 0.000000 
#    y 0.000000 3.426000 0.000000 
#    z 0.000000 0.000000 3.360350 
# 
# 
# High freq. dielectric constant tensor:
#      x y z
#    x 1.677340 0.000000 0.000000 
#    y 0.000000 1.667010 0.000000 
#    z 0.000000 0.000000 1.689270 
# 
# From -- ./inp_files/7568.got.cif
#   From: 2010.03.12/outbox.cif.g09.slc.cpg/sg55_4_cif.got.tgz:7568.got - 2010.04.16 15:19:21.
