data_PCOD8225627
_publ_section_title
;
Structure prediction by ZEFSAII (Michael W. Deem and Ramdas Pophale) SiO2 
 PCOD8225627
Probable space group: P B A M
;
_chemical_formula_sum "Si O2"
_cell_formula_units_Z 48
_cell_length_a 9.722157
_cell_length_b 14.442231
_cell_length_c 17.510632
_cell_angle_alpha 90.000000
_cell_angle_beta 90.000000
_cell_angle_gamma 90.000000
_cell_volume 2458.661486
_symmetry_space_group_name_H-M "P B A M"
_symmetry_group_IT_number 55
_symmetry_cell_setting 'orthorhombic'
loop_
_space_group_symop_operation_xyz
x,y,z
-x,-y,z
1/2+x,1/2-y,-z
1/2-x,1/2+y,-z
-x,-y,-z
x,y,-z
1/2-x,1/2+y,z
1/2+x,1/2-y,z
loop_
_atom_site_type_symbol
_atom_site_label
_atom_site_fract_x
_atom_site_fract_y
_atom_site_fract_z
Si Si1 0.378343 0.184861 0.000000
Si Si2 0.016276 0.249534 0.380265
Si Si3 0.578787 0.901507 0.500000
Si Si4 0.136741 0.620848 0.834554
Si Si5 0.406268 0.595166 0.500000
Si Si6 0.830667 0.585894 0.163806
Si Si7 0.309482 0.855334 0.000000
Si Si8 0.269729 0.275239 0.273228
O O1 0.324338 0.133125 0.923846
O O2 0.543088 0.195753 0.000000
O O3 0.317140 0.286342 0.000000
O O4 0.060936 0.159692 0.427894
O O5 0.136169 0.282738 0.325240
O O6 0.965263 0.339377 0.427459
O O7 0.894837 0.212245 0.329213
O O8 0.742124 0.925813 0.500000
O O9 0.500000 0.000000 0.500000
O O10 0.166962 0.517880 0.806429
O O11 0.226635 0.683122 0.778094
O O12 0.974714 0.640209 0.824094
O O13 0.500000 0.500000 0.500000
O O14 0.794315 0.580979 0.074336
O O15 0.719363 0.640185 0.213587
#
# Coordination Sequence:
#
# PCOD8225627 Si02
#       8
#     4   8   4   8   4   8   4   8
#     4  10  19  35  61  84 120 160 215 265 307 364
#     4  11  26  44  66  95 133 162 206 258 311 376
#     4  11  26  46  73  99 125 169 209 249 310 378
#     4  10  21  37  60  90 121 166 217 261 309 371
#     4  11  26  46  71 101 129 163 209 253 308 376
#     4  10  21  37  61  88 122 167 216 260 312 370
#     4  10  19  35  61  86 116 164 215 263 311 362
#     4  12  22  40  64  92 128 168 204 259 317 371
#
# _framework density 19.522817
#
# number of rings (size 3 to 8) (size 9 to 14) (size 15 to 20)
#    0.000    1.333    5.000    0.500    2.333    4.667 
#    0.000    0.000    0.000    1.000    0.000    0.000 
#    0.000    0.000    0.000    0.000    0.000    0.000 
#
# Total GULP energy -595002.898960 kJ/mol
# GULP energy per Si atom -12395.893728 kJ/mol
# Density = 1.947838 g / cm^3
# Si number density = 19.522817 Si / 1000 Ang^3
#
#
#
# Elastic Constant Matrix: (Units=GPa)
#
#
# Indices 1 2 3 4 5 6 
#
# 1 100.6271 33.4785 52.2855 0.0000 0.0000 0.0000
# 2 33.4785 103.3431 48.5180 0.0000 0.0000 0.0000
# 3 52.2855 48.5180 134.4257 0.0000 0.0000 0.0000
# 4 0.0000 0.0000 0.0000 -4.0638 0.0000 0.0000
# 5 0.0000 0.0000 0.0000 0.0000 32.1662 0.0000
# 6 0.0000 0.0000 0.0000 0.0000 0.0000 32.9509
#
#
#
# Elastic Compliance Matrix: (Units=1/GPa)
#
#
# Indices 1 2 3 4 5 6 
#
# 1 0.012853 -0.002187 -0.004210 0.000000 0.000000 0.000000
# 2 -0.002187 0.012023 -0.003489 0.000000 0.000000 0.000000
# 3 -0.004210 -0.003489 0.010336 0.000000 0.000000 0.000000
# 4 0.000000 0.000000 0.000000 -0.246073 0.000000 0.000000
# 5 0.000000 0.000000 0.000000 0.000000 0.031089 0.000000
# 6 0.000000 0.000000 0.000000 0.000000 0.000000 0.030348
#
#
# Mechanical properties :
#
#
# Convention : Reuss Voigt Hill
#
# Bulk Modulus (GPa) = 64.76691 67.43998 66.10345
# Shear Modulus (GPa) = -40.15834 25.81825 -7.17004
#
# Velocity S-wave (km/s) = -4.54033 3.64052 -1.91849
# Velocity P-wave (km/s) = 2.40018 7.23121 5.38754
#
# Compressibility (1/GPa) = 0.01543998
#
# Stress axis : x y z
#
# Youngs Moduli (GPa) = 77.80456 83.17414 96.75331
#
# Poissons Ratio (x) = 0.18193 0.40730
# Poissons Ratio (y) = 0.17018 0.33754
# Poissons Ratio (z) = 0.32753 0.29017
#
# Static dielectric constant tensor:
#      x y z
#    x 3.487480 0.000000 0.000000 
#    y 0.000000 3.426160 0.000000 
#    z 0.000000 0.000000 3.846290 
# 
# 
# High freq. dielectric constant tensor:
#      x y z
#    x 1.752040 0.000000 0.000000 
#    y 0.000000 1.755900 0.000000 
#    z 0.000000 0.000000 1.781650 
# 
# From -- ./inp_files/20862.got.cif
#   From: 2010.03.12/outbox.cif.g09.slc.cpg/sg55_11_cif.got.tgz:20862.got - 2010.04.16 15:19:21.
