data_PCOD8225614
_publ_section_title
;
Structure prediction by ZEFSAII (Michael W. Deem and Ramdas Pophale) SiO2 
 PCOD8225614
Probable space group: P B A M
;
_chemical_formula_sum "Si O2"
_cell_formula_units_Z 40
_cell_length_a 10.101236
_cell_length_b 27.220082
_cell_length_c 7.759096
_cell_angle_alpha 90.000000
_cell_angle_beta 90.000000
_cell_angle_gamma 90.000000
_cell_volume 2133.413664
_symmetry_space_group_name_H-M "P B A M"
_symmetry_group_IT_number 55
_symmetry_cell_setting 'orthorhombic'
loop_
_space_group_symop_operation_xyz
x,y,z
-x,-y,z
1/2+x,1/2-y,-z
1/2-x,1/2+y,-z
-x,-y,-z
x,y,-z
1/2-x,1/2+y,z
1/2+x,1/2-y,z
loop_
_atom_site_type_symbol
_atom_site_label
_atom_site_fract_x
_atom_site_fract_y
_atom_site_fract_z
Si Si1 0.975039 0.864048 0.309174
Si Si2 0.779602 0.627966 0.696164
Si Si3 0.792349 0.700599 0.000000
Si Si4 0.390347 0.535959 0.194840
Si Si5 0.981386 0.793273 0.000000
Si Si6 0.140561 0.479850 0.700788
O O1 0.955221 0.841183 0.500000
O O2 0.883253 0.912206 0.294010
O O3 0.124441 0.882375 0.280383
O O4 0.938090 0.823068 0.169799
O O5 0.812602 0.644653 0.500000
O O6 0.854452 0.577838 0.744536
O O7 0.825303 0.669819 0.828147
O O8 0.638920 0.718437 0.000000
O O9 0.895347 0.744584 0.000000
O O10 0.500000 0.500000 0.280578
O O11 0.248755 0.510181 0.194921
O O12 0.433689 0.547837 0.000000
O O13 0.166673 0.488981 0.500000
O O14 0.000000 0.500000 0.761834
#
# Coordination Sequence:
#
# PCOD8225614 Si02
#       6
#     8   8   4   8   4   8
#     4  10  19  35  60  84 111 147 188 232 276 330
#     4   9  19  36  59  83 110 151 190 220 275 344
#     4  10  22  40  64  78 110 139 184 239 291 332
#     4  11  21  32  56  87 118 150 191 231 269 332
#     4  10  22  42  58  85 106 139 186 238 287 344
#     4  10  21  36  53  81 121 156 188 228 276 336
#
# _framework density 18.749293000000002
#
# number of rings (size 3 to 8) (size 9 to 14) (size 15 to 20)
#    0.000    2.000    3.000    0.600    1.400    2.000 
#    3.600    0.000    0.000    0.000    0.000    0.000 
#    0.000    0.000    0.000    0.000    0.000    0.000 
#
# Total GULP energy -496074.917957 kJ/mol
# GULP energy per Si atom -12401.872949 kJ/mol
# Density = 1.870662 g / cm^3
# Si number density = 18.749293 Si / 1000 Ang^3
#
#
#
# Elastic Constant Matrix: (Units=GPa)
#
#
# Indices 1 2 3 4 5 6 
#
# 1 91.2734 65.6406 34.5973 0.0000 0.0000 0.0000
# 2 65.6406 144.1281 71.1387 0.0000 0.0000 0.0000
# 3 34.5973 71.1387 118.3514 0.0000 0.0000 0.0000
# 4 0.0000 0.0000 0.0000 21.2431 0.0000 0.0000
# 5 0.0000 0.0000 0.0000 0.0000 13.9934 0.0000
# 6 0.0000 0.0000 0.0000 0.0000 0.0000 38.1254
#
#
#
# Elastic Compliance Matrix: (Units=1/GPa)
#
#
# Indices 1 2 3 4 5 6 
#
# 1 0.016308 -0.007214 -0.000431 0.000000 0.000000 0.000000
# 2 -0.007214 0.013057 -0.005739 0.000000 0.000000 0.000000
# 3 -0.000431 -0.005739 0.012025 0.000000 0.000000 0.000000
# 4 0.000000 0.000000 0.000000 0.047074 0.000000 0.000000
# 5 0.000000 0.000000 0.000000 0.000000 0.071462 0.000000
# 6 0.000000 0.000000 0.000000 0.000000 0.000000 0.026229
#
#
# Mechanical properties :
#
#
# Convention : Reuss Voigt Hill
#
# Bulk Modulus (GPa) = 68.39574 77.38957 72.89266
# Shear Modulus (GPa) = 22.95713 26.83080 24.89397
#
# Velocity S-wave (km/s) = 3.50298 3.78700 3.64775
# Velocity P-wave (km/s) = 7.27457 7.77737 7.53017
#
# Compressibility (1/GPa) = 0.01462079
#
# Stress axis : x y z
#
# Youngs Moduli (GPa) = 61.32047 76.58904 83.16004
#
# Poissons Ratio (x) = 0.55255 0.03582
# Poissons Ratio (y) = 0.44240 0.47727
# Poissons Ratio (z) = 0.02641 0.43955
#
# Static dielectric constant tensor:
#      x y z
#    x 3.197380 0.000000 0.000000 
#    y 0.000000 3.252280 0.000000 
#    z 0.000000 0.000000 3.593410 
# 
# 
# High freq. dielectric constant tensor:
#      x y z
#    x 1.704710 0.000000 0.000000 
#    y 0.000000 1.715820 0.000000 
#    z 0.000000 0.000000 1.742010 
# 
# From -- ./inp_files/2362.got.cif
#   From: 2010.03.12/outbox.cif.g09.slc.cpg/sg55_2_cif.got.tgz:2362.got - 2010.04.16 15:19:21.
