data_PCOD8225453
_publ_section_title
;
Structure prediction by ZEFSAII (Michael W. Deem and Ramdas Pophale) SiO2 
 PCOD8225453
Probable space group: P B A M
;
_chemical_formula_sum "Si O2"
_cell_formula_units_Z 64
_cell_length_a 29.486081
_cell_length_b 12.755207
_cell_length_c 9.065438
_cell_angle_alpha 90.000000
_cell_angle_beta 90.000000
_cell_angle_gamma 90.000000
_cell_volume 3409.520903
_symmetry_space_group_name_H-M "P B A M"
_symmetry_group_IT_number 55
_symmetry_cell_setting 'orthorhombic'
loop_
_space_group_symop_operation_xyz
x,y,z
-x,-y,z
1/2+x,1/2-y,-z
1/2-x,1/2+y,-z
-x,-y,-z
x,y,-z
1/2-x,1/2+y,z
1/2+x,1/2-y,z
loop_
_atom_site_type_symbol
_atom_site_label
_atom_site_fract_x
_atom_site_fract_y
_atom_site_fract_z
Si Si1 0.700894 0.116930 0.670312
Si Si2 0.536223 0.216755 0.670684
Si Si3 0.388039 0.377902 0.825083
Si Si4 0.666267 0.338888 0.664811
Si Si5 0.297979 0.436855 0.669290
Si Si6 0.919671 0.895918 0.172205
Si Si7 0.605363 0.039787 0.675890
Si Si8 0.567127 0.818044 0.671504
O O1 0.703041 0.084583 0.500000
O O2 0.698128 0.240743 0.694576
O O3 0.748829 0.085083 0.743212
O O4 0.656274 0.060208 0.738325
O O5 0.545601 0.236915 0.500000
O O6 0.540252 0.330526 0.749826
O O7 0.486357 0.171492 0.697995
O O8 0.571709 0.131026 0.735141
O O9 0.337405 0.379037 0.759524
O O10 0.416110 0.482426 0.775928
O O11 0.414015 0.277500 0.765971
O O12 0.384048 0.373076 0.000000
O O13 0.644506 0.332138 0.500000
O O14 0.697802 0.438952 0.680103
O O15 0.626792 0.338149 0.784961
O O16 0.300834 0.397015 0.500000
O O17 0.928241 0.889525 0.000000
O O18 0.604259 0.044626 0.500000
O O19 0.589320 0.925735 0.730317
O O20 0.578479 0.798406 0.500000
#
# Coordination Sequence:
#
# PCOD8225453 Si02
#       8
#     8   8   8   8   8   8   8   8
#     4   9  16  28  52  83 107 134 173 220 270 315
#     4  10  19  34  57  84 110 139 176 222 272 318
#     4  10  22  39  54  72 107 148 181 221 274 321
#     4   9  16  30  51  75 105 138 172 218 269 314
#     4   9  18  31  52  80 105 134 178 222 265 319
#     4  10  20  34  54  77 102 139 184 224 264 314
#     4   9  17  32  55  83 113 139 172 219 269 319
#     4  10  21  35  56  83 111 144 180 218 265 325
#
# _framework density 18.770966000000001
#
# number of rings (size 3 to 8) (size 9 to 14) (size 15 to 20)
#    0.000    2.500    1.250    1.125    0.000    5.000 
#    0.000    7.500    0.000    4.500    0.000    0.000 
#    0.000    0.000    0.000    0.000    0.000    0.000 
#
# Total GULP energy -793373.987121 kJ/mol
# GULP energy per Si atom -12396.468549 kJ/mol
# Density = 1.872824 g / cm^3
# Si number density = 18.770966 Si / 1000 Ang^3
#
#
#
# Elastic Constant Matrix: (Units=GPa)
#
#
# Indices 1 2 3 4 5 6 
#
# 1 79.3967 44.1726 24.6202 0.0000 0.0000 0.0000
# 2 44.1726 111.7978 31.8773 0.0000 0.0000 0.0000
# 3 24.6202 31.8773 40.5565 0.0000 0.0000 0.0000
# 4 0.0000 0.0000 0.0000 17.7024 0.0000 0.0000
# 5 0.0000 0.0000 0.0000 0.0000 8.2111 0.0000
# 6 0.0000 0.0000 0.0000 0.0000 0.0000 28.6326
#
#
#
# Elastic Compliance Matrix: (Units=1/GPa)
#
#
# Indices 1 2 3 4 5 6 
#
# 1 0.017437 -0.004990 -0.006664 0.000000 0.000000 0.000000
# 2 -0.004990 0.012956 -0.007154 0.000000 0.000000 0.000000
# 3 -0.006664 -0.007154 0.034326 0.000000 0.000000 0.000000
# 4 0.000000 0.000000 0.000000 0.056489 0.000000 0.000000
# 5 0.000000 0.000000 0.000000 0.000000 0.121786 0.000000
# 6 0.000000 0.000000 0.000000 0.000000 0.000000 0.034925
#
#
# Mechanical properties :
#
#
# Convention : Reuss Voigt Hill
#
# Bulk Modulus (GPa) = 36.89559 48.12125 42.50842
# Shear Modulus (GPa) = 15.40498 19.64795 17.52647
#
# Velocity S-wave (km/s) = 2.86786 3.23882 3.05897
# Velocity P-wave (km/s) = 5.53755 6.29907 5.93055
#
# Compressibility (1/GPa) = 0.02710351
#
# Stress axis : x y z
#
# Youngs Moduli (GPa) = 57.34822 77.18327 29.13278
#
# Poissons Ratio (x) = 0.38512 0.19413
# Poissons Ratio (y) = 0.28615 0.20843
# Poissons Ratio (z) = 0.38215 0.55221
#
# Static dielectric constant tensor:
#      x y z
#    x 3.559420 0.000000 0.000000 
#    y 0.000000 3.600310 0.000000 
#    z 0.000000 0.000000 3.151170 
# 
# 
# High freq. dielectric constant tensor:
#      x y z
#    x 1.731130 0.000000 0.000000 
#    y 0.000000 1.737290 0.000000 
#    z 0.000000 0.000000 1.688440 
# 
# From -- ./inp_files/10831.got.cif
#   From: 2010.03.12/outbox.cif.g09.slc.cpg/sg55_6_cif.got.tgz:10831.got - 2010.04.16 15:19:21.
