data_PCOD8225146
_publ_section_title
;
Structure prediction by ZEFSAII (Michael W. Deem and Ramdas Pophale) SiO2 
 PCOD8225146
Probable space group: P B A M
;
_chemical_formula_sum "Si O2"
_cell_formula_units_Z 64
_cell_length_a 8.675686
_cell_length_b 21.266208
_cell_length_c 18.224593
_cell_angle_alpha 90.000000
_cell_angle_beta 90.000000
_cell_angle_gamma 90.000000
_cell_volume 3362.418145
_symmetry_space_group_name_H-M "P B A M"
_symmetry_group_IT_number 55
_symmetry_cell_setting 'orthorhombic'
loop_
_space_group_symop_operation_xyz
x,y,z
-x,-y,z
1/2+x,1/2-y,-z
1/2-x,1/2+y,-z
-x,-y,-z
x,y,-z
1/2-x,1/2+y,z
1/2+x,1/2-y,z
loop_
_atom_site_type_symbol
_atom_site_label
_atom_site_fract_x
_atom_site_fract_y
_atom_site_fract_z
Si Si1 0.413772 0.287001 0.149141
Si Si2 0.851662 0.408423 0.796182
Si Si3 0.335758 0.031515 0.415876
Si Si4 0.686987 0.135094 0.223434
Si Si5 0.324894 0.484726 0.280241
Si Si6 0.456440 0.751372 0.304694
Si Si7 0.771041 0.827845 0.085128
Si Si8 0.206946 0.664114 0.347685
O O1 0.277285 0.339174 0.151391
O O2 0.468730 0.278687 0.232491
O O3 0.347908 0.223233 0.115935
O O4 0.551935 0.309334 0.097503
O O5 0.795605 0.476879 0.770497
O O6 0.768969 0.392633 0.873038
O O7 0.798654 0.357553 0.736566
O O8 0.036387 0.403112 0.803084
O O9 0.296152 0.017416 0.500000
O O10 0.329439 0.106843 0.402793
O O11 0.500000 0.000000 0.394572
O O12 0.205217 0.000069 0.365712
O O13 0.798553 0.088570 0.267736
O O14 0.657553 0.193396 0.277775
O O15 0.500000 0.500000 0.259500
O O16 0.372978 0.697874 0.354310
O O17 0.579643 0.782005 0.359972
O O18 0.741462 0.838693 0.000000
#
# Coordination Sequence:
#
# PCOD8225146 Si02
#       8
#     8   8   8   8   8   8   8   8
#     4  12  19  35  52  85 117 154 197 246 302 349
#     4  10  19  38  55  83 114 151 204 247 289 354
#     4  10  22  42  61  83 122 162 201 243 295 360
#     4  11  20  34  61  84 116 151 193 255 302 343
#     4  11  23  36  63  95 114 148 202 250 299 351
#     4  11  17  31  56  85 114 142 191 249 286 350
#     4  12  22  34  54  82 122 161 197 245 307 361
#     4  10  19  32  59  83 113 154 190 244 299 345
#
# _framework density 19.033919999999998
#
# number of rings (size 3 to 8) (size 9 to 14) (size 15 to 20)
#    0.000    1.125    6.250    3.750    1.750    0.250 
#    0.000    1.250    0.000    6.375    0.000    0.000 
#    0.000    0.000    0.000    0.000    0.000    0.000 
#
# Total GULP energy -793443.293880 kJ/mol
# GULP energy per Si atom -12397.551467 kJ/mol
# Density = 1.899060 g / cm^3
# Si number density = 19.033920 Si / 1000 Ang^3
#
#
#
# Elastic Constant Matrix: (Units=GPa)
#
#
# Indices 1 2 3 4 5 6 
#
# 1 76.5293 25.2348 20.4592 0.0000 0.0000 0.0000
# 2 25.2348 72.9045 27.9738 0.0000 0.0000 0.0000
# 3 20.4592 27.9738 76.5428 0.0000 0.0000 0.0000
# 4 0.0000 0.0000 0.0000 18.7875 0.0000 0.0000
# 5 0.0000 0.0000 0.0000 0.0000 19.2466 0.0000
# 6 0.0000 0.0000 0.0000 0.0000 0.0000 35.5245
#
#
#
# Elastic Compliance Matrix: (Units=1/GPa)
#
#
# Indices 1 2 3 4 5 6 
#
# 1 0.015145 -0.004290 -0.002480 0.000000 0.000000 0.000000
# 2 -0.004290 0.017169 -0.005128 0.000000 0.000000 0.000000
# 3 -0.002480 -0.005128 0.015602 0.000000 0.000000 0.000000
# 4 0.000000 0.000000 0.000000 0.053227 0.000000 0.000000
# 5 0.000000 0.000000 0.000000 0.000000 0.051957 0.000000
# 6 0.000000 0.000000 0.000000 0.000000 0.000000 0.028150
#
#
# Mechanical properties :
#
#
# Convention : Reuss Voigt Hill
#
# Bulk Modulus (GPa) = 41.46186 41.47913 41.47050
# Shear Modulus (GPa) = 23.46476 24.86566 24.16521
#
# Velocity S-wave (km/s) = 3.51491 3.61832 3.56699
# Velocity P-wave (km/s) = 6.18896 6.26864 6.22893
#
# Compressibility (1/GPa) = 0.02411855
#
# Stress axis : x y z
#
# Youngs Moduli (GPa) = 66.03001 58.24349 64.09614
#
# Poissons Ratio (x) = 0.24989 0.15896
# Poissons Ratio (y) = 0.28330 0.32868
# Poissons Ratio (z) = 0.16375 0.29867
#
# Static dielectric constant tensor:
#      x y z
#    x 3.701670 0.000000 0.000000 
#    y 0.000000 3.590910 0.000000 
#    z 0.000000 0.000000 3.129560 
# 
# 
# High freq. dielectric constant tensor:
#      x y z
#    x 1.755700 0.000000 0.000000 
#    y 0.000000 1.742250 0.000000 
#    z 0.000000 0.000000 1.692960 
# 
# From -- ./inp_files/21086.got.cif
#   From: 2010.03.12/outbox.cif.g09.slc.cpg/sg55_11_cif.got.tgz:21086.got - 2010.04.16 15:19:21.
