data_PCOD8225211
_publ_section_title
;
Structure prediction by ZEFSAII (Michael W. Deem and Ramdas Pophale) SiO2 
 PCOD8225211
Probable space group: P B A M
;
_chemical_formula_sum "Si O2"
_cell_formula_units_Z 48
_cell_length_a 5.030032
_cell_length_b 15.902740
_cell_length_c 30.663115
_cell_angle_alpha 90.000000
_cell_angle_beta 90.000000
_cell_angle_gamma 90.000000
_cell_volume 2452.782158
_symmetry_space_group_name_H-M "P B A M"
_symmetry_group_IT_number 55
_symmetry_cell_setting 'orthorhombic'
loop_
_space_group_symop_operation_xyz
x,y,z
-x,-y,z
1/2+x,1/2-y,-z
1/2-x,1/2+y,-z
-x,-y,-z
x,y,-z
1/2-x,1/2+y,z
1/2+x,1/2-y,z
loop_
_atom_site_type_symbol
_atom_site_label
_atom_site_fract_x
_atom_site_fract_y
_atom_site_fract_z
Si Si1 0.248325 0.057326 0.620618
Si Si2 0.734851 0.807742 0.694266
Si Si3 0.219469 0.194869 0.550397
Si Si4 0.758833 0.944454 0.048987
Si Si5 0.229450 0.194264 0.880295
Si Si6 0.354728 0.196568 0.211393
O O1 0.317399 0.118390 0.660453
O O2 0.175065 0.110751 0.577833
O O3 0.500000 0.000000 0.609852
O O4 0.000000 0.000000 0.633614
O O5 0.524309 0.732526 0.687489
O O6 0.708176 0.849818 0.742755
O O7 0.197862 0.168683 0.500000
O O8 0.501737 0.235156 0.562411
O O9 0.709454 0.865902 0.079778
O O10 0.500000 0.000000 0.048664
O O11 0.824320 0.912109 0.000000
O O12 0.000000 0.000000 0.067479
O O13 0.427851 0.273700 0.883260
O O14 0.280761 0.146693 0.833408
O O15 0.665831 0.220201 0.210605
#
# Coordination Sequence:
#
# PCOD8225211 Si02
#       6
#     8   8   8   8   8   8
#     4  12  24  36  53  82 115 139 168 217 269 304
#     4  10  19  36  58  75 100 142 182 208 246 309
#     4  10  21  39  61  81 103 139 184 217 249 309
#     4  10  21  36  51  71 103 139 170 203 253 313
#     4  10  19  33  54  79 102 127 170 219 258 299
#     4   8  16  30  51  76  99 128 168 214 255 296
#
# _framework density 19.569614000000001
#
# number of rings (size 3 to 8) (size 9 to 14) (size 15 to 20)
#    0.000    2.000    0.000    4.000    0.000    1.333 
#    0.000    1.667    0.000    0.000    0.000    0.000 
#    0.000    0.000    0.000    0.000    0.000    0.000 
#
# Total GULP energy -595085.624691 kJ/mol
# GULP energy per Si atom -12397.617181 kJ/mol
# Density = 1.952507 g / cm^3
# Si number density = 19.569614 Si / 1000 Ang^3
#
#
#
# Elastic Constant Matrix: (Units=GPa)
#
#
# Indices 1 2 3 4 5 6 
#
# 1 82.9866 5.6552 11.2229 0.0000 0.0000 0.0000
# 2 5.6552 57.6568 51.0641 0.0000 0.0000 0.0000
# 3 11.2229 51.0641 128.1953 0.0000 0.0000 0.0000
# 4 0.0000 0.0000 0.0000 -4.0062 0.0000 0.0000
# 5 0.0000 0.0000 0.0000 0.0000 26.4153 0.0000
# 6 0.0000 0.0000 0.0000 0.0000 0.0000 20.2085
#
#
#
# Elastic Compliance Matrix: (Units=1/GPa)
#
#
# Indices 1 2 3 4 5 6 
#
# 1 0.012200 -0.000387 -0.000914 0.000000 0.000000 0.000000
# 2 -0.000387 0.026810 -0.010645 0.000000 0.000000 0.000000
# 3 -0.000914 -0.010645 0.012121 0.000000 0.000000 0.000000
# 4 0.000000 0.000000 0.000000 -0.249616 0.000000 0.000000
# 5 0.000000 0.000000 0.000000 0.000000 0.037857 0.000000
# 6 0.000000 0.000000 0.000000 0.000000 0.000000 0.049484
#
#
# Mechanical properties :
#
#
# Convention : Reuss Voigt Hill
#
# Bulk Modulus (GPa) = 36.71315 44.96924 40.84119
# Shear Modulus (GPa) = -63.96214 21.91663 -21.02275
#
# Velocity S-wave (km/s) = -5.72323 3.35017 -3.28114
# Velocity P-wave (km/s) = 4.98727 6.16391 2.56135
#
# Compressibility (1/GPa) = 0.02723820
#
# Stress axis : x y z
#
# Youngs Moduli (GPa) = 81.96650 37.29933 82.50159
#
# Poissons Ratio (x) = 0.01445 0.07539
# Poissons Ratio (y) = 0.03175 0.87826
# Poissons Ratio (z) = 0.07490 0.39707
#
# Static dielectric constant tensor:
#      x y z
#    x 3.760970 0.000000 0.000000 
#    y 0.000000 3.057690 0.000000 
#    z 0.000000 0.000000 4.011840 
# 
# 
# High freq. dielectric constant tensor:
#      x y z
#    x 1.786850 0.000000 0.000000 
#    y 0.000000 1.708900 0.000000 
#    z 0.000000 0.000000 1.786290 
# 
# From -- ./inp_files/24041.got.cif
#   From: 2010.03.12/outbox.cif.g09.slc.cpg/sg55_13_cif.got.tgz:24041.got - 2010.04.16 15:19:21.
