data_PCOD8225551
_publ_section_title
;
Structure prediction by ZEFSAII (Michael W. Deem and Ramdas Pophale) SiO2 
 PCOD8225551
Probable space group: P B A M
;
_chemical_formula_sum "Si O2"
_cell_formula_units_Z 64
_cell_length_a 24.843516
_cell_length_b 14.782276
_cell_length_c 9.047086
_cell_angle_alpha 90.000000
_cell_angle_beta 90.000000
_cell_angle_gamma 90.000000
_cell_volume 3322.485430
_symmetry_space_group_name_H-M "P B A M"
_symmetry_group_IT_number 55
_symmetry_cell_setting 'orthorhombic'
loop_
_space_group_symop_operation_xyz
x,y,z
-x,-y,z
1/2+x,1/2-y,-z
1/2-x,1/2+y,-z
-x,-y,-z
x,y,-z
1/2-x,1/2+y,z
1/2+x,1/2-y,z
loop_
_atom_site_type_symbol
_atom_site_label
_atom_site_fract_x
_atom_site_fract_y
_atom_site_fract_z
Si Si1 0.055757 0.684319 0.826483
Si Si2 0.671394 0.490697 0.325883
Si Si3 0.366654 0.344990 0.172707
Si Si4 0.719552 0.972276 0.828643
Si Si5 0.762798 0.263176 0.830520
Si Si6 0.555113 0.169726 0.329541
Si Si7 0.611718 0.983290 0.329098
Si Si8 0.343899 0.714533 0.672948
O O1 0.083653 0.779821 0.789457
O O2 0.086160 0.605024 0.742205
O O3 0.994794 0.692364 0.774090
O O4 0.058898 0.662764 0.000000
O O5 0.678277 0.500107 0.500000
O O6 0.627344 0.561946 0.264859
O O7 0.727956 0.514251 0.247979
O O8 0.651429 0.390617 0.280969
O O9 0.311453 0.298246 0.226265
O O10 0.365160 0.367848 0.000000
O O11 0.718382 0.865275 0.804657
O O12 0.666603 0.012504 0.751763
O O13 0.720021 0.000006 0.000000
O O14 0.708742 0.239540 0.742782
O O15 0.749806 0.244393 0.000000
O O16 0.540833 0.191309 0.500000
O O17 0.603371 0.233224 0.271658
O O18 0.569767 0.064791 0.311503
O O19 0.624356 0.963608 0.500000
O O20 0.337218 0.726655 0.500000
#
# Coordination Sequence:
#
# PCOD8225551 Si02
#       8
#     8   8   8   8   8   8   8   8
#     4  11  23  41  61  84 115 151 196 241 287 347
#     4  10  21  36  57  86 116 152 195 237 289 348
#     4  10  21  38  57  83 116 151 191 239 289 342
#     4  10  19  35  56  82 119 156 188 232 283 339
#     4   9  18  34  55  80 112 149 187 228 282 340
#     4  10  23  41  59  82 114 152 192 239 291 340
#     4  11  22  36  57  86 119 154 192 236 286 346
#     4   9  20  39  58  81 116 150 188 239 287 339
#
# _framework density 19.262688000000001
#
# number of rings (size 3 to 8) (size 9 to 14) (size 15 to 20)
#    0.000    2.000    1.250    1.875    1.750    5.500 
#    0.000    0.625    0.000    3.750    0.000    0.000 
#    0.000    0.000    0.000    0.000    0.000    0.000 
#
# Total GULP energy -793825.961459 kJ/mol
# GULP energy per Si atom -12403.530648 kJ/mol
# Density = 1.921885 g / cm^3
# Si number density = 19.262688 Si / 1000 Ang^3
#
#
#
# Elastic Constant Matrix: (Units=GPa)
#
#
# Indices 1 2 3 4 5 6 
#
# 1 94.9704 24.2650 42.6597 0.0000 0.0000 0.0000
# 2 24.2650 39.1757 26.4031 0.0000 0.0000 0.0000
# 3 42.6597 26.4031 79.8333 0.0000 0.0000 0.0000
# 4 0.0000 0.0000 0.0000 27.4597 0.0000 0.0000
# 5 0.0000 0.0000 0.0000 0.0000 35.9843 0.0000
# 6 0.0000 0.0000 0.0000 0.0000 0.0000 27.1769
#
#
#
# Elastic Compliance Matrix: (Units=1/GPa)
#
#
# Indices 1 2 3 4 5 6 
#
# 1 0.014538 -0.004850 -0.006164 0.000000 0.000000 0.000000
# 2 -0.004850 0.034466 -0.008807 0.000000 0.000000 0.000000
# 3 -0.006164 -0.008807 0.018733 0.000000 0.000000 0.000000
# 4 0.000000 0.000000 0.000000 0.036417 0.000000 0.000000
# 5 0.000000 0.000000 0.000000 0.000000 0.027790 0.000000
# 6 0.000000 0.000000 0.000000 0.000000 0.000000 0.036796
#
#
# Mechanical properties :
#
#
# Convention : Reuss Voigt Hill
#
# Bulk Modulus (GPa) = 35.59557 44.51500 40.05528
# Shear Modulus (GPa) = 22.96247 26.16762 24.56505
#
# Velocity S-wave (km/s) = 3.45638 3.68973 3.57496
# Velocity P-wave (km/s) = 5.86923 6.42742 6.15466
#
# Compressibility (1/GPa) = 0.02809338
#
# Stress axis : x y z
#
# Youngs Moduli (GPa) = 68.78660 29.01433 53.38210
#
# Poissons Ratio (x) = 0.14072 0.32907
# Poissons Ratio (y) = 0.33361 0.47015
# Poissons Ratio (z) = 0.42403 0.25553
#
# Static dielectric constant tensor:
#      x y z
#    x 3.576010 0.000000 0.000000 
#    y 0.000000 3.581120 0.000000 
#    z 0.000000 0.000000 3.510630 
# 
# 
# High freq. dielectric constant tensor:
#      x y z
#    x 1.742140 0.000000 0.000000 
#    y 0.000000 1.753170 0.000000 
#    z 0.000000 0.000000 1.751320 
# 
# From -- ./inp_files/9737.got.cif
#   From: 2010.03.12/outbox.cif.g09.slc.cpg/sg55_5_cif.got.tgz:9737.got - 2010.04.16 15:19:21.
