data_PCOD8225492
_publ_section_title
;
Structure prediction by ZEFSAII (Michael W. Deem and Ramdas Pophale) SiO2 
 PCOD8225492
Probable space group: P B A M
;
_chemical_formula_sum "Si O2"
_cell_formula_units_Z 64
_cell_length_a 8.746913
_cell_length_b 21.576630
_cell_length_c 17.928518
_cell_angle_alpha 90.000000
_cell_angle_beta 90.000000
_cell_angle_gamma 90.000000
_cell_volume 3383.629578
_symmetry_space_group_name_H-M "P B A M"
_symmetry_group_IT_number 55
_symmetry_cell_setting 'orthorhombic'
loop_
_space_group_symop_operation_xyz
x,y,z
-x,-y,z
1/2+x,1/2-y,-z
1/2-x,1/2+y,-z
-x,-y,-z
x,y,-z
1/2-x,1/2+y,z
1/2+x,1/2-y,z
loop_
_atom_site_type_symbol
_atom_site_label
_atom_site_fract_x
_atom_site_fract_y
_atom_site_fract_z
Si Si1 0.304889 0.279238 0.715542
Si Si2 0.799059 0.667751 0.915712
Si Si3 0.358066 0.366653 0.584658
Si Si4 0.488430 0.716725 0.858624
Si Si5 0.594305 0.444257 0.328924
Si Si6 0.256758 0.652220 0.229868
Si Si7 0.410108 0.883525 0.222898
Si Si8 0.648747 0.032674 0.358754
O O1 0.359765 0.305007 0.635700
O O2 0.441180 0.276558 0.775840
O O3 0.249769 0.208257 0.709413
O O4 0.164156 0.321473 0.742533
O O5 0.621656 0.689436 0.911054
O O6 0.833232 0.609998 0.859619
O O7 0.923975 0.720007 0.893347
O O8 0.829650 0.646371 0.000000
O O9 0.373683 0.344006 0.500000
O O10 0.499079 0.410368 0.606469
O O11 0.203549 0.407873 0.593655
O O12 0.336478 0.673913 0.847895
O O13 0.500000 0.500000 0.291175
O O14 0.630937 0.398733 0.262323
O O15 0.740883 0.474161 0.366442
O O16 0.091500 0.623546 0.214658
O O17 0.372711 0.943804 0.272965
O O18 0.500000 0.000000 0.392343
#
# Coordination Sequence:
#
# PCOD8225492 Si02
#       8
#     8   8   8   8   8   8   8   8
#     4  10  19  34  58  86 113 150 196 236 299 360
#     4  11  21  34  52  87 126 155 185 236 309 368
#     4  10  22  39  58  84 123 156 186 240 309 366
#     4  11  19  31  55  85 114 156 194 236 284 358
#     4  10  22  35  58  85 112 155 204 248 287 350
#     4  12  18  34  60  85 111 150 198 251 294 336
#     4  10  20  34  58  85 114 147 192 252 295 346
#     4  10  20  37  59  88 109 143 208 253 282 337
#
# _framework density 18.914601000000001
#
# number of rings (size 3 to 8) (size 9 to 14) (size 15 to 20)
#    0.000    1.500    6.250    0.375    1.750    2.500 
#    0.000    1.250    0.000    0.375    0.000    0.875 
#    0.000    0.000    0.000    0.000    0.000    0.000 
#
# Total GULP energy -792985.159028 kJ/mol
# GULP energy per Si atom -12390.393110 kJ/mol
# Density = 1.887155 g / cm^3
# Si number density = 18.914601 Si / 1000 Ang^3
#
#
#
# Elastic Constant Matrix: (Units=GPa)
#
#
# Indices 1 2 3 4 5 6 
#
# 1 104.9301 19.4241 25.1196 0.0000 0.0000 0.0000
# 2 19.4241 61.3542 24.8287 0.0000 0.0000 0.0000
# 3 25.1196 24.8287 116.3379 0.0000 0.0000 0.0000
# 4 0.0000 0.0000 0.0000 18.1803 0.0000 0.0000
# 5 0.0000 0.0000 0.0000 0.0000 14.0105 0.0000
# 6 0.0000 0.0000 0.0000 0.0000 0.0000 25.5538
#
#
#
# Elastic Compliance Matrix: (Units=1/GPa)
#
#
# Indices 1 2 3 4 5 6 
#
# 1 0.010419 -0.002614 -0.001692 0.000000 0.000000 0.000000
# 2 -0.002614 0.018495 -0.003383 0.000000 0.000000 0.000000
# 3 -0.001692 -0.003383 0.009683 0.000000 0.000000 0.000000
# 4 0.000000 0.000000 0.000000 0.055005 0.000000 0.000000
# 5 0.000000 0.000000 0.000000 0.000000 0.071375 0.000000
# 6 0.000000 0.000000 0.000000 0.000000 0.000000 0.039133
#
#
# Mechanical properties :
#
#
# Convention : Reuss Voigt Hill
#
# Bulk Modulus (GPa) = 43.06616 46.81855 44.94235
# Shear Modulus (GPa) = 22.00444 25.76560 23.88502
#
# Velocity S-wave (km/s) = 3.41450 3.69481 3.55742
# Velocity P-wave (km/s) = 6.19381 6.55809 6.37855
#
# Compressibility (1/GPa) = 0.02322009
#
# Stress axis : x y z
#
# Youngs Moduli (GPa) = 95.97815 54.06782 103.27476
#
# Poissons Ratio (x) = 0.14133 0.17472
# Poissons Ratio (y) = 0.25088 0.34936
# Poissons Ratio (z) = 0.16238 0.18290
#
# Static dielectric constant tensor:
#      x y z
#    x 3.877750 0.000000 0.000000 
#    y 0.000000 3.499160 0.000000 
#    z 0.000000 0.000000 3.282010 
# 
# 
# High freq. dielectric constant tensor:
#      x y z
#    x 1.760090 0.000000 0.000000 
#    y 0.000000 1.716010 0.000000 
#    z 0.000000 0.000000 1.696040 
# 
# From -- ./inp_files/21076.got.cif
#   From: 2010.03.12/outbox.cif.g09.slc.cpg/sg55_11_cif.got.tgz:21076.got - 2010.04.16 15:19:21.
