data_PCOD8225998
_publ_section_title
;
Structure prediction by ZEFSAII (Michael W. Deem and Ramdas Pophale) SiO2 
 PCOD8225998
Probable space group: P B A M
;
_chemical_formula_sum "Si O2"
_cell_formula_units_Z 52
_cell_length_a 9.143210
_cell_length_b 20.053618
_cell_length_c 14.746961
_cell_angle_alpha 90.000000
_cell_angle_beta 90.000000
_cell_angle_gamma 90.000000
_cell_volume 2703.920785
_symmetry_space_group_name_H-M "P B A M"
_symmetry_group_IT_number 55
_symmetry_cell_setting 'orthorhombic'
loop_
_space_group_symop_operation_xyz
x,y,z
-x,-y,z
1/2+x,1/2-y,-z
1/2-x,1/2+y,-z
-x,-y,-z
x,y,-z
1/2-x,1/2+y,z
1/2+x,1/2-y,z
loop_
_atom_site_type_symbol
_atom_site_label
_atom_site_fract_x
_atom_site_fract_y
_atom_site_fract_z
Si Si1 0.002257 0.797988 0.100067
Si Si2 0.029938 0.855310 0.711676
Si Si3 0.211311 0.387109 0.401997
Si Si4 0.823862 0.331212 0.099065
Si Si5 0.970000 0.284345 0.393328
Si Si6 0.795174 0.392387 0.283538
Si Si7 0.000000 0.500000 0.355553
O O1 0.063464 0.843700 0.181574
O O2 0.050112 0.722406 0.113477
O O3 0.828619 0.792466 0.107125
O O4 0.051228 0.825554 0.000000
O O5 0.163564 0.899841 0.672992
O O6 0.025028 0.786707 0.655492
O O7 0.879361 0.896362 0.700386
O O8 0.288725 0.382371 0.500000
O O9 0.129633 0.317481 0.380418
O O10 0.089148 0.444922 0.411487
O O11 0.835289 0.384703 0.177978
O O12 0.838550 0.366042 0.000000
O O13 0.930429 0.276803 0.500000
O O14 0.850373 0.331455 0.345545
O O15 0.872707 0.462538 0.300958
#
# Coordination Sequence:
#
# PCOD8225998 Si02
#       7
#     8   8   8   8   8   8   4
#     4   9  18  30  50  81 116 144 168 207 265 327
#     4  11  20  32  56  85 112 135 177 223 272 321
#     4  10  22  38  57  79 108 146 183 224 267 320
#     4   9  17  31  52  80 111 142 174 213 264 322
#     4  10  20  34  53  81 115 142 168 213 277 330
#     4  10  21  36  55  78 108 146 179 224 265 319
#     4  10  23  42  57  70 104 148 191 224 271 314
#
# _framework density 19.231332999999999
#
# number of rings (size 3 to 8) (size 9 to 14) (size 15 to 20)
#    0.000    2.154    1.538    1.615    2.154    3.692 
#    0.000    1.154    0.000    0.923    0.000    4.308 
#    0.000    0.000    0.000    0.000    0.000    0.000 
#
# Total GULP energy -644390.975341 kJ/mol
# GULP energy per Si atom -12392.134141 kJ/mol
# Density = 1.918756 g / cm^3
# Si number density = 19.231333 Si / 1000 Ang^3
#
#
#
# Elastic Constant Matrix: (Units=GPa)
#
#
# Indices 1 2 3 4 5 6 
#
# 1 71.0260 25.9443 49.1879 0.0000 0.0000 0.0000
# 2 25.9443 59.0304 21.8196 0.0000 0.0000 0.0000
# 3 49.1879 21.8196 125.8289 0.0000 0.0000 0.0000
# 4 0.0000 0.0000 0.0000 5.3905 0.0000 0.0000
# 5 0.0000 0.0000 0.0000 0.0000 28.1168 0.0000
# 6 0.0000 0.0000 0.0000 0.0000 0.0000 27.4148
#
#
#
# Elastic Compliance Matrix: (Units=1/GPa)
#
#
# Indices 1 2 3 4 5 6 
#
# 1 0.021594 -0.006807 -0.007261 0.000000 0.000000 0.000000
# 2 -0.006807 0.020246 -0.000850 0.000000 0.000000 0.000000
# 3 -0.007261 -0.000850 0.010933 0.000000 0.000000 0.000000
# 4 0.000000 0.000000 0.000000 0.185512 0.000000 0.000000
# 5 0.000000 0.000000 0.000000 0.000000 0.035566 0.000000
# 6 0.000000 0.000000 0.000000 0.000000 0.000000 0.036477
#
#
# Mechanical properties :
#
#
# Convention : Reuss Voigt Hill
#
# Bulk Modulus (GPa) = 43.59613 49.97655 46.78634
# Shear Modulus (GPa) = 14.37568 22.77999 18.57783
#
# Velocity S-wave (km/s) = 2.73703 3.44543 3.11146
# Velocity P-wave (km/s) = 5.71901 6.47081 6.10649
#
# Compressibility (1/GPa) = 0.02293781
#
# Stress axis : x y z
#
# Youngs Moduli (GPa) = 46.30843 49.39181 91.46513
#
# Poissons Ratio (x) = 0.33621 0.66414
# Poissons Ratio (y) = 0.31522 0.07774
# Poissons Ratio (z) = 0.33625 0.04198
#
# Static dielectric constant tensor:
#      x y z
#    x 3.615750 0.000000 0.000000 
#    y 0.000000 3.139990 0.000000 
#    z 0.000000 0.000000 3.883110 
# 
# 
# High freq. dielectric constant tensor:
#      x y z
#    x 1.755080 0.000000 0.000000 
#    y 0.000000 1.707500 0.000000 
#    z 0.000000 0.000000 1.763330 
# 
# From -- ./inp_files/17552.got.cif
#   From: 2010.03.12/outbox.cif.g09.slc.cpg/sg55_9_cif.got.tgz:17552.got - 2010.04.16 15:19:21.
