data_PCOD8225141
_publ_section_title
;
Structure prediction by ZEFSAII (Michael W. Deem and Ramdas Pophale) SiO2 
 PCOD8225141
Probable space group: P B A M
;
_chemical_formula_sum "Si O2"
_cell_formula_units_Z 64
_cell_length_a 23.762749
_cell_length_b 15.223621
_cell_length_c 8.655212
_cell_angle_alpha 90.000000
_cell_angle_beta 90.000000
_cell_angle_gamma 90.000000
_cell_volume 3131.066950
_symmetry_space_group_name_H-M "P B A M"
_symmetry_group_IT_number 55
_symmetry_cell_setting 'orthorhombic'
loop_
_space_group_symop_operation_xyz
x,y,z
-x,-y,z
1/2+x,1/2-y,-z
1/2-x,1/2+y,-z
-x,-y,-z
x,y,-z
1/2-x,1/2+y,z
1/2+x,1/2-y,z
loop_
_atom_site_type_symbol
_atom_site_label
_atom_site_fract_x
_atom_site_fract_y
_atom_site_fract_z
Si Si1 0.852837 0.492930 0.826747
Si Si2 0.668061 0.577700 0.183083
Si Si3 0.756037 0.231988 0.680181
Si Si4 0.858383 0.690463 0.825644
Si Si5 0.539159 0.577965 0.184069
Si Si6 0.745562 0.431981 0.320779
Si Si7 0.032823 0.581613 0.182871
Si Si8 0.023874 0.246954 0.184066
O O1 0.879790 0.590030 0.823303
O O2 0.802368 0.486393 0.705998
O O3 0.901048 0.424470 0.778010
O O4 0.830167 0.472759 0.000000
O O5 0.699003 0.666717 0.240457
O O6 0.603570 0.575375 0.244267
O O7 0.695913 0.486018 0.237385
O O8 0.670620 0.580445 0.000000
O O9 0.769689 0.230064 0.500000
O O10 0.693346 0.198096 0.709938
O O11 0.756369 0.332869 0.743745
O O12 0.910212 0.751045 0.767832
O O13 0.839729 0.716700 0.000000
O O14 0.500000 0.500000 0.247954
O O15 0.507865 0.663119 0.251670
O O16 0.540012 0.577451 0.000000
O O17 0.730176 0.428687 0.500000
O O18 0.000000 0.500000 0.258479
O O19 0.008916 0.670438 0.256431
O O20 0.023589 0.581042 0.000000
O O21 0.020522 0.248738 0.000000
#
# Coordination Sequence:
#
# PCOD8225141 Si02
#       8
#     8   8   8   8   8   8   8   8
#     4  10  19  32  55  87 117 146 188 240 288 345
#     4  11  23  40  65  95 122 153 202 259 305 353
#     4  11  25  42  60  84 120 163 201 244 303 365
#     4  10  19  33  58  89 116 148 195 244 294 351
#     4   9  20  36  54  83 121 155 191 243 303 350
#     4  11  25  42  60  82 116 163 202 240 301 364
#     4   9  15  26  46  78 115 145 178 224 283 346
#     4   9  17  30  51  81 117 153 185 232 294 350
#
# _framework density 20.440317
#
# number of rings (size 3 to 8) (size 9 to 14) (size 15 to 20)
#    0.000    2.000    2.500    1.125    3.500    2.000 
#    0.000    0.000    0.000    4.125    0.000    0.000 
#    0.000    0.000    0.000    0.000    0.000    0.000 
#
# Total GULP energy -793290.790008 kJ/mol
# GULP energy per Si atom -12395.168594 kJ/mol
# Density = 2.039379 g / cm^3
# Si number density = 20.440317 Si / 1000 Ang^3
#
#
#
# Elastic Constant Matrix: (Units=GPa)
#
#
# Indices 1 2 3 4 5 6 
#
# 1 161.9754 83.5245 23.9761 0.0000 0.0000 0.0000
# 2 83.5245 151.5709 24.9610 0.0000 0.0000 0.0000
# 3 23.9761 24.9610 39.2064 0.0000 0.0000 0.0000
# 4 0.0000 0.0000 0.0000 19.9725 0.0000 0.0000
# 5 0.0000 0.0000 0.0000 0.0000 0.3223 0.0000
# 6 0.0000 0.0000 0.0000 0.0000 0.0000 34.5055
#
#
#
# Elastic Compliance Matrix: (Units=1/GPa)
#
#
# Indices 1 2 3 4 5 6 
#
# 1 0.008852 -0.004453 -0.002578 0.000000 0.000000 0.000000
# 2 -0.004453 0.009611 -0.003395 0.000000 0.000000 0.000000
# 3 -0.002578 -0.003395 0.029244 0.000000 0.000000 0.000000
# 4 0.000000 0.000000 0.000000 0.050069 0.000000 0.000000
# 5 0.000000 0.000000 0.000000 0.000000 3.102720 0.000000
# 6 0.000000 0.000000 0.000000 0.000000 0.000000 0.028981
#
#
# Mechanical properties :
#
#
# Convention : Reuss Voigt Hill
#
# Bulk Modulus (GPa) = 37.23910 68.63067 52.93488
# Shear Modulus (GPa) = 1.53408 25.64612 13.59010
#
# Velocity S-wave (km/s) = 0.86726 3.54599 2.58130
# Velocity P-wave (km/s) = 4.38872 7.10031 5.90234
#
# Compressibility (1/GPa) = 0.02685350
#
# Stress axis : x y z
#
# Youngs Moduli (GPa) = 112.97171 104.04996 34.19471
#
# Poissons Ratio (x) = 0.46337 0.08815
# Poissons Ratio (y) = 0.50310 0.11610
# Poissons Ratio (z) = 0.29124 0.35329
#
# Static dielectric constant tensor:
#      x y z
#    x 3.750110 0.000000 0.000000 
#    y 0.000000 4.079280 0.000000 
#    z 0.000000 0.000000 3.172860 
# 
# 
# High freq. dielectric constant tensor:
#      x y z
#    x 1.808840 0.000000 0.000000 
#    y 0.000000 1.809110 0.000000 
#    z 0.000000 0.000000 1.747410 
# 
# From -- ./inp_files/9671.got.cif
#   From: 2010.03.12/outbox.cif.g09.slc.cpg/sg55_5_cif.got.tgz:9671.got - 2010.04.16 15:19:21.
