data_PCOD8225719
_publ_section_title
;
Structure prediction by ZEFSAII (Michael W. Deem and Ramdas Pophale) SiO2 
 PCOD8225719
Probable space group: P B A M
;
_chemical_formula_sum "Si O2"
_cell_formula_units_Z 64
_cell_length_a 10.976211
_cell_length_b 32.675433
_cell_length_c 9.037000
_cell_angle_alpha 90.000000
_cell_angle_beta 90.000000
_cell_angle_gamma 90.000000
_cell_volume 3241.142165
_symmetry_space_group_name_H-M "P B A M"
_symmetry_group_IT_number 55
_symmetry_cell_setting 'orthorhombic'
loop_
_space_group_symop_operation_xyz
x,y,z
-x,-y,z
1/2+x,1/2-y,-z
1/2-x,1/2+y,-z
-x,-y,-z
x,y,-z
1/2-x,1/2+y,z
1/2+x,1/2-y,z
loop_
_atom_site_type_symbol
_atom_site_label
_atom_site_fract_x
_atom_site_fract_y
_atom_site_fract_z
Si Si1 0.742791 0.689956 0.671743
Si Si2 0.407269 0.883003 0.674758
Si Si3 0.877272 0.524756 0.676254
Si Si4 0.726187 0.270857 0.832963
Si Si5 0.863950 0.987851 0.173074
Si Si6 0.840353 0.893424 0.167427
Si Si7 0.012214 0.825017 0.161808
Si Si8 0.649692 0.840504 0.674149
O O1 0.765820 0.697281 0.500000
O O2 0.796552 0.646310 0.724063
O O3 0.803475 0.727751 0.756575
O O4 0.600344 0.688556 0.707568
O O5 0.416800 0.886694 0.500000
O O6 0.392331 0.928871 0.737562
O O7 0.527305 0.860980 0.736899
O O8 0.864206 0.522579 0.500000
O O9 0.750006 0.508674 0.743734
O O10 0.000000 0.500000 0.726149
O O11 0.605671 0.297245 0.825734
O O12 0.832328 0.296183 0.749736
O O13 0.770221 0.263213 0.000000
O O14 0.853187 0.940278 0.207440
O O15 0.852375 0.998436 0.000000
O O16 0.000000 0.000000 0.230723
O O17 0.973197 0.872368 0.180597
O O18 0.754155 0.872733 0.287460
O O19 0.789505 0.886761 0.000000
O O20 0.073866 0.818818 0.000000
O O21 0.645406 0.833016 0.500000
#
# Coordination Sequence:
#
# PCOD8225719 Si02
#       8
#     8   8   8   8   8   8   8   8
#     4  11  23  37  56  82 115 150 187 237 288 339
#     4   9  21  38  56  85 121 149 185 240 293 341
#     4  10  21  40  64  89 121 160 200 247 304 364
#     4  10  22  40  59  83 114 149 191 237 285 342
#     4  10  22  38  59  88 122 158 199 250 301 356
#     4   9  19  37  58  82 116 152 189 237 291 343
#     4   9  20  38  58  80 110 148 188 234 285 341
#     4  10  19  36  62  88 112 148 194 237 285 342
#
# _framework density 19.746124999999999
#
# number of rings (size 3 to 8) (size 9 to 14) (size 15 to 20)
#    0.000    2.250    0.000    2.625    3.500    4.500 
#    0.000    3.750    0.000    0.000    0.000    0.000 
#    0.000    0.000    0.000    0.000    0.000    0.000 
#
# Total GULP energy -793336.954307 kJ/mol
# GULP energy per Si atom -12395.889911 kJ/mol
# Density = 1.970118 g / cm^3
# Si number density = 19.746125 Si / 1000 Ang^3
#
#
#
# Elastic Constant Matrix: (Units=GPa)
#
#
# Indices 1 2 3 4 5 6 
#
# 1 101.1474 44.8043 35.4463 0.0000 0.0000 0.0000
# 2 44.8043 152.0002 46.2511 0.0000 0.0000 0.0000
# 3 35.4463 46.2511 73.4865 0.0000 0.0000 0.0000
# 4 0.0000 0.0000 0.0000 26.7877 0.0000 0.0000
# 5 0.0000 0.0000 0.0000 0.0000 21.8436 0.0000
# 6 0.0000 0.0000 0.0000 0.0000 0.0000 24.6450
#
#
#
# Elastic Compliance Matrix: (Units=1/GPa)
#
#
# Indices 1 2 3 4 5 6 
#
# 1 0.012511 -0.002290 -0.004593 0.000000 0.000000 0.000000
# 2 -0.002290 0.008557 -0.004281 0.000000 0.000000 0.000000
# 3 -0.004593 -0.004281 0.018518 0.000000 0.000000 0.000000
# 4 0.000000 0.000000 0.000000 0.037331 0.000000 0.000000
# 5 0.000000 0.000000 0.000000 0.000000 0.045780 0.000000
# 6 0.000000 0.000000 0.000000 0.000000 0.000000 0.040576
#
#
# Mechanical properties :
#
#
# Convention : Reuss Voigt Hill
#
# Bulk Modulus (GPa) = 57.94786 64.40417 61.17601
# Shear Modulus (GPa) = 26.12989 27.99742 27.06365
#
# Velocity S-wave (km/s) = 3.64165 3.76954 3.70615
# Velocity P-wave (km/s) = 6.86239 7.18560 7.02585
#
# Compressibility (1/GPa) = 0.01725689
#
# Stress axis : x y z
#
# Youngs Moduli (GPa) = 79.93217 116.87000 54.00252
#
# Poissons Ratio (x) = 0.26764 0.24804
# Poissons Ratio (y) = 0.18305 0.23117
# Poissons Ratio (z) = 0.36714 0.50029
#
# Static dielectric constant tensor:
#      x y z
#    x 3.582870 0.000000 0.000000 
#    y 0.000000 3.937260 0.000000 
#    z 0.000000 0.000000 3.477650 
# 
# 
# High freq. dielectric constant tensor:
#      x y z
#    x 1.766820 0.000000 0.000000 
#    y 0.000000 1.786540 0.000000 
#    z 0.000000 0.000000 1.755230 
# 
# From -- ./inp_files/4631.got.cif
#   From: 2010.03.12/outbox.cif.g09.slc.cpg/sg55_3_cif.got.tgz:4631.got - 2010.04.16 15:19:21.
