data_PCOD8225740
_publ_section_title
;
Structure prediction by ZEFSAII (Michael W. Deem and Ramdas Pophale) SiO2 
 PCOD8225740
Probable space group: P B A M
;
_chemical_formula_sum "Si O2"
_cell_formula_units_Z 48
_cell_length_a 16.593448
_cell_length_b 9.797285
_cell_length_c 15.168705
_cell_angle_alpha 90.000000
_cell_angle_beta 90.000000
_cell_angle_gamma 90.000000
_cell_volume 2465.987584
_symmetry_space_group_name_H-M "P B A M"
_symmetry_group_IT_number 55
_symmetry_cell_setting 'orthorhombic'
loop_
_space_group_symop_operation_xyz
x,y,z
-x,-y,z
1/2+x,1/2-y,-z
1/2-x,1/2+y,-z
-x,-y,-z
x,y,-z
1/2-x,1/2+y,z
1/2+x,1/2-y,z
loop_
_atom_site_type_symbol
_atom_site_label
_atom_site_fract_x
_atom_site_fract_y
_atom_site_fract_z
Si Si1 0.899868 0.788541 0.796187
Si Si2 0.781817 0.905960 0.342133
Si Si3 0.836080 0.185900 0.403718
Si Si4 0.836051 0.492286 0.189435
Si Si5 0.414993 0.280600 0.779990
Si Si6 0.177746 0.990550 0.900911
O O1 0.859489 0.846408 0.707936
O O2 0.888856 0.627333 0.802793
O O3 0.993848 0.824656 0.795494
O O4 0.860013 0.860753 0.881248
O O5 0.742034 0.782988 0.396250
O O6 0.809219 0.028087 0.405076
O O7 0.717503 0.969680 0.275402
O O8 0.876182 0.214022 0.500000
O O9 0.898253 0.216836 0.324888
O O10 0.898289 0.367815 0.178498
O O11 0.774796 0.502077 0.106857
O O12 0.355745 0.384986 0.828838
O O13 0.154873 0.946132 0.000000
#
# Coordination Sequence:
#
# PCOD8225740 Si02
#       6
#     8   8   8   8   8   8
#     4  11  21  38  61  88 122 156 193 242 305 352
#     4  10  19  37  60  85 116 157 198 246 286 346
#     4  11  21  37  60  89 120 159 206 245 289 349
#     4  10  20  39  62  83 115 158 201 236 288 350
#     4  11  23  38  61  88 126 155 192 248 301 352
#     4  11  23  40  64  89 117 155 200 246 295 355
#
# _framework density 19.464817
#
# number of rings (size 3 to 8) (size 9 to 14) (size 15 to 20)
#    0.000    1.333    5.000    3.500    0.000    4.000 
#    0.000    2.500    0.000    5.000    0.000    0.000 
#    0.000    0.000    0.000    0.000    0.000    0.000 
#
# Total GULP energy -595194.741732 kJ/mol
# GULP energy per Si atom -12399.890453 kJ/mol
# Density = 1.942051 g / cm^3
# Si number density = 19.464817 Si / 1000 Ang^3
#
#
#
# Elastic Constant Matrix: (Units=GPa)
#
#
# Indices 1 2 3 4 5 6 
#
# 1 76.2397 17.1848 20.8590 0.0000 0.0000 0.0000
# 2 17.1848 121.1905 19.2884 0.0000 0.0000 0.0000
# 3 20.8590 19.2884 110.4297 0.0000 0.0000 0.0000
# 4 0.0000 0.0000 0.0000 10.3281 0.0000 0.0000
# 5 0.0000 0.0000 0.0000 0.0000 10.8676 0.0000
# 6 0.0000 0.0000 0.0000 0.0000 0.0000 26.5593
#
#
#
# Elastic Compliance Matrix: (Units=1/GPa)
#
#
# Indices 1 2 3 4 5 6 
#
# 1 0.014136 -0.001625 -0.002386 0.000000 0.000000 0.000000
# 2 -0.001625 0.008674 -0.001208 0.000000 0.000000 0.000000
# 3 -0.002386 -0.001208 0.009717 0.000000 0.000000 0.000000
# 4 0.000000 0.000000 0.000000 0.096824 0.000000 0.000000
# 5 0.000000 0.000000 0.000000 0.000000 0.092017 0.000000
# 6 0.000000 0.000000 0.000000 0.000000 0.000000 0.037652
#
#
# Mechanical properties :
#
#
# Convention : Reuss Voigt Hill
#
# Bulk Modulus (GPa) = 45.27181 46.94712 46.10947
# Shear Modulus (GPa) = 18.06227 26.25284 22.15756
#
# Velocity S-wave (km/s) = 3.04952 3.67649 3.37759
# Velocity P-wave (km/s) = 5.97564 6.49565 6.24106
#
# Compressibility (1/GPa) = 0.02208880
#
# Stress axis : x y z
#
# Youngs Moduli (GPa) = 70.74329 115.28517 102.90905
#
# Poissons Ratio (x) = 0.18730 0.24557
# Poissons Ratio (y) = 0.11493 0.12434
# Poissons Ratio (z) = 0.16881 0.13929
#
# Static dielectric constant tensor:
#      x y z
#    x 3.380280 0.000000 0.000000 
#    y 0.000000 3.830490 0.000000 
#    z 0.000000 0.000000 3.368950 
# 
# 
# High freq. dielectric constant tensor:
#      x y z
#    x 1.742350 0.000000 0.000000 
#    y 0.000000 1.778520 0.000000 
#    z 0.000000 0.000000 1.740070 
# 
# From -- ./inp_files/17312.got.cif
#   From: 2010.03.12/outbox.cif.g09.slc.cpg/sg55_9_cif.got.tgz:17312.got - 2010.04.16 15:19:21.
