data_PCOD8225651
_publ_section_title
;
Structure prediction by ZEFSAII (Michael W. Deem and Ramdas Pophale) SiO2 
 PCOD8225651
Probable space group: P B A M
;
_chemical_formula_sum "Si O2"
_cell_formula_units_Z 64
_cell_length_a 26.789730
_cell_length_b 9.593371
_cell_length_c 13.784828
_cell_angle_alpha 90.000000
_cell_angle_beta 90.000000
_cell_angle_gamma 90.000000
_cell_volume 3542.753439
_symmetry_space_group_name_H-M "P B A M"
_symmetry_group_IT_number 55
_symmetry_cell_setting 'orthorhombic'
loop_
_space_group_symop_operation_xyz
x,y,z
-x,-y,z
1/2+x,1/2-y,-z
1/2-x,1/2+y,-z
-x,-y,-z
x,y,-z
1/2-x,1/2+y,z
1/2+x,1/2-y,z
loop_
_atom_site_type_symbol
_atom_site_label
_atom_site_fract_x
_atom_site_fract_y
_atom_site_fract_z
Si Si1 0.226053 0.874015 0.386949
Si Si2 0.771269 0.303196 0.108557
Si Si3 0.626597 0.512149 0.297999
Si Si4 0.905685 0.471929 0.609985
Si Si5 0.431359 0.724476 0.613578
Si Si6 0.301028 0.085796 0.697893
Si Si7 0.814170 0.007260 0.891578
Si Si8 0.456699 0.309311 0.389637
O O1 0.238042 0.889774 0.500000
O O2 0.226042 0.712040 0.358420
O O3 0.172757 0.941658 0.363966
O O4 0.269645 0.947416 0.325271
O O5 0.804529 0.382966 0.187502
O O6 0.714717 0.360424 0.122863
O O7 0.775317 0.136250 0.124987
O O8 0.789823 0.342752 0.000000
O O9 0.611055 0.356489 0.327159
O O10 0.640675 0.516974 0.184510
O O11 0.579548 0.612322 0.315776
O O12 0.887165 0.487830 0.500000
O O13 0.928898 0.615861 0.648063
O O14 0.858103 0.427625 0.670650
O O15 0.948508 0.356180 0.619081
O O16 0.420301 0.710045 0.500000
O O17 0.485838 0.660781 0.637427
O O18 0.837013 0.015631 0.000000
O O19 0.445346 0.359691 0.500000
#
# Coordination Sequence:
#
# PCOD8225651 Si02
#       8
#     8   8   8   8   8   8   8   8
#     4  12  24  35  50  76 115 152 180 210 257 328
#     4  10  19  36  56  77 103 139 186 232 268 307
#     4  12  21  35  55  79 110 140 178 224 268 326
#     4  10  20  35  54  77 110 146 185 224 266 323
#     4  10  22  35  54  81 106 141 184 229 272 318
#     4  12  22  37  52  78 110 150 184 215 267 320
#     4  10  21  37  57  79 104 139 182 229 275 318
#     4  10  19  36  57  78 107 142 184 227 271 318
#
# _framework density 18.065045000000001
#
# number of rings (size 3 to 8) (size 9 to 14) (size 15 to 20)
#    0.000    1.250    3.750    3.000    1.750    3.500 
#    0.000    0.000    0.000    1.500    0.000    0.000 
#    0.000    5.000    0.000    0.000    0.000    0.000 
#
# Total GULP energy -793604.522764 kJ/mol
# GULP energy per Si atom -12400.070668 kJ/mol
# Density = 1.802393 g / cm^3
# Si number density = 18.065045 Si / 1000 Ang^3
#
#
#
# Elastic Constant Matrix: (Units=GPa)
#
#
# Indices 1 2 3 4 5 6 
#
# 1 57.3100 17.6798 36.7553 0.0000 0.0000 0.0000
# 2 17.6798 72.9742 32.4904 0.0000 0.0000 0.0000
# 3 36.7553 32.4904 104.8595 0.0000 0.0000 0.0000
# 4 0.0000 0.0000 0.0000 14.5050 0.0000 0.0000
# 5 0.0000 0.0000 0.0000 0.0000 20.8724 0.0000
# 6 0.0000 0.0000 0.0000 0.0000 0.0000 30.3902
#
#
#
# Elastic Compliance Matrix: (Units=1/GPa)
#
#
# Indices 1 2 3 4 5 6 
#
# 1 0.022832 -0.002283 -0.007296 0.000000 0.000000 0.000000
# 2 -0.002283 0.016125 -0.004196 0.000000 0.000000 0.000000
# 3 -0.007296 -0.004196 0.013394 0.000000 0.000000 0.000000
# 4 0.000000 0.000000 0.000000 0.068942 0.000000 0.000000
# 5 0.000000 0.000000 0.000000 0.000000 0.047910 0.000000
# 6 0.000000 0.000000 0.000000 0.000000 0.000000 0.032905
#
#
# Mechanical properties :
#
#
# Convention : Reuss Voigt Hill
#
# Bulk Modulus (GPa) = 40.32064 45.44387 42.88225
# Shear Modulus (GPa) = 21.01498 23.03472 22.02485
#
# Velocity S-wave (km/s) = 3.41441 3.57473 3.49549
# Velocity P-wave (km/s) = 6.15731 6.49989 6.33091
#
# Compressibility (1/GPa) = 0.02480120
#
# Stress axis : x y z
#
# Youngs Moduli (GPa) = 43.79739 62.01624 74.66072
#
# Poissons Ratio (x) = 0.14161 0.54470
# Poissons Ratio (y) = 0.10001 0.31326
# Poissons Ratio (z) = 0.31953 0.26021
#
# Static dielectric constant tensor:
#      x y z
#    x 3.182880 0.000000 0.000000 
#    y 0.000000 3.612490 0.000000 
#    z 0.000000 0.000000 3.357460 
# 
# 
# High freq. dielectric constant tensor:
#      x y z
#    x 1.680730 0.000000 0.000000 
#    y 0.000000 1.718730 0.000000 
#    z 0.000000 0.000000 1.682870 
# 
# From -- ./inp_files/19996.got.cif
#   From: 2010.03.12/outbox.cif.g09.slc.cpg/sg55_10_cif.got.tgz:19996.got - 2010.04.16 15:19:21.
