data_PCOD8225224
_publ_section_title
;
Structure prediction by ZEFSAII (Michael W. Deem and Ramdas Pophale) SiO2 
 PCOD8225224
Probable space group: P B A M
;
_chemical_formula_sum "Si O2"
_cell_formula_units_Z 48
_cell_length_a 8.858498
_cell_length_b 30.743633
_cell_length_c 8.759802
_cell_angle_alpha 90.000000
_cell_angle_beta 90.000000
_cell_angle_gamma 90.000000
_cell_volume 2385.665600
_symmetry_space_group_name_H-M "P B A M"
_symmetry_group_IT_number 55
_symmetry_cell_setting 'orthorhombic'
loop_
_space_group_symop_operation_xyz
x,y,z
-x,-y,z
1/2+x,1/2-y,-z
1/2-x,1/2+y,-z
-x,-y,-z
x,y,-z
1/2-x,1/2+y,z
1/2+x,1/2-y,z
loop_
_atom_site_type_symbol
_atom_site_label
_atom_site_fract_x
_atom_site_fract_y
_atom_site_fract_z
Si Si1 0.745927 0.875763 0.679198
Si Si2 0.413073 0.360259 0.678991
Si Si3 0.148790 0.945058 0.828328
Si Si4 0.417964 0.201508 0.820222
Si Si5 0.765738 0.723721 0.681100
Si Si6 0.794927 0.961691 0.173239
O O1 0.723884 0.867847 0.500000
O O2 0.627906 0.847291 0.774291
O O3 0.713206 0.926437 0.718610
O O4 0.914152 0.862620 0.735550
O O5 0.407638 0.360890 0.500000
O O6 0.314034 0.401772 0.732829
O O7 0.337805 0.316120 0.740118
O O8 0.972121 0.953762 0.820794
O O9 0.235348 0.988651 0.767961
O O10 0.201411 0.935925 0.000000
O O11 0.282960 0.233298 0.771007
O O12 0.562712 0.214783 0.723214
O O13 0.449751 0.204267 0.000000
O O14 0.752016 0.731358 0.500000
O O15 0.735950 0.956318 0.000000
#
# Coordination Sequence:
#
# PCOD8225224 Si02
#       6
#     8   8   8   8   8   8
#     4  10  19  33  54  81 111 146 183 223 271 323
#     4   9  19  33  53  80 109 141 180 221 265 318
#     4   8  14  25  45  72 106 143 178 218 266 313
#     4  12  25  40  59  84 110 140 180 227 273 325
#     4  11  23  41  61  81 109 145 180 221 273 330
#     4   8  14  26  44  72 107 143 180 220 264 313
#
# _framework density 20.120170000000002
#
# number of rings (size 3 to 8) (size 9 to 14) (size 15 to 20)
#    0.000    2.333    0.000    4.500    0.000    4.000 
#    0.000    3.333    0.000    1.000    0.000    7.000 
#    0.000    0.000    0.000    0.000    0.000    0.000 
#
# Total GULP energy -595049.354862 kJ/mol
# GULP energy per Si atom -12396.861560 kJ/mol
# Density = 2.007438 g / cm^3
# Si number density = 20.120170 Si / 1000 Ang^3
#
#
#
# Elastic Constant Matrix: (Units=GPa)
#
#
# Indices 1 2 3 4 5 6 
#
# 1 30.3763 -7.7443 5.8723 0.0000 0.0000 0.0000
# 2 -7.7443 65.7775 20.4293 0.0000 0.0000 0.0000
# 3 5.8723 20.4293 48.7397 0.0000 0.0000 0.0000
# 4 0.0000 0.0000 0.0000 40.2396 0.0000 0.0000
# 5 0.0000 0.0000 0.0000 0.0000 19.7830 0.0000
# 6 0.0000 0.0000 0.0000 0.0000 0.0000 21.9327
#
#
#
# Elastic Compliance Matrix: (Units=1/GPa)
#
#
# Indices 1 2 3 4 5 6 
#
# 1 0.035909 0.006405 -0.007011 0.000000 0.000000 0.000000
# 2 0.006405 0.018621 -0.008577 0.000000 0.000000 0.000000
# 3 -0.007011 -0.008577 0.024957 0.000000 0.000000 0.000000
# 4 0.000000 0.000000 0.000000 0.024851 0.000000 0.000000
# 5 0.000000 0.000000 0.000000 0.000000 0.050548 0.000000
# 6 0.000000 0.000000 0.000000 0.000000 0.000000 0.045594
#
#
# Mechanical properties :
#
#
# Convention : Reuss Voigt Hill
#
# Bulk Modulus (GPa) = 16.36094 20.22311 18.29203
# Shear Modulus (GPa) = 20.90140 24.81347 22.85743
#
# Velocity S-wave (km/s) = 3.22658 3.51559 3.37418
# Velocity P-wave (km/s) = 4.69365 5.15288 4.92862
#
# Compressibility (1/GPa) = 0.06112118
#
# Stress axis : x y z
#
# Youngs Moduli (GPa) = 27.84835 53.70391 40.06928
#
# Poissons Ratio (x) = -0.34399 0.28093
# Poissons Ratio (y) = -0.17838 0.34366
# Poissons Ratio (z) = 0.19525 0.46060
#
# Static dielectric constant tensor:
#      x y z
#    x 3.369110 0.000000 0.000000 
#    y 0.000000 4.331230 0.000000 
#    z 0.000000 0.000000 3.554110 
# 
# 
# High freq. dielectric constant tensor:
#      x y z
#    x 1.743040 0.000000 0.000000 
#    y 0.000000 1.807720 0.000000 
#    z 0.000000 0.000000 1.775670 
# 
# From -- ./inp_files/2835.got.cif
#   From: 2010.03.12/outbox.cif.g09.slc.cpg/sg55_2_cif.got.tgz:2835.got - 2010.04.16 15:19:21.
