data_PCOD8225728
_publ_section_title
;
Structure prediction by ZEFSAII (Michael W. Deem and Ramdas Pophale) SiO2 
 PCOD8225728
Probable space group: P B A M
;
_chemical_formula_sum "Si O2"
_cell_formula_units_Z 48
_cell_length_a 18.445333
_cell_length_b 13.973392
_cell_length_c 8.880655
_cell_angle_alpha 90.000000
_cell_angle_beta 90.000000
_cell_angle_gamma 90.000000
_cell_volume 2288.934375
_symmetry_space_group_name_H-M "P B A M"
_symmetry_group_IT_number 55
_symmetry_cell_setting 'orthorhombic'
loop_
_space_group_symop_operation_xyz
x,y,z
-x,-y,z
1/2+x,1/2-y,-z
1/2-x,1/2+y,-z
-x,-y,-z
x,y,-z
1/2-x,1/2+y,z
1/2+x,1/2-y,z
loop_
_atom_site_type_symbol
_atom_site_label
_atom_site_fract_x
_atom_site_fract_y
_atom_site_fract_z
Si Si1 0.036638 0.360817 0.321754
Si Si2 0.848041 0.130372 0.323019
Si Si3 0.855140 0.935670 0.822402
Si Si4 0.765575 0.322078 0.321347
Si Si5 0.108584 0.545021 0.678491
Si Si6 0.515216 0.348213 0.677048
O O1 0.028153 0.359973 0.500000
O O2 0.102856 0.432177 0.275532
O O3 0.049410 0.252944 0.267305
O O4 0.961358 0.400701 0.254124
O O5 0.840663 0.112562 0.500000
O O6 0.797186 0.218827 0.272914
O O7 0.931061 0.151650 0.277423
O O8 0.821333 0.035186 0.237841
O O9 0.810634 0.844700 0.757878
O O10 0.938312 0.928755 0.763305
O O11 0.853531 0.934360 0.000000
O O12 0.754706 0.325811 0.500000
O O13 0.819389 0.405035 0.259326
O O14 0.108847 0.556652 0.500000
O O15 0.524580 0.366243 0.500000
#
# Coordination Sequence:
#
# PCOD8225728 Si02
#       6
#     8   8   8   8   8   8
#     4   8  13  24  50  88 120 140 169 227 296 348
#     4  10  21  40  66  90 113 149 201 259 307 348
#     4  12  27  41  55  83 123 165 201 238 293 363
#     4  10  20  38  63  89 116 152 199 250 302 354
#     4   8  13  25  50  86 119 142 173 225 291 353
#     4  10  19  36  62  91 118 151 199 254 299 345
#
# _framework density 20.970457
#
# number of rings (size 3 to 8) (size 9 to 14) (size 15 to 20)
#    0.000    2.333    1.667    3.000    0.000    4.667 
#    0.000    3.333    0.000    0.000    0.000    2.333 
#    0.000    0.000    0.000    0.000    0.000    0.000 
#
# Total GULP energy -594927.430084 kJ/mol
# GULP energy per Si atom -12394.321460 kJ/mol
# Density = 2.092273 g / cm^3
# Si number density = 20.970457 Si / 1000 Ang^3
#
#
#
# Elastic Constant Matrix: (Units=GPa)
#
#
# Indices 1 2 3 4 5 6 
#
# 1 85.6467 36.7291 36.2035 0.0000 0.0000 0.0000
# 2 36.7291 116.6199 39.1200 0.0000 0.0000 0.0000
# 3 36.2035 39.1200 57.4448 0.0000 0.0000 0.0000
# 4 0.0000 0.0000 0.0000 11.8359 0.0000 0.0000
# 5 0.0000 0.0000 0.0000 0.0000 4.4476 0.0000
# 6 0.0000 0.0000 0.0000 0.0000 0.0000 35.0056
#
#
#
# Elastic Compliance Matrix: (Units=1/GPa)
#
#
# Indices 1 2 3 4 5 6 
#
# 1 0.016337 -0.002192 -0.008803 0.000000 0.000000 0.000000
# 2 -0.002192 0.011408 -0.006387 0.000000 0.000000 0.000000
# 3 -0.008803 -0.006387 0.027306 0.000000 0.000000 0.000000
# 4 0.000000 0.000000 0.000000 0.084489 0.000000 0.000000
# 5 0.000000 0.000000 0.000000 0.000000 0.224839 0.000000
# 6 0.000000 0.000000 0.000000 0.000000 0.000000 0.028567
#
#
# Mechanical properties :
#
#
# Convention : Reuss Voigt Hill
#
# Bulk Modulus (GPa) = 49.29640 53.75741 51.52690
# Shear Modulus (GPa) = 11.50822 20.10175 15.80498
#
# Velocity S-wave (km/s) = 2.34515 3.09944 2.74830
# Velocity P-wave (km/s) = 5.55802 6.20477 5.89028
#
# Compressibility (1/GPa) = 0.02028546
#
# Stress axis : x y z
#
# Youngs Moduli (GPa) = 61.20987 87.65867 36.62238
#
# Poissons Ratio (x) = 0.19218 0.32240
# Poissons Ratio (y) = 0.13419 0.23391
# Poissons Ratio (z) = 0.53885 0.55989
#
# Static dielectric constant tensor:
#      x y z
#    x 3.819150 0.000000 0.000000 
#    y 0.000000 4.220000 0.000000 
#    z 0.000000 0.000000 3.090740 
# 
# 
# High freq. dielectric constant tensor:
#      x y z
#    x 1.818790 0.000000 0.000000 
#    y 0.000000 1.840170 0.000000 
#    z 0.000000 0.000000 1.750170 
# 
# From -- ./inp_files/7431.got.cif
#   From: 2010.03.12/outbox.cif.g09.slc.cpg/sg55_4_cif.got.tgz:7431.got - 2010.04.16 15:19:21.
