data_PCOD8225465
_publ_section_title
;
Structure prediction by ZEFSAII (Michael W. Deem and Ramdas Pophale) SiO2 
 PCOD8225465
Probable space group: P B A M
;
_chemical_formula_sum "Si O2"
_cell_formula_units_Z 48
_cell_length_a 18.848300
_cell_length_b 15.098890
_cell_length_c 8.646877
_cell_angle_alpha 90.000000
_cell_angle_beta 90.000000
_cell_angle_gamma 90.000000
_cell_volume 2460.800963
_symmetry_space_group_name_H-M "P B A M"
_symmetry_group_IT_number 55
_symmetry_cell_setting 'orthorhombic'
loop_
_space_group_symop_operation_xyz
x,y,z
-x,-y,z
1/2+x,1/2-y,-z
1/2-x,1/2+y,-z
-x,-y,-z
x,y,-z
1/2-x,1/2+y,z
1/2+x,1/2-y,z
loop_
_atom_site_type_symbol
_atom_site_label
_atom_site_fract_x
_atom_site_fract_y
_atom_site_fract_z
Si Si1 0.082533 0.756358 0.816623
Si Si2 0.261220 0.296769 0.183389
Si Si3 0.979774 0.902184 0.318829
Si Si4 0.435112 0.058410 0.184459
Si Si5 0.286694 0.985317 0.816409
Si Si6 0.171848 0.128483 0.817611
O O1 0.160757 0.776526 0.748434
O O2 0.057112 0.659729 0.757423
O O3 0.028592 0.830847 0.764030
O O4 0.085499 0.756150 0.000000
O O5 0.232068 0.388967 0.251873
O O6 0.206257 0.221238 0.232173
O O7 0.267124 0.301860 0.000000
O O8 0.992374 0.894253 0.500000
O O9 0.899078 0.882620 0.278451
O O10 0.000000 0.000000 0.258332
O O11 0.500000 0.000000 0.250417
O O12 0.362006 0.017684 0.250823
O O13 0.434517 0.055620 0.000000
O O14 0.225145 0.051747 0.764708
O O15 0.291663 0.982631 0.000000
O O16 0.155482 0.124552 0.000000
#
# Coordination Sequence:
#
# PCOD8225465 Si02
#       6
#     8   8   8   8   8   8
#     4  10  19  35  58  86 113 142 185 230 274 330
#     4   9  17  29  51  83 113 138 172 224 278 323
#     4  11  25  41  55  76 110 150 189 230 280 333
#     4   9  17  28  47  81 118 147 175 216 274 333
#     4   9  16  28  48  78 114 142 170 218 275 325
#     4  10  19  34  57  85 110 138 183 231 274 325
#
# _framework density 19.505845000000001
#
# number of rings (size 3 to 8) (size 9 to 14) (size 15 to 20)
#    0.000    2.333    1.667    1.500    2.333    2.667 
#    0.000    0.833    0.000    1.500    0.000    0.000 
#    0.000    0.000    0.000    0.000    0.000    0.000 
#
# Total GULP energy -595195.560948 kJ/mol
# GULP energy per Si atom -12399.907520 kJ/mol
# Density = 1.946145 g / cm^3
# Si number density = 19.505845 Si / 1000 Ang^3
#
#
#
# Elastic Constant Matrix: (Units=GPa)
#
#
# Indices 1 2 3 4 5 6 
#
# 1 143.6926 80.0738 2.0827 0.0000 0.0000 0.0000
# 2 80.0738 199.6630 8.3037 0.0000 0.0000 0.0000
# 3 2.0827 8.3037 4.3570 0.0000 0.0000 0.0000
# 4 0.0000 0.0000 0.0000 10.6714 0.0000 0.0000
# 5 0.0000 0.0000 0.0000 0.0000 2.0249 0.0000
# 6 0.0000 0.0000 0.0000 0.0000 0.0000 39.6646
#
#
#
# Elastic Compliance Matrix: (Units=1/GPa)
#
#
# Indices 1 2 3 4 5 6 
#
# 1 0.008993 -0.003723 0.002797 0.000000 0.000000 0.000000
# 2 -0.003723 0.006981 -0.011525 0.000000 0.000000 0.000000
# 3 0.002797 -0.011525 0.250144 0.000000 0.000000 0.000000
# 4 0.000000 0.000000 0.000000 0.093709 0.000000 0.000000
# 5 0.000000 0.000000 0.000000 0.000000 0.493862 0.000000
# 6 0.000000 0.000000 0.000000 0.000000 0.000000 0.025211
#
#
# Mechanical properties :
#
#
# Convention : Reuss Voigt Hill
#
# Bulk Modulus (GPa) = 4.14565 58.73700 31.44132
# Shear Modulus (GPa) = 5.08022 27.62233 16.35128
#
# Velocity S-wave (km/s) = 1.61559 3.76720 2.89844
# Velocity P-wave (km/s) = 2.36857 7.00716 5.23022
#
# Compressibility (1/GPa) = 0.24121644
#
# Stress axis : x y z
#
# Youngs Moduli (GPa) = 111.19156 143.24858 3.99769
#
# Poissons Ratio (x) = 0.53333 -0.01118
# Poissons Ratio (y) = 0.41398 0.04607
# Poissons Ratio (z) = -0.31097 1.65091
#
# Static dielectric constant tensor:
#      x y z
#    x 3.729570 0.000000 0.000000 
#    y 0.000000 3.936290 0.000000 
#    z 0.000000 0.000000 2.900470 
# 
# 
# High freq. dielectric constant tensor:
#      x y z
#    x 1.774840 0.000000 0.000000 
#    y 0.000000 1.781850 0.000000 
#    z 0.000000 0.000000 1.693630 
# 
# From -- ./inp_files/5573.got.cif
#   From: 2010.03.12/outbox.cif.g09.slc.cpg/sg55_3_cif.got.tgz:5573.got - 2010.04.16 15:19:21.
