data_PCOD8225530
_publ_section_title
;
Structure prediction by ZEFSAII (Michael W. Deem and Ramdas Pophale) SiO2 
 PCOD8225530
Probable space group: P B A M
;
_chemical_formula_sum "Si O2"
_cell_formula_units_Z 64
_cell_length_a 19.053631
_cell_length_b 22.964987
_cell_length_c 8.581502
_cell_angle_alpha 90.000000
_cell_angle_beta 90.000000
_cell_angle_gamma 90.000000
_cell_volume 3754.976836
_symmetry_space_group_name_H-M "P B A M"
_symmetry_group_IT_number 55
_symmetry_cell_setting 'orthorhombic'
loop_
_space_group_symop_operation_xyz
x,y,z
-x,-y,z
1/2+x,1/2-y,-z
1/2-x,1/2+y,-z
-x,-y,-z
x,y,-z
1/2-x,1/2+y,z
1/2+x,1/2-y,z
loop_
_atom_site_type_symbol
_atom_site_label
_atom_site_fract_x
_atom_site_fract_y
_atom_site_fract_z
Si Si1 0.490388 0.376105 0.818739
Si Si2 0.849458 0.057374 0.818363
Si Si3 0.161434 0.738497 0.317554
Si Si4 0.492495 0.250661 0.683141
Si Si5 0.245326 0.850171 0.683473
Si Si6 0.704151 0.323450 0.680751
Si Si7 0.868853 0.714691 0.180923
Si Si8 0.880073 0.935593 0.319633
O O1 0.416741 0.404487 0.769928
O O2 0.503704 0.318905 0.716763
O O3 0.551143 0.422658 0.782340
O O4 0.491737 0.359343 0.000000
O O5 0.778996 0.091622 0.771323
O O6 0.849167 0.997802 0.723307
O O7 0.849611 0.042770 0.000000
O O8 0.152189 0.746383 0.500000
O O9 0.083398 0.730271 0.248272
O O10 0.196752 0.797472 0.252773
O O11 0.213028 0.684385 0.276802
O O12 0.499977 0.240335 0.500000
O O13 0.549894 0.210959 0.769140
O O14 0.238585 0.859627 0.500000
O O15 0.325443 0.834641 0.726591
O O16 0.692258 0.306390 0.500000
O O17 0.657538 0.279732 0.781812
O O18 0.681257 0.388981 0.717495
O O19 0.861051 0.701739 0.000000
O O20 0.901520 0.933674 0.500000
#
# Coordination Sequence:
#
# PCOD8225530 Si02
#       8
#     8   8   8   8   8   8   8   8
#     4  11  22  34  47  69 103 138 172 213 252 293
#     4  11  23  36  50  71 103 137 173 214 257 300
#     4   8  16  30  51  73  96 124 161 208 251 293
#     4  11  19  31  51  75 100 134 169 203 248 304
#     4  10  19  35  54  73  97 130 172 212 250 299
#     4   9  18  34  51  72  97 129 170 213 251 296
#     4  11  21  32  49  74 103 133 163 205 257 302
#     4  11  22  34  52  72  98 137 180 214 248 299
#
# _framework density 17.044046000000002
#
# number of rings (size 3 to 8) (size 9 to 14) (size 15 to 20)
#    0.000    1.750    2.500    4.125    0.000    3.500 
#    0.000    0.625    0.000    0.000    0.000    0.875 
#    0.000    7.000    0.000    0.000    0.000    0.000 
#
# Total GULP energy -793694.109185 kJ/mol
# GULP energy per Si atom -12401.470456 kJ/mol
# Density = 1.700525 g / cm^3
# Si number density = 17.044046 Si / 1000 Ang^3
#
#
#
# Elastic Constant Matrix: (Units=GPa)
#
#
# Indices 1 2 3 4 5 6 
#
# 1 98.0616 25.1541 21.6627 0.0000 0.0000 0.0000
# 2 25.1541 51.2456 16.0834 0.0000 0.0000 0.0000
# 3 21.6627 16.0834 48.5229 0.0000 0.0000 0.0000
# 4 0.0000 0.0000 0.0000 20.2739 0.0000 0.0000
# 5 0.0000 0.0000 0.0000 0.0000 20.9470 0.0000
# 6 0.0000 0.0000 0.0000 0.0000 0.0000 23.7971
#
#
#
# Elastic Compliance Matrix: (Units=1/GPa)
#
#
# Indices 1 2 3 4 5 6 
#
# 1 0.012292 -0.004812 -0.003893 0.000000 0.000000 0.000000
# 2 -0.004812 0.023663 -0.005695 0.000000 0.000000 0.000000
# 3 -0.003893 -0.005695 0.024234 0.000000 0.000000 0.000000
# 4 0.000000 0.000000 0.000000 0.049324 0.000000 0.000000
# 5 0.000000 0.000000 0.000000 0.000000 0.047740 0.000000
# 6 0.000000 0.000000 0.000000 0.000000 0.000000 0.042022
#
#
# Mechanical properties :
#
#
# Convention : Reuss Voigt Hill
#
# Bulk Modulus (GPa) = 31.85717 35.95893 33.90805
# Shear Modulus (GPa) = 20.96100 21.99894 21.47997
#
# Velocity S-wave (km/s) = 3.51067 3.59654 3.55387
# Velocity P-wave (km/s) = 5.92999 6.19599 6.06445
#
# Compressibility (1/GPa) = 0.03139011
#
# Stress axis : x y z
#
# Youngs Moduli (GPa) = 81.35447 42.25969 41.26360
#
# Poissons Ratio (x) = 0.20334 0.16063
# Poissons Ratio (y) = 0.39146 0.23500
# Poissons Ratio (z) = 0.31669 0.24068
#
# Static dielectric constant tensor:
#      x y z
#    x 3.471320 0.000000 0.000000 
#    y 0.000000 2.949870 0.000000 
#    z 0.000000 0.000000 3.099550 
# 
# 
# High freq. dielectric constant tensor:
#      x y z
#    x 1.658210 0.000000 0.000000 
#    y 0.000000 1.623440 0.000000 
#    z 0.000000 0.000000 1.658990 
# 
# From -- ./inp_files/9114.got.cif
#   From: 2010.03.12/outbox.cif.g09.slc.cpg/sg55_5_cif.got.tgz:9114.got - 2010.04.16 15:19:21.
