data_PCOD8225867
_publ_section_title
;
Structure prediction by ZEFSAII (Michael W. Deem and Ramdas Pophale) SiO2 
 PCOD8225867
Probable space group: P B A M
;
_chemical_formula_sum "Si O2"
_cell_formula_units_Z 56
_cell_length_a 9.166100
_cell_length_b 13.862928
_cell_length_c 23.459452
_cell_angle_alpha 90.000000
_cell_angle_beta 90.000000
_cell_angle_gamma 90.000000
_cell_volume 2980.968739
_symmetry_space_group_name_H-M "P B A M"
_symmetry_group_IT_number 55
_symmetry_cell_setting 'orthorhombic'
loop_
_space_group_symop_operation_xyz
x,y,z
-x,-y,z
1/2+x,1/2-y,-z
1/2-x,1/2+y,-z
-x,-y,-z
x,y,-z
1/2-x,1/2+y,z
1/2+x,1/2-y,z
loop_
_atom_site_type_symbol
_atom_site_label
_atom_site_fract_x
_atom_site_fract_y
_atom_site_fract_z
Si Si1 0.277511 0.626573 0.651626
Si Si2 0.168569 0.972290 0.563904
Si Si3 0.106405 0.818237 0.649618
Si Si4 0.661830 0.037895 0.144082
Si Si5 0.563504 0.199303 0.935463
Si Si6 0.251140 0.624261 0.064235
Si Si7 0.338834 0.472097 0.256521
O O1 0.245421 0.555772 0.598122
O O2 0.152435 0.707018 0.654299
O O3 0.432093 0.679646 0.644351
O O4 0.272631 0.562766 0.708975
O O5 0.231987 0.964761 0.500000
O O6 0.182575 0.868485 0.594716
O O7 0.000000 0.000000 0.564391
O O8 0.156379 0.876815 0.705049
O O9 0.656406 0.135965 0.108450
O O10 0.500000 0.000000 0.154669
O O11 0.758100 0.962684 0.108333
O O12 0.737229 0.055806 0.204131
O O13 0.391642 0.189759 0.924827
O O14 0.606618 0.310421 0.925452
O O15 0.604215 0.167297 0.000000
O O16 0.247972 0.582380 0.000000
O O17 0.500000 0.500000 0.235146
#
# Coordination Sequence:
#
# PCOD8225867 Si02
#       7
#     8   8   8   8   8   8   8
#     4   9  18  33  52  72  96 129 164 197 237 282
#     4   8  15  30  51  74 101 131 161 193 234 287
#     4   9  18  33  52  72  96 129 164 197 237 282
#     4  10  20  33  51  73  95 123 159 198 240 282
#     4   9  18  33  51  71  96 124 154 191 237 288
#     4   9  18  33  51  71  96 124 154 191 237 288
#     4   9  20  36  49  66  96 130 162 196 236 285
#
# _framework density 18.78584
#
# number of rings (size 3 to 8) (size 9 to 14) (size 15 to 20)
#    0.000    3.000    0.000    2.143    0.000    5.714 
#    0.000    7.857    0.000    5.143    0.000    0.000 
#    0.000    0.000    0.000    0.000    0.000    0.000 
#
# Total GULP energy -694304.288277 kJ/mol
# GULP energy per Si atom -12398.290862 kJ/mol
# Density = 1.874308 g / cm^3
# Si number density = 18.785840 Si / 1000 Ang^3
#
#
#
# Elastic Constant Matrix: (Units=GPa)
#
#
# Indices 1 2 3 4 5 6 
#
# 1 14.2599 -4.0337 10.7535 0.0000 0.0000 0.0000
# 2 -4.0337 33.0688 4.1021 0.0000 0.0000 0.0000
# 3 10.7535 4.1021 91.2149 0.0000 0.0000 0.0000
# 4 0.0000 0.0000 0.0000 -5.3235 0.0000 0.0000
# 5 0.0000 0.0000 0.0000 0.0000 20.5146 0.0000
# 6 0.0000 0.0000 0.0000 0.0000 0.0000 31.7239
#
#
#
# Elastic Compliance Matrix: (Units=1/GPa)
#
#
# Indices 1 2 3 4 5 6 
#
# 1 0.080830 0.011104 -0.010029 0.000000 0.000000 0.000000
# 2 0.011104 0.031935 -0.002745 0.000000 0.000000 0.000000
# 3 -0.010029 -0.002745 0.012269 0.000000 0.000000 0.000000
# 4 0.000000 0.000000 0.000000 -0.187848 0.000000 0.000000
# 5 0.000000 0.000000 0.000000 0.000000 0.048746 0.000000
# 6 0.000000 0.000000 0.000000 0.000000 0.000000 0.031522
#
#
# Mechanical properties :
#
#
# Convention : Reuss Voigt Hill
#
# Bulk Modulus (GPa) = 8.21734 17.79857 13.00796
# Shear Modulus (GPa) = 81.48816 17.89779 49.69298
#
# Velocity S-wave (km/s) = 6.59330 3.08998 5.14877
# Velocity P-wave (km/s) = 7.89594 4.71441 6.50275
#
# Compressibility (1/GPa) = 0.12169381
#
# Stress axis : x y z
#
# Youngs Moduli (GPa) = 12.37163 31.31365 81.50719
#
# Poissons Ratio (x) = -0.34770 0.81740
# Poissons Ratio (y) = -0.13737 0.22375
# Poissons Ratio (z) = 0.12407 0.08596
#
# Static dielectric constant tensor:
#      x y z
#    x 3.176830 0.000000 0.000000 
#    y 0.000000 3.299900 0.000000 
#    z 0.000000 0.000000 3.533770 
# 
# 
# High freq. dielectric constant tensor:
#      x y z
#    x 1.707840 0.000000 0.000000 
#    y 0.000000 1.724010 0.000000 
#    z 0.000000 0.000000 1.730090 
# 
# From -- ./inp_files/22841.got.cif
#   From: 2010.03.12/outbox.cif.g09.slc.cpg/sg55_12_cif.got.tgz:22841.got - 2010.04.16 15:19:21.
