data_PCOD8225043
_publ_section_title
;
Structure prediction by ZEFSAII (Michael W. Deem and Ramdas Pophale) SiO2 
 PCOD8225043
Probable space group: P B A M
;
_chemical_formula_sum "Si O2"
_cell_formula_units_Z 56
_cell_length_a 20.086642
_cell_length_b 16.817012
_cell_length_c 8.760682
_cell_angle_alpha 90.000000
_cell_angle_beta 90.000000
_cell_angle_gamma 90.000000
_cell_volume 2959.334722
_symmetry_space_group_name_H-M "P B A M"
_symmetry_group_IT_number 55
_symmetry_cell_setting 'orthorhombic'
loop_
_space_group_symop_operation_xyz
x,y,z
-x,-y,z
1/2+x,1/2-y,-z
1/2-x,1/2+y,-z
-x,-y,-z
x,y,-z
1/2-x,1/2+y,z
1/2+x,1/2-y,z
loop_
_atom_site_type_symbol
_atom_site_label
_atom_site_fract_x
_atom_site_fract_y
_atom_site_fract_z
Si Si1 0.129307 0.646876 0.817651
Si Si2 0.260261 0.258976 0.177095
Si Si3 0.515909 0.735814 0.181774
Si Si4 0.447492 0.433194 0.320653
Si Si5 0.165359 0.476598 0.818323
Si Si6 0.879417 0.691760 0.182422
Si Si7 0.309994 0.432605 0.823302
O O1 0.197083 0.686879 0.752465
O O2 0.066566 0.696742 0.756488
O O3 0.128361 0.555957 0.757922
O O4 0.129264 0.649061 0.000000
O O5 0.186375 0.264274 0.249562
O O6 0.302765 0.338538 0.202247
O O7 0.249508 0.243668 0.000000
O O8 0.533774 0.649551 0.242473
O O9 0.443933 0.762947 0.245478
O O10 0.517390 0.732053 0.000000
O O11 0.500000 0.500000 0.267847
O O12 0.449415 0.420513 0.500000
O O13 0.374017 0.462341 0.270724
O O14 0.123725 0.400108 0.760091
O O15 0.242407 0.474617 0.762035
O O16 0.167929 0.474609 0.000000
O O17 0.879444 0.691980 0.000000
O O18 0.322470 0.453022 0.000000
#
# Coordination Sequence:
#
# PCOD8225043 Si02
#       7
#     8   8   8   8   8   8   8
#     4   9  15  24  43  73 106 134 164 203 250 295
#     4   8  13  24  43  67  99 130 159 205 252 285
#     4  10  19  32  52  77 102 134 173 209 244 300
#     4  11  24  38  51  70 100 135 167 212 269 308
#     4   8  15  26  45  78 110 134 159 202 259 297
#     4   8  15  26  42  70 107 137 163 202 250 296
#     4   9  16  31  53  74  96 126 167 207 246 300
#
# _framework density 18.923172000000001
#
# number of rings (size 3 to 8) (size 9 to 14) (size 15 to 20)
#    0.000    3.000    1.429    2.143    0.000    2.857 
#    0.000    5.714    0.000    4.286    0.000    1.000 
#    0.000    0.000    0.000    0.000    0.000    0.000 
#
# Total GULP energy -693932.486929 kJ/mol
# GULP energy per Si atom -12391.651552 kJ/mol
# Density = 1.888010 g / cm^3
# Si number density = 18.923172 Si / 1000 Ang^3
#
#
#
# Elastic Constant Matrix: (Units=GPa)
#
#
# Indices 1 2 3 4 5 6 
#
# 1 131.6558 53.7541 16.5793 0.0000 0.0000 0.0000
# 2 53.7541 81.7050 12.9692 0.0000 0.0000 0.0000
# 3 16.5793 12.9692 14.6542 0.0000 0.0000 0.0000
# 4 0.0000 0.0000 0.0000 5.4873 0.0000 0.0000
# 5 0.0000 0.0000 0.0000 0.0000 6.6480 0.0000
# 6 0.0000 0.0000 0.0000 0.0000 0.0000 30.0058
#
#
#
# Elastic Compliance Matrix: (Units=1/GPa)
#
#
# Indices 1 2 3 4 5 6 
#
# 1 0.010971 -0.006105 -0.007009 0.000000 0.000000 0.000000
# 2 -0.006105 0.017637 -0.008702 0.000000 0.000000 0.000000
# 3 -0.007009 -0.008702 0.083870 0.000000 0.000000 0.000000
# 4 0.000000 0.000000 0.000000 0.182238 0.000000 0.000000
# 5 0.000000 0.000000 0.000000 0.000000 0.150422 0.000000
# 6 0.000000 0.000000 0.000000 0.000000 0.000000 0.033327
#
#
# Mechanical properties :
#
#
# Convention : Reuss Voigt Hill
#
# Bulk Modulus (GPa) = 14.52504 43.84668 29.18586
# Shear Modulus (GPa) = 9.17355 18.07573 13.62464
#
# Velocity S-wave (km/s) = 2.20416 3.09401 2.68619
# Velocity P-wave (km/s) = 3.76433 5.99876 5.00776
#
# Compressibility (1/GPa) = 0.06884665
#
# Stress axis : x y z
#
# Youngs Moduli (GPa) = 91.15007 56.69868 11.92315
#
# Poissons Ratio (x) = 0.34616 0.08357
# Poissons Ratio (y) = 0.55650 0.10375
# Poissons Ratio (z) = 0.63886 0.49338
#
# Static dielectric constant tensor:
#      x y z
#    x 3.976520 0.000000 0.000000 
#    y 0.000000 3.638290 0.000000 
#    z 0.000000 0.000000 2.785040 
# 
# 
# High freq. dielectric constant tensor:
#      x y z
#    x 1.749020 0.000000 0.000000 
#    y 0.000000 1.735590 0.000000 
#    z 0.000000 0.000000 1.660800 
# 
# From -- ./inp_files/8905.got.cif
#   From: 2010.03.12/outbox.cif.g09.slc.cpg/sg55_5_cif.got.tgz:8905.got - 2010.04.16 15:19:21.
