data_PCOD8225545
_publ_section_title
;
Structure prediction by ZEFSAII (Michael W. Deem and Ramdas Pophale) SiO2 
 PCOD8225545
Probable space group: P B A M
;
_chemical_formula_sum "Si O2"
_cell_formula_units_Z 56
_cell_length_a 19.114161
_cell_length_b 19.149872
_cell_length_c 8.523519
_cell_angle_alpha 90.000000
_cell_angle_beta 90.000000
_cell_angle_gamma 90.000000
_cell_volume 3119.895508
_symmetry_space_group_name_H-M "P B A M"
_symmetry_group_IT_number 55
_symmetry_cell_setting 'orthorhombic'
loop_
_space_group_symop_operation_xyz
x,y,z
-x,-y,z
1/2+x,1/2-y,-z
1/2-x,1/2+y,-z
-x,-y,-z
x,y,-z
1/2-x,1/2+y,z
1/2+x,1/2-y,z
loop_
_atom_site_type_symbol
_atom_site_label
_atom_site_fract_x
_atom_site_fract_y
_atom_site_fract_z
Si Si1 0.943025 0.558225 0.182765
Si Si2 0.748296 0.375070 0.683782
Si Si3 0.739331 0.657770 0.682538
Si Si4 0.978825 0.705596 0.684124
Si Si5 0.866611 0.272857 0.684537
Si Si6 0.787111 0.518622 0.818557
Si Si7 0.154056 0.234542 0.182564
O O1 0.959100 0.625574 0.285691
O O2 0.867421 0.529142 0.232602
O O3 0.000000 0.500000 0.223303
O O4 0.944058 0.579164 0.000000
O O5 0.738601 0.361955 0.500000
O O6 0.817495 0.335392 0.749101
O O7 0.753627 0.456564 0.718613
O O8 0.680825 0.342545 0.771131
O O9 0.741484 0.638182 0.500000
O O10 0.667880 0.698286 0.728068
O O11 0.742283 0.587728 0.784141
O O12 0.805142 0.706843 0.719120
O O13 0.975445 0.721104 0.500000
O O14 0.927325 0.758576 0.773500
O O15 0.055893 0.720864 0.756036
O O16 0.871942 0.281939 0.500000
O O17 0.781547 0.499115 0.000000
O O18 0.165641 0.248962 0.000000
#
# Coordination Sequence:
#
# PCOD8225545 Si02
#       7
#     8   8   8   8   8   8   8
#     4  10  21  34  48  73 113 150 177 211 261 321
#     4  10  20  36  56  78 105 140 182 223 265 317
#     4  10  19  35  56  77 103 140 183 223 264 316
#     4  11  20  33  54  78 105 140 179 220 265 316
#     4   8  18  34  53  78 105 134 177 225 263 311
#     4  11  21  33  51  78 111 143 177 218 267 317
#     4  11  21  35  53  77 107 139 178 223 269 320
#
# _framework density 17.949318999999999
#
# number of rings (size 3 to 8) (size 9 to 14) (size 15 to 20)
#    0.000    1.857    1.429    4.714    0.000    0.857 
#    0.000    7.857    0.000    0.857    0.000    6.000 
#    0.000    0.000    0.000    0.000    0.000    0.000 
#
# Total GULP energy -694564.490652 kJ/mol
# GULP energy per Si atom -12402.937333 kJ/mol
# Density = 1.790847 g / cm^3
# Si number density = 17.949319 Si / 1000 Ang^3
#
#
#
# Elastic Constant Matrix: (Units=GPa)
#
#
# Indices 1 2 3 4 5 6 
#
# 1 75.3936 40.2475 21.2697 0.0000 0.0000 0.0000
# 2 40.2475 95.4131 12.2876 0.0000 0.0000 0.0000
# 3 21.2697 12.2876 47.4266 0.0000 0.0000 0.0000
# 4 0.0000 0.0000 0.0000 28.6433 0.0000 0.0000
# 5 0.0000 0.0000 0.0000 0.0000 21.5934 0.0000
# 6 0.0000 0.0000 0.0000 0.0000 0.0000 27.5699
#
#
#
# Elastic Compliance Matrix: (Units=1/GPa)
#
#
# Indices 1 2 3 4 5 6 
#
# 1 0.018950 -0.007137 -0.006649 0.000000 0.000000 0.000000
# 2 -0.007137 0.013531 -0.000305 0.000000 0.000000 0.000000
# 3 -0.006649 -0.000305 0.024146 0.000000 0.000000 0.000000
# 4 0.000000 0.000000 0.000000 0.034912 0.000000 0.000000
# 5 0.000000 0.000000 0.000000 0.000000 0.046310 0.000000
# 6 0.000000 0.000000 0.000000 0.000000 0.000000 0.036271
#
#
# Mechanical properties :
#
#
# Convention : Reuss Voigt Hill
#
# Bulk Modulus (GPa) = 35.15671 40.64919 37.90295
# Shear Modulus (GPa) = 23.60895 25.18989 24.39942
#
# Velocity S-wave (km/s) = 3.63066 3.75025 3.69094
# Velocity P-wave (km/s) = 6.09957 6.43804 6.27109
#
# Compressibility (1/GPa) = 0.02844407
#
# Stress axis : x y z
#
# Youngs Moduli (GPa) = 52.77162 73.90668 41.41434
#
# Poissons Ratio (x) = 0.52748 0.27538
# Poissons Ratio (y) = 0.37663 0.01262
# Poissons Ratio (z) = 0.35090 0.02253
#
# Static dielectric constant tensor:
#      x y z
#    x 3.562100 0.000000 0.000000 
#    y 0.000000 3.227260 0.000000 
#    z 0.000000 0.000000 3.202170 
# 
# 
# High freq. dielectric constant tensor:
#      x y z
#    x 1.686920 0.000000 0.000000 
#    y 0.000000 1.685080 0.000000 
#    z 0.000000 0.000000 1.693440 
# 
# From -- ./inp_files/7850.got.cif
#   From: 2010.03.12/outbox.cif.g09.slc.cpg/sg55_4_cif.got.tgz:7850.got - 2010.04.16 15:19:21.
