data_PCOD8225845
_publ_section_title
;
Structure prediction by ZEFSAII (Michael W. Deem and Ramdas Pophale) SiO2 
 PCOD8225845
Probable space group: P B A M
;
_chemical_formula_sum "Si O2"
_cell_formula_units_Z 64
_cell_length_a 14.160579
_cell_length_b 28.500611
_cell_length_c 9.123755
_cell_angle_alpha 90.000000
_cell_angle_beta 90.000000
_cell_angle_gamma 90.000000
_cell_volume 3682.212063
_symmetry_space_group_name_H-M "P B A M"
_symmetry_group_IT_number 55
_symmetry_cell_setting 'orthorhombic'
loop_
_space_group_symop_operation_xyz
x,y,z
-x,-y,z
1/2+x,1/2-y,-z
1/2-x,1/2+y,-z
-x,-y,-z
x,y,-z
1/2-x,1/2+y,z
1/2+x,1/2-y,z
loop_
_atom_site_type_symbol
_atom_site_label
_atom_site_fract_x
_atom_site_fract_y
_atom_site_fract_z
Si Si1 0.006170 0.195610 0.827624
Si Si2 0.352542 0.380149 0.171905
Si Si3 0.160672 0.624107 0.172235
Si Si4 0.141663 0.372296 0.174735
Si Si5 0.989713 0.300722 0.173792
Si Si6 0.001770 0.551884 0.173048
Si Si7 0.513496 0.552913 0.671231
Si Si8 0.858003 0.871537 0.327988
O O1 0.913079 0.165861 0.789892
O O2 0.987718 0.247810 0.765389
O O3 0.096661 0.174303 0.746283
O O4 0.028118 0.195628 0.000000
O O5 0.247908 0.371584 0.236327
O O6 0.396019 0.425914 0.247297
O O7 0.350172 0.390051 0.000000
O O8 0.103667 0.670739 0.222505
O O9 0.255091 0.619987 0.264478
O O10 0.098836 0.578354 0.212029
O O11 0.184460 0.625892 0.000000
O O12 0.087861 0.418748 0.232950
O O13 0.084322 0.326688 0.231959
O O14 0.142566 0.371756 0.000000
O O15 0.991694 0.300128 0.000000
O O16 0.000000 0.500000 0.244841
O O17 0.991907 0.547965 0.000000
O O18 0.500000 0.500000 0.727999
O O19 0.535686 0.554085 0.500000
O O20 0.420155 0.582658 0.709870
O O21 0.851863 0.862586 0.500000
#
# Coordination Sequence:
#
# PCOD8225845 Si02
#       8
#     8   8   8   8   8   8   8   8
#     4   9  17  30  48  69  92 119 153 189 225 269
#     4   9  17  28  45  70  93 112 142 188 232 265
#     4   9  17  30  49  72  96 123 156 190 226 272
#     4   8  14  25  41  64  93 119 145 182 226 267
#     4   8  15  28  47  70  94 121 152 186 223 268
#     4   8  14  25  42  66  95 123 150 183 226 274
#     4   9  19  35  50  63  86 122 156 184 222 274
#     4  10  20  33  48  67  93 123 154 191 234 274
#
# _framework density 17.380856999999999
#
# number of rings (size 3 to 8) (size 9 to 14) (size 15 to 20)
#    0.000    3.250    0.000    1.875    0.000    2.750 
#    0.000    5.625    0.000    7.125    0.000    0.000 
#    0.000    0.000    0.000    0.000    0.000    0.000 
#
# Total GULP energy -793377.011644 kJ/mol
# GULP energy per Si atom -12396.515807 kJ/mol
# Density = 1.734130 g / cm^3
# Si number density = 17.380857 Si / 1000 Ang^3
#
#
#
# Elastic Constant Matrix: (Units=GPa)
#
#
# Indices 1 2 3 4 5 6 
#
# 1 141.6983 64.6857 31.3507 0.0000 0.0000 0.0000
# 2 64.6857 156.4709 25.8873 0.0000 0.0000 0.0000
# 3 31.3507 25.8873 26.6361 0.0000 0.0000 0.0000
# 4 0.0000 0.0000 0.0000 12.1862 0.0000 0.0000
# 5 0.0000 0.0000 0.0000 0.0000 10.1574 0.0000
# 6 0.0000 0.0000 0.0000 0.0000 0.0000 15.3331
#
#
#
# Elastic Compliance Matrix: (Units=1/GPa)
#
#
# Indices 1 2 3 4 5 6 
#
# 1 0.010429 -0.002718 -0.009634 0.000000 0.000000 0.000000
# 2 -0.002718 0.008324 -0.004891 0.000000 0.000000 0.000000
# 3 -0.009634 -0.004891 0.053636 0.000000 0.000000 0.000000
# 4 0.000000 0.000000 0.000000 0.082060 0.000000 0.000000
# 5 0.000000 0.000000 0.000000 0.000000 0.098451 0.000000
# 6 0.000000 0.000000 0.000000 0.000000 0.000000 0.065218
#
#
# Mechanical properties :
#
#
# Convention : Reuss Voigt Hill
#
# Bulk Modulus (GPa) = 26.38290 63.18365 44.78327
# Shear Modulus (GPa) = 13.68971 21.06078 17.37524
#
# Velocity S-wave (km/s) = 2.80952 3.48476 3.16520
# Velocity P-wave (km/s) = 5.07314 7.25415 6.25937
#
# Compressibility (1/GPa) = 0.03790334
#
# Stress axis : x y z
#
# Youngs Moduli (GPa) = 95.88273 120.13985 18.64425
#
# Poissons Ratio (x) = 0.32650 0.17962
# Poissons Ratio (y) = 0.26057 0.09119
# Poissons Ratio (z) = 0.92375 0.58760
#
# Static dielectric constant tensor:
#      x y z
#    x 3.339740 0.000000 0.000000 
#    y 0.000000 3.668510 0.000000 
#    z 0.000000 0.000000 2.811060 
# 
# 
# High freq. dielectric constant tensor:
#      x y z
#    x 1.675730 0.000000 0.000000 
#    y 0.000000 1.678010 0.000000 
#    z 0.000000 0.000000 1.626900 
# 
# From -- ./inp_files/6942.got.cif
#   From: 2010.03.12/outbox.cif.g09.slc.cpg/sg55_4_cif.got.tgz:6942.got - 2010.04.16 15:19:21.
