data_PCOD8225708
_publ_section_title
;
Structure prediction by ZEFSAII (Michael W. Deem and Ramdas Pophale) SiO2 
 PCOD8225708
Probable space group: P B A M
;
_chemical_formula_sum "Si O2"
_cell_formula_units_Z 48
_cell_length_a 27.917550
_cell_length_b 10.187243
_cell_length_c 8.615072
_cell_angle_alpha 90.000000
_cell_angle_beta 90.000000
_cell_angle_gamma 90.000000
_cell_volume 2450.151166
_symmetry_space_group_name_H-M "P B A M"
_symmetry_group_IT_number 55
_symmetry_cell_setting 'orthorhombic'
loop_
_space_group_symop_operation_xyz
x,y,z
-x,-y,z
1/2+x,1/2-y,-z
1/2-x,1/2+y,-z
-x,-y,-z
x,y,-z
1/2-x,1/2+y,z
1/2+x,1/2-y,z
loop_
_atom_site_type_symbol
_atom_site_label
_atom_site_fract_x
_atom_site_fract_y
_atom_site_fract_z
Si Si1 0.448492 0.636484 0.319423
Si Si2 0.453444 0.355220 0.180268
Si Si3 0.352463 0.248714 0.821494
Si Si4 0.308450 0.998063 0.678710
Si Si5 0.705867 0.490205 0.179940
Si Si6 0.141464 0.253748 0.180596
O O1 0.446825 0.604068 0.500000
O O2 0.439343 0.503238 0.225121
O O3 0.500634 0.695470 0.276339
O O4 0.407915 0.741124 0.275112
O O5 0.408870 0.260065 0.215709
O O6 0.466541 0.353318 0.000000
O O7 0.328200 0.387575 0.785919
O O8 0.329728 0.141341 0.710010
O O9 0.343723 0.208402 0.000000
O O10 0.315944 0.961002 0.500000
O O11 0.252535 0.996529 0.715876
O O12 0.335872 0.894173 0.785012
O O13 0.678502 0.358885 0.232235
O O14 0.721085 0.482487 0.000000
O O15 0.129469 0.241466 0.000000
#
# Coordination Sequence:
#
# PCOD8225708 Si02
#       6
#     8   8   8   8   8   8
#     4  11  21  34  57  91 124 151 186 241 303 349
#     4  10  19  36  61  88 116 152 201 242 282 347
#     4  10  21  40  63  87 114 154 202 243 284 341
#     4  12  26  39  55  87 125 158 190 240 304 355
#     4  10  21  40  64  87 111 152 206 248 284 340
#     4  11  22  41  64  86 115 158 204 245 285 344
#
# _framework density 19.590629
#
# number of rings (size 3 to 8) (size 9 to 14) (size 15 to 20)
#    0.000    1.333    1.667    6.000    0.000    7.333 
#    0.000    0.833    0.000    5.000    0.000    0.000 
#    0.000    0.000    0.000    0.000    0.000    0.000 
#
# Total GULP energy -595484.330197 kJ/mol
# GULP energy per Si atom -12405.923546 kJ/mol
# Density = 1.954604 g / cm^3
# Si number density = 19.590629 Si / 1000 Ang^3
#
#
#
# Elastic Constant Matrix: (Units=GPa)
#
#
# Indices 1 2 3 4 5 6 
#
# 1 108.7906 15.8622 32.7476 0.0000 0.0000 0.0000
# 2 15.8622 54.9054 13.4639 0.0000 0.0000 0.0000
# 3 32.7476 13.4639 64.9018 0.0000 0.0000 0.0000
# 4 0.0000 0.0000 0.0000 10.6047 0.0000 0.0000
# 5 0.0000 0.0000 0.0000 0.0000 20.6058 0.0000
# 6 0.0000 0.0000 0.0000 0.0000 0.0000 -89.6042
#
#
#
# Elastic Compliance Matrix: (Units=1/GPa)
#
#
# Indices 1 2 3 4 5 6 
#
# 1 0.011027 -0.001919 -0.005166 0.000000 0.000000 0.000000
# 2 -0.001919 0.019523 -0.003082 0.000000 0.000000 0.000000
# 3 -0.005166 -0.003082 0.018654 0.000000 0.000000 0.000000
# 4 0.000000 0.000000 0.000000 0.094298 0.000000 0.000000
# 5 0.000000 0.000000 0.000000 0.000000 0.048530 0.000000
# 6 0.000000 0.000000 0.000000 0.000000 0.000000 -0.011160
#
#
# Mechanical properties :
#
#
# Convention : Reuss Voigt Hill
#
# Bulk Modulus (GPa) = 34.63716 39.19389 36.91552
# Shear Modulus (GPa) = 23.71602 -0.57713 11.56944
#
# Velocity S-wave (km/s) = 3.48311 -0.54336 2.43278
# Velocity P-wave (km/s) = 5.82194 4.43354 5.17451
#
# Compressibility (1/GPa) = 0.02887073
#
# Stress axis : x y z
#
# Youngs Moduli (GPa) = 90.68898 51.22096 53.60876
#
# Poissons Ratio (x) = 0.09829 0.27693
# Poissons Ratio (y) = 0.17402 0.16522
# Poissons Ratio (z) = 0.46847 0.15786
#
# Static dielectric constant tensor:
#      x y z
#    x 3.736010 0.000000 0.000000 
#    y 0.000000 3.353960 0.000000 
#    z 0.000000 0.000000 3.503540 
# 
# 
# High freq. dielectric constant tensor:
#      x y z
#    x 1.779490 0.000000 0.000000 
#    y 0.000000 1.744660 0.000000 
#    z 0.000000 0.000000 1.764680 
# 
# From -- ./inp_files/10492.got.cif
#   From: 2010.03.12/outbox.cif.g09.slc.cpg/sg55_6_cif.got.tgz:10492.got - 2010.04.16 15:19:21.
