data_PCOD8225869
_publ_section_title
;
Structure prediction by ZEFSAII (Michael W. Deem and Ramdas Pophale) SiO2 
 PCOD8225869
Probable space group: P B A M
;
_chemical_formula_sum "Si O2"
_cell_formula_units_Z 64
_cell_length_a 27.438611
_cell_length_b 9.561931
_cell_length_c 14.343272
_cell_angle_alpha 90.000000
_cell_angle_beta 90.000000
_cell_angle_gamma 90.000000
_cell_volume 3763.188409
_symmetry_space_group_name_H-M "P B A M"
_symmetry_group_IT_number 55
_symmetry_cell_setting 'orthorhombic'
loop_
_space_group_symop_operation_xyz
x,y,z
-x,-y,z
1/2+x,1/2-y,-z
1/2-x,1/2+y,-z
-x,-y,-z
x,y,-z
1/2-x,1/2+y,z
1/2+x,1/2-y,z
loop_
_atom_site_type_symbol
_atom_site_label
_atom_site_fract_x
_atom_site_fract_y
_atom_site_fract_z
Si Si1 0.401736 0.028842 0.892641
Si Si2 0.506476 0.272507 0.602156
Si Si3 0.921259 0.031885 0.602047
Si Si4 0.041935 0.302502 0.790629
Si Si5 0.050443 0.816543 0.107147
Si Si6 0.202868 0.432294 0.889545
Si Si7 0.706927 0.385926 0.110875
Si Si8 0.609664 0.452529 0.790785
O O1 0.409699 0.193774 0.882123
O O2 0.443663 0.951141 0.834022
O O3 0.348487 0.991453 0.852197
O O4 0.406620 0.980277 0.000000
O O5 0.512220 0.199932 0.500000
O O6 0.540232 0.407636 0.607776
O O7 0.450610 0.322704 0.616190
O O8 0.522154 0.168914 0.685521
O O9 0.895321 0.032295 0.500000
O O10 0.882282 0.009723 0.684920
O O11 0.090043 0.205803 0.790970
O O12 0.001116 0.228264 0.851937
O O13 0.069301 0.952399 0.159838
O O14 0.042444 0.856106 0.000000
O O15 0.211266 0.274003 0.854834
O O16 0.245894 0.531333 0.851797
O O17 0.203121 0.437717 0.000000
O O18 0.660414 0.460879 0.155689
O O19 0.701165 0.395416 0.000000
#
# Coordination Sequence:
#
# PCOD8225869 Si02
#       8
#     8   8   8   8   8   8   8   8
#     4  10  21  36  49  65  98 140 173 200 242 299
#     4   8  14  26  46  70  96 126 162 206 245 282
#     4   8  14  27  46  70  99 126 157 201 248 293
#     4  11  19  32  50  71 100 133 171 202 246 290
#     4  11  23  32  44  68 103 142 170 196 236 294
#     4   9  19  35  52  70  94 128 164 206 249 286
#     4  10  20  33  51  73  99 126 161 207 250 291
#     4  11  20  31  50  78  99 124 166 212 247 286
#
# _framework density 17.006855000000002
#
# number of rings (size 3 to 8) (size 9 to 14) (size 15 to 20)
#    0.000    2.250    2.500    2.250    1.750    3.000 
#    0.000    0.000    0.000    2.250    0.000    1.750 
#    0.000    0.000    0.000    0.000    0.000    0.000 
#
# Total GULP energy -793456.750265 kJ/mol
# GULP energy per Si atom -12397.761723 kJ/mol
# Density = 1.696815 g / cm^3
# Si number density = 17.006855 Si / 1000 Ang^3
#
#
#
# Elastic Constant Matrix: (Units=GPa)
#
#
# Indices 1 2 3 4 5 6 
#
# 1 66.1646 11.0221 15.7502 0.0000 0.0000 0.0000
# 2 11.0221 40.7642 14.4149 0.0000 0.0000 0.0000
# 3 15.7502 14.4149 90.7710 0.0000 0.0000 0.0000
# 4 0.0000 0.0000 0.0000 13.1108 0.0000 0.0000
# 5 0.0000 0.0000 0.0000 0.0000 12.0974 0.0000
# 6 0.0000 0.0000 0.0000 0.0000 0.0000 27.8776
#
#
#
# Elastic Compliance Matrix: (Units=1/GPa)
#
#
# Indices 1 2 3 4 5 6 
#
# 1 0.016248 -0.003598 -0.002248 0.000000 0.000000 0.000000
# 2 -0.003598 0.026788 -0.003630 0.000000 0.000000 0.000000
# 3 -0.002248 -0.003630 0.011983 0.000000 0.000000 0.000000
# 4 0.000000 0.000000 0.000000 0.076273 0.000000 0.000000
# 5 0.000000 0.000000 0.000000 0.000000 0.082663 0.000000
# 6 0.000000 0.000000 0.000000 0.000000 0.000000 0.035871
#
#
# Mechanical properties :
#
#
# Convention : Reuss Voigt Hill
#
# Bulk Modulus (GPa) = 27.72589 31.11937 29.42263
# Shear Modulus (GPa) = 17.80624 21.05134 19.42879
#
# Velocity S-wave (km/s) = 3.23925 3.52208 3.38362
# Velocity P-wave (km/s) = 5.50713 5.90575 5.70992
#
# Compressibility (1/GPa) = 0.03606737
#
# Stress axis : x y z
#
# Youngs Moduli (GPa) = 61.54465 37.33040 83.45029
#
# Poissons Ratio (x) = 0.13433 0.18759
# Poissons Ratio (y) = 0.22147 0.30290
# Poissons Ratio (z) = 0.13835 0.13550
#
# Static dielectric constant tensor:
#      x y z
#    x 3.056180 0.000000 0.000000 
#    y 0.000000 3.103890 0.000000 
#    z 0.000000 0.000000 3.365490 
# 
# 
# High freq. dielectric constant tensor:
#      x y z
#    x 1.633300 0.000000 0.000000 
#    y 0.000000 1.648340 0.000000 
#    z 0.000000 0.000000 1.641020 
# 
# From -- ./inp_files/17797.got.cif
#   From: 2010.03.12/outbox.cif.g09.slc.cpg/sg55_9_cif.got.tgz:17797.got - 2010.04.16 15:19:21.
