data_PCOD8225097
_publ_section_title
;
Structure prediction by ZEFSAII (Michael W. Deem and Ramdas Pophale) SiO2 
 PCOD8225097
Probable space group: P B A M
;
_chemical_formula_sum "Si O2"
_cell_formula_units_Z 64
_cell_length_a 11.879398
_cell_length_b 28.919476
_cell_length_c 8.780540
_cell_angle_alpha 90.000000
_cell_angle_beta 90.000000
_cell_angle_gamma 90.000000
_cell_volume 3016.519091
_symmetry_space_group_name_H-M "P B A M"
_symmetry_group_IT_number 55
_symmetry_cell_setting 'orthorhombic'
loop_
_space_group_symop_operation_xyz
x,y,z
-x,-y,z
1/2+x,1/2-y,-z
1/2-x,1/2+y,-z
-x,-y,-z
x,y,-z
1/2-x,1/2+y,z
1/2+x,1/2-y,z
loop_
_atom_site_type_symbol
_atom_site_label
_atom_site_fract_x
_atom_site_fract_y
_atom_site_fract_z
Si Si1 0.034221 0.822096 0.824362
Si Si2 0.364062 0.158706 0.677949
Si Si3 0.460810 0.073013 0.175184
Si Si4 0.635369 0.388209 0.679138
Si Si5 0.266455 0.833904 0.321984
Si Si6 0.273267 0.523797 0.174808
Si Si7 0.814364 0.560463 0.321790
Si Si8 0.030718 0.279758 0.824463
O O1 0.979108 0.863329 0.727528
O O2 0.963614 0.775177 0.799285
O O3 0.160793 0.813889 0.769108
O O4 0.034067 0.836603 0.000000
O O5 0.367199 0.169593 0.500000
O O6 0.450935 0.117736 0.716973
O O7 0.239675 0.143935 0.733405
O O8 0.406604 0.203553 0.769654
O O9 0.354075 0.040572 0.197449
O O10 0.572389 0.046714 0.230329
O O11 0.472874 0.088585 0.000000
O O12 0.638700 0.395829 0.500000
O O13 0.641188 0.438545 0.756403
O O14 0.245556 0.827203 0.500000
O O15 0.279123 0.887658 0.279239
O O16 0.374934 0.804328 0.276282
O O17 0.282620 0.475016 0.264394
O O18 0.305566 0.515985 0.000000
O O19 0.834568 0.553961 0.500000
O O20 0.048367 0.292969 0.000000
#
# Coordination Sequence:
#
# PCOD8225097 Si02
#       8
#     8   8   8   8   8   8   8   8
#     4  11  26  45  66  92 124 164 210 260 315 375
#     4  10  20  35  58  90 123 160 202 248 305 367
#     4  10  19  32  53  84 123 164 203 250 307 368
#     4  10  22  41  64  91 125 165 209 260 313 369
#     4  11  25  44  66  93 127 165 210 261 314 373
#     4  10  21  36  58  89 124 166 211 257 313 376
#     4  11  22  36  57  88 124 164 209 261 315 373
#     4  11  24  41  64  93 125 162 204 254 313 376
#
# _framework density 21.216508000000001
#
# number of rings (size 3 to 8) (size 9 to 14) (size 15 to 20)
#    0.000    1.500    1.250    3.375    1.750    8.000 
#    0.000    0.625    0.000    3.750    0.000    0.000 
#    0.000    0.000    0.000    0.000    0.000    0.000 
#
# Total GULP energy -793874.982587 kJ/mol
# GULP energy per Si atom -12404.296603 kJ/mol
# Density = 2.116822 g / cm^3
# Si number density = 21.216508 Si / 1000 Ang^3
#
#
#
# Elastic Constant Matrix: (Units=GPa)
#
#
# Indices 1 2 3 4 5 6 
#
# 1 55.4675 15.7721 17.0475 0.0000 0.0000 0.0000
# 2 15.7721 82.1735 41.5010 0.0000 0.0000 0.0000
# 3 17.0475 41.5010 83.4663 0.0000 0.0000 0.0000
# 4 0.0000 0.0000 0.0000 33.5200 0.0000 0.0000
# 5 0.0000 0.0000 0.0000 0.0000 30.3454 0.0000
# 6 0.0000 0.0000 0.0000 0.0000 0.0000 20.0623
#
#
#
# Elastic Compliance Matrix: (Units=1/GPa)
#
#
# Indices 1 2 3 4 5 6 
#
# 1 0.019562 -0.002319 -0.002842 0.000000 0.000000 0.000000
# 2 -0.002319 0.016525 -0.007743 0.000000 0.000000 0.000000
# 3 -0.002842 -0.007743 0.016411 0.000000 0.000000 0.000000
# 4 0.000000 0.000000 0.000000 0.029833 0.000000 0.000000
# 5 0.000000 0.000000 0.000000 0.000000 0.032954 0.000000
# 6 0.000000 0.000000 0.000000 0.000000 0.000000 0.049845
#
#
# Mechanical properties :
#
#
# Convention : Reuss Voigt Hill
#
# Bulk Modulus (GPa) = 37.46808 41.08316 39.27562
# Shear Modulus (GPa) = 25.02076 26.57134 25.79605
#
# Velocity S-wave (km/s) = 3.43783 3.54275 3.49068
# Velocity P-wave (km/s) = 5.78415 6.01170 5.89903
#
# Compressibility (1/GPa) = 0.02668938
#
# Stress axis : x y z
#
# Youngs Moduli (GPa) = 51.12073 60.51459 60.93375
#
# Poissons Ratio (x) = 0.14034 0.17319
# Poissons Ratio (y) = 0.11856 0.47180
# Poissons Ratio (z) = 0.14530 0.46855
#
# Static dielectric constant tensor:
#      x y z
#    x 3.616980 0.000000 0.000000 
#    y 0.000000 3.874980 0.000000 
#    z 0.000000 0.000000 3.797240 
# 
# 
# High freq. dielectric constant tensor:
#      x y z
#    x 1.813680 0.000000 0.000000 
#    y 0.000000 1.836540 0.000000 
#    z 0.000000 0.000000 1.840840 
# 
# From -- ./inp_files/4593.got.cif
#   From: 2010.03.12/outbox.cif.g09.slc.cpg/sg55_3_cif.got.tgz:4593.got - 2010.04.16 15:19:21.
