data_PCOD8225236
_publ_section_title
;
Structure prediction by ZEFSAII (Michael W. Deem and Ramdas Pophale) SiO2 
 PCOD8225236
Probable space group: P B A M
;
_chemical_formula_sum "Si O2"
_cell_formula_units_Z 56
_cell_length_a 19.256831
_cell_length_b 17.132996
_cell_length_c 9.439509
_cell_angle_alpha 90.000000
_cell_angle_beta 90.000000
_cell_angle_gamma 90.000000
_cell_volume 3114.350854
_symmetry_space_group_name_H-M "P B A M"
_symmetry_group_IT_number 55
_symmetry_cell_setting 'orthorhombic'
loop_
_space_group_symop_operation_xyz
x,y,z
-x,-y,z
1/2+x,1/2-y,-z
1/2-x,1/2+y,-z
-x,-y,-z
x,y,-z
1/2-x,1/2+y,z
1/2+x,1/2-y,z
loop_
_atom_site_type_symbol
_atom_site_label
_atom_site_fract_x
_atom_site_fract_y
_atom_site_fract_z
Si Si1 0.103003 0.384385 0.337777
Si Si2 0.621209 0.292568 0.335785
Si Si3 0.571588 0.540604 0.166033
Si Si4 0.036105 0.815172 0.336085
Si Si5 0.557748 0.861721 0.661957
Si Si6 0.344405 0.026847 0.166310
Si Si7 0.189680 0.078605 0.835330
O O1 0.117258 0.408756 0.500000
O O2 0.133711 0.298814 0.307360
O O3 0.141325 0.442833 0.233148
O O4 0.021084 0.386426 0.307836
O O5 0.631358 0.312072 0.500000
O O6 0.543916 0.315933 0.286474
O O7 0.677212 0.340811 0.246986
O O8 0.500000 0.500000 0.212117
O O9 0.579490 0.623031 0.245068
O O10 0.634977 0.486489 0.215555
O O11 0.573756 0.557624 0.000000
O O12 0.041488 0.838103 0.500000
O O13 0.068500 0.729994 0.309806
O O14 0.577267 0.882311 0.500000
O O15 0.606459 0.907682 0.768324
O O16 0.265640 0.048264 0.201287
O O17 0.358834 0.022445 0.000000
O O18 0.179818 0.096692 0.000000
#
# Coordination Sequence:
#
# PCOD8225236 Si02
#       7
#     8   8   8   8   8   8   8
#     4   9  19  37  60  83 107 138 178 225 274 321
#     4   9  18  34  57  82 105 134 175 220 268 320
#     4  10  19  33  55  78 104 143 183 218 263 319
#     4   9  18  33  55  84 109 131 171 225 272 313
#     4   9  19  37  59  81 109 141 175 225 278 320
#     4  11  23  37  53  79 112 146 183 222 267 321
#     4  10  22  38  52  74 111 148 180 218 268 318
#
# _framework density 17.981275
#
# number of rings (size 3 to 8) (size 9 to 14) (size 15 to 20)
#    0.000    2.429    1.429    2.571    0.000    5.429 
#    2.571    2.857    0.000    0.000    0.000    0.000 
#    0.000    0.000    0.000    0.000    0.000    0.000 
#
# Total GULP energy -694544.559877 kJ/mol
# GULP energy per Si atom -12402.581426 kJ/mol
# Density = 1.794035 g / cm^3
# Si number density = 17.981275 Si / 1000 Ang^3
#
#
#
# Elastic Constant Matrix: (Units=GPa)
#
#
# Indices 1 2 3 4 5 6 
#
# 1 99.3100 68.1429 61.7855 0.0000 0.0000 0.0000
# 2 68.1429 132.3436 74.0034 0.0000 0.0000 0.0000
# 3 61.7855 74.0034 83.6176 0.0000 0.0000 0.0000
# 4 0.0000 0.0000 0.0000 19.2831 0.0000 0.0000
# 5 0.0000 0.0000 0.0000 0.0000 27.0448 0.0000
# 6 0.0000 0.0000 0.0000 0.0000 0.0000 15.5800
#
#
#
# Elastic Compliance Matrix: (Units=1/GPa)
#
#
# Indices 1 2 3 4 5 6 
#
# 1 0.019629 -0.003953 -0.011006 0.000000 0.000000 0.000000
# 2 -0.003953 0.015755 -0.011023 0.000000 0.000000 0.000000
# 3 -0.011006 -0.011023 0.029847 0.000000 0.000000 0.000000
# 4 0.000000 0.000000 0.000000 0.051859 0.000000 0.000000
# 5 0.000000 0.000000 0.000000 0.000000 0.036976 0.000000
# 6 0.000000 0.000000 0.000000 0.000000 0.000000 0.064185
#
#
# Mechanical properties :
#
#
# Convention : Reuss Voigt Hill
#
# Bulk Modulus (GPa) = 75.36779 80.34831 77.85805
# Shear Modulus (GPa) = 18.20597 19.80421 19.00509
#
# Velocity S-wave (km/s) = 3.18543 3.32230 3.25458
# Velocity P-wave (km/s) = 7.45217 7.71352 7.58397
#
# Compressibility (1/GPa) = 0.01326827
#
# Stress axis : x y z
#
# Youngs Moduli (GPa) = 50.94561 63.47179 33.50434
#
# Poissons Ratio (x) = 0.25088 0.36874
# Poissons Ratio (y) = 0.20137 0.36932
# Poissons Ratio (z) = 0.56069 0.69964
#
# Static dielectric constant tensor:
#      x y z
#    x 3.191470 0.000000 0.000000 
#    y 0.000000 3.344030 0.000000 
#    z 0.000000 0.000000 3.220060 
# 
# 
# High freq. dielectric constant tensor:
#      x y z
#    x 1.680680 0.000000 0.000000 
#    y 0.000000 1.707470 0.000000 
#    z 0.000000 0.000000 1.693630 
# 
# From -- ./inp_files/8898.got.cif
#   From: 2010.03.12/outbox.cif.g09.slc.cpg/sg55_5_cif.got.tgz:8898.got - 2010.04.16 15:19:21.
