data_PCOD8225113
_publ_section_title
;
Structure prediction by ZEFSAII (Michael W. Deem and Ramdas Pophale) SiO2 
 PCOD8225113
Probable space group: P B A M
;
_chemical_formula_sum "Si O2"
_cell_formula_units_Z 64
_cell_length_a 25.958427
_cell_length_b 12.645472
_cell_length_c 10.050109
_cell_angle_alpha 90.000000
_cell_angle_beta 90.000000
_cell_angle_gamma 90.000000
_cell_volume 3299.014226
_symmetry_space_group_name_H-M "P B A M"
_symmetry_group_IT_number 55
_symmetry_cell_setting 'orthorhombic'
loop_
_space_group_symop_operation_xyz
x,y,z
-x,-y,z
1/2+x,1/2-y,-z
1/2-x,1/2+y,-z
-x,-y,-z
x,y,-z
1/2-x,1/2+y,z
1/2+x,1/2-y,z
loop_
_atom_site_type_symbol
_atom_site_label
_atom_site_fract_x
_atom_site_fract_y
_atom_site_fract_z
Si Si1 0.851553 0.604365 0.656564
Si Si2 0.795374 0.818612 0.652286
Si Si3 0.631577 0.714752 0.850176
Si Si4 0.342901 0.517190 0.843375
Si Si5 0.517894 0.755916 0.143701
Si Si6 0.320721 0.126643 0.651114
Si Si7 0.453758 0.560203 0.851304
Si Si8 0.030631 0.393817 0.644872
O O1 0.850427 0.611769 0.500000
O O2 0.821209 0.709678 0.708968
O O3 0.821488 0.496611 0.699996
O O4 0.911287 0.598004 0.706394
O O5 0.813811 0.841630 0.500000
O O6 0.805070 0.916632 0.751016
O O7 0.733822 0.813878 0.655749
O O8 0.664104 0.608369 0.819931
O O9 0.570588 0.689001 0.835954
O O10 0.642639 0.808280 0.748235
O O11 0.644670 0.753161 0.000000
O O12 0.398646 0.549176 0.783532
O O13 0.335715 0.546417 0.000000
O O14 0.467797 0.682511 0.143716
O O15 0.509578 0.836487 0.260827
O O16 0.520811 0.814678 0.000000
O O17 0.342542 0.131104 0.500000
O O18 0.500000 0.500000 0.773401
O O19 0.448766 0.510109 0.000000
O O20 0.035367 0.337323 0.500000
O O21 0.000000 0.500000 0.622518
#
# Coordination Sequence:
#
# PCOD8225113 Si02
#       8
#     8   8   8   8   8   8   8   8
#     4   9  19  38  57  80 113 143 183 239 286 331
#     4  10  22  38  60  84 108 142 185 237 287 330
#     4  10  21  36  55  84 119 149 181 229 281 323
#     4  10  20  35  57  84 115 149 184 224 275 334
#     4  10  19  32  54  82 111 144 183 225 265 317
#     4  10  22  39  62  82 104 145 192 232 282 341
#     4   9  15  29  52  77 107 145 180 207 256 324
#     4  10  20  34  54  76 107 151 187 218 270 332
#
# _framework density 19.399733999999999
#
# number of rings (size 3 to 8) (size 9 to 14) (size 15 to 20)
#    0.000    2.250    1.250    1.500    1.750    2.750 
#    0.000    1.250    0.000    0.750    0.000    0.000 
#    0.000    0.000    0.000    0.000    0.000    0.000 
#
# Total GULP energy -792877.159935 kJ/mol
# GULP energy per Si atom -12388.705624 kJ/mol
# Density = 1.935558 g / cm^3
# Si number density = 19.399734 Si / 1000 Ang^3
#
#
#
# Elastic Constant Matrix: (Units=GPa)
#
#
# Indices 1 2 3 4 5 6 
#
# 1 60.3418 22.3806 21.6714 0.0000 0.0000 0.0000
# 2 22.3806 101.2318 49.3509 0.0000 0.0000 0.0000
# 3 21.6714 49.3509 78.0681 0.0000 0.0000 0.0000
# 4 0.0000 0.0000 0.0000 12.1430 0.0000 0.0000
# 5 0.0000 0.0000 0.0000 0.0000 26.8519 0.0000
# 6 0.0000 0.0000 0.0000 0.0000 0.0000 36.7545
#
#
#
# Elastic Compliance Matrix: (Units=1/GPa)
#
#
# Indices 1 2 3 4 5 6 
#
# 1 0.018779 -0.002328 -0.003742 0.000000 0.000000 0.000000
# 2 -0.002328 0.014567 -0.008563 0.000000 0.000000 0.000000
# 3 -0.003742 -0.008563 0.019261 0.000000 0.000000 0.000000
# 4 0.000000 0.000000 0.000000 0.082352 0.000000 0.000000
# 5 0.000000 0.000000 0.000000 0.000000 0.037241 0.000000
# 6 0.000000 0.000000 0.000000 0.000000 0.000000 0.027208
#
#
# Mechanical properties :
#
#
# Convention : Reuss Voigt Hill
#
# Bulk Modulus (GPa) = 42.83819 47.38307 45.11063
# Shear Modulus (GPa) = 21.14583 24.89913 23.02248
#
# Velocity S-wave (km/s) = 3.30511 3.58645 3.44865
# Velocity P-wave (km/s) = 6.05762 6.45196 6.25790
#
# Compressibility (1/GPa) = 0.02334366
#
# Stress axis : x y z
#
# Youngs Moduli (GPa) = 53.24988 68.64728 51.91893
#
# Poissons Ratio (x) = 0.15979 0.19426
# Poissons Ratio (y) = 0.12395 0.44456
# Poissons Ratio (z) = 0.19924 0.58779
#
# Static dielectric constant tensor:
#      x y z
#    x 3.589390 0.000000 0.000000 
#    y 0.000000 3.529120 0.000000 
#    z 0.000000 0.000000 3.587500 
# 
# 
# High freq. dielectric constant tensor:
#      x y z
#    x 1.756750 0.000000 0.000000 
#    y 0.000000 1.750710 0.000000 
#    z 0.000000 0.000000 1.727490 
# 
# From -- ./inp_files/10723.got.cif
#   From: 2010.03.12/outbox.cif.g09.slc.cpg/sg55_6_cif.got.tgz:10723.got - 2010.04.16 15:19:21.
