data_PCOD8225556
_publ_section_title
;
Structure prediction by ZEFSAII (Michael W. Deem and Ramdas Pophale) SiO2 
 PCOD8225556
Probable space group: P B A M
;
_chemical_formula_sum "Si O2"
_cell_formula_units_Z 64
_cell_length_a 15.162343
_cell_length_b 24.600581
_cell_length_c 8.817003
_cell_angle_alpha 90.000000
_cell_angle_beta 90.000000
_cell_angle_gamma 90.000000
_cell_volume 3288.763695
_symmetry_space_group_name_H-M "P B A M"
_symmetry_group_IT_number 55
_symmetry_cell_setting 'orthorhombic'
loop_
_space_group_symop_operation_xyz
x,y,z
-x,-y,z
1/2+x,1/2-y,-z
1/2-x,1/2+y,-z
-x,-y,-z
x,y,-z
1/2-x,1/2+y,z
1/2+x,1/2-y,z
loop_
_atom_site_type_symbol
_atom_site_label
_atom_site_fract_x
_atom_site_fract_y
_atom_site_fract_z
Si Si1 0.991798 0.659010 0.681272
Si Si2 0.026034 0.777367 0.327237
Si Si3 0.320694 0.556213 0.172953
Si Si4 0.488117 0.606205 0.678962
Si Si5 0.663806 0.567227 0.824358
Si Si6 0.224896 0.751778 0.325494
Si Si7 0.173075 0.641574 0.822844
Si Si8 0.813088 0.649838 0.820212
O O1 0.994494 0.656671 0.500000
O O2 0.905253 0.629709 0.747088
O O3 0.991861 0.721245 0.746332
O O4 0.079281 0.629829 0.744004
O O5 0.995760 0.775499 0.500000
O O6 0.131114 0.781058 0.311471
O O7 0.986609 0.832137 0.251482
O O8 0.398999 0.575834 0.280058
O O9 0.300074 0.493283 0.204617
O O10 0.231535 0.588550 0.208728
O O11 0.351181 0.565608 0.000000
O O12 0.498541 0.609425 0.500000
O O13 0.571462 0.573237 0.739824
O O14 0.737434 0.608840 0.762025
O O15 0.646129 0.578778 0.000000
O O16 0.254253 0.745299 0.500000
O O17 0.223515 0.692633 0.250259
O O18 0.294786 0.789295 0.238682
O O19 0.158891 0.652839 0.000000
O O20 0.821317 0.649309 0.000000
#
# Coordination Sequence:
#
# PCOD8225556 Si02
#       8
#     8   8   8   8   8   8   8   8
#     4  10  21  38  59  84 118 157 188 233 296 353
#     4   8  17  33  52  79 113 148 182 218 276 342
#     4  10  23  41  59  81 114 156 195 236 290 344
#     4  11  21  35  57  87 118 150 192 238 283 338
#     4  10  22  41  60  81 116 156 194 236 287 343
#     4  10  19  35  57  81 116 155 186 229 291 348
#     4  10  21  39  60  85 115 149 196 246 286 338
#     4  11  22  36  58  88 115 149 198 244 285 339
#
# _framework density 19.4602
#
# number of rings (size 3 to 8) (size 9 to 14) (size 15 to 20)
#    0.000    2.000    1.250    3.000    1.750    3.500 
#    0.000    1.875    0.000    3.750    0.000    0.000 
#    0.000    0.000    0.000    0.000    0.000    0.000 
#
# Total GULP energy -793642.483480 kJ/mol
# GULP energy per Si atom -12400.663804 kJ/mol
# Density = 1.941591 g / cm^3
# Si number density = 19.460200 Si / 1000 Ang^3
#
#
#
# Elastic Constant Matrix: (Units=GPa)
#
#
# Indices 1 2 3 4 5 6 
#
# 1 108.4309 30.6065 38.2290 0.0000 0.0000 0.0000
# 2 30.6065 66.6215 27.8035 0.0000 0.0000 0.0000
# 3 38.2290 27.8035 77.8503 0.0000 0.0000 0.0000
# 4 0.0000 0.0000 0.0000 22.5173 0.0000 0.0000
# 5 0.0000 0.0000 0.0000 0.0000 31.5112 0.0000
# 6 0.0000 0.0000 0.0000 0.0000 0.0000 24.3083
#
#
#
# Elastic Compliance Matrix: (Units=1/GPa)
#
#
# Indices 1 2 3 4 5 6 
#
# 1 0.011822 -0.003535 -0.004543 0.000000 0.000000 0.000000
# 2 -0.003535 0.018696 -0.004941 0.000000 0.000000 0.000000
# 3 -0.004543 -0.004941 0.016841 0.000000 0.000000 0.000000
# 4 0.000000 0.000000 0.000000 0.044410 0.000000 0.000000
# 5 0.000000 0.000000 0.000000 0.000000 0.031735 0.000000
# 6 0.000000 0.000000 0.000000 0.000000 0.000000 0.041138
#
#
# Mechanical properties :
#
#
# Convention : Reuss Voigt Hill
#
# Bulk Modulus (GPa) = 46.90293 49.57562 48.23928
# Shear Modulus (GPa) = 25.27965 26.08494 25.68230
#
# Velocity S-wave (km/s) = 3.60814 3.66515 3.63676
# Velocity P-wave (km/s) = 6.44302 6.59104 6.51745
#
# Compressibility (1/GPa) = 0.02132063
#
# Stress axis : x y z
#
# Youngs Moduli (GPa) = 84.58840 53.48606 59.38037
#
# Poissons Ratio (x) = 0.18909 0.26975
# Poissons Ratio (y) = 0.29904 0.29341
# Poissons Ratio (z) = 0.38426 0.26429
#
# Static dielectric constant tensor:
#      x y z
#    x 3.529190 0.000000 0.000000 
#    y 0.000000 3.614420 0.000000 
#    z 0.000000 0.000000 3.466780 
# 
# 
# High freq. dielectric constant tensor:
#      x y z
#    x 1.760160 0.000000 0.000000 
#    y 0.000000 1.750470 0.000000 
#    z 0.000000 0.000000 1.751120 
# 
# From -- ./inp_files/6627.got.cif
#   From: 2010.03.12/outbox.cif.g09.slc.cpg/sg55_4_cif.got.tgz:6627.got - 2010.04.16 15:19:21.
