data_PCOD8225359
_publ_section_title
;
Structure prediction by ZEFSAII (Michael W. Deem and Ramdas Pophale) SiO2 
 PCOD8225359
Probable space group: P B A M
;
_chemical_formula_sum "Si O2"
_cell_formula_units_Z 32
_cell_length_a 4.947425
_cell_length_b 14.740171
_cell_length_c 21.007485
_cell_angle_alpha 90.000000
_cell_angle_beta 90.000000
_cell_angle_gamma 90.000000
_cell_volume 1531.989551
_symmetry_space_group_name_H-M "P B A M"
_symmetry_group_IT_number 55
_symmetry_cell_setting 'orthorhombic'
loop_
_space_group_symop_operation_xyz
x,y,z
-x,-y,z
1/2+x,1/2-y,-z
1/2-x,1/2+y,-z
-x,-y,-z
x,y,-z
1/2-x,1/2+y,z
1/2+x,1/2-y,z
loop_
_atom_site_type_symbol
_atom_site_label
_atom_site_fract_x
_atom_site_fract_y
_atom_site_fract_z
Si Si1 0.597206 0.809959 0.631295
Si Si2 0.253913 0.060919 0.883240
Si Si3 0.762363 0.311546 0.500000
Si Si4 0.771843 0.810930 0.000000
Si Si5 0.296435 0.187689 0.767748
O O1 0.284413 0.781035 0.630109
O O2 0.670690 0.866397 0.566147
O O3 0.662374 0.860384 0.698156
O O4 0.165980 0.130464 0.937765
O O5 0.355194 0.112983 0.820706
O O6 0.500000 0.000000 0.908906
O O7 0.000000 0.000000 0.864607
O O8 0.453720 0.278620 0.500000
O O9 0.464362 0.776747 0.000000
O O10 0.495566 0.273453 0.775459
#
# Coordination Sequence:
#
# PCOD8225359 Si02
#       5
#     8   8   4   4   8
#     4   8  14  23  40  64  94 125 162 208 254 296
#     4  12  24  39  57  82 111 139 170 212 258 306
#     4   8  12  20  34  60  92 122 154 204 260 294
#     4  12  24  42  64  84 106 138 174 212 254 306
#     4  10  19  34  53  76 103 138 177 214 254 306
#
# _framework density 20.887872000000002
#
# number of rings (size 3 to 8) (size 9 to 14) (size 15 to 20)
#    0.000    2.000    0.000    5.250    0.000    0.000 
#    0.000    0.000    0.000    0.000    0.000    1.750 
#    0.000    0.000    0.000    0.000    0.000    0.000 
#
# Total GULP energy -396573.931025 kJ/mol
# GULP energy per Si atom -12392.935345 kJ/mol
# Density = 2.084033 g / cm^3
# Si number density = 20.887872 Si / 1000 Ang^3
#
#
#
# Elastic Constant Matrix: (Units=GPa)
#
#
# Indices 1 2 3 4 5 6 
#
# 1 81.1280 6.4237 -1.4999 0.0000 0.0000 0.0000
# 2 6.4237 43.5789 35.2906 0.0000 0.0000 0.0000
# 3 -1.4999 35.2906 175.6847 0.0000 0.0000 0.0000
# 4 0.0000 0.0000 0.0000 -3.9669 0.0000 0.0000
# 5 0.0000 0.0000 0.0000 0.0000 30.8518 0.0000
# 6 0.0000 0.0000 0.0000 0.0000 0.0000 16.2521
#
#
#
# Elastic Compliance Matrix: (Units=1/GPa)
#
#
# Indices 1 2 3 4 5 6 
#
# 1 0.012519 -0.002307 0.000570 0.000000 0.000000 0.000000
# 2 -0.002307 0.027830 -0.005610 0.000000 0.000000 0.000000
# 3 0.000570 -0.005610 0.006824 0.000000 0.000000 0.000000
# 4 0.000000 0.000000 0.000000 -0.252087 0.000000 0.000000
# 5 0.000000 0.000000 0.000000 0.000000 0.032413 0.000000
# 6 0.000000 0.000000 0.000000 0.000000 0.000000 0.061530
#
#
# Mechanical properties :
#
#
# Convention : Reuss Voigt Hill
#
# Bulk Modulus (GPa) = 30.78880 42.31335 36.55108
# Shear Modulus (GPa) = -58.51397 25.97255 -16.27071
#
# Velocity S-wave (km/s) = -5.29851 3.53005 -2.79400
# Velocity P-wave (km/s) = 4.76027 6.07589 2.66985
#
# Compressibility (1/GPa) = 0.03247935
#
# Stress axis : x y z
#
# Youngs Moduli (GPa) = 79.87576 35.93237 146.54586
#
# Poissons Ratio (x) = 0.08291 -0.08358
# Poissons Ratio (y) = 0.18430 0.82213
# Poissons Ratio (z) = -0.04556 0.20158
#
# Static dielectric constant tensor:
#      x y z
#    x 3.841730 0.000000 0.000000 
#    y 0.000000 3.031240 0.000000 
#    z 0.000000 0.000000 4.466510 
# 
# 
# High freq. dielectric constant tensor:
#      x y z
#    x 1.840800 0.000000 0.000000 
#    y 0.000000 1.727560 0.000000 
#    z 0.000000 0.000000 1.857430 
# 
# From -- ./inp_files/22208.got.cif
#   From: 2010.03.12/outbox.cif.g09.slc.cpg/sg55_12_cif.got.tgz:22208.got - 2010.04.16 15:19:21.
