data_PCOD8225014
_publ_section_title
;
Structure prediction by ZEFSAII (Michael W. Deem and Ramdas Pophale) SiO2 
 PCOD8225014
Probable space group: P B A M
;
_chemical_formula_sum "Si O2"
_cell_formula_units_Z 64
_cell_length_a 30.663507
_cell_length_b 9.332431
_cell_length_c 13.286930
_cell_angle_alpha 90.000000
_cell_angle_beta 90.000000
_cell_angle_gamma 90.000000
_cell_volume 3802.255164
_symmetry_space_group_name_H-M "P B A M"
_symmetry_group_IT_number 55
_symmetry_cell_setting 'orthorhombic'
loop_
_space_group_symop_operation_xyz
x,y,z
-x,-y,z
1/2+x,1/2-y,-z
1/2-x,1/2+y,-z
-x,-y,-z
x,y,-z
1/2-x,1/2+y,z
1/2+x,1/2-y,z
loop_
_atom_site_type_symbol
_atom_site_label
_atom_site_fract_x
_atom_site_fract_y
_atom_site_fract_z
Si Si1 0.084877 0.833913 0.384319
Si Si2 0.083204 0.166032 0.384231
Si Si3 0.834407 0.278572 0.266639
Si Si4 0.209279 0.481173 0.384194
Si Si5 0.275401 0.484682 0.768643
Si Si6 0.816129 0.509027 0.881727
Si Si7 0.999002 0.339271 0.380858
Si Si8 0.165416 0.246714 0.747800
O O1 0.097532 0.794224 0.500000
O O2 0.123897 0.806558 0.306462
O O3 0.044517 0.740411 0.343918
O O4 0.071481 0.999280 0.378447
O O5 0.095758 0.207460 0.500000
O O6 0.121105 0.203713 0.306777
O O7 0.041548 0.253848 0.344915
O O8 0.820415 0.381883 0.358458
O O9 0.797203 0.170532 0.229303
O O10 0.842601 0.377056 0.168551
O O11 0.209805 0.450731 0.500000
O O12 0.258017 0.512833 0.344737
O O13 0.193875 0.335329 0.331590
O O14 0.234590 0.490404 0.845801
O O15 0.310508 0.606877 0.791010
O O16 0.841107 0.653265 0.846155
O O17 0.818353 0.493371 0.000000
O O18 0.998555 0.343798 0.500000
O O19 0.000000 0.500000 0.335827
#
# Coordination Sequence:
#
# PCOD8225014 Si02
#       8
#     8   8   8   8   8   8   8   8
#     4  10  19  32  51  76 111 146 173 206 249 297
#     4  10  19  32  51  76 111 146 173 206 249 297
#     4  10  20  34  51  74 102 134 176 219 255 312
#     4  10  20  30  44  66 103 142 175 209 247 297
#     4  10  20  34  50  73  99 132 177 218 257 309
#     4  10  22  38  56  74 100 135 172 225 278 316
#     4   9  19  31  49  77 107 142 181 208 238 295
#     4  10  20  34  51  74 102 134 176 219 255 312
#
# _framework density 16.832115000000002
#
# number of rings (size 3 to 8) (size 9 to 14) (size 15 to 20)
#    0.000    2.375    1.250    4.125    3.500    6.500 
#    0.000    0.000    0.000    0.000    0.000    1.750 
#    0.000    2.000    0.000    0.000    0.000    0.000 
#
# Total GULP energy -793238.201098 kJ/mol
# GULP energy per Si atom -12394.346892 kJ/mol
# Density = 1.679380 g / cm^3
# Si number density = 16.832115 Si / 1000 Ang^3
#
#
#
# Elastic Constant Matrix: (Units=GPa)
#
#
# Indices 1 2 3 4 5 6 
#
# 1 76.0216 33.3452 21.4364 0.0000 0.0000 0.0000
# 2 33.3452 91.9528 24.5509 0.0000 0.0000 0.0000
# 3 21.4364 24.5509 90.2421 0.0000 0.0000 0.0000
# 4 0.0000 0.0000 0.0000 14.4260 0.0000 0.0000
# 5 0.0000 0.0000 0.0000 0.0000 14.6159 0.0000
# 6 0.0000 0.0000 0.0000 0.0000 0.0000 29.8873
#
#
#
# Elastic Compliance Matrix: (Units=1/GPa)
#
#
# Indices 1 2 3 4 5 6 
#
# 1 0.016115 -0.005200 -0.002414 0.000000 0.000000 0.000000
# 2 -0.005200 0.013405 -0.002412 0.000000 0.000000 0.000000
# 3 -0.002414 -0.002412 0.012311 0.000000 0.000000 0.000000
# 4 0.000000 0.000000 0.000000 0.069319 0.000000 0.000000
# 5 0.000000 0.000000 0.000000 0.000000 0.068419 0.000000
# 6 0.000000 0.000000 0.000000 0.000000 0.000000 0.033459
#
#
# Mechanical properties :
#
#
# Convention : Reuss Voigt Hill
#
# Bulk Modulus (GPa) = 45.91128 46.32019 46.11573
# Shear Modulus (GPa) = 20.80404 23.71142 22.25773
#
# Velocity S-wave (km/s) = 3.51945 3.75734 3.64034
# Velocity P-wave (km/s) = 6.62198 6.81191 6.71762
#
# Compressibility (1/GPa) = 0.02178114
#
# Stress axis : x y z
#
# Youngs Moduli (GPa) = 62.05235 74.60122 81.22998
#
# Poissons Ratio (x) = 0.38790 0.19605
# Poissons Ratio (y) = 0.32265 0.19590
# Poissons Ratio (z) = 0.14977 0.17991
#
# Static dielectric constant tensor:
#      x y z
#    x 3.096090 0.000000 0.000000 
#    y 0.000000 3.427220 0.000000 
#    z 0.000000 0.000000 2.863200 
# 
# 
# High freq. dielectric constant tensor:
#      x y z
#    x 1.636020 0.000000 0.000000 
#    y 0.000000 1.673890 0.000000 
#    z 0.000000 0.000000 1.604950 
# 
# From -- ./inp_files/20221.got.cif
#   From: 2010.03.12/outbox.cif.g09.slc.cpg/sg55_11_cif.got.tgz:20221.got - 2010.04.16 15:19:21.
