data_PCOD8225535
_publ_section_title
;
Structure prediction by ZEFSAII (Michael W. Deem and Ramdas Pophale) SiO2 
 PCOD8225535
Probable space group: P B A M
;
_chemical_formula_sum "Si O2"
_cell_formula_units_Z 48
_cell_length_a 20.547447
_cell_length_b 8.207230
_cell_length_c 15.403437
_cell_angle_alpha 90.000000
_cell_angle_beta 90.000000
_cell_angle_gamma 90.000000
_cell_volume 2597.599009
_symmetry_space_group_name_H-M "P B A M"
_symmetry_group_IT_number 55
_symmetry_cell_setting 'orthorhombic'
loop_
_space_group_symop_operation_xyz
x,y,z
-x,-y,z
1/2+x,1/2-y,-z
1/2-x,1/2+y,-z
-x,-y,-z
x,y,-z
1/2-x,1/2+y,z
1/2+x,1/2-y,z
loop_
_atom_site_type_symbol
_atom_site_label
_atom_site_fract_x
_atom_site_fract_y
_atom_site_fract_z
Si Si1 0.343392 0.816709 0.902824
Si Si2 0.594998 0.621394 0.400721
Si Si3 0.951526 0.763900 0.398864
Si Si4 0.326212 0.225935 0.740687
Si Si5 0.571975 0.045961 0.238849
Si Si6 0.729593 0.477666 0.167671
O O1 0.401439 0.827789 0.832831
O O2 0.290175 0.957047 0.887640
O O3 0.310806 0.640670 0.893531
O O4 0.371483 0.834390 0.000000
O O5 0.612336 0.640812 0.500000
O O6 0.585732 0.431494 0.377294
O O7 0.528235 0.716831 0.378775
O O8 0.657516 0.699539 0.353426
O O9 0.940974 0.714354 0.500000
O O10 0.923426 0.624349 0.335637
O O11 0.318632 0.378559 0.805005
O O12 0.387528 0.119201 0.768130
O O13 0.259707 0.118360 0.747231
O O14 0.500000 0.000000 0.211773
#
# Coordination Sequence:
#
# PCOD8225535 Si02
#       6
#     8   8   8   8   8   8
#     4  10  20  36  58  80 106 138 181 227 267 322
#     4   9  17  31  53  79 108 142 178 224 270 315
#     4   9  18  32  52  81 111 142 182 218 260 323
#     4  10  19  35  54  78 108 140 183 224 263 326
#     4  11  21  33  53  83 113 145 174 219 283 322
#     4   9  20  36  57  78 100 141 186 223 266 310
#
# _framework density 18.478603
#
# number of rings (size 3 to 8) (size 9 to 14) (size 15 to 20)
#    0.000    2.333    1.667    2.500    0.000    1.333 
#    0.000    1.667    0.000    7.000    0.000    0.000 
#    0.000    0.000    0.000    0.000    0.000    0.000 
#
# Total GULP energy -594953.465768 kJ/mol
# GULP energy per Si atom -12394.863870 kJ/mol
# Density = 1.843655 g / cm^3
# Si number density = 18.478603 Si / 1000 Ang^3
#
#
#
# Elastic Constant Matrix: (Units=GPa)
#
#
# Indices 1 2 3 4 5 6 
#
# 1 65.0484 39.7639 47.4976 0.0000 0.0000 0.0000
# 2 39.7639 96.7878 47.5512 0.0000 0.0000 0.0000
# 3 47.4976 47.5512 116.9589 0.0000 0.0000 0.0000
# 4 0.0000 0.0000 0.0000 18.3242 0.0000 0.0000
# 5 0.0000 0.0000 0.0000 0.0000 25.0272 0.0000
# 6 0.0000 0.0000 0.0000 0.0000 0.0000 33.1307
#
#
#
# Elastic Compliance Matrix: (Units=1/GPa)
#
#
# Indices 1 2 3 4 5 6 
#
# 1 0.024778 -0.006543 -0.007402 0.000000 0.000000 0.000000
# 2 -0.006543 0.014638 -0.003294 0.000000 0.000000 0.000000
# 3 -0.007402 -0.003294 0.012895 0.000000 0.000000 0.000000
# 4 0.000000 0.000000 0.000000 0.054573 0.000000 0.000000
# 5 0.000000 0.000000 0.000000 0.000000 0.039957 0.000000
# 6 0.000000 0.000000 0.000000 0.000000 0.000000 0.030183
#
#
# Mechanical properties :
#
#
# Convention : Reuss Voigt Hill
#
# Bulk Modulus (GPa) = 56.07687 60.93561 58.50624
# Shear Modulus (GPa) = 22.99402 24.89525 23.94463
#
# Velocity S-wave (km/s) = 3.53137 3.67447 3.60363
# Velocity P-wave (km/s) = 6.85859 7.14494 7.00323
#
# Compressibility (1/GPa) = 0.01783266
#
# Stress axis : x y z
#
# Youngs Moduli (GPa) = 40.35852 68.31325 77.54651
#
# Poissons Ratio (x) = 0.44697 0.57402
# Poissons Ratio (y) = 0.26406 0.25546
# Poissons Ratio (z) = 0.29875 0.22505
#
# Static dielectric constant tensor:
#      x y z
#    x 3.317670 0.000000 0.000000 
#    y 0.000000 3.575750 0.000000 
#    z 0.000000 0.000000 3.265280 
# 
# 
# High freq. dielectric constant tensor:
#      x y z
#    x 1.697750 0.000000 0.000000 
#    y 0.000000 1.731460 0.000000 
#    z 0.000000 0.000000 1.700890 
# 
# From -- ./inp_files/19342.got.cif
#   From: 2010.03.12/outbox.cif.g09.slc.cpg/sg55_10_cif.got.tgz:19342.got - 2010.04.16 15:19:21.
