data_PCOD8225367
_publ_section_title
;
Structure prediction by ZEFSAII (Michael W. Deem and Ramdas Pophale) SiO2 
 PCOD8225367
Probable space group: P B A M
;
_chemical_formula_sum "Si O2"
_cell_formula_units_Z 48
_cell_length_a 20.282826
_cell_length_b 14.948067
_cell_length_c 8.682285
_cell_angle_alpha 90.000000
_cell_angle_beta 90.000000
_cell_angle_gamma 90.000000
_cell_volume 2632.373671
_symmetry_space_group_name_H-M "P B A M"
_symmetry_group_IT_number 55
_symmetry_cell_setting 'orthorhombic'
loop_
_space_group_symop_operation_xyz
x,y,z
-x,-y,z
1/2+x,1/2-y,-z
1/2-x,1/2+y,-z
-x,-y,-z
x,y,-z
1/2-x,1/2+y,z
1/2+x,1/2-y,z
loop_
_atom_site_type_symbol
_atom_site_label
_atom_site_fract_x
_atom_site_fract_y
_atom_site_fract_z
Si Si1 0.165293 0.694509 0.181347
Si Si2 0.304954 0.009925 0.683310
Si Si3 0.688309 0.618305 0.682929
Si Si4 0.456529 0.421285 0.318985
Si Si5 0.474053 0.224002 0.679562
Si Si6 0.557381 0.062275 0.318908
O O1 0.203701 0.608664 0.247809
O O2 0.199878 0.783370 0.247651
O O3 0.088762 0.688096 0.228040
O O4 0.171957 0.695205 0.000000
O O5 0.305390 0.016685 0.500000
O O6 0.244751 0.948576 0.741110
O O7 0.371621 0.963695 0.749945
O O8 0.688181 0.628611 0.500000
O O9 0.618414 0.578937 0.743360
O O10 0.500000 0.500000 0.240599
O O11 0.454364 0.437378 0.500000
O O12 0.490595 0.326438 0.278019
O O13 0.455117 0.214857 0.500000
O O14 0.538456 0.165075 0.720284
O O15 0.560930 0.046188 0.500000
O O16 0.500000 0.000000 0.247724
#
# Coordination Sequence:
#
# PCOD8225367 Si02
#       6
#     8   8   8   8   8   8
#     4  11  21  33  52  74 101 139 174 205 255 312
#     4  10  19  34  54  77 103 132 172 218 261 305
#     4   9  19  35  54  76 101 133 174 218 257 303
#     4   8  14  27  48  74  99 124 160 207 256 296
#     4   9  16  30  51  72  99 132 168 209 253 305
#     4   9  15  26  49  77 101 127 161 206 257 300
#
# _framework density 18.234493000000001
#
# number of rings (size 3 to 8) (size 9 to 14) (size 15 to 20)
#    0.000    2.667    1.667    2.500    0.000    0.667 
#    3.000    1.667    0.000    8.000    0.000    0.000 
#    0.000    0.000    0.000    0.000    0.000    0.000 
#
# Total GULP energy -595005.930758 kJ/mol
# GULP energy per Si atom -12395.956891 kJ/mol
# Density = 1.819299 g / cm^3
# Si number density = 18.234493 Si / 1000 Ang^3
#
#
#
# Elastic Constant Matrix: (Units=GPa)
#
#
# Indices 1 2 3 4 5 6 
#
# 1 117.3624 98.4646 20.1310 0.0000 0.0000 0.0000
# 2 98.4646 180.1280 29.3201 0.0000 0.0000 0.0000
# 3 20.1310 29.3201 34.5683 0.0000 0.0000 0.0000
# 4 0.0000 0.0000 0.0000 8.7706 0.0000 0.0000
# 5 0.0000 0.0000 0.0000 0.0000 6.5410 0.0000
# 6 0.0000 0.0000 0.0000 0.0000 0.0000 36.2884
#
#
#
# Elastic Compliance Matrix: (Units=1/GPa)
#
#
# Indices 1 2 3 4 5 6 
#
# 1 0.015880 -0.008325 -0.002187 0.000000 0.000000 0.000000
# 2 -0.008325 0.010805 -0.004317 0.000000 0.000000 0.000000
# 3 -0.002187 -0.004317 0.033863 0.000000 0.000000 0.000000
# 4 0.000000 0.000000 0.000000 0.114017 0.000000 0.000000
# 5 0.000000 0.000000 0.000000 0.000000 0.152881 0.000000
# 6 0.000000 0.000000 0.000000 0.000000 0.000000 0.027557
#
#
# Mechanical properties :
#
#
# Convention : Reuss Voigt Hill
#
# Bulk Modulus (GPa) = 32.37137 69.76556 51.06846
# Shear Modulus (GPa) = 12.65964 22.59622 17.62793
#
# Velocity S-wave (km/s) = 2.63776 3.52405 3.11261
# Velocity P-wave (km/s) = 5.20273 7.40958 6.40196
#
# Compressibility (1/GPa) = 0.03089150
#
# Stress axis : x y z
#
# Youngs Moduli (GPa) = 62.97287 92.55220 29.53076
#
# Poissons Ratio (x) = 0.77045 0.06458
# Poissons Ratio (y) = 0.52422 0.12747
# Poissons Ratio (z) = 0.13772 0.39950
#
# Static dielectric constant tensor:
#      x y z
#    x 3.474860 0.000000 0.000000 
#    y 0.000000 3.638430 0.000000 
#    z 0.000000 0.000000 2.885630 
# 
# 
# High freq. dielectric constant tensor:
#      x y z
#    x 1.691500 0.000000 0.000000 
#    y 0.000000 1.720710 0.000000 
#    z 0.000000 0.000000 1.660340 
# 
# From -- ./inp_files/5799.got.cif
#   From: 2010.03.12/outbox.cif.g09.slc.cpg/sg55_3_cif.got.tgz:5799.got - 2010.04.16 15:19:21.
