data_PCOD8225300
_publ_section_title
;
Structure prediction by ZEFSAII (Michael W. Deem and Ramdas Pophale) SiO2 
 PCOD8225300
Probable space group: P B A M
;
_chemical_formula_sum "Si O2"
_cell_formula_units_Z 64
_cell_length_a 17.268176
_cell_length_b 21.998796
_cell_length_c 9.002228
_cell_angle_alpha 90.000000
_cell_angle_beta 90.000000
_cell_angle_gamma 90.000000
_cell_volume 3419.758101
_symmetry_space_group_name_H-M "P B A M"
_symmetry_group_IT_number 55
_symmetry_cell_setting 'orthorhombic'
loop_
_space_group_symop_operation_xyz
x,y,z
-x,-y,z
1/2+x,1/2-y,-z
1/2-x,1/2+y,-z
-x,-y,-z
x,y,-z
1/2-x,1/2+y,z
1/2+x,1/2-y,z
loop_
_atom_site_type_symbol
_atom_site_label
_atom_site_fract_x
_atom_site_fract_y
_atom_site_fract_z
Si Si1 0.162890 0.781246 0.667491
Si Si2 0.585653 0.932118 0.175701
Si Si3 0.732514 0.104094 0.330749
Si Si4 0.586558 0.069442 0.824734
Si Si5 0.289234 0.160681 0.175938
Si Si6 0.530960 0.627702 0.324408
Si Si7 0.874210 0.890529 0.174293
Si Si8 0.137479 0.967760 0.825397
O O1 0.156062 0.756224 0.500000
O O2 0.231133 0.829680 0.680246
O O3 0.184304 0.727112 0.776364
O O4 0.082595 0.813340 0.716714
O O5 0.499777 0.909316 0.220670
O O6 0.650024 0.887672 0.245170
O O7 0.599859 0.000461 0.231281
O O8 0.591558 0.932954 0.000000
O O9 0.730423 0.081276 0.500000
O O10 0.646830 0.111045 0.263680
O O11 0.780573 0.055345 0.235626
O O12 0.600245 0.076057 0.000000
O O13 0.203188 0.143562 0.231082
O O14 0.291809 0.157171 0.000000
O O15 0.530840 0.617121 0.500000
O O16 0.445153 0.639374 0.263298
O O17 0.566187 0.567190 0.250382
O O18 0.868830 0.961476 0.212796
O O19 0.887532 0.880286 0.000000
O O20 0.133825 0.955631 0.000000
#
# Coordination Sequence:
#
# PCOD8225300 Si02
#       8
#     8   8   8   8   8   8   8   8
#     4   9  21  40  54  69 101 143 182 217 262 314
#     4   8  16  32  54  80 108 137 169 215 269 321
#     4  10  20  34  52  77 109 141 179 223 262 313
#     4   9  16  31  56  81 107 138 173 211 266 327
#     4  10  20  36  56  78 105 137 179 227 265 308
#     4  10  21  37  56  79 110 145 180 218 261 317
#     4  10  21  35  54  84 113 137 173 220 268 321
#     4  10  19  33  56  83 113 144 173 214 269 321
#
# _framework density 18.714773999999998
#
# number of rings (size 3 to 8) (size 9 to 14) (size 15 to 20)
#    0.000    2.500    0.000    3.750    0.000    8.000 
#    2.250    3.750    0.000    0.000    0.000    0.000 
#    0.000    0.000    0.000    0.000    0.000    0.000 
#
# Total GULP energy -793606.712034 kJ/mol
# GULP energy per Si atom -12400.104876 kJ/mol
# Density = 1.867218 g / cm^3
# Si number density = 18.714774 Si / 1000 Ang^3
#
#
#
# Elastic Constant Matrix: (Units=GPa)
#
#
# Indices 1 2 3 4 5 6 
#
# 1 161.5998 62.4120 50.0175 0.0000 0.0000 0.0000
# 2 62.4120 81.6255 36.1875 0.0000 0.0000 0.0000
# 3 50.0175 36.1875 58.0902 0.0000 0.0000 0.0000
# 4 0.0000 0.0000 0.0000 11.4833 0.0000 0.0000
# 5 0.0000 0.0000 0.0000 0.0000 20.1764 0.0000
# 6 0.0000 0.0000 0.0000 0.0000 0.0000 15.1998
#
#
#
# Elastic Compliance Matrix: (Units=1/GPa)
#
#
# Indices 1 2 3 4 5 6 
#
# 1 0.009804 -0.005186 -0.005211 0.000000 0.000000 0.000000
# 2 -0.005186 0.019669 -0.007787 0.000000 0.000000 0.000000
# 3 -0.005211 -0.007787 0.026552 0.000000 0.000000 0.000000
# 4 0.000000 0.000000 0.000000 0.087083 0.000000 0.000000
# 5 0.000000 0.000000 0.000000 0.000000 0.049563 0.000000
# 6 0.000000 0.000000 0.000000 0.000000 0.000000 0.065790
#
#
# Mechanical properties :
#
#
# Convention : Reuss Voigt Hill
#
# Bulk Modulus (GPa) = 50.87335 66.50552 58.68943
# Shear Modulus (GPa) = 16.59025 19.55181 18.07103
#
# Velocity S-wave (km/s) = 2.98061 3.23573 3.11079
# Velocity P-wave (km/s) = 6.25203 7.04084 6.65813
#
# Compressibility (1/GPa) = 0.01965666
#
# Stress axis : x y z
#
# Youngs Moduli (GPa) = 102.00072 50.84180 37.66136
#
# Poissons Ratio (x) = 0.26367 0.19624
# Poissons Ratio (y) = 0.52898 0.29329
# Poissons Ratio (z) = 0.53150 0.39593
#
# Static dielectric constant tensor:
#      x y z
#    x 3.719260 0.000000 0.000000 
#    y 0.000000 3.286500 0.000000 
#    z 0.000000 0.000000 3.257440 
# 
# 
# High freq. dielectric constant tensor:
#      x y z
#    x 1.741970 0.000000 0.000000 
#    y 0.000000 1.709170 0.000000 
#    z 0.000000 0.000000 1.712460 
# 
# From -- ./inp_files/8199.got.cif
#   From: 2010.03.12/outbox.cif.g09.slc.cpg/sg55_5_cif.got.tgz:8199.got - 2010.04.16 15:19:21.
