data_PCOD8225825
_publ_section_title
;
Structure prediction by ZEFSAII (Michael W. Deem and Ramdas Pophale) SiO2 
 PCOD8225825
Probable space group: P B A M
;
_chemical_formula_sum "Si O2"
_cell_formula_units_Z 56
_cell_length_a 25.029172
_cell_length_b 13.829890
_cell_length_c 9.274127
_cell_angle_alpha 90.000000
_cell_angle_beta 90.000000
_cell_angle_gamma 90.000000
_cell_volume 3210.245512
_symmetry_space_group_name_H-M "P B A M"
_symmetry_group_IT_number 55
_symmetry_cell_setting 'orthorhombic'
loop_
_space_group_symop_operation_xyz
x,y,z
-x,-y,z
1/2+x,1/2-y,-z
1/2-x,1/2+y,-z
-x,-y,-z
x,y,-z
1/2-x,1/2+y,z
1/2+x,1/2-y,z
loop_
_atom_site_type_symbol
_atom_site_label
_atom_site_fract_x
_atom_site_fract_y
_atom_site_fract_z
Si Si1 0.758085 0.139019 0.168233
Si Si2 0.936632 0.499492 0.658040
Si Si3 0.856263 0.164566 0.662752
Si Si4 0.939323 0.682487 0.833358
Si Si5 0.332075 0.711145 0.164179
Si Si6 0.697476 0.476644 0.336928
Si Si7 0.453053 0.209993 0.330644
O O1 0.807895 0.201369 0.234082
O O2 0.703510 0.195153 0.200031
O O3 0.756027 0.033800 0.247796
O O4 0.767839 0.122098 0.000000
O O5 0.912009 0.522519 0.500000
O O6 0.917665 0.580523 0.770390
O O7 0.922057 0.390389 0.708122
O O8 0.000000 0.500000 0.647442
O O9 0.845916 0.203065 0.500000
O O10 0.913522 0.203404 0.716844
O O11 0.855243 0.046620 0.665313
O O12 0.893651 0.762120 0.810775
O O13 0.991951 0.722197 0.755214
O O14 0.952492 0.665352 0.000000
O O15 0.316499 0.625092 0.268639
O O16 0.322151 0.677942 0.000000
O O17 0.717517 0.459517 0.500000
O O18 0.467227 0.212764 0.500000
#
# Coordination Sequence:
#
# PCOD8225825 Si02
#       7
#     8   8   8   8   8   8   8
#     4   9  18  35  56  75 100 135 170 206 256 311
#     4   8  15  29  48  69  97 136 169 200 253 300
#     4   8  17  34  53  77 103 129 169 214 254 300
#     4  10  20  32  48  75 106 136 174 214 250 298
#     4  10  21  37  54  74 107 142 168 206 258 310
#     4   9  19  35  56  78 101 131 168 216 261 297
#     4   9  17  33  53  72 104 140 170 210 258 307
#
# _framework density 17.44415
#
# number of rings (size 3 to 8) (size 9 to 14) (size 15 to 20)
#    0.857    2.143    0.000    1.714    0.000    5.429 
#    2.571    0.714    0.000    4.286    0.000    0.000 
#    0.000    0.000    0.000    0.000    0.000    0.000 
#
# Total GULP energy -693827.773514 kJ/mol
# GULP energy per Si atom -12389.781670 kJ/mol
# Density = 1.740445 g / cm^3
# Si number density = 17.444150 Si / 1000 Ang^3
#
#
#
# Elastic Constant Matrix: (Units=GPa)
#
#
# Indices 1 2 3 4 5 6 
#
# 1 57.8227 14.3218 38.3196 0.0000 0.0000 0.0000
# 2 14.3218 59.7764 38.4548 0.0000 0.0000 0.0000
# 3 38.3196 38.4548 101.4877 0.0000 0.0000 0.0000
# 4 0.0000 0.0000 0.0000 30.5911 0.0000 0.0000
# 5 0.0000 0.0000 0.0000 0.0000 15.3312 0.0000
# 6 0.0000 0.0000 0.0000 0.0000 0.0000 22.7545
#
#
#
# Elastic Compliance Matrix: (Units=1/GPa)
#
#
# Indices 1 2 3 4 5 6 
#
# 1 0.023066 0.000101 -0.008748 0.000000 0.000000 0.000000
# 2 0.000101 0.022122 -0.008420 0.000000 0.000000 0.000000
# 3 -0.008748 -0.008420 0.016347 0.000000 0.000000 0.000000
# 4 0.000000 0.000000 0.000000 0.032689 0.000000 0.000000
# 5 0.000000 0.000000 0.000000 0.000000 0.065227 0.000000
# 6 0.000000 0.000000 0.000000 0.000000 0.000000 0.043947
#
#
# Mechanical properties :
#
#
# Convention : Reuss Voigt Hill
#
# Bulk Modulus (GPa) = 36.49493 44.58657 40.54075
# Shear Modulus (GPa) = 20.27035 22.26806 21.26920
#
# Velocity S-wave (km/s) = 3.41253 3.57674 3.49560
# Velocity P-wave (km/s) = 6.04099 6.53242 6.29151
#
# Compressibility (1/GPa) = 0.02740106
#
# Stress axis : x y z
#
# Youngs Moduli (GPa) = 43.35316 45.20454 61.17377
#
# Poissons Ratio (x) = -0.00457 0.53513
# Poissons Ratio (y) = -0.00438 0.51510
# Poissons Ratio (z) = 0.37924 0.38063
#
# Static dielectric constant tensor:
#      x y z
#    x 2.976760 0.000000 0.000000 
#    y 0.000000 3.292960 0.000000 
#    z 0.000000 0.000000 3.328670 
# 
# 
# High freq. dielectric constant tensor:
#      x y z
#    x 1.646290 0.000000 0.000000 
#    y 0.000000 1.662390 0.000000 
#    z 0.000000 0.000000 1.681300 
# 
# From -- ./inp_files/10873.got.cif
#   From: 2010.03.12/outbox.cif.g09.slc.cpg/sg55_6_cif.got.tgz:10873.got - 2010.04.16 15:19:21.
