data_PCOD8225964
_publ_section_title
;
Structure prediction by ZEFSAII (Michael W. Deem and Ramdas Pophale) SiO2 
 PCOD8225964
Probable space group: P B A M
;
_chemical_formula_sum "Si O2"
_cell_formula_units_Z 64
_cell_length_a 9.580174
_cell_length_b 26.065449
_cell_length_c 13.066902
_cell_angle_alpha 90.000000
_cell_angle_beta 90.000000
_cell_angle_gamma 90.000000
_cell_volume 3262.956180
_symmetry_space_group_name_H-M "P B A M"
_symmetry_group_IT_number 55
_symmetry_cell_setting 'orthorhombic'
loop_
_space_group_symop_operation_xyz
x,y,z
-x,-y,z
1/2+x,1/2-y,-z
1/2-x,1/2+y,-z
-x,-y,-z
x,y,-z
1/2-x,1/2+y,z
1/2+x,1/2-y,z
loop_
_atom_site_type_symbol
_atom_site_label
_atom_site_fract_x
_atom_site_fract_y
_atom_site_fract_z
Si Si1 0.846946 0.664557 0.797689
Si Si2 0.145730 0.224597 0.119727
Si Si3 0.847993 0.412462 0.386128
Si Si4 0.558775 0.638426 0.881364
Si Si5 0.341028 0.496647 0.312153
Si Si6 0.164029 0.403965 0.383770
Si Si7 0.347753 0.138725 0.179649
Si Si8 0.850484 0.944990 0.115374
O O1 0.847460 0.725505 0.809557
O O2 0.721595 0.638187 0.859571
O O3 0.831620 0.649867 0.678068
O O4 0.987878 0.640211 0.843102
O O5 0.285255 0.192132 0.140266
O O6 0.012368 0.191377 0.157277
O O7 0.138570 0.240362 0.000000
O O8 0.821780 0.389522 0.500000
O O9 0.751455 0.461945 0.372260
O O10 0.814000 0.369371 0.300789
O O11 0.010366 0.429373 0.375702
O O12 0.479704 0.588355 0.836588
O O13 0.524784 0.635485 0.000000
O O14 0.500000 0.500000 0.352264
O O15 0.278863 0.440983 0.334139
O O16 0.333150 0.506305 0.189399
O O17 0.205378 0.391571 0.500000
O O18 0.286411 0.091023 0.115963
O O19 0.875793 0.965257 0.000000
#
# Coordination Sequence:
#
# PCOD8225964 Si02
#       8
#     8   8   8   8   8   8   8   8
#     4  11  20  32  53  78 102 132 177 220 249 292
#     4  10  20  34  52  76 108 142 170 203 254 308
#     4   9  19  37  59  79 102 135 172 212 262 312
#     4   9  18  32  51  76 106 137 167 204 253 304
#     4  11  21  34  56  82 104 131 173 217 255 305
#     4  10  22  39  55  73 102 137 171 212 263 310
#     4   9  19  34  55  79 105 137 175 214 252 301
#     4   9  19  36  53  72 106 144 169 201 257 314
#
# _framework density 19.614117
#
# number of rings (size 3 to 8) (size 9 to 14) (size 15 to 20)
#    0.000    2.250    0.000    3.750    0.000    5.250 
#    0.000    1.875    0.000   12.750    0.000    0.000 
#    0.000    0.000    0.000    0.000    0.000    0.000 
#
# Total GULP energy -793485.047525 kJ/mol
# GULP energy per Si atom -12398.203868 kJ/mol
# Density = 1.956947 g / cm^3
# Si number density = 19.614117 Si / 1000 Ang^3
#
#
#
# Elastic Constant Matrix: (Units=GPa)
#
#
# Indices 1 2 3 4 5 6 
#
# 1 124.1592 32.0095 32.8377 0.0000 0.0000 0.0000
# 2 32.0095 83.0888 46.6811 0.0000 0.0000 0.0000
# 3 32.8377 46.6811 96.0807 0.0000 0.0000 0.0000
# 4 0.0000 0.0000 0.0000 24.8206 0.0000 0.0000
# 5 0.0000 0.0000 0.0000 0.0000 21.6238 0.0000
# 6 0.0000 0.0000 0.0000 0.0000 0.0000 18.1608
#
#
#
# Elastic Compliance Matrix: (Units=1/GPa)
#
#
# Indices 1 2 3 4 5 6 
#
# 1 0.009202 -0.002446 -0.001957 0.000000 0.000000 0.000000
# 2 -0.002446 0.017204 -0.007523 0.000000 0.000000 0.000000
# 3 -0.001957 -0.007523 0.014732 0.000000 0.000000 0.000000
# 4 0.000000 0.000000 0.000000 0.040289 0.000000 0.000000
# 5 0.000000 0.000000 0.000000 0.000000 0.046245 0.000000
# 6 0.000000 0.000000 0.000000 0.000000 0.000000 0.055064
#
#
# Mechanical properties :
#
#
# Convention : Reuss Voigt Hill
#
# Bulk Modulus (GPa) = 57.84586 58.48727 58.16656
# Shear Modulus (GPa) = 23.54615 25.70772 24.62693
#
# Velocity S-wave (km/s) = 3.46854 3.62425 3.54725
# Velocity P-wave (km/s) = 6.75255 6.88457 6.81888
#
# Compressibility (1/GPa) = 0.01728732
#
# Stress axis : x y z
#
# Youngs Moduli (GPa) = 108.66909 58.12617 67.88111
#
# Poissons Ratio (x) = 0.14216 0.13283
# Poissons Ratio (y) = 0.26578 0.51065
# Poissons Ratio (z) = 0.21264 0.43727
#
# Static dielectric constant tensor:
#      x y z
#    x 3.730200 0.000000 0.000000 
#    y 0.000000 3.396440 0.000000 
#    z 0.000000 0.000000 3.577410 
# 
# 
# High freq. dielectric constant tensor:
#      x y z
#    x 1.777330 0.000000 0.000000 
#    y 0.000000 1.745510 0.000000 
#    z 0.000000 0.000000 1.754550 
# 
# From -- ./inp_files/17821.got.cif
#   From: 2010.03.12/outbox.cif.g09.slc.cpg/sg55_9_cif.got.tgz:17821.got - 2010.04.16 15:19:21.
