data_PCOD8225140
_publ_section_title
;
Structure prediction by ZEFSAII (Michael W. Deem and Ramdas Pophale) SiO2 
 PCOD8225140
Probable space group: P B A M
;
_chemical_formula_sum "Si O2"
_cell_formula_units_Z 56
_cell_length_a 19.297892
_cell_length_b 16.246986
_cell_length_c 8.752390
_cell_angle_alpha 90.000000
_cell_angle_beta 90.000000
_cell_angle_gamma 90.000000
_cell_volume 2744.159428
_symmetry_space_group_name_H-M "P B A M"
_symmetry_group_IT_number 55
_symmetry_cell_setting 'orthorhombic'
loop_
_space_group_symop_operation_xyz
x,y,z
-x,-y,z
1/2+x,1/2-y,-z
1/2-x,1/2+y,-z
-x,-y,-z
x,y,-z
1/2-x,1/2+y,z
1/2+x,1/2-y,z
loop_
_atom_site_type_symbol
_atom_site_label
_atom_site_fract_x
_atom_site_fract_y
_atom_site_fract_z
Si Si1 0.768097 0.178633 0.676094
Si Si2 0.664437 0.527877 0.829186
Si Si3 0.123661 0.294406 0.178582
Si Si4 0.907022 0.264260 0.675411
Si Si5 0.523243 0.615801 0.169504
Si Si6 0.610188 0.380785 0.323605
Si Si7 0.491621 0.906435 0.677829
O O1 0.744412 0.181790 0.500000
O O2 0.799010 0.089109 0.711698
O O3 0.703445 0.187001 0.786936
O O4 0.824721 0.251358 0.709527
O O5 0.583855 0.549826 0.834122
O O6 0.668757 0.434849 0.763621
O O7 0.696963 0.532195 0.000000
O O8 0.105568 0.211765 0.266257
O O9 0.072950 0.366720 0.233899
O O10 0.113801 0.282176 0.000000
O O11 0.921092 0.238176 0.500000
O O12 0.949848 0.205926 0.786179
O O13 0.935649 0.356870 0.705661
O O14 0.466167 0.583445 0.289216
O O15 0.490141 0.623162 0.000000
O O16 0.629011 0.383637 0.500000
O O17 0.472158 0.905985 0.500000
O O18 0.500000 0.000000 0.737429
#
# Coordination Sequence:
#
# PCOD8225140 Si02
#       7
#     8   8   8   8   8   8   8
#     4  10  21  40  63  88 121 163 209 256 312 378
#     4  10  21  37  57  86 122 156 196 243 301 367
#     4  12  25  42  63  88 123 166 209 259 318 371
#     4   9  18  35  61  89 118 157 203 249 302 368
#     4  10  19  32  55  86 120 155 188 236 294 353
#     4  12  23  36  57  86 119 157 202 247 298 361
#     4  10  21  40  66  95 125 160 205 262 319 376
#
# _framework density 20.406977999999999
#
# number of rings (size 3 to 8) (size 9 to 14) (size 15 to 20)
#    0.000    1.571    1.429    4.286    0.000    4.286 
#    2.571    0.000    0.000    0.000    0.000    0.000 
#    0.000    0.000    0.000    0.000    0.000    0.000 
#
# Total GULP energy -694222.802606 kJ/mol
# GULP energy per Si atom -12396.835761 kJ/mol
# Density = 2.036053 g / cm^3
# Si number density = 20.406978 Si / 1000 Ang^3
#
#
#
# Elastic Constant Matrix: (Units=GPa)
#
#
# Indices 1 2 3 4 5 6 
#
# 1 81.9260 27.8921 20.2927 0.0000 0.0000 0.0000
# 2 27.8921 111.2953 33.6447 0.0000 0.0000 0.0000
# 3 20.2927 33.6447 89.3481 0.0000 0.0000 0.0000
# 4 0.0000 0.0000 0.0000 25.3051 0.0000 0.0000
# 5 0.0000 0.0000 0.0000 0.0000 27.0672 0.0000
# 6 0.0000 0.0000 0.0000 0.0000 0.0000 10.2123
#
#
#
# Elastic Compliance Matrix: (Units=1/GPa)
#
#
# Indices 1 2 3 4 5 6 
#
# 1 0.013669 -0.002807 -0.002048 0.000000 0.000000 0.000000
# 2 -0.002807 0.010716 -0.003398 0.000000 0.000000 0.000000
# 3 -0.002048 -0.003398 0.012937 0.000000 0.000000 0.000000
# 4 0.000000 0.000000 0.000000 0.039518 0.000000 0.000000
# 5 0.000000 0.000000 0.000000 0.000000 0.036945 0.000000
# 6 0.000000 0.000000 0.000000 0.000000 0.000000 0.097921
#
#
# Mechanical properties :
#
#
# Convention : Reuss Voigt Hill
#
# Bulk Modulus (GPa) = 48.03668 49.58092 48.80880
# Shear Modulus (GPa) = 21.26322 25.89957 23.58140
#
# Velocity S-wave (km/s) = 3.23144 3.56638 3.40303
# Velocity P-wave (km/s) = 6.12482 6.42710 6.27778
#
# Compressibility (1/GPa) = 0.02081742
#
# Stress axis : x y z
#
# Youngs Moduli (GPa) = 73.15915 93.32209 77.29988
#
# Poissons Ratio (x) = 0.26192 0.15828
# Poissons Ratio (y) = 0.20533 0.26263
# Poissons Ratio (z) = 0.14980 0.31707
#
# Static dielectric constant tensor:
#      x y z
#    x 3.884470 0.000000 0.000000 
#    y 0.000000 3.748000 0.000000 
#    z 0.000000 0.000000 3.809810 
# 
# 
# High freq. dielectric constant tensor:
#      x y z
#    x 1.781060 0.000000 0.000000 
#    y 0.000000 1.796610 0.000000 
#    z 0.000000 0.000000 1.802410 
# 
# From -- ./inp_files/8792.got.cif
#   From: 2010.03.12/outbox.cif.g09.slc.cpg/sg55_5_cif.got.tgz:8792.got - 2010.04.16 15:19:21.
