data_PCOD8225939
_publ_section_title
;
Structure prediction by ZEFSAII (Michael W. Deem and Ramdas Pophale) SiO2 
 PCOD8225939
Probable space group: P B A M
;
_chemical_formula_sum "Si O2"
_cell_formula_units_Z 56
_cell_length_a 13.400004
_cell_length_b 29.204874
_cell_length_c 8.923813
_cell_angle_alpha 90.000000
_cell_angle_beta 90.000000
_cell_angle_gamma 90.000000
_cell_volume 3492.293422
_symmetry_space_group_name_H-M "P B A M"
_symmetry_group_IT_number 55
_symmetry_cell_setting 'orthorhombic'
loop_
_space_group_symop_operation_xyz
x,y,z
-x,-y,z
1/2+x,1/2-y,-z
1/2-x,1/2+y,-z
-x,-y,-z
x,y,-z
1/2-x,1/2+y,z
1/2+x,1/2-y,z
loop_
_atom_site_type_symbol
_atom_site_label
_atom_site_fract_x
_atom_site_fract_y
_atom_site_fract_z
Si Si1 0.395380 0.595315 0.176348
Si Si2 0.891918 0.094663 0.676043
Si Si3 0.728801 0.682693 0.326330
Si Si4 0.118039 0.004903 0.665100
Si Si5 0.696075 0.319423 0.325584
Si Si6 0.400006 0.766552 0.824216
Si Si7 0.898275 0.269887 0.670812
O O1 0.506829 0.603854 0.234529
O O2 0.352706 0.545158 0.220805
O O3 0.321362 0.632416 0.246034
O O4 0.394677 0.599984 0.000000
O O5 0.918713 0.096429 0.500000
O O6 0.811104 0.132827 0.719533
O O7 0.843036 0.045230 0.718288
O O8 0.760505 0.685461 0.500000
O O9 0.825505 0.693237 0.226951
O O10 0.641909 0.719159 0.293153
O O11 0.160510 0.017155 0.500000
O O12 0.000000 0.000000 0.656255
O O13 0.669808 0.323254 0.500000
O O14 0.624023 0.280979 0.257536
O O15 0.811109 0.306480 0.299154
O O16 0.511622 0.781713 0.781659
O O17 0.390600 0.759152 0.000000
O O18 0.936017 0.272888 0.500000
#
# Coordination Sequence:
#
# PCOD8225939 Si02
#       7
#     8   8   8   8   8   8   8
#     4  11  20  28  43  68  96 122 148 185 231 274
#     4   9  17  30  48  67  90 124 160 189 217 258
#     4   9  18  32  49  67  88 119 157 188 217 259
#     4   8  15  28  44  63  89 121 155 186 218 262
#     4  10  20  34  50  65  86 120 158 189 218 261
#     4  11  21  31  46  69  96 120 144 183 229 270
#     4   9  18  32  49  66  87 120 156 187 219 259
#
# _framework density 16.035307
#
# number of rings (size 3 to 8) (size 9 to 14) (size 15 to 20)
#    0.000    2.429    0.000    5.571    0.000    7.143 
#    0.000    0.000    0.000    0.000    0.000    1.000 
#    0.000    8.000    0.000    0.000    0.000    0.000 
#
# Total GULP energy -694379.128412 kJ/mol
# GULP energy per Si atom -12399.627293 kJ/mol
# Density = 1.599881 g / cm^3
# Si number density = 16.035307 Si / 1000 Ang^3
#
#
#
# Elastic Constant Matrix: (Units=GPa)
#
#
# Indices 1 2 3 4 5 6 
#
# 1 71.8659 47.2637 46.9733 0.0000 0.0000 0.0000
# 2 47.2637 135.5644 57.4723 0.0000 0.0000 0.0000
# 3 46.9733 57.4723 107.8448 0.0000 0.0000 0.0000
# 4 0.0000 0.0000 0.0000 17.5686 0.0000 0.0000
# 5 0.0000 0.0000 0.0000 0.0000 14.4010 0.0000
# 6 0.0000 0.0000 0.0000 0.0000 0.0000 20.3714
#
#
#
# Elastic Compliance Matrix: (Units=1/GPa)
#
#
# Indices 1 2 3 4 5 6 
#
# 1 0.021415 -0.004537 -0.006910 0.000000 0.000000 0.000000
# 2 -0.004537 0.010491 -0.003615 0.000000 0.000000 0.000000
# 3 -0.006910 -0.003615 0.014209 0.000000 0.000000 0.000000
# 4 0.000000 0.000000 0.000000 0.056920 0.000000 0.000000
# 5 0.000000 0.000000 0.000000 0.000000 0.069439 0.000000
# 6 0.000000 0.000000 0.000000 0.000000 0.000000 0.049088
#
#
# Mechanical properties :
#
#
# Convention : Reuss Voigt Hill
#
# Bulk Modulus (GPa) = 62.53239 68.74375 65.63807
# Shear Modulus (GPa) = 19.45412 21.37258 20.41335
#
# Velocity S-wave (km/s) = 3.48689 3.65478 3.57182
# Velocity P-wave (km/s) = 7.43590 7.79571 7.61793
#
# Compressibility (1/GPa) = 0.01599171
#
# Stress axis : x y z
#
# Youngs Moduli (GPa) = 46.69640 95.32257 70.38009
#
# Poissons Ratio (x) = 0.43246 0.48632
# Poissons Ratio (y) = 0.21185 0.25440
# Poissons Ratio (z) = 0.32267 0.34455
#
# Static dielectric constant tensor:
#      x y z
#    x 2.756390 0.000000 0.000000 
#    y 0.000000 3.361990 0.000000 
#    z 0.000000 0.000000 3.004940 
# 
# 
# High freq. dielectric constant tensor:
#      x y z
#    x 1.581020 0.000000 0.000000 
#    y 0.000000 1.617950 0.000000 
#    z 0.000000 0.000000 1.617890 
# 
# From -- ./inp_files/6880.got.cif
#   From: 2010.03.12/outbox.cif.g09.slc.cpg/sg55_4_cif.got.tgz:6880.got - 2010.04.16 15:19:21.
