data_PCOD8225426
_publ_section_title
;
Structure prediction by ZEFSAII (Michael W. Deem and Ramdas Pophale) SiO2 
 PCOD8225426
Probable space group: P B A M
;
_chemical_formula_sum "Si O2"
_cell_formula_units_Z 64
_cell_length_a 25.093487
_cell_length_b 14.541061
_cell_length_c 9.009736
_cell_angle_alpha 90.000000
_cell_angle_beta 90.000000
_cell_angle_gamma 90.000000
_cell_volume 3287.525856
_symmetry_space_group_name_H-M "P B A M"
_symmetry_group_IT_number 55
_symmetry_cell_setting 'orthorhombic'
loop_
_space_group_symop_operation_xyz
x,y,z
-x,-y,z
1/2+x,1/2-y,-z
1/2-x,1/2+y,-z
-x,-y,-z
x,y,-z
1/2-x,1/2+y,z
1/2+x,1/2-y,z
loop_
_atom_site_type_symbol
_atom_site_label
_atom_site_fract_x
_atom_site_fract_y
_atom_site_fract_z
Si Si1 0.598926 0.512883 0.824478
Si Si2 0.451163 0.292209 0.824966
Si Si3 0.230936 0.749378 0.169459
Si Si4 0.131328 0.666109 0.327902
Si Si5 0.163166 0.273821 0.674423
Si Si6 0.941889 0.836828 0.325048
Si Si7 0.217098 0.965877 0.167179
Si Si8 0.821151 0.520374 0.669827
O O1 0.578162 0.613575 0.780699
O O2 0.562619 0.438983 0.741194
O O3 0.659874 0.502790 0.767749
O O4 0.594064 0.497458 0.000000
O O5 0.416600 0.206485 0.768251
O O6 0.508003 0.285869 0.746406
O O7 0.458549 0.283309 0.000000
O O8 0.187844 0.702412 0.273183
O O9 0.289208 0.725952 0.234394
O O10 0.220203 0.856927 0.177684
O O11 0.226745 0.713930 0.000000
O O12 0.123371 0.692340 0.500000
O O13 0.132716 0.555379 0.304677
O O14 0.175018 0.265041 0.500000
O O15 0.109285 0.222850 0.719632
O O16 0.157609 0.380610 0.724933
O O17 0.949764 0.843604 0.500000
O O18 0.266437 0.011788 0.251497
O O19 0.221333 0.000717 0.000000
O O20 0.804857 0.527400 0.500000
#
# Coordination Sequence:
#
# PCOD8225426 Si02
#       8
#     8   8   8   8   8   8   8   8
#     4  10  21  38  57  82 116 154 190 230 284 344
#     4  11  23  42  62  82 114 153 194 237 287 344
#     4  10  19  34  56  83 115 151 189 230 282 339
#     4  11  22  36  58  87 116 148 191 237 285 337
#     4   9  20  40  59  81 116 153 191 237 286 339
#     4  11  24  39  59  86 114 149 196 243 290 341
#     4   9  18  34  54  81 115 150 187 225 275 337
#     4   9  20  37  57  82 115 153 189 231 285 337
#
# _framework density 19.467528000000001
#
# number of rings (size 3 to 8) (size 9 to 14) (size 15 to 20)
#    0.000    2.000    1.250    1.875    1.750    5.500 
#    0.000    0.625    0.000    3.750    0.000    0.000 
#    0.000    0.000    0.000    0.000    0.000    0.000 
#
# Total GULP energy -793725.030470 kJ/mol
# GULP energy per Si atom -12401.953601 kJ/mol
# Density = 1.942322 g / cm^3
# Si number density = 19.467528 Si / 1000 Ang^3
#
#
#
# Elastic Constant Matrix: (Units=GPa)
#
#
# Indices 1 2 3 4 5 6 
#
# 1 99.9529 16.6077 35.8720 0.0000 0.0000 0.0000
# 2 16.6077 20.8753 14.7002 0.0000 0.0000 0.0000
# 3 35.8720 14.7002 59.6089 0.0000 0.0000 0.0000
# 4 0.0000 0.0000 0.0000 23.8500 0.0000 0.0000
# 5 0.0000 0.0000 0.0000 0.0000 37.5246 0.0000
# 6 0.0000 0.0000 0.0000 0.0000 0.0000 28.7819
#
#
#
# Elastic Compliance Matrix: (Units=1/GPa)
#
#
# Indices 1 2 3 4 5 6 
#
# 1 0.013356 -0.006009 -0.006555 0.000000 0.000000 0.000000
# 2 -0.006009 0.060675 -0.011347 0.000000 0.000000 0.000000
# 3 -0.006555 -0.011347 0.023519 0.000000 0.000000 0.000000
# 4 0.000000 0.000000 0.000000 0.041929 0.000000 0.000000
# 5 0.000000 0.000000 0.000000 0.000000 0.026649 0.000000
# 6 0.000000 0.000000 0.000000 0.000000 0.000000 0.034744
#
#
# Mechanical properties :
#
#
# Convention : Reuss Voigt Hill
#
# Bulk Modulus (GPa) = 20.10986 34.97746 27.54366
# Shear Modulus (GPa) = 18.84870 25.58177 22.21523
#
# Velocity S-wave (km/s) = 3.11499 3.62895 3.38175
# Velocity P-wave (km/s) = 4.82596 5.96365 5.42471
#
# Compressibility (1/GPa) = 0.04972685
#
# Stress axis : x y z
#
# Youngs Moduli (GPa) = 74.87350 16.48135 42.51834
#
# Poissons Ratio (x) = 0.09904 0.27873
# Poissons Ratio (y) = 0.44993 0.48245
# Poissons Ratio (z) = 0.49083 0.18701
#
# Static dielectric constant tensor:
#      x y z
#    x 3.588680 0.000000 0.000000 
#    y 0.000000 3.654110 0.000000 
#    z 0.000000 0.000000 3.579910 
# 
# 
# High freq. dielectric constant tensor:
#      x y z
#    x 1.754620 0.000000 0.000000 
#    y 0.000000 1.757710 0.000000 
#    z 0.000000 0.000000 1.758860 
# 
# From -- ./inp_files/9780.got.cif
#   From: 2010.03.12/outbox.cif.g09.slc.cpg/sg55_5_cif.got.tgz:9780.got - 2010.04.16 15:19:21.
