data_PCOD8225433
_publ_section_title
;
Structure prediction by ZEFSAII (Michael W. Deem and Ramdas Pophale) SiO2 
 PCOD8225433
Probable space group: P B A M
;
_chemical_formula_sum "Si O2"
_cell_formula_units_Z 48
_cell_length_a 10.094057
_cell_length_b 27.328433
_cell_length_c 8.400696
_cell_angle_alpha 90.000000
_cell_angle_beta 90.000000
_cell_angle_gamma 90.000000
_cell_volume 2317.371982
_symmetry_space_group_name_H-M "P B A M"
_symmetry_group_IT_number 55
_symmetry_cell_setting 'orthorhombic'
loop_
_space_group_symop_operation_xyz
x,y,z
-x,-y,z
1/2+x,1/2-y,-z
1/2-x,1/2+y,-z
-x,-y,-z
x,y,-z
1/2-x,1/2+y,z
1/2+x,1/2-y,z
loop_
_atom_site_type_symbol
_atom_site_label
_atom_site_fract_x
_atom_site_fract_y
_atom_site_fract_z
Si Si1 0.529823 0.388040 0.310166
Si Si2 0.624140 0.283142 0.314471
Si Si3 0.593451 0.786156 0.816896
Si Si4 0.254730 0.429831 0.689611
Si Si5 0.021300 0.611497 0.686598
Si Si6 0.750831 0.460982 0.686852
O O1 0.531785 0.387882 0.500000
O O2 0.569807 0.334614 0.245919
O O3 0.383775 0.401479 0.246686
O O4 0.632600 0.427950 0.241192
O O5 0.656877 0.287536 0.500000
O O6 0.759281 0.268075 0.226480
O O7 0.514478 0.241876 0.288296
O O8 0.581775 0.843658 0.783391
O O9 0.565381 0.774645 0.000000
O O10 0.252817 0.433060 0.500000
O O11 0.252656 0.484741 0.762004
O O12 0.126746 0.399687 0.747337
O O13 0.026619 0.624413 0.500000
O O14 0.108261 0.563602 0.724392
O O15 0.727349 0.465238 0.500000
#
# Coordination Sequence:
#
# PCOD8225433 Si02
#       6
#     8   8   8   8   8   8
#     4   9  17  30  51  84 118 148 188 241 298 348
#     4  11  23  42  66  91 118 156 204 253 300 363
#     4  12  26  43  62  89 122 159 199 251 312 366
#     4   9  17  27  49  86 122 152 189 245 301 347
#     4  10  19  34  56  85 118 156 200 244 293 356
#     4   9  15  28  50  81 120 154 191 245 301 347
#
# _framework density 20.713117
#
# number of rings (size 3 to 8) (size 9 to 14) (size 15 to 20)
#    0.000    2.000    1.667    3.000    2.333    4.000 
#    0.000    0.000    0.000    2.000    0.000    1.167 
#    0.000    0.000    0.000    0.000    0.000    0.000 
#
# Total GULP energy -595302.943991 kJ/mol
# GULP energy per Si atom -12402.144666 kJ/mol
# Density = 2.066597 g / cm^3
# Si number density = 20.713117 Si / 1000 Ang^3
#
#
#
# Elastic Constant Matrix: (Units=GPa)
#
#
# Indices 1 2 3 4 5 6 
#
# 1 154.7988 29.5991 12.3832 0.0000 0.0000 0.0000
# 2 29.5991 82.0387 10.5658 0.0000 0.0000 0.0000
# 3 12.3832 10.5658 30.5993 0.0000 0.0000 0.0000
# 4 0.0000 0.0000 0.0000 6.1787 0.0000 0.0000
# 5 0.0000 0.0000 0.0000 0.0000 15.0839 0.0000
# 6 0.0000 0.0000 0.0000 0.0000 0.0000 40.8530
#
#
#
# Elastic Compliance Matrix: (Units=1/GPa)
#
#
# Indices 1 2 3 4 5 6 
#
# 1 0.007062 -0.002281 -0.002070 0.000000 0.000000 0.000000
# 2 -0.002281 0.013494 -0.003736 0.000000 0.000000 0.000000
# 3 -0.002070 -0.003736 0.034808 0.000000 0.000000 0.000000
# 4 0.000000 0.000000 0.000000 0.161846 0.000000 0.000000
# 5 0.000000 0.000000 0.000000 0.000000 0.066296 0.000000
# 6 0.000000 0.000000 0.000000 0.000000 0.000000 0.024478
#
#
# Mechanical properties :
#
#
# Convention : Reuss Voigt Hill
#
# Bulk Modulus (GPa) = 25.51749 41.39256 33.45502
# Shear Modulus (GPa) = 14.82706 26.74904 20.78805
#
# Velocity S-wave (km/s) = 2.67840 3.59751 3.17143
# Velocity P-wave (km/s) = 4.68095 6.10600 5.44034
#
# Compressibility (1/GPa) = 0.03918881
#
# Stress axis : x y z
#
# Youngs Moduli (GPa) = 141.60710 74.10920 28.72873
#
# Poissons Ratio (x) = 0.16906 0.05947
# Poissons Ratio (y) = 0.32304 0.10733
# Poissons Ratio (z) = 0.29314 0.27688
#
# Static dielectric constant tensor:
#      x y z
#    x 3.957680 0.000000 0.000000 
#    y 0.000000 3.833970 0.000000 
#    z 0.000000 0.000000 3.124580 
# 
# 
# High freq. dielectric constant tensor:
#      x y z
#    x 1.828900 0.000000 0.000000 
#    y 0.000000 1.818550 0.000000 
#    z 0.000000 0.000000 1.748080 
# 
# From -- ./inp_files/2907.got.cif
#   From: 2010.03.12/outbox.cif.g09.slc.cpg/sg55_2_cif.got.tgz:2907.got - 2010.04.16 15:19:21.
