data_PCOD8225320
_publ_section_title
;
Structure prediction by ZEFSAII (Michael W. Deem and Ramdas Pophale) SiO2 
 PCOD8225320
Probable space group: P B A M
;
_chemical_formula_sum "Si O2"
_cell_formula_units_Z 64
_cell_length_a 28.567307
_cell_length_b 12.853536
_cell_length_c 9.021963
_cell_angle_alpha 90.000000
_cell_angle_beta 90.000000
_cell_angle_gamma 90.000000
_cell_volume 3312.782794
_symmetry_space_group_name_H-M "P B A M"
_symmetry_group_IT_number 55
_symmetry_cell_setting 'orthorhombic'
loop_
_space_group_symop_operation_xyz
x,y,z
-x,-y,z
1/2+x,1/2-y,-z
1/2-x,1/2+y,-z
-x,-y,-z
x,y,-z
1/2-x,1/2+y,z
1/2+x,1/2-y,z
loop_
_atom_site_type_symbol
_atom_site_label
_atom_site_fract_x
_atom_site_fract_y
_atom_site_fract_z
Si Si1 0.292328 0.546800 0.672284
Si Si2 0.426052 0.413828 0.832688
Si Si3 0.063795 0.330568 0.325311
Si Si4 0.540230 0.783937 0.325564
Si Si5 0.798921 0.380402 0.825701
Si Si6 0.603490 0.386823 0.674219
Si Si7 0.680628 0.647648 0.833835
Si Si8 0.387923 0.039408 0.323494
O O1 0.280240 0.556348 0.500000
O O2 0.253178 0.602317 0.768539
O O3 0.341805 0.599629 0.712590
O O4 0.292874 0.425959 0.717964
O O5 0.457725 0.328584 0.750953
O O6 0.428379 0.525414 0.752193
O O7 0.374032 0.371133 0.828408
O O8 0.444319 0.427766 0.000000
O O9 0.069843 0.330934 0.500000
O O10 0.087931 0.225517 0.263210
O O11 0.088949 0.433218 0.261169
O O12 0.009298 0.334960 0.281758
O O13 0.544250 0.765195 0.500000
O O14 0.580576 0.862819 0.270341
O O15 0.810846 0.263622 0.780289
O O16 0.836252 0.454985 0.745666
O O17 0.801689 0.400426 0.000000
O O18 0.594543 0.398016 0.500000
O O19 0.700166 0.628222 0.000000
O O20 0.384009 0.037928 0.500000
#
# Coordination Sequence:
#
# PCOD8225320 Si02
#       8
#     8   8   8   8   8   8   8   8
#     4  10  21  35  55  83 109 140 185 235 284 334
#     4  10  19  34  56  80 110 144 186 233 277 326
#     4   9  19  36  57  82 115 151 185 230 286 341
#     4  10  19  33  57  85 112 147 190 233 282 336
#     4  11  22  37  57  82 112 147 187 227 281 343
#     4   9  19  37  57  78 109 147 187 231 284 339
#     4   9  19  36  55  75 105 146 183 225 278 332
#     4  10  20  35  57  84 113 146 191 238 279 329
#
# _framework density 19.319105
#
# number of rings (size 3 to 8) (size 9 to 14) (size 15 to 20)
#    0.000    2.250    1.250    1.500    0.000    5.000 
#    0.000    5.625    0.000    1.500    0.000    0.000 
#    0.000    0.000    0.000    0.000    0.000    0.000 
#
# Total GULP energy -793676.407625 kJ/mol
# GULP energy per Si atom -12401.193869 kJ/mol
# Density = 1.927513 g / cm^3
# Si number density = 19.319105 Si / 1000 Ang^3
#
#
#
# Elastic Constant Matrix: (Units=GPa)
#
#
# Indices 1 2 3 4 5 6 
#
# 1 43.2313 29.7647 23.9403 0.0000 0.0000 0.0000
# 2 29.7647 114.3999 35.7551 0.0000 0.0000 0.0000
# 3 23.9403 35.7551 51.8389 0.0000 0.0000 0.0000
# 4 0.0000 0.0000 0.0000 22.7967 0.0000 0.0000
# 5 0.0000 0.0000 0.0000 0.0000 18.7328 0.0000
# 6 0.0000 0.0000 0.0000 0.0000 0.0000 24.7516
#
#
#
# Elastic Compliance Matrix: (Units=1/GPa)
#
#
# Indices 1 2 3 4 5 6 
#
# 1 0.033093 -0.004887 -0.011912 0.000000 0.000000 0.000000
# 2 -0.004887 0.011865 -0.005927 0.000000 0.000000 0.000000
# 3 -0.011912 -0.005927 0.028880 0.000000 0.000000 0.000000
# 4 0.000000 0.000000 0.000000 0.043866 0.000000 0.000000
# 5 0.000000 0.000000 0.000000 0.000000 0.053382 0.000000
# 6 0.000000 0.000000 0.000000 0.000000 0.000000 0.040402
#
#
# Mechanical properties :
#
#
# Convention : Reuss Voigt Hill
#
# Bulk Modulus (GPa) = 35.22923 43.15448 39.19185
# Shear Modulus (GPa) = 18.76865 21.25688 20.01277
#
# Velocity S-wave (km/s) = 3.12028 3.32068 3.22204
# Velocity P-wave (km/s) = 5.59076 6.09006 5.84574
#
# Compressibility (1/GPa) = 0.02838552
#
# Stress axis : x y z
#
# Youngs Moduli (GPa) = 30.21814 84.28016 34.62624
#
# Poissons Ratio (x) = 0.41188 0.41247
# Poissons Ratio (y) = 0.14768 0.20523
# Poissons Ratio (z) = 0.35996 0.49952
#
# Static dielectric constant tensor:
#      x y z
#    x 3.478350 0.000000 0.000000 
#    y 0.000000 3.765510 0.000000 
#    z 0.000000 0.000000 3.396430 
# 
# 
# High freq. dielectric constant tensor:
#      x y z
#    x 1.750370 0.000000 0.000000 
#    y 0.000000 1.759860 0.000000 
#    z 0.000000 0.000000 1.734680 
# 
# From -- ./inp_files/10760.got.cif
#   From: 2010.03.12/outbox.cif.g09.slc.cpg/sg55_6_cif.got.tgz:10760.got - 2010.04.16 15:19:21.
