data_PCOD8225217
_publ_section_title
;
Structure prediction by ZEFSAII (Michael W. Deem and Ramdas Pophale) SiO2 
 PCOD8225217
Probable space group: P B A M
;
_chemical_formula_sum "Si O2"
_cell_formula_units_Z 56
_cell_length_a 20.142818
_cell_length_b 16.672615
_cell_length_c 8.664508
_cell_angle_alpha 90.000000
_cell_angle_beta 90.000000
_cell_angle_gamma 90.000000
_cell_volume 2909.831610
_symmetry_space_group_name_H-M "P B A M"
_symmetry_group_IT_number 55
_symmetry_cell_setting 'orthorhombic'
loop_
_space_group_symop_operation_xyz
x,y,z
-x,-y,z
1/2+x,1/2-y,-z
1/2-x,1/2+y,-z
-x,-y,-z
x,y,-z
1/2-x,1/2+y,z
1/2+x,1/2-y,z
loop_
_atom_site_type_symbol
_atom_site_label
_atom_site_fract_x
_atom_site_fract_y
_atom_site_fract_z
Si Si1 0.217164 0.320519 0.817867
Si Si2 0.186646 0.486750 0.317130
Si Si3 0.948083 0.434869 0.683569
Si Si4 0.521987 0.757869 0.683740
Si Si5 0.668420 0.474326 0.317765
Si Si6 0.619117 0.305936 0.683975
Si Si7 0.142350 0.850122 0.316464
O O1 0.179589 0.399193 0.756623
O O2 0.177584 0.243706 0.760431
O O3 0.291301 0.312366 0.753001
O O4 0.219687 0.322836 0.000000
O O5 0.185191 0.474424 0.500000
O O6 0.125735 0.541724 0.260771
O O7 0.254915 0.528333 0.261072
O O8 0.951821 0.433209 0.500000
O O9 0.966157 0.347248 0.749834
O O10 0.000000 0.500000 0.749422
O O11 0.522965 0.758448 0.500000
O O12 0.451726 0.725273 0.744732
O O13 0.579561 0.699364 0.746495
O O14 0.668079 0.472188 0.500000
O O15 0.627970 0.397613 0.256523
O O16 0.634419 0.557215 0.261375
O O17 0.624523 0.299088 0.500000
O O18 0.148198 0.844808 0.500000
#
# Coordination Sequence:
#
# PCOD8225217 Si02
#       7
#     8   8   8   8   8   8   8
#     4  11  22  35  52  76 106 141 180 220 266 315
#     4   9  17  32  53  75 100 134 177 221 265 313
#     4   9  16  26  46  77 109 135 168 213 261 313
#     4   9  18  30  52  84 109 137 175 219 268 317
#     4   8  16  29  50  79 103 132 170 215 264 311
#     4  10  19  33  54  80 109 139 174 214 265 322
#     4   9  18  35  56  78 105 137 177 223 269 314
#
# _framework density 19.245100000000001
#
# number of rings (size 3 to 8) (size 9 to 14) (size 15 to 20)
#    0.000    2.714    0.000    3.000    2.000    2.857 
#    0.000    6.429    0.000    3.857    0.000    5.000 
#    0.000    0.000    0.000    0.000    0.000    0.000 
#
# Total GULP energy -694282.404199 kJ/mol
# GULP energy per Si atom -12397.900075 kJ/mol
# Density = 1.920130 g / cm^3
# Si number density = 19.245100 Si / 1000 Ang^3
#
#
#
# Elastic Constant Matrix: (Units=GPa)
#
#
# Indices 1 2 3 4 5 6 
#
# 1 119.8795 101.4904 16.7410 0.0000 0.0000 0.0000
# 2 101.4904 173.3597 13.3986 0.0000 0.0000 0.0000
# 3 16.7410 13.3986 29.8066 0.0000 0.0000 0.0000
# 4 0.0000 0.0000 0.0000 3.2726 0.0000 0.0000
# 5 0.0000 0.0000 0.0000 0.0000 2.7155 0.0000
# 6 0.0000 0.0000 0.0000 0.0000 0.0000 40.9848
#
#
#
# Elastic Compliance Matrix: (Units=1/GPa)
#
#
# Indices 1 2 3 4 5 6 
#
# 1 0.017327 -0.009730 -0.005358 0.000000 0.000000 0.000000
# 2 -0.009730 0.011440 0.000322 0.000000 0.000000 0.000000
# 3 -0.005358 0.000322 0.036414 0.000000 0.000000 0.000000
# 4 0.000000 0.000000 0.000000 0.305565 0.000000 0.000000
# 5 0.000000 0.000000 0.000000 0.000000 0.368251 0.000000
# 6 0.000000 0.000000 0.000000 0.000000 0.000000 0.024399
#
#
# Mechanical properties :
#
#
# Convention : Reuss Voigt Hill
#
# Bulk Modulus (GPa) = 28.05060 65.14509 46.59785
# Shear Modulus (GPa) = 6.21264 22.15565 14.18414
#
# Velocity S-wave (km/s) = 1.79866 3.39667 2.71777
# Velocity P-wave (km/s) = 4.34979 7.02188 5.84070
#
# Compressibility (1/GPa) = 0.03564986
#
# Stress axis : x y z
#
# Youngs Moduli (GPa) = 57.71245 87.41572 27.46192
#
# Poissons Ratio (x) = 0.85054 0.14715
# Poissons Ratio (y) = 0.56153 -0.00886
# Poissons Ratio (z) = 0.30923 -0.02819
#
# Static dielectric constant tensor:
#      x y z
#    x 3.713680 0.000000 0.000000 
#    y 0.000000 3.888340 0.000000 
#    z 0.000000 0.000000 2.930430 
# 
# 
# High freq. dielectric constant tensor:
#      x y z
#    x 1.755980 0.000000 0.000000 
#    y 0.000000 1.760850 0.000000 
#    z 0.000000 0.000000 1.689440 
# 
# From -- ./inp_files/8766.got.cif
#   From: 2010.03.12/outbox.cif.g09.slc.cpg/sg55_5_cif.got.tgz:8766.got - 2010.04.16 15:19:21.
