data_PCOD8225254
_publ_section_title
;
Structure prediction by ZEFSAII (Michael W. Deem and Ramdas Pophale) SiO2 
 PCOD8225254
Probable space group: P B A M
;
_chemical_formula_sum "Si O2"
_cell_formula_units_Z 64
_cell_length_a 19.041622
_cell_length_b 20.422271
_cell_length_c 9.056393
_cell_angle_alpha 90.000000
_cell_angle_beta 90.000000
_cell_angle_gamma 90.000000
_cell_volume 3521.788207
_symmetry_space_group_name_H-M "P B A M"
_symmetry_group_IT_number 55
_symmetry_cell_setting 'orthorhombic'
loop_
_space_group_symop_operation_xyz
x,y,z
-x,-y,z
1/2+x,1/2-y,-z
1/2-x,1/2+y,-z
-x,-y,-z
x,y,-z
1/2-x,1/2+y,z
1/2+x,1/2-y,z
loop_
_atom_site_type_symbol
_atom_site_label
_atom_site_fract_x
_atom_site_fract_y
_atom_site_fract_z
Si Si1 0.320802 0.513753 0.173059
Si Si2 0.817703 0.136785 0.169613
Si Si3 0.457304 0.814916 0.171901
Si Si4 0.470025 0.321459 0.170483
Si Si5 0.954206 0.937847 0.326345
Si Si6 0.548097 0.937347 0.169578
Si Si7 0.677335 0.140642 0.327069
Si Si8 0.178810 0.510495 0.673242
O O1 0.336266 0.438025 0.211405
O O2 0.380127 0.558989 0.244084
O O3 0.247557 0.535889 0.243462
O O4 0.318543 0.527095 0.000000
O O5 0.886489 0.180247 0.202496
O O6 0.753107 0.163518 0.266382
O O7 0.794200 0.141404 0.000000
O O8 0.498876 0.749045 0.208266
O O9 0.505708 0.874471 0.226747
O O10 0.383441 0.814991 0.256803
O O11 0.440258 0.822580 0.000000
O O12 0.506607 0.372586 0.277670
O O13 0.483367 0.341369 0.000000
O O14 0.940945 0.936344 0.500000
O O15 0.000000 0.000000 0.277948
O O16 0.615550 0.944221 0.272860
O O17 0.500000 0.000000 0.190157
O O18 0.572189 0.929103 0.000000
O O19 0.676982 0.152326 0.500000
O O20 0.663723 0.065001 0.284214
O O21 0.189988 0.518845 0.500000
#
# Coordination Sequence:
#
# PCOD8225254 Si02
#       8
#     8   8   8   8   8   8   8   8
#     4  10  19  33  56  82 109 143 185 231 275 325
#     4   9  18  33  55  80 106 139 183 230 274 324
#     4  10  21  37  57  81 111 146 187 231 275 327
#     4  10  21  38  58  82 110 145 187 229 273 327
#     4  11  22  35  55  83 114 144 177 222 275 329
#     4  10  19  33  55  81 108 142 185 229 275 328
#     4  10  20  33  53  80 110 143 183 227 276 334
#     4  10  20  33  52  81 114 145 182 230 282 333
#
# _framework density 18.172587
#
# number of rings (size 3 to 8) (size 9 to 14) (size 15 to 20)
#    0.000    2.000    2.500    1.500    0.000    3.750 
#    0.000    1.250    0.000    6.000    0.000    0.000 
#    0.000    0.000    0.000    0.000    0.000    0.000 
#
# Total GULP energy -793893.467742 kJ/mol
# GULP energy per Si atom -12404.585433 kJ/mol
# Density = 1.813123 g / cm^3
# Si number density = 18.172587 Si / 1000 Ang^3
#
#
#
# Elastic Constant Matrix: (Units=GPa)
#
#
# Indices 1 2 3 4 5 6 
#
# 1 143.6985 51.1995 62.9625 0.0000 0.0000 0.0000
# 2 51.1995 80.0516 35.5068 0.0000 0.0000 0.0000
# 3 62.9625 35.5068 77.6258 0.0000 0.0000 0.0000
# 4 0.0000 0.0000 0.0000 17.0734 0.0000 0.0000
# 5 0.0000 0.0000 0.0000 0.0000 25.6640 0.0000
# 6 0.0000 0.0000 0.0000 0.0000 0.0000 28.9849
#
#
#
# Elastic Compliance Matrix: (Units=1/GPa)
#
#
# Indices 1 2 3 4 5 6 
#
# 1 0.011797 -0.004141 -0.007674 0.000000 0.000000 0.000000
# 2 -0.004141 0.017125 -0.004474 0.000000 0.000000 0.000000
# 3 -0.007674 -0.004474 0.021154 0.000000 0.000000 0.000000
# 4 0.000000 0.000000 0.000000 0.058571 0.000000 0.000000
# 5 0.000000 0.000000 0.000000 0.000000 0.038965 0.000000
# 6 0.000000 0.000000 0.000000 0.000000 0.000000 0.034501
#
#
# Mechanical properties :
#
#
# Convention : Reuss Voigt Hill
#
# Bulk Modulus (GPa) = 57.15566 66.74594 61.95080
# Shear Modulus (GPa) = 22.67325 24.45828 23.56576
#
# Velocity S-wave (km/s) = 3.53606 3.67262 3.60498
# Velocity P-wave (km/s) = 6.94201 7.40222 7.17580
#
# Compressibility (1/GPa) = 0.01749608
#
# Stress axis : x y z
#
# Youngs Moduli (GPa) = 84.76627 58.39368 47.27314
#
# Poissons Ratio (x) = 0.24182 0.36280
# Poissons Ratio (y) = 0.35104 0.21151
# Poissons Ratio (z) = 0.65054 0.26127
#
# Static dielectric constant tensor:
#      x y z
#    x 3.441830 0.000000 0.000000 
#    y 0.000000 3.148730 0.000000 
#    z 0.000000 0.000000 3.302170 
# 
# 
# High freq. dielectric constant tensor:
#      x y z
#    x 1.716710 0.000000 0.000000 
#    y 0.000000 1.673960 0.000000 
#    z 0.000000 0.000000 1.706950 
# 
# From -- ./inp_files/9022.got.cif
#   From: 2010.03.12/outbox.cif.g09.slc.cpg/sg55_5_cif.got.tgz:9022.got - 2010.04.16 15:19:21.
