data_PCOD8225999
_publ_section_title
;
Structure prediction by ZEFSAII (Michael W. Deem and Ramdas Pophale) SiO2 
 PCOD8225999
Probable space group: P B A M
;
_chemical_formula_sum "Si O2"
_cell_formula_units_Z 64
_cell_length_a 19.146313
_cell_length_b 19.214906
_cell_length_c 8.885210
_cell_angle_alpha 90.000000
_cell_angle_beta 90.000000
_cell_angle_gamma 90.000000
_cell_volume 3268.820819
_symmetry_space_group_name_H-M "P B A M"
_symmetry_group_IT_number 55
_symmetry_cell_setting 'orthorhombic'
loop_
_space_group_symop_operation_xyz
x,y,z
-x,-y,z
1/2+x,1/2-y,-z
1/2-x,1/2+y,-z
-x,-y,-z
x,y,-z
1/2-x,1/2+y,z
1/2+x,1/2-y,z
loop_
_atom_site_type_symbol
_atom_site_label
_atom_site_fract_x
_atom_site_fract_y
_atom_site_fract_z
Si Si1 0.136125 0.327677 0.820472
Si Si2 0.796389 0.529519 0.821725
Si Si3 0.596285 0.404589 0.324944
Si Si4 0.534797 0.654002 0.170975
Si Si5 0.284077 0.700725 0.321092
Si Si6 0.519265 0.810990 0.171902
Si Si7 0.657911 0.878206 0.819925
Si Si8 0.641595 0.539651 0.824364
O O1 0.156385 0.405760 0.770049
O O2 0.190386 0.274001 0.746550
O O3 0.057699 0.316413 0.753298
O O4 0.139958 0.316909 0.000000
O O5 0.826346 0.456243 0.761676
O O6 0.718958 0.540163 0.753473
O O7 0.793192 0.527526 0.000000
O O8 0.599559 0.418330 0.500000
O O9 0.525910 0.364880 0.285300
O O10 0.661426 0.358578 0.270320
O O11 0.595258 0.478611 0.244447
O O12 0.551804 0.734673 0.190453
O O13 0.605171 0.612899 0.212868
O O14 0.510795 0.636955 0.000000
O O15 0.278838 0.707850 0.500000
O O16 0.209760 0.678171 0.253461
O O17 0.578768 0.862322 0.237253
O O18 0.506817 0.831483 0.000000
O O19 0.664065 0.871193 0.000000
O O20 0.646176 0.525604 0.000000
#
# Coordination Sequence:
#
# PCOD8225999 Si02
#       8
#     8   8   8   8   8   8   8   8
#     4  10  20  37  61  85 113 147 186 232 284 337
#     4   9  19  34  57  87 111 142 185 231 279 331
#     4  11  22  36  55  78 110 148 189 229 273 332
#     4  10  20  34  53  81 115 146 182 227 277 336
#     4  11  23  38  56  83 114 149 191 234 277 332
#     4   9  19  34  57  87 111 142 185 231 279 331
#     4  10  20  37  61  85 113 147 186 232 284 337
#     4  10  20  34  53  81 115 146 182 227 277 336
#
# _framework density 19.578927
#
# number of rings (size 3 to 8) (size 9 to 14) (size 15 to 20)
#    0.000    2.000    2.500    1.125    1.750    3.500 
#    0.000    5.000    0.000    0.000    0.000    1.750 
#    0.000    0.000    0.000    0.000    0.000    0.000 
#
# Total GULP energy -793555.694756 kJ/mol
# GULP energy per Si atom -12399.307731 kJ/mol
# Density = 1.953436 g / cm^3
# Si number density = 19.578927 Si / 1000 Ang^3
#
#
#
# Elastic Constant Matrix: (Units=GPa)
#
#
# Indices 1 2 3 4 5 6 
#
# 1 107.9847 58.1236 23.2484 0.0000 0.0000 0.0000
# 2 58.1236 106.0820 23.9195 0.0000 0.0000 0.0000
# 3 23.2484 23.9195 27.6254 0.0000 0.0000 0.0000
# 4 0.0000 0.0000 0.0000 7.6887 0.0000 0.0000
# 5 0.0000 0.0000 0.0000 0.0000 14.8284 0.0000
# 6 0.0000 0.0000 0.0000 0.0000 0.0000 40.7462
#
#
#
# Elastic Compliance Matrix: (Units=1/GPa)
#
#
# Indices 1 2 3 4 5 6 
#
# 1 0.013984 -0.006223 -0.006380 0.000000 0.000000 0.000000
# 2 -0.006223 0.014483 -0.007303 0.000000 0.000000 0.000000
# 3 -0.006380 -0.007303 0.047891 0.000000 0.000000 0.000000
# 4 0.000000 0.000000 0.000000 0.130061 0.000000 0.000000
# 5 0.000000 0.000000 0.000000 0.000000 0.067438 0.000000
# 6 0.000000 0.000000 0.000000 0.000000 0.000000 0.024542
#
#
# Mechanical properties :
#
#
# Convention : Reuss Voigt Hill
#
# Bulk Modulus (GPa) = 27.36301 50.25279 38.80790
# Shear Modulus (GPa) = 14.26968 21.74604 18.00786
#
# Velocity S-wave (km/s) = 2.70261 3.33631 3.03604
# Velocity P-wave (km/s) = 4.87287 6.36897 5.67048
#
# Compressibility (1/GPa) = 0.03654569
#
# Stress axis : x y z
#
# Youngs Moduli (GPa) = 71.51093 69.04539 20.88088
#
# Poissons Ratio (x) = 0.42970 0.13321
# Poissons Ratio (y) = 0.44504 0.15249
# Poissons Ratio (z) = 0.45622 0.50423
#
# Static dielectric constant tensor:
#      x y z
#    x 3.771120 0.000000 0.000000 
#    y 0.000000 3.686750 0.000000 
#    z 0.000000 0.000000 3.187230 
# 
# 
# High freq. dielectric constant tensor:
#      x y z
#    x 1.771460 0.000000 0.000000 
#    y 0.000000 1.770760 0.000000 
#    z 0.000000 0.000000 1.721940 
# 
# From -- ./inp_files/8073.got.cif
#   From: 2010.03.12/outbox.cif.g09.slc.cpg/sg55_5_cif.got.tgz:8073.got - 2010.04.16 15:19:21.
