data_PCOD8225010
_publ_section_title
;
Structure prediction by ZEFSAII (Michael W. Deem and Ramdas Pophale) SiO2 
 PCOD8225010
Probable space group: P B A M
;
_chemical_formula_sum "Si O2"
_cell_formula_units_Z 56
_cell_length_a 14.461006
_cell_length_b 22.092200
_cell_length_c 9.226868
_cell_angle_alpha 90.000000
_cell_angle_beta 90.000000
_cell_angle_gamma 90.000000
_cell_volume 2947.757684
_symmetry_space_group_name_H-M "P B A M"
_symmetry_group_IT_number 55
_symmetry_cell_setting 'orthorhombic'
loop_
_space_group_symop_operation_xyz
x,y,z
-x,-y,z
1/2+x,1/2-y,-z
1/2-x,1/2+y,-z
-x,-y,-z
x,y,-z
1/2-x,1/2+y,z
1/2+x,1/2-y,z
loop_
_atom_site_type_symbol
_atom_site_label
_atom_site_fract_x
_atom_site_fract_y
_atom_site_fract_z
Si Si1 0.475848 0.569525 0.827957
Si Si2 0.827667 0.290203 0.170552
Si Si3 0.639628 0.971961 0.338885
Si Si4 0.641795 0.655623 0.828311
Si Si5 0.800926 0.875249 0.335577
Si Si6 0.476673 0.111779 0.164464
Si Si7 0.679561 0.088970 0.166770
O O1 0.500000 0.500000 0.784460
O O2 0.557110 0.614379 0.772524
O O3 0.384179 0.592559 0.748813
O O4 0.460321 0.573954 0.000000
O O5 0.858750 0.224425 0.229255
O O6 0.736061 0.314989 0.252785
O O7 0.917644 0.329890 0.206975
O O8 0.803844 0.289390 0.000000
O O9 0.613301 0.992653 0.500000
O O10 0.716717 0.920987 0.338645
O O11 0.547540 0.945674 0.264004
O O12 0.680599 0.027035 0.251541
O O13 0.737505 0.628448 0.769339
O O14 0.639222 0.656054 0.000000
O O15 0.831272 0.858555 0.500000
O O16 0.584700 0.126615 0.186967
O O17 0.455461 0.092235 0.000000
O O18 0.697466 0.072659 0.000000
#
# Coordination Sequence:
#
# PCOD8225010 Si02
#       7
#     8   8   8   8   8   8   8
#     4  10  20  35  57  84 111 142 182 226 273 324
#     4   9  18  35  56  77 103 136 175 216 260 311
#     4  10  20  33  50  74 104 135 168 207 251 304
#     4   9  19  34  54  80 106 134 173 220 262 307
#     4  10  21  36  54  77 106 141 179 219 265 316
#     4   9  18  31  50  75 101 132 167 205 251 303
#     4  10  19  32  51  76 105 133 164 206 256 307
#
# _framework density 18.997489999999999
#
# number of rings (size 3 to 8) (size 9 to 14) (size 15 to 20)
#    0.000    2.429    0.000    2.143    0.000    6.571 
#    0.000    6.429    0.000    3.429    0.000    0.000 
#    0.000    0.000    0.000    0.000    0.000    0.000 
#
# Total GULP energy -694263.495582 kJ/mol
# GULP energy per Si atom -12397.562421 kJ/mol
# Density = 1.895425 g / cm^3
# Si number density = 18.997490 Si / 1000 Ang^3
#
#
#
# Elastic Constant Matrix: (Units=GPa)
#
#
# Indices 1 2 3 4 5 6 
#
# 1 75.0975 22.7035 28.2521 0.0000 0.0000 0.0000
# 2 22.7035 114.0176 33.3562 0.0000 0.0000 0.0000
# 3 28.2521 33.3562 62.3215 0.0000 0.0000 0.0000
# 4 0.0000 0.0000 0.0000 1.2935 0.0000 0.0000
# 5 0.0000 0.0000 0.0000 0.0000 16.6885 0.0000
# 6 0.0000 0.0000 0.0000 0.0000 0.0000 31.1255
#
#
#
# Elastic Compliance Matrix: (Units=1/GPa)
#
#
# Indices 1 2 3 4 5 6 
#
# 1 0.016210 -0.001278 -0.006664 0.000000 0.000000 0.000000
# 2 -0.001278 0.010500 -0.005040 0.000000 0.000000 0.000000
# 3 -0.006664 -0.005040 0.021765 0.000000 0.000000 0.000000
# 4 0.000000 0.000000 0.000000 0.773121 0.000000 0.000000
# 5 0.000000 0.000000 0.000000 0.000000 0.059921 0.000000
# 6 0.000000 0.000000 0.000000 0.000000 0.000000 0.032128
#
#
# Mechanical properties :
#
#
# Convention : Reuss Voigt Hill
#
# Bulk Modulus (GPa) = 44.42737 46.67334 45.55035
# Shear Modulus (GPa) = 5.27921 20.96315 13.12118
#
# Velocity S-wave (km/s) = 1.66881 3.32546 2.63093
# Velocity P-wave (km/s) = 5.21056 6.27426 5.76699
#
# Compressibility (1/GPa) = 0.02250865
#
# Stress axis : x y z
#
# Youngs Moduli (GPa) = 61.69217 95.24147 45.94616
#
# Poissons Ratio (x) = 0.12172 0.30619
# Poissons Ratio (y) = 0.07885 0.23158
# Poissons Ratio (z) = 0.41113 0.48005
#
# Static dielectric constant tensor:
#      x y z
#    x 3.579670 0.000000 0.000000 
#    y 0.000000 3.616390 0.000000 
#    z 0.000000 0.000000 3.484940 
# 
# 
# High freq. dielectric constant tensor:
#      x y z
#    x 1.745800 0.000000 0.000000 
#    y 0.000000 1.737330 0.000000 
#    z 0.000000 0.000000 1.717790 
# 
# From -- ./inp_files/6171.got.cif
#   From: 2010.03.12/outbox.cif.g09.slc.cpg/sg55_4_cif.got.tgz:6171.got - 2010.04.16 15:19:21.
