data_PCOD8225971
_publ_section_title
;
Structure prediction by ZEFSAII (Michael W. Deem and Ramdas Pophale) SiO2 
 PCOD8225971
Probable space group: P B A M
;
_chemical_formula_sum "Si O2"
_cell_formula_units_Z 64
_cell_length_a 17.925511
_cell_length_b 20.541725
_cell_length_c 8.771606
_cell_angle_alpha 90.000000
_cell_angle_beta 90.000000
_cell_angle_gamma 90.000000
_cell_volume 3229.888809
_symmetry_space_group_name_H-M "P B A M"
_symmetry_group_IT_number 55
_symmetry_cell_setting 'orthorhombic'
loop_
_space_group_symop_operation_xyz
x,y,z
-x,-y,z
1/2+x,1/2-y,-z
1/2-x,1/2+y,-z
-x,-y,-z
x,y,-z
1/2-x,1/2+y,z
1/2+x,1/2-y,z
loop_
_atom_site_type_symbol
_atom_site_label
_atom_site_fract_x
_atom_site_fract_y
_atom_site_fract_z
Si Si1 0.778144 0.517125 0.181295
Si Si2 0.004382 0.897887 0.176867
Si Si3 0.720025 0.761584 0.674051
Si Si4 0.882864 0.993520 0.824645
Si Si5 0.558457 0.724123 0.671887
Si Si6 0.999651 0.655988 0.176283
Si Si7 0.170129 0.340636 0.819938
Si Si8 0.643394 0.895644 0.319686
O O1 0.697810 0.497727 0.252648
O O2 0.792643 0.591475 0.233168
O O3 0.833999 0.465118 0.252813
O O4 0.784495 0.510706 0.000000
O O5 0.015283 0.841754 0.297761
O O6 0.919275 0.922359 0.196496
O O7 0.060568 0.952807 0.237235
O O8 0.019453 0.878434 0.000000
O O9 0.745469 0.768830 0.500000
O O10 0.647379 0.715531 0.690986
O O11 0.787529 0.724206 0.758891
O O12 0.695763 0.834212 0.737350
O O13 0.870238 0.009583 0.000000
O O14 0.541045 0.749228 0.500000
O O15 0.527681 0.771007 0.801771
O O16 0.056856 0.611028 0.270316
O O17 0.915002 0.653909 0.239538
O O18 0.002564 0.635435 0.000000
O O19 0.171263 0.333053 0.000000
O O20 0.646890 0.896945 0.500000
#
# Coordination Sequence:
#
# PCOD8225971 Si02
#       8
#     8   8   8   8   8   8   8   8
#     4  10  20  36  56  80 110 145 182 227 277 325
#     4   9  16  30  52  77 105 141 180 220 264 317
#     4   9  20  37  56  78 109 144 179 219 268 322
#     4   8  16  30  50  76 106 139 180 222 264 318
#     4  10  20  34  52  78 108 139 175 217 264 322
#     4  10  21  38  57  79 105 137 177 224 273 323
#     4  10  22  37  58  87 112 136 180 231 273 321
#     4  10  22  40  58  81 111 146 186 226 269 325
#
# _framework density 19.814924000000001
#
# number of rings (size 3 to 8) (size 9 to 14) (size 15 to 20)
#    0.000    2.500    0.000    3.375    0.000    7.000 
#    0.000    8.750    0.000    0.000    0.000    0.000 
#    0.000    0.000    0.000    0.000    0.000    0.000 
#
# Total GULP energy -792946.751842 kJ/mol
# GULP energy per Si atom -12389.792998 kJ/mol
# Density = 1.976982 g / cm^3
# Si number density = 19.814924 Si / 1000 Ang^3
#
#
#
# Elastic Constant Matrix: (Units=GPa)
#
#
# Indices 1 2 3 4 5 6 
#
# 1 111.5542 16.4943 24.1449 0.0000 0.0000 0.0000
# 2 16.4943 53.3410 18.4652 0.0000 0.0000 0.0000
# 3 24.1449 18.4652 41.0185 0.0000 0.0000 0.0000
# 4 0.0000 0.0000 0.0000 22.9456 0.0000 0.0000
# 5 0.0000 0.0000 0.0000 0.0000 24.7570 0.0000
# 6 0.0000 0.0000 0.0000 0.0000 0.0000 25.8204
#
#
#
# Elastic Compliance Matrix: (Units=1/GPa)
#
#
# Indices 1 2 3 4 5 6 
#
# 1 0.010348 -0.001293 -0.005509 0.000000 0.000000 0.000000
# 2 -0.001293 0.022370 -0.009309 0.000000 0.000000 0.000000
# 3 -0.005509 -0.009309 0.031813 0.000000 0.000000 0.000000
# 4 0.000000 0.000000 0.000000 0.043581 0.000000 0.000000
# 5 0.000000 0.000000 0.000000 0.000000 0.040393 0.000000
# 6 0.000000 0.000000 0.000000 0.000000 0.000000 0.038729
#
#
# Mechanical properties :
#
#
# Convention : Reuss Voigt Hill
#
# Bulk Modulus (GPa) = 30.95187 36.01362 33.48274
# Shear Modulus (GPa) = 21.71795 24.49190 23.10492
#
# Velocity S-wave (km/s) = 3.31424 3.51954 3.41843
# Velocity P-wave (km/s) = 5.50454 5.89327 5.70222
#
# Compressibility (1/GPa) = 0.03230823
#
# Stress axis : x y z
#
# Youngs Moduli (GPa) = 96.63894 44.70355 31.43393
#
# Poissons Ratio (x) = 0.05779 0.17317
# Poissons Ratio (y) = 0.12492 0.29262
# Poissons Ratio (z) = 0.53240 0.41615
#
# Static dielectric constant tensor:
#      x y z
#    x 3.845650 0.000000 0.000000 
#    y 0.000000 3.645410 0.000000 
#    z 0.000000 0.000000 3.307060 
# 
# 
# High freq. dielectric constant tensor:
#      x y z
#    x 1.778170 0.000000 0.000000 
#    y 0.000000 1.768260 0.000000 
#    z 0.000000 0.000000 1.748640 
# 
# From -- ./inp_files/7953.got.cif
#   From: 2010.03.12/outbox.cif.g09.slc.cpg/sg55_4_cif.got.tgz:7953.got - 2010.04.16 15:19:21.
