data_PCOD8225131
_publ_section_title
;
Structure prediction by ZEFSAII (Michael W. Deem and Ramdas Pophale) SiO2 
 PCOD8225131
Probable space group: P B A M
;
_chemical_formula_sum "Si O2"
_cell_formula_units_Z 64
_cell_length_a 18.948489
_cell_length_b 20.347061
_cell_length_c 9.116368
_cell_angle_alpha 90.000000
_cell_angle_beta 90.000000
_cell_angle_gamma 90.000000
_cell_volume 3514.779778
_symmetry_space_group_name_H-M "P B A M"
_symmetry_group_IT_number 55
_symmetry_cell_setting 'orthorhombic'
loop_
_space_group_symop_operation_xyz
x,y,z
-x,-y,z
1/2+x,1/2-y,-z
1/2-x,1/2+y,-z
-x,-y,-z
x,y,-z
1/2-x,1/2+y,z
1/2+x,1/2-y,z
loop_
_atom_site_type_symbol
_atom_site_label
_atom_site_fract_x
_atom_site_fract_y
_atom_site_fract_z
Si Si1 0.175776 0.358974 0.670784
Si Si2 0.322842 0.514309 0.829412
Si Si3 0.683358 0.636923 0.831513
Si Si4 0.815068 0.490020 0.334179
Si Si5 0.039448 0.318074 0.171066
Si Si6 0.969304 0.179419 0.168746
Si Si7 0.544682 0.437187 0.673069
Si Si8 0.536042 0.933365 0.668261
O O1 0.173958 0.342214 0.500000
O O2 0.252145 0.337619 0.732552
O O3 0.160717 0.435702 0.703417
O O4 0.115081 0.317226 0.749767
O O5 0.336480 0.438062 0.791515
O O6 0.245081 0.534667 0.775710
O O7 0.378524 0.559335 0.745265
O O8 0.329471 0.529575 0.000000
O O9 0.614662 0.681038 0.798841
O O10 0.707564 0.641667 0.000000
O O11 0.785455 0.488756 0.500000
O O12 0.880014 0.440553 0.315938
O O13 0.000506 0.250184 0.204467
O O14 0.988461 0.374363 0.230661
O O15 0.052097 0.329425 0.000000
O O16 0.006530 0.128262 0.274863
O O17 0.982387 0.158542 0.000000
O O18 0.500000 0.500000 0.725280
O O19 0.553581 0.435135 0.500000
O O20 0.513444 0.919348 0.500000
O O21 0.500000 0.000000 0.724031
#
# Coordination Sequence:
#
# PCOD8225131 Si02
#       8
#     8   8   8   8   8   8   8   8
#     4  10  19  34  56  81 111 146 185 230 280 334
#     4  10  19  32  55  83 112 146 184 230 283 333
#     4   9  18  34  56  81 108 143 188 231 274 332
#     4   9  18  33  54  80 112 146 185 232 279 331
#     4  11  23  37  56  84 115 149 189 233 278 329
#     4  10  22  40  58  80 114 152 187 227 280 335
#     4  11  22  35  56  85 113 142 183 231 277 328
#     4  10  19  36  58  81 110 147 184 224 280 333
#
# _framework density 18.208822000000001
#
# number of rings (size 3 to 8) (size 9 to 14) (size 15 to 20)
#    0.000    2.000    2.500    1.500    0.000    3.750 
#    0.000    1.250    0.000    4.500    0.000    0.000 
#    0.000    0.000    0.000    0.000    0.000    0.000 
#
# Total GULP energy -793870.910072 kJ/mol
# GULP energy per Si atom -12404.232970 kJ/mol
# Density = 1.816738 g / cm^3
# Si number density = 18.208822 Si / 1000 Ang^3
#
#
#
# Elastic Constant Matrix: (Units=GPa)
#
#
# Indices 1 2 3 4 5 6 
#
# 1 127.5488 54.6244 65.3119 0.0000 0.0000 0.0000
# 2 54.6244 80.4094 52.5908 0.0000 0.0000 0.0000
# 3 65.3119 52.5908 96.6834 0.0000 0.0000 0.0000
# 4 0.0000 0.0000 0.0000 24.1978 0.0000 0.0000
# 5 0.0000 0.0000 0.0000 0.0000 36.2238 0.0000
# 6 0.0000 0.0000 0.0000 0.0000 0.0000 27.0781
#
#
#
# Elastic Compliance Matrix: (Units=1/GPa)
#
#
# Indices 1 2 3 4 5 6 
#
# 1 0.013091 -0.004826 -0.006218 0.000000 0.000000 0.000000
# 2 -0.004826 0.021083 -0.008208 0.000000 0.000000 0.000000
# 3 -0.006218 -0.008208 0.019008 0.000000 0.000000 0.000000
# 4 0.000000 0.000000 0.000000 0.041326 0.000000 0.000000
# 5 0.000000 0.000000 0.000000 0.000000 0.027606 0.000000
# 6 0.000000 0.000000 0.000000 0.000000 0.000000 0.036930
#
#
# Mechanical properties :
#
#
# Convention : Reuss Voigt Hill
#
# Bulk Modulus (GPa) = 68.12948 72.18841 70.15895
# Shear Modulus (GPa) = 24.69842 26.30759 25.50301
#
# Velocity S-wave (km/s) = 3.68693 3.80514 3.74650
# Velocity P-wave (km/s) = 7.45798 7.68351 7.57158
#
# Compressibility (1/GPa) = 0.01467793
#
# Stress axis : x y z
#
# Youngs Moduli (GPa) = 76.38819 47.43096 52.60892
#
# Poissons Ratio (x) = 0.22891 0.32713
# Poissons Ratio (y) = 0.36867 0.43181
# Poissons Ratio (z) = 0.47499 0.38931
#
# Static dielectric constant tensor:
#      x y z
#    x 3.437360 0.000000 0.000000 
#    y 0.000000 3.090120 0.000000 
#    z 0.000000 0.000000 3.384380 
# 
# 
# High freq. dielectric constant tensor:
#      x y z
#    x 1.719270 0.000000 0.000000 
#    y 0.000000 1.673260 0.000000 
#    z 0.000000 0.000000 1.711760 
# 
# From -- ./inp_files/7943.got.cif
#   From: 2010.03.12/outbox.cif.g09.slc.cpg/sg55_4_cif.got.tgz:7943.got - 2010.04.16 15:19:21.
