data_PCOD8225055
_publ_section_title
;
Structure prediction by ZEFSAII (Michael W. Deem and Ramdas Pophale) SiO2 
 PCOD8225055
Probable space group: P B A M
;
_chemical_formula_sum "Si O2"
_cell_formula_units_Z 64
_cell_length_a 14.404310
_cell_length_b 25.112501
_cell_length_c 8.925773
_cell_angle_alpha 90.000000
_cell_angle_beta 90.000000
_cell_angle_gamma 90.000000
_cell_volume 3228.704241
_symmetry_space_group_name_H-M "P B A M"
_symmetry_group_IT_number 55
_symmetry_cell_setting 'orthorhombic'
loop_
_space_group_symop_operation_xyz
x,y,z
-x,-y,z
1/2+x,1/2-y,-z
1/2-x,1/2+y,-z
-x,-y,-z
x,y,-z
1/2-x,1/2+y,z
1/2+x,1/2-y,z
loop_
_atom_site_type_symbol
_atom_site_label
_atom_site_fract_x
_atom_site_fract_y
_atom_site_fract_z
Si Si1 0.182532 0.384787 0.665904
Si Si2 0.375303 0.329789 0.334992
Si Si3 0.266665 0.477826 0.828157
Si Si4 0.462493 0.419784 0.828154
Si Si5 0.623711 0.776310 0.824790
Si Si6 0.298979 0.688639 0.325254
Si Si7 0.856060 0.931011 0.674336
Si Si8 0.090365 0.285983 0.822855
O O1 0.137550 0.391786 0.500000
O O2 0.287206 0.366678 0.645012
O O3 0.186765 0.441373 0.752299
O O4 0.126736 0.341973 0.762080
O O5 0.409430 0.310262 0.500000
O O6 0.456745 0.363119 0.256677
O O7 0.346294 0.282320 0.226426
O O8 0.367817 0.451810 0.812350
O O9 0.271413 0.534980 0.745480
O O10 0.238389 0.486173 0.000000
O O11 0.548506 0.450618 0.752721
O O12 0.487378 0.408950 0.000000
O O13 0.694432 0.815484 0.739947
O O14 0.517727 0.785836 0.778113
O O15 0.639568 0.782688 0.000000
O O16 0.293651 0.702493 0.500000
O O17 0.343224 0.631384 0.293889
O O18 0.359297 0.735001 0.248330
O O19 0.861127 0.944241 0.500000
O O20 0.105761 0.283357 0.000000
#
# Coordination Sequence:
#
# PCOD8225055 Si02
#       8
#     8   8   8   8   8   8   8   8
#     4  10  20  35  57  83 111 146 187 231 281 334
#     4  10  19  32  52  79 111 147 186 229 278 336
#     4  10  21  36  56  81 112 151 192 238 288 342
#     4  10  20  33  52  80 113 150 192 234 283 342
#     4  11  23  37  57  84 115 153 193 238 291 347
#     4  11  24  40  58  84 118 157 195 238 289 345
#     4  11  23  37  54  79 113 151 194 239 289 347
#     4  11  23  38  59  87 117 150 191 238 290 346
#
# _framework density 19.822194
#
# number of rings (size 3 to 8) (size 9 to 14) (size 15 to 20)
#    0.000    1.500    1.250    4.125    0.000   10.000 
#    0.000    0.000    0.000    0.750    0.000    5.250 
#    0.000    0.000    0.000    0.000    0.000    0.000 
#
# Total GULP energy -793562.789937 kJ/mol
# GULP energy per Si atom -12399.418593 kJ/mol
# Density = 1.977708 g / cm^3
# Si number density = 19.822194 Si / 1000 Ang^3
#
#
#
# Elastic Constant Matrix: (Units=GPa)
#
#
# Indices 1 2 3 4 5 6 
#
# 1 64.7472 19.9897 51.6478 0.0000 0.0000 0.0000
# 2 19.9897 42.3233 30.0058 0.0000 0.0000 0.0000
# 3 51.6478 30.0058 124.7337 0.0000 0.0000 0.0000
# 4 0.0000 0.0000 0.0000 29.6622 0.0000 0.0000
# 5 0.0000 0.0000 0.0000 0.0000 25.0524 0.0000
# 6 0.0000 0.0000 0.0000 0.0000 0.0000 20.7614
#
#
#
# Elastic Compliance Matrix: (Units=1/GPa)
#
#
# Indices 1 2 3 4 5 6 
#
# 1 0.023963 -0.005164 -0.008680 0.000000 0.000000 0.000000
# 2 -0.005164 0.029599 -0.004982 0.000000 0.000000 0.000000
# 3 -0.008680 -0.004982 0.012810 0.000000 0.000000 0.000000
# 4 0.000000 0.000000 0.000000 0.033713 0.000000 0.000000
# 5 0.000000 0.000000 0.000000 0.000000 0.039916 0.000000
# 6 0.000000 0.000000 0.000000 0.000000 0.000000 0.048166
#
#
# Mechanical properties :
#
#
# Convention : Reuss Voigt Hill
#
# Bulk Modulus (GPa) = 34.81989 48.34342 41.58165
# Shear Modulus (GPa) = 21.24122 23.77262 22.50692
#
# Velocity S-wave (km/s) = 3.27706 3.46684 3.37329
# Velocity P-wave (km/s) = 5.65005 6.36135 6.01622
#
# Compressibility (1/GPa) = 0.02871922
#
# Stress axis : x y z
#
# Youngs Moduli (GPa) = 41.73135 33.78523 78.06664
#
# Poissons Ratio (x) = 0.17447 0.67761
# Poissons Ratio (y) = 0.21550 0.38893
# Poissons Ratio (z) = 0.36222 0.16832
#
# Static dielectric constant tensor:
#      x y z
#    x 3.502070 0.000000 0.000000 
#    y 0.000000 3.598520 0.000000 
#    z 0.000000 0.000000 3.880040 
# 
# 
# High freq. dielectric constant tensor:
#      x y z
#    x 1.745670 0.000000 0.000000 
#    y 0.000000 1.766440 0.000000 
#    z 0.000000 0.000000 1.793160 
# 
# From -- ./inp_files/6728.got.cif
#   From: 2010.03.12/outbox.cif.g09.slc.cpg/sg55_4_cif.got.tgz:6728.got - 2010.04.16 15:19:21.
