data_PCOD8225086
_publ_section_title
;
Structure prediction by ZEFSAII (Michael W. Deem and Ramdas Pophale) SiO2 
 PCOD8225086
Probable space group: P B A M
;
_chemical_formula_sum "Si O2"
_cell_formula_units_Z 56
_cell_length_a 23.576299
_cell_length_b 13.324677
_cell_length_c 9.191550
_cell_angle_alpha 90.000000
_cell_angle_beta 90.000000
_cell_angle_gamma 90.000000
_cell_volume 2887.493897
_symmetry_space_group_name_H-M "P B A M"
_symmetry_group_IT_number 55
_symmetry_cell_setting 'orthorhombic'
loop_
_space_group_symop_operation_xyz
x,y,z
-x,-y,z
1/2+x,1/2-y,-z
1/2-x,1/2+y,-z
-x,-y,-z
x,y,-z
1/2-x,1/2+y,z
1/2+x,1/2-y,z
loop_
_atom_site_type_symbol
_atom_site_label
_atom_site_fract_x
_atom_site_fract_y
_atom_site_fract_z
Si Si1 0.047346 0.227153 0.667124
Si Si2 0.167317 0.534737 0.169303
Si Si3 0.938800 0.544780 0.669246
Si Si4 0.175406 0.765041 0.835026
Si Si5 0.730167 0.562974 0.329206
Si Si6 0.057329 0.864282 0.832437
Si Si7 0.885406 0.964235 0.666837
O O1 0.027050 0.227114 0.500000
O O2 0.064956 0.338535 0.715084
O O3 0.101375 0.153525 0.689708
O O4 0.996079 0.189611 0.763682
O O5 0.105714 0.516712 0.236136
O O6 0.185465 0.648848 0.196088
O O7 0.212812 0.465620 0.248029
O O8 0.165463 0.507730 0.000000
O O9 0.924208 0.530460 0.500000
O O10 0.000000 0.500000 0.706906
O O11 0.214093 0.825402 0.721959
O O12 0.109723 0.789714 0.808303
O O13 0.192521 0.794025 0.000000
O O14 0.742007 0.563383 0.500000
O O15 0.679285 0.486639 0.284915
O O16 0.069670 0.971655 0.759234
O O17 0.044531 0.885259 0.000000
O O18 0.893535 0.997099 0.500000
#
# Coordination Sequence:
#
# PCOD8225086 Si02
#       7
#     8   8   8   8   8   8   8
#     4  10  20  34  53  78 111 147 181 224 277 328
#     4  11  23  39  60  84 112 146 183 226 280 339
#     4  10  22  39  58  82 111 144 187 234 276 326
#     4   9  20  38  57  79 110 148 187 228 276 331
#     4  10  21  37  58  83 110 143 186 232 276 327
#     4  10  19  32  53  81 111 144 185 227 269 323
#     4   9  19  35  53  76 108 145 182 222 273 329
#
# _framework density 19.393979999999999
#
# number of rings (size 3 to 8) (size 9 to 14) (size 15 to 20)
#    0.000    2.143    0.000    2.571    0.000    6.571 
#    0.000    1.429    0.000    0.000    0.000    0.000 
#    0.000    0.000    0.000    0.000    0.000    0.000 
#
# Total GULP energy -694622.125499 kJ/mol
# GULP energy per Si atom -12403.966527 kJ/mol
# Density = 1.934984 g / cm^3
# Si number density = 19.393980 Si / 1000 Ang^3
#
#
#
# Elastic Constant Matrix: (Units=GPa)
#
#
# Indices 1 2 3 4 5 6 
#
# 1 99.4227 41.2579 57.7198 0.0000 0.0000 0.0000
# 2 41.2579 88.9397 49.1546 0.0000 0.0000 0.0000
# 3 57.7198 49.1546 95.9146 0.0000 0.0000 0.0000
# 4 0.0000 0.0000 0.0000 27.1874 0.0000 0.0000
# 5 0.0000 0.0000 0.0000 0.0000 31.9977 0.0000
# 6 0.0000 0.0000 0.0000 0.0000 0.0000 22.4177
#
#
#
# Elastic Compliance Matrix: (Units=1/GPa)
#
#
# Indices 1 2 3 4 5 6 
#
# 1 0.015987 -0.002929 -0.008120 0.000000 0.000000 0.000000
# 2 -0.002929 0.016223 -0.006552 0.000000 0.000000 0.000000
# 3 -0.008120 -0.006552 0.018670 0.000000 0.000000 0.000000
# 4 0.000000 0.000000 0.000000 0.036782 0.000000 0.000000
# 5 0.000000 0.000000 0.000000 0.000000 0.031252 0.000000
# 6 0.000000 0.000000 0.000000 0.000000 0.000000 0.044608
#
#
# Mechanical properties :
#
#
# Convention : Reuss Voigt Hill
#
# Bulk Modulus (GPa) = 63.77606 64.50462 64.14034
# Shear Modulus (GPa) = 24.51584 25.39687 24.95636
#
# Velocity S-wave (km/s) = 3.55927 3.62266 3.59110
# Velocity P-wave (km/s) = 7.06024 7.12955 7.09498
#
# Compressibility (1/GPa) = 0.01567986
#
# Stress axis : x y z
#
# Youngs Moduli (GPa) = 62.54890 61.64069 53.56145
#
# Poissons Ratio (x) = 0.18052 0.43493
# Poissons Ratio (y) = 0.18318 0.35092
# Poissons Ratio (z) = 0.50791 0.40385
#
# Static dielectric constant tensor:
#      x y z
#    x 3.445500 0.000000 0.000000 
#    y 0.000000 3.626640 0.000000 
#    z 0.000000 0.000000 3.578600 
# 
# 
# High freq. dielectric constant tensor:
#      x y z
#    x 1.751590 0.000000 0.000000 
#    y 0.000000 1.758340 0.000000 
#    z 0.000000 0.000000 1.758150 
# 
# From -- ./inp_files/8728.got.cif
#   From: 2010.03.12/outbox.cif.g09.slc.cpg/sg55_5_cif.got.tgz:8728.got - 2010.04.16 15:19:21.
