data_PCOD8225739
_publ_section_title
;
Structure prediction by ZEFSAII (Michael W. Deem and Ramdas Pophale) SiO2 
 PCOD8225739
Probable space group: P B A M
;
_chemical_formula_sum "Si O2"
_cell_formula_units_Z 56
_cell_length_a 15.786101
_cell_length_b 9.006934
_cell_length_c 19.676629
_cell_angle_alpha 90.000000
_cell_angle_beta 90.000000
_cell_angle_gamma 90.000000
_cell_volume 2797.709095
_symmetry_space_group_name_H-M "P B A M"
_symmetry_group_IT_number 55
_symmetry_cell_setting 'orthorhombic'
loop_
_space_group_symop_operation_xyz
x,y,z
-x,-y,z
1/2+x,1/2-y,-z
1/2-x,1/2+y,-z
-x,-y,-z
x,y,-z
1/2-x,1/2+y,z
1/2+x,1/2-y,z
loop_
_atom_site_type_symbol
_atom_site_label
_atom_site_fract_x
_atom_site_fract_y
_atom_site_fract_z
Si Si1 0.251849 0.508440 0.875958
Si Si2 0.363246 0.758240 0.925959
Si Si3 0.664071 0.739175 0.793275
Si Si4 0.186754 0.393459 0.420803
Si Si5 0.018099 0.328972 0.802940
Si Si6 0.837074 0.284803 0.638695
Si Si7 0.525381 0.168640 0.650146
O O1 0.315824 0.600562 0.922898
O O2 0.200450 0.397145 0.924098
O O3 0.298220 0.415544 0.817543
O O4 0.190521 0.621314 0.838236
O O5 0.423912 0.762929 0.861494
O O6 0.409468 0.764802 0.000000
O O7 0.564123 0.726993 0.802027
O O8 0.691994 0.765172 0.716123
O O9 0.177467 0.425038 0.500000
O O10 0.278072 0.319092 0.407685
O O11 0.181291 0.546265 0.380442
O O12 0.106496 0.290110 0.396957
O O13 0.058257 0.311106 0.727805
O O14 0.000000 0.500000 0.819252
O O15 0.938043 0.241724 0.631713
O O16 0.500000 0.000000 0.637600
#
# Coordination Sequence:
#
# PCOD8225739 Si02
#       7
#     8   8   8   8   8   8   8
#     4  10  22  37  60  86 115 153 193 248 296 354
#     4  11  23  39  59  86 122 158 194 243 306 362
#     4  10  20  38  61  87 111 149 201 251 292 350
#     4  11  22  36  59  89 119 158 199 240 300 364
#     4  10  19  37  58  87 116 152 201 247 295 349
#     4  10  21  37  60  85 119 153 197 248 298 347
#     4   8  19  36  58  84 116 155 199 247 290 351
#
# _framework density 20.016376999999999
#
# number of rings (size 3 to 8) (size 9 to 14) (size 15 to 20)
#    0.000    2.000    1.429    2.571    4.000    4.000 
#    0.000    2.857    0.000    1.714    0.000    0.000 
#    0.000    0.000    0.000    0.000    0.000    0.000 
#
# Total GULP energy -694091.091025 kJ/mol
# GULP energy per Si atom -12394.483768 kJ/mol
# Density = 1.997082 g / cm^3
# Si number density = 20.016377 Si / 1000 Ang^3
#
#
#
# Elastic Constant Matrix: (Units=GPa)
#
#
# Indices 1 2 3 4 5 6 
#
# 1 85.0991 22.3478 39.4127 0.0000 0.0000 0.0000
# 2 22.3478 68.0991 20.1827 0.0000 0.0000 0.0000
# 3 39.4127 20.1827 95.9567 0.0000 0.0000 0.0000
# 4 0.0000 0.0000 0.0000 3.4049 0.0000 0.0000
# 5 0.0000 0.0000 0.0000 0.0000 -27.9132 0.0000
# 6 0.0000 0.0000 0.0000 0.0000 0.0000 15.3890
#
#
#
# Elastic Compliance Matrix: (Units=1/GPa)
#
#
# Indices 1 2 3 4 5 6 
#
# 1 0.015194 -0.003345 -0.005537 0.000000 0.000000 0.000000
# 2 -0.003345 0.016397 -0.002075 0.000000 0.000000 0.000000
# 3 -0.005537 -0.002075 0.013132 0.000000 0.000000 0.000000
# 4 0.000000 0.000000 0.000000 0.293692 0.000000 0.000000
# 5 0.000000 0.000000 0.000000 0.000000 -0.035825 0.000000
# 6 0.000000 0.000000 0.000000 0.000000 0.000000 0.064981
#
#
# Mechanical properties :
#
#
# Convention : Reuss Voigt Hill
#
# Bulk Modulus (GPa) = 43.84236 45.89349 44.86792
# Shear Modulus (GPa) = 12.59167 9.32359 10.95763
#
# Velocity S-wave (km/s) = 2.51084 2.16058 2.34227
# Velocity P-wave (km/s) = 5.50968 5.40388 5.45703
#
# Compressibility (1/GPa) = 0.02280899
#
# Stress axis : x y z
#
# Youngs Moduli (GPa) = 65.81597 60.98619 76.14956
#
# Poissons Ratio (x) = 0.20400 0.42165
# Poissons Ratio (y) = 0.22016 0.15800
# Poissons Ratio (z) = 0.36443 0.12654
#
# Static dielectric constant tensor:
#      x y z
#    x 3.976700 0.000000 0.000000 
#    y 0.000000 3.482430 0.000000 
#    z 0.000000 0.000000 3.598820 
# 
# 
# High freq. dielectric constant tensor:
#      x y z
#    x 1.783060 0.000000 0.000000 
#    y 0.000000 1.761350 0.000000 
#    z 0.000000 0.000000 1.785230 
# 
# From -- ./inp_files/22958.got.cif
#   From: 2010.03.12/outbox.cif.g09.slc.cpg/sg55_12_cif.got.tgz:22958.got - 2010.04.16 15:19:21.
