data_PCOD8225717
_publ_section_title
;
Structure prediction by ZEFSAII (Michael W. Deem and Ramdas Pophale) SiO2 
 PCOD8225717
Probable space group: P B A M
;
_chemical_formula_sum "Si O2"
_cell_formula_units_Z 64
_cell_length_a 12.610177
_cell_length_b 27.232103
_cell_length_c 9.305428
_cell_angle_alpha 90.000000
_cell_angle_beta 90.000000
_cell_angle_gamma 90.000000
_cell_volume 3195.499226
_symmetry_space_group_name_H-M "P B A M"
_symmetry_group_IT_number 55
_symmetry_cell_setting 'orthorhombic'
loop_
_space_group_symop_operation_xyz
x,y,z
-x,-y,z
1/2+x,1/2-y,-z
1/2-x,1/2+y,-z
-x,-y,-z
x,y,-z
1/2-x,1/2+y,z
1/2+x,1/2-y,z
loop_
_atom_site_type_symbol
_atom_site_label
_atom_site_fract_x
_atom_site_fract_y
_atom_site_fract_z
Si Si1 0.910758 0.192657 0.653659
Si Si2 0.462995 0.554802 0.839996
Si Si3 0.342582 0.412121 0.342689
Si Si4 0.767024 0.912382 0.332307
Si Si5 0.770609 0.718453 0.164427
Si Si6 0.350854 0.691528 0.665075
Si Si7 0.150447 0.391731 0.167103
Si Si8 0.528521 0.944202 0.667360
O O1 0.913981 0.221754 0.500000
O O2 0.837535 0.145489 0.628744
O O3 0.850279 0.222880 0.776557
O O4 0.028320 0.176022 0.697649
O O5 0.500000 0.500000 0.858640
O O6 0.548479 0.580434 0.740076
O O7 0.348773 0.556241 0.762943
O O8 0.457142 0.579116 0.000000
O O9 0.338302 0.439327 0.500000
O O10 0.240642 0.425251 0.245074
O O11 0.796126 0.919212 0.500000
O O12 0.777020 0.854606 0.290267
O O13 0.650771 0.932752 0.297532
O O14 0.836705 0.760020 0.242679
O O15 0.828327 0.666210 0.186787
O O16 0.763229 0.732565 0.000000
O O17 0.330680 0.705253 0.500000
O O18 0.038970 0.405857 0.238778
O O19 0.150090 0.406186 0.000000
O O20 0.503218 0.935069 0.500000
O O21 0.500000 0.000000 0.711087
#
# Coordination Sequence:
#
# PCOD8225717 Si02
#       8
#     8   8   8   8   8   8   8   8
#     4   9  18  35  57  81 111 147 191 240 294 351
#     4  11  24  38  56  89 126 156 192 239 303 370
#     4  10  19  36  62  87 114 150 196 244 295 349
#     4  10  22  42  63  88 122 158 205 256 303 362
#     4  10  22  37  56  87 121 157 199 245 304 369
#     4  10  20  37  60  86 116 154 200 248 302 358
#     4  10  22  40  60  86 123 161 203 252 309 368
#     4  10  23  42  64  91 121 162 215 263 310 366
#
# _framework density 20.028169999999999
#
# number of rings (size 3 to 8) (size 9 to 14) (size 15 to 20)
#    0.000    2.000    1.250    1.500    1.750    5.750 
#    0.000    3.750    0.000    0.000    0.000    0.000 
#    0.000    0.000    0.000    0.000    0.000    0.000 
#
# Total GULP energy -793229.376196 kJ/mol
# GULP energy per Si atom -12394.209003 kJ/mol
# Density = 1.998258 g / cm^3
# Si number density = 20.028170 Si / 1000 Ang^3
#
#
#
# Elastic Constant Matrix: (Units=GPa)
#
#
# Indices 1 2 3 4 5 6 
#
# 1 135.0980 42.0632 79.3939 0.0000 0.0000 0.0000
# 2 42.0632 67.3750 48.8499 0.0000 0.0000 0.0000
# 3 79.3939 48.8499 143.4031 0.0000 0.0000 0.0000
# 4 0.0000 0.0000 0.0000 -89.1051 0.0000 0.0000
# 5 0.0000 0.0000 0.0000 0.0000 41.0083 0.0000
# 6 0.0000 0.0000 0.0000 0.0000 0.0000 26.2896
#
#
#
# Elastic Compliance Matrix: (Units=1/GPa)
#
#
# Indices 1 2 3 4 5 6 
#
# 1 0.011534 -0.003414 -0.005223 0.000000 0.000000 0.000000
# 2 -0.003414 0.020721 -0.005168 0.000000 0.000000 0.000000
# 3 -0.005223 -0.005168 0.011626 0.000000 0.000000 0.000000
# 4 0.000000 0.000000 0.000000 -0.011223 0.000000 0.000000
# 5 0.000000 0.000000 0.000000 0.000000 0.024385 0.000000
# 6 0.000000 0.000000 0.000000 0.000000 0.000000 0.038038
#
#
# Mechanical properties :
#
#
# Convention : Reuss Voigt Hill
#
# Bulk Modulus (GPa) = 61.46222 76.27666 68.86944
# Shear Modulus (GPa) = 39.02712 7.34315 23.18514
#
# Velocity S-wave (km/s) = 4.41910 1.91687 3.40608
# Velocity P-wave (km/s) = 7.53607 6.56251 7.06608
#
# Compressibility (1/GPa) = 0.01627016
#
# Stress axis : x y z
#
# Youngs Moduli (GPa) = 86.69678 48.25981 86.01770
#
# Poissons Ratio (x) = 0.16477 0.44926
# Poissons Ratio (y) = 0.29601 0.44457
# Poissons Ratio (z) = 0.45281 0.24942
#
# Static dielectric constant tensor:
#      x y z
#    x 3.633470 0.000000 0.000000 
#    y 0.000000 3.815160 0.000000 
#    z 0.000000 0.000000 4.006090 
# 
# 
# High freq. dielectric constant tensor:
#      x y z
#    x 1.782740 0.000000 0.000000 
#    y 0.000000 1.763500 0.000000 
#    z 0.000000 0.000000 1.789250 
# 
# From -- ./inp_files/4702.got.cif
#   From: 2010.03.12/outbox.cif.g09.slc.cpg/sg55_3_cif.got.tgz:4702.got - 2010.04.16 15:19:21.
