data_PCOD8225218
_publ_section_title
;
Structure prediction by ZEFSAII (Michael W. Deem and Ramdas Pophale) SiO2 
 PCOD8225218
Probable space group: P B A M
;
_chemical_formula_sum "Si O2"
_cell_formula_units_Z 64
_cell_length_a 24.448874
_cell_length_b 14.609024
_cell_length_c 9.249884
_cell_angle_alpha 90.000000
_cell_angle_beta 90.000000
_cell_angle_gamma 90.000000
_cell_volume 3303.819798
_symmetry_space_group_name_H-M "P B A M"
_symmetry_group_IT_number 55
_symmetry_cell_setting 'orthorhombic'
loop_
_space_group_symop_operation_xyz
x,y,z
-x,-y,z
1/2+x,1/2-y,-z
1/2-x,1/2+y,-z
-x,-y,-z
x,y,-z
1/2-x,1/2+y,z
1/2+x,1/2-y,z
loop_
_atom_site_type_symbol
_atom_site_label
_atom_site_fract_x
_atom_site_fract_y
_atom_site_fract_z
Si Si1 0.874585 0.433970 0.664824
Si Si2 0.673739 0.512218 0.172043
Si Si3 0.766406 0.165353 0.665434
Si Si4 0.854852 0.636373 0.660774
Si Si5 0.553627 0.450084 0.171094
Si Si6 0.755536 0.376460 0.329135
Si Si7 0.022190 0.598297 0.170511
Si Si8 0.064893 0.253691 0.170608
O O1 0.880060 0.400750 0.500000
O O2 0.886958 0.541616 0.681522
O O3 0.814171 0.413202 0.722624
O O4 0.919085 0.380406 0.759305
O O5 0.690851 0.611917 0.232957
O O6 0.609999 0.500088 0.214612
O O7 0.708302 0.429838 0.243119
O O8 0.682386 0.509434 0.000000
O O9 0.787542 0.160783 0.500000
O O10 0.708847 0.113732 0.684483
O O11 0.755774 0.269630 0.713074
O O12 0.863655 0.676128 0.500000
O O13 0.876749 0.711913 0.771138
O O14 0.500000 0.500000 0.237228
O O15 0.553339 0.346890 0.232698
O O16 0.548301 0.446697 0.000000
O O17 0.745779 0.392051 0.500000
O O18 0.000000 0.500000 0.222305
O O19 0.982170 0.678014 0.225619
O O20 0.029519 0.600905 0.000000
O O21 0.069436 0.253620 0.000000
#
# Coordination Sequence:
#
# PCOD8225218 Si02
#       8
#     8   8   8   8   8   8   8   8
#     4  10  20  34  53  78 109 146 182 221 275 336
#     4  11  22  36  60  90 116 146 191 243 287 335
#     4  10  21  38  60  83 114 156 193 229 281 345
#     4  10  19  33  54  80 109 144 186 225 272 332
#     4   9  20  39  59  80 109 148 188 228 279 333
#     4  10  21  39  60  83 116 155 191 229 281 345
#     4  10  20  33  50  78 110 141 179 222 275 331
#     4  10  20  35  57  80 107 145 188 232 277 332
#
# _framework density 19.371516
#
# number of rings (size 3 to 8) (size 9 to 14) (size 15 to 20)
#    0.000    2.000    2.500    1.125    0.000    3.250 
#    0.000    1.875    0.000    3.375    0.000    0.000 
#    0.000    0.000    0.000    0.000    0.000    0.000 
#
# Total GULP energy -793559.059976 kJ/mol
# GULP energy per Si atom -12399.360312 kJ/mol
# Density = 1.932743 g / cm^3
# Si number density = 19.371516 Si / 1000 Ang^3
#
#
#
# Elastic Constant Matrix: (Units=GPa)
#
#
# Indices 1 2 3 4 5 6 
#
# 1 126.8788 46.2697 44.5432 0.0000 0.0000 0.0000
# 2 46.2697 93.1689 34.6172 0.0000 0.0000 0.0000
# 3 44.5432 34.6172 46.5309 0.0000 0.0000 0.0000
# 4 0.0000 0.0000 0.0000 24.7684 0.0000 0.0000
# 5 0.0000 0.0000 0.0000 0.0000 29.8934 0.0000
# 6 0.0000 0.0000 0.0000 0.0000 0.0000 32.1193
#
#
#
# Elastic Compliance Matrix: (Units=1/GPa)
#
#
# Indices 1 2 3 4 5 6 
#
# 1 0.012243 -0.002385 -0.009946 0.000000 0.000000 0.000000
# 2 -0.002385 0.015298 -0.009098 0.000000 0.000000 0.000000
# 3 -0.009946 -0.009098 0.037781 0.000000 0.000000 0.000000
# 4 0.000000 0.000000 0.000000 0.040374 0.000000 0.000000
# 5 0.000000 0.000000 0.000000 0.000000 0.033452 0.000000
# 6 0.000000 0.000000 0.000000 0.000000 0.000000 0.031134
#
#
# Mechanical properties :
#
#
# Convention : Reuss Voigt Hill
#
# Bulk Modulus (GPa) = 44.51536 57.49319 51.00428
# Shear Modulus (GPa) = 22.66269 26.76613 24.71441
#
# Velocity S-wave (km/s) = 3.42409 3.72119 3.57573
# Velocity P-wave (km/s) = 6.21789 6.94310 6.59048
#
# Compressibility (1/GPa) = 0.02246416
#
# Stress axis : x y z
#
# Youngs Moduli (GPa) = 81.68065 65.36816 26.46852
#
# Poissons Ratio (x) = 0.15588 0.26325
# Poissons Ratio (y) = 0.19478 0.24082
# Poissons Ratio (z) = 0.81237 0.59474
#
# Static dielectric constant tensor:
#      x y z
#    x 3.606320 0.000000 0.000000 
#    y 0.000000 3.679650 0.000000 
#    z 0.000000 0.000000 3.274410 
# 
# 
# High freq. dielectric constant tensor:
#      x y z
#    x 1.758840 0.000000 0.000000 
#    y 0.000000 1.757880 0.000000 
#    z 0.000000 0.000000 1.729330 
# 
# From -- ./inp_files/6580.got.cif
#   From: 2010.03.12/outbox.cif.g09.slc.cpg/sg55_4_cif.got.tgz:6580.got - 2010.04.16 15:19:21.
