data_PCOD8225710
_publ_section_title
;
Structure prediction by ZEFSAII (Michael W. Deem and Ramdas Pophale) SiO2 
 PCOD8225710
Probable space group: P B A M
;
_chemical_formula_sum "Si O2"
_cell_formula_units_Z 64
_cell_length_a 27.277976
_cell_length_b 13.273545
_cell_length_c 8.545008
_cell_angle_alpha 90.000000
_cell_angle_beta 90.000000
_cell_angle_gamma 90.000000
_cell_volume 3093.937548
_symmetry_space_group_name_H-M "P B A M"
_symmetry_group_IT_number 55
_symmetry_cell_setting 'orthorhombic'
loop_
_space_group_symop_operation_xyz
x,y,z
-x,-y,z
1/2+x,1/2-y,-z
1/2-x,1/2+y,-z
-x,-y,-z
x,y,-z
1/2-x,1/2+y,z
1/2+x,1/2-y,z
loop_
_atom_site_type_symbol
_atom_site_label
_atom_site_fract_x
_atom_site_fract_y
_atom_site_fract_z
Si Si1 0.452734 0.724958 0.313531
Si Si2 0.266853 0.169687 0.823084
Si Si3 0.380544 0.900237 0.315153
Si Si4 0.629086 0.874567 0.684112
Si Si5 0.699389 0.479565 0.317750
Si Si6 0.413899 0.506346 0.682293
Si Si7 0.774634 0.642612 0.322817
Si Si8 0.057476 0.794027 0.816167
O O1 0.456752 0.727931 0.500000
O O2 0.417836 0.815251 0.248960
O O3 0.434194 0.614290 0.258170
O O4 0.505118 0.746813 0.238064
O O5 0.318160 0.124319 0.766608
O O6 0.246622 0.248666 0.701054
O O7 0.222334 0.092619 0.811233
O O8 0.271740 0.210143 0.000000
O O9 0.379715 0.884701 0.500000
O O10 0.326740 0.879368 0.237264
O O11 0.395986 0.016504 0.275285
O O12 0.637606 0.864676 0.500000
O O13 0.597793 0.778896 0.739003
O O14 0.706533 0.446013 0.500000
O O15 0.643129 0.496750 0.279947
O O16 0.728185 0.579022 0.272085
O O17 0.425407 0.492876 0.500000
O O18 0.438156 0.411337 0.768461
O O19 0.788021 0.621348 0.500000
O O20 0.063429 0.784573 0.000000
#
# Coordination Sequence:
#
# PCOD8225710 Si02
#       8
#     8   8   8   8   8   8   8   8
#     4  10  21  40  65  92 122 158 210 267 317 371
#     4  12  24  36  55  89 130 165 197 241 303 369
#     4   9  19  38  66  95 119 154 210 266 305 358
#     4  11  22  42  67  90 120 162 213 260 308 364
#     4  10  20  37  62  89 117 156 203 249 296 352
#     4  10  21  39  66  96 124 161 212 264 312 369
#     4  10  19  36  61  88 119 160 211 254 295 351
#     4  12  26  42  61  90 126 163 207 259 325 385
#
# _framework density 20.685616
#
# number of rings (size 3 to 8) (size 9 to 14) (size 15 to 20)
#    0.000    1.500    1.250    4.500    0.000    6.500 
#    0.000    5.625    0.000    0.000    0.000    0.000 
#    0.000    0.000    0.000    0.000    0.000    0.000 
#
# Total GULP energy -793028.711266 kJ/mol
# GULP energy per Si atom -12391.073614 kJ/mol
# Density = 2.063853 g / cm^3
# Si number density = 20.685616 Si / 1000 Ang^3
#
#
#
# Elastic Constant Matrix: (Units=GPa)
#
#
# Indices 1 2 3 4 5 6 
#
# 1 95.9063 16.1424 17.8617 0.0000 0.0000 0.0000
# 2 16.1424 99.7636 -1.2071 0.0000 0.0000 0.0000
# 3 17.8617 -1.2071 19.5569 0.0000 0.0000 0.0000
# 4 0.0000 0.0000 0.0000 12.5277 0.0000 0.0000
# 5 0.0000 0.0000 0.0000 0.0000 14.1419 0.0000
# 6 0.0000 0.0000 0.0000 0.0000 0.0000 39.0086
#
#
#
# Elastic Compliance Matrix: (Units=1/GPa)
#
#
# Indices 1 2 3 4 5 6 
#
# 1 0.013053 -0.002258 -0.012061 0.000000 0.000000 0.000000
# 2 -0.002258 0.010422 0.002706 0.000000 0.000000 0.000000
# 3 -0.012061 0.002706 0.062315 0.000000 0.000000 0.000000
# 4 0.000000 0.000000 0.000000 0.079823 0.000000 0.000000
# 5 0.000000 0.000000 0.000000 0.000000 0.070712 0.000000
# 6 0.000000 0.000000 0.000000 0.000000 0.000000 0.025635
#
#
# Mechanical properties :
#
#
# Convention : Reuss Voigt Hill
#
# Bulk Modulus (GPa) = 15.98382 31.20232 23.59307
# Shear Modulus (GPa) = 16.33762 25.29763 20.81762
#
# Velocity S-wave (km/s) = 2.81340 3.50087 3.17579
# Velocity P-wave (km/s) = 4.27755 5.60877 4.98777
#
# Compressibility (1/GPa) = 0.06256328
#
# Stress axis : x y z
#
# Youngs Moduli (GPa) = 76.60971 95.95277 16.04739
#
# Poissons Ratio (x) = 0.21666 0.19355
# Poissons Ratio (y) = 0.17299 -0.04342
# Poissons Ratio (z) = 0.92400 -0.25960
#
# Static dielectric constant tensor:
#      x y z
#    x 3.892060 0.000000 0.000000 
#    y 0.000000 3.877850 0.000000 
#    z 0.000000 0.000000 3.434290 
# 
# 
# High freq. dielectric constant tensor:
#      x y z
#    x 1.819280 0.000000 0.000000 
#    y 0.000000 1.824860 0.000000 
#    z 0.000000 0.000000 1.778250 
# 
# From -- ./inp_files/10772.got.cif
#   From: 2010.03.12/outbox.cif.g09.slc.cpg/sg55_6_cif.got.tgz:10772.got - 2010.04.16 15:19:21.
