data_PCOD8225194
_publ_section_title
;
Structure prediction by ZEFSAII (Michael W. Deem and Ramdas Pophale) SiO2 
 PCOD8225194
Probable space group: P B A M
;
_chemical_formula_sum "Si O2"
_cell_formula_units_Z 64
_cell_length_a 34.822608
_cell_length_b 11.051818
_cell_length_c 9.367736
_cell_angle_alpha 90.000000
_cell_angle_beta 90.000000
_cell_angle_gamma 90.000000
_cell_volume 3605.202482
_symmetry_space_group_name_H-M "P B A M"
_symmetry_group_IT_number 55
_symmetry_cell_setting 'orthorhombic'
loop_
_space_group_symop_operation_xyz
x,y,z
-x,-y,z
1/2+x,1/2-y,-z
1/2-x,1/2+y,-z
-x,-y,-z
x,y,-z
1/2-x,1/2+y,z
1/2+x,1/2-y,z
loop_
_atom_site_type_symbol
_atom_site_label
_atom_site_fract_x
_atom_site_fract_y
_atom_site_fract_z
Si Si1 0.779759 0.849803 0.331334
Si Si2 0.568504 0.218014 0.831447
Si Si3 0.650337 0.639234 0.838533
Si Si4 0.998600 0.129196 0.837455
Si Si5 0.544296 0.995958 0.332064
Si Si6 0.925221 0.281006 0.161234
Si Si7 0.225887 0.873484 0.668132
Si Si8 0.143518 0.134915 0.163041
O O1 0.784991 0.845838 0.500000
O O2 0.754584 0.733758 0.279506
O O3 0.820892 0.827802 0.260856
O O4 0.763234 0.985622 0.287562
O O5 0.530018 0.281544 0.768899
O O6 0.570464 0.092675 0.748687
O O7 0.606017 0.292839 0.787889
O O8 0.566362 0.193313 0.000000
O O9 0.617018 0.733730 0.802415
O O10 0.685276 0.663541 0.733341
O O11 0.633284 0.505536 0.818022
O O12 0.665234 0.656550 0.000000
O O13 0.955108 0.172039 0.828688
O O14 0.012686 0.112656 0.000000
O O15 0.000000 0.000000 0.757989
O O16 0.547968 0.013637 0.500000
O O17 0.500000 0.000000 0.281690
O O18 0.563001 0.871094 0.285272
O O19 0.926721 0.336586 0.000000
O O20 0.221828 0.866890 0.500000
O O21 0.154457 0.165502 0.000000
#
# Coordination Sequence:
#
# PCOD8225194 Si02
#       8
#     8   8   8   8   8   8   8   8
#     4   9  18  34  55  77 104 140 179 214 254 311
#     4  10  19  33  54  76 101 134 173 212 255 308
#     4   9  18  33  54  81 109 133 164 212 264 309
#     4   9  16  27  49  78 100 125 166 211 252 301
#     4  11  23  37  51  69 101 141 179 219 261 303
#     4  10  19  33  54  76 101 134 173 212 255 308
#     4   9  18  34  55  77 104 140 179 214 254 311
#     4   9  18  33  54  81 109 133 164 212 264 309
#
# _framework density 17.752123000000001
#
# number of rings (size 3 to 8) (size 9 to 14) (size 15 to 20)
#    0.000    2.500    1.250    1.125    0.000    5.000 
#    2.250    0.000    0.000    3.000    0.000    0.000 
#    0.000    0.000    0.000    0.000    0.000    0.000 
#
# Total GULP energy -793218.031031 kJ/mol
# GULP energy per Si atom -12394.031735 kJ/mol
# Density = 1.771172 g / cm^3
# Si number density = 17.752123 Si / 1000 Ang^3
#
#
#
# Elastic Constant Matrix: (Units=GPa)
#
#
# Indices 1 2 3 4 5 6 
#
# 1 87.6220 40.9594 27.9913 0.0000 0.0000 0.0000
# 2 40.9594 90.9960 30.8679 0.0000 0.0000 0.0000
# 3 27.9913 30.8679 30.6850 0.0000 0.0000 0.0000
# 4 0.0000 0.0000 0.0000 19.0293 0.0000 0.0000
# 5 0.0000 0.0000 0.0000 0.0000 27.2883 0.0000
# 6 0.0000 0.0000 0.0000 0.0000 0.0000 33.8185
#
#
#
# Elastic Compliance Matrix: (Units=1/GPa)
#
#
# Indices 1 2 3 4 5 6 
#
# 1 0.016848 -0.003598 -0.011750 0.000000 0.000000 0.000000
# 2 -0.003598 0.017451 -0.014272 0.000000 0.000000 0.000000
# 3 -0.011750 -0.014272 0.057665 0.000000 0.000000 0.000000
# 4 0.000000 0.000000 0.000000 0.052551 0.000000 0.000000
# 5 0.000000 0.000000 0.000000 0.000000 0.036646 0.000000
# 6 0.000000 0.000000 0.000000 0.000000 0.000000 0.029570
#
#
# Mechanical properties :
#
#
# Convention : Reuss Voigt Hill
#
# Bulk Modulus (GPa) = 30.55913 45.43779 37.99846
# Shear Modulus (GPa) = 17.80136 23.32617 20.56377
#
# Velocity S-wave (km/s) = 3.17010 3.62884 3.40720
# Velocity P-wave (km/s) = 5.53634 6.57337 6.07702
#
# Compressibility (1/GPa) = 0.03272345
#
# Stress axis : x y z
#
# Youngs Moduli (GPa) = 59.35408 57.30478 17.34156
#
# Poissons Ratio (x) = 0.20618 0.20376
# Poissons Ratio (y) = 0.21355 0.24751
# Poissons Ratio (z) = 0.69739 0.81788
#
# Static dielectric constant tensor:
#      x y z
#    x 3.217030 0.000000 0.000000 
#    y 0.000000 3.524210 0.000000 
#    z 0.000000 0.000000 3.096210 
# 
# 
# High freq. dielectric constant tensor:
#      x y z
#    x 1.680650 0.000000 0.000000 
#    y 0.000000 1.693770 0.000000 
#    z 0.000000 0.000000 1.666660 
# 
# From -- ./inp_files/10834.got.cif
#   From: 2010.03.12/outbox.cif.g09.slc.cpg/sg55_6_cif.got.tgz:10834.got - 2010.04.16 15:19:21.
