data_PCOD8225354
_publ_section_title
;
Structure prediction by ZEFSAII (Michael W. Deem and Ramdas Pophale) SiO2 
 PCOD8225354
Probable space group: P B A M
;
_chemical_formula_sum "Si O2"
_cell_formula_units_Z 40
_cell_length_a 15.257647
_cell_length_b 4.946062
_cell_length_c 26.345017
_cell_angle_alpha 90.000000
_cell_angle_beta 90.000000
_cell_angle_gamma 90.000000
_cell_volume 1988.133769
_symmetry_space_group_name_H-M "P B A M"
_symmetry_group_IT_number 55
_symmetry_cell_setting 'orthorhombic'
loop_
_space_group_symop_operation_xyz
x,y,z
-x,-y,z
1/2+x,1/2-y,-z
1/2-x,1/2+y,-z
-x,-y,-z
x,y,-z
1/2-x,1/2+y,z
1/2+x,1/2-y,z
loop_
_atom_site_type_symbol
_atom_site_label
_atom_site_fract_x
_atom_site_fract_y
_atom_site_fract_z
Si Si1 0.306472 0.599844 0.000000
Si Si2 0.692121 0.107683 0.604680
Si Si3 0.941265 0.750050 0.197417
Si Si4 0.190526 0.251579 0.500000
Si Si5 0.810407 0.787962 0.108440
Si Si6 0.689692 0.212802 0.286359
O O1 0.356312 0.671847 0.947295
O O2 0.282296 0.283292 0.000000
O O3 0.780076 0.294678 0.603682
O O4 0.637551 0.181357 0.552750
O O5 0.643573 0.172759 0.658024
O O6 0.882840 0.847274 0.150377
O O7 0.882618 0.652970 0.244374
O O8 0.000000 0.500000 0.179513
O O9 0.000000 0.000000 0.215391
O O10 0.277666 0.442869 0.500000
O O11 0.772222 0.488032 0.114826
O O12 0.727603 0.513130 0.279991
#
# Coordination Sequence:
#
# PCOD8225354 Si02
#       6
#     4   8   8   4   8   8
#     4   8  16  30  54  80  98 122 164 204 236 280
#     4   8  14  23  40  64  90 116 150 193 240 284
#     4  12  24  36  50  75 105 133 164 206 252 290
#     4   8  12  20  34  60  92 114 136 188 248 282
#     4  10  19  36  58  78 100 132 168 202 239 292
#     4  10  19  34  53  72  94 130 171 204 239 292
#
# _framework density 20.119371000000001
#
# number of rings (size 3 to 8) (size 9 to 14) (size 15 to 20)
#    0.000    2.400    0.000    3.600    0.000    0.000 
#    0.000    1.000    0.000    0.000    0.000    1.400 
#    0.000    0.000    0.000    0.000    0.000    0.000 
#
# Total GULP energy -495590.778544 kJ/mol
# GULP energy per Si atom -12389.769464 kJ/mol
# Density = 2.007358 g / cm^3
# Si number density = 20.119371 Si / 1000 Ang^3
#
#
#
# Elastic Constant Matrix: (Units=GPa)
#
#
# Indices 1 2 3 4 5 6 
#
# 1 35.2524 3.6687 37.2170 0.0000 0.0000 0.0000
# 2 3.6687 78.4651 -0.7163 0.0000 0.0000 0.0000
# 3 37.2170 -0.7163 177.9272 0.0000 0.0000 0.0000
# 4 0.0000 0.0000 0.0000 29.4719 0.0000 0.0000
# 5 0.0000 0.0000 0.0000 0.0000 -2.3604 0.0000
# 6 0.0000 0.0000 0.0000 0.0000 0.0000 11.4085
#
#
#
# Elastic Compliance Matrix: (Units=1/GPa)
#
#
# Indices 1 2 3 4 5 6 
#
# 1 0.036654 -0.001784 -0.007674 0.000000 0.000000 0.000000
# 2 -0.001784 0.012832 0.000425 0.000000 0.000000 0.000000
# 3 -0.007674 0.000425 0.007227 0.000000 0.000000 0.000000
# 4 0.000000 0.000000 0.000000 0.033931 0.000000 0.000000
# 5 0.000000 0.000000 0.000000 0.000000 -0.423663 0.000000
# 6 0.000000 0.000000 0.000000 0.000000 0.000000 0.087654
#
#
# Mechanical properties :
#
#
# Convention : Reuss Voigt Hill
#
# Bulk Modulus (GPa) = 25.87531 41.33149 33.60340
# Shear Modulus (GPa) = -23.31921 24.46902 0.57490
#
# Velocity S-wave (km/s) = -3.40816 3.49118 0.53513
# Velocity P-wave (km/s) = 1.61203 6.06950 4.13764
#
# Compressibility (1/GPa) = 0.03864689
#
# Stress axis : x y z
#
# Youngs Moduli (GPa) = 27.28191 77.93136 138.36638
#
# Poissons Ratio (x) = 0.13902 1.06185
# Poissons Ratio (y) = 0.04867 -0.05878
# Poissons Ratio (z) = 0.20937 -0.03310
#
# Static dielectric constant tensor:
#      x y z
#    x 2.812590 0.000000 0.000000 
#    y 0.000000 3.750000 0.000000 
#    z 0.000000 0.000000 4.386430 
# 
# 
# High freq. dielectric constant tensor:
#      x y z
#    x 1.682240 0.000000 0.000000 
#    y 0.000000 1.810950 0.000000 
#    z 0.000000 0.000000 1.826080 
# 
# From -- ./inp_files/23742.got.cif
#   From: 2010.03.12/outbox.cif.g09.slc.cpg/sg55_12_cif.got.tgz:23742.got - 2010.04.16 15:19:21.
