data_PCOD8225946
_publ_section_title
;
Structure prediction by ZEFSAII (Michael W. Deem and Ramdas Pophale) SiO2 
 PCOD8225946
Probable space group: P B A M
;
_chemical_formula_sum "Si O2"
_cell_formula_units_Z 64
_cell_length_a 20.114226
_cell_length_b 19.504284
_cell_length_c 9.252437
_cell_angle_alpha 90.000000
_cell_angle_beta 90.000000
_cell_angle_gamma 90.000000
_cell_volume 3629.856649
_symmetry_space_group_name_H-M "P B A M"
_symmetry_group_IT_number 55
_symmetry_cell_setting 'orthorhombic'
loop_
_space_group_symop_operation_xyz
x,y,z
-x,-y,z
1/2+x,1/2-y,-z
1/2-x,1/2+y,-z
-x,-y,-z
x,y,-z
1/2-x,1/2+y,z
1/2+x,1/2-y,z
loop_
_atom_site_type_symbol
_atom_site_label
_atom_site_fract_x
_atom_site_fract_y
_atom_site_fract_z
Si Si1 0.825423 0.581856 0.836191
Si Si2 0.428453 0.829792 0.330675
Si Si3 0.318956 0.075682 0.832787
Si Si4 0.314853 0.569599 0.670691
Si Si5 0.326059 0.431741 0.167728
Si Si6 0.439774 0.170549 0.830959
Si Si7 0.060889 0.827459 0.168337
Si Si8 0.069339 0.172417 0.667526
O O1 0.866491 0.626867 0.724830
O O2 0.842027 0.502280 0.809034
O O3 0.747987 0.596193 0.805088
O O4 0.843905 0.602738 0.000000
O O5 0.436406 0.841627 0.500000
O O6 0.495584 0.855605 0.254016
O O7 0.414646 0.750762 0.291187
O O8 0.254931 0.093222 0.737503
O O9 0.377874 0.124896 0.780354
O O10 0.300389 0.088414 0.000000
O O11 0.306753 0.561079 0.500000
O O12 0.340429 0.498462 0.737063
O O13 0.367718 0.627562 0.713115
O O14 0.376493 0.372670 0.217433
O O15 0.334960 0.451994 0.000000
O O16 0.423187 0.248975 0.790351
O O17 0.454053 0.161116 0.000000
O O18 0.995343 0.854424 0.248471
O O19 0.047008 0.835389 0.000000
O O20 0.052850 0.164566 0.500000
#
# Coordination Sequence:
#
# PCOD8225946 Si02
#       8
#     8   8   8   8   8   8   8   8
#     4   9  18  33  51  72 100 131 161 199 247 294
#     4  10  20  34  51  72 100 132 166 204 243 288
#     4   9  19  35  54  75 100 129 162 204 249 291
#     4  10  20  34  52  73  99 132 168 203 241 292
#     4   9  19  35  52  74 103 130 161 204 250 292
#     4   9  18  34  54  75  99 129 165 203 247 295
#     4   9  18  33  54  77  99 127 166 207 243 289
#     4   9  20  36  50  70 102 134 164 202 247 291
#
# _framework density 17.631550000000001
#
# number of rings (size 3 to 8) (size 9 to 14) (size 15 to 20)
#    0.000    2.750    0.000    1.500    0.000    6.500 
#    0.000    6.250    0.000    0.000    0.000    0.000 
#    0.000    0.000    0.000    0.000    0.000    0.000 
#
# Total GULP energy -793770.590211 kJ/mol
# GULP energy per Si atom -12402.665472 kJ/mol
# Density = 1.759142 g / cm^3
# Si number density = 17.631550 Si / 1000 Ang^3
#
#
#
# Elastic Constant Matrix: (Units=GPa)
#
#
# Indices 1 2 3 4 5 6 
#
# 1 140.8039 85.0429 65.6452 0.0000 0.0000 0.0000
# 2 85.0429 86.7014 47.7627 0.0000 0.0000 0.0000
# 3 65.6452 47.7627 67.2799 0.0000 0.0000 0.0000
# 4 0.0000 0.0000 0.0000 26.3366 0.0000 0.0000
# 5 0.0000 0.0000 0.0000 0.0000 23.6439 0.0000
# 6 0.0000 0.0000 0.0000 0.0000 0.0000 35.7285
#
#
#
# Elastic Compliance Matrix: (Units=1/GPa)
#
#
# Indices 1 2 3 4 5 6 
#
# 1 0.020507 -0.014932 -0.009409 0.000000 0.000000 0.000000
# 2 -0.014932 0.029814 -0.006596 0.000000 0.000000 0.000000
# 3 -0.009409 -0.006596 0.028726 0.000000 0.000000 0.000000
# 4 0.000000 0.000000 0.000000 0.037970 0.000000 0.000000
# 5 0.000000 0.000000 0.000000 0.000000 0.042294 0.000000
# 6 0.000000 0.000000 0.000000 0.000000 0.000000 0.027989
#
#
# Mechanical properties :
#
#
# Convention : Reuss Voigt Hill
#
# Bulk Modulus (GPa) = 58.22834 76.85409 67.54122
# Shear Modulus (GPa) = 19.61579 23.56409 21.58994
#
# Velocity S-wave (km/s) = 3.33909 3.65975 3.50309
# Velocity P-wave (km/s) = 6.92552 7.84487 7.39948
#
# Compressibility (1/GPa) = 0.01717377
#
# Stress axis : x y z
#
# Youngs Moduli (GPa) = 48.76406 33.54181 34.81171
#
# Poissons Ratio (x) = 0.50083 0.32753
# Poissons Ratio (y) = 0.72812 0.22962
# Poissons Ratio (z) = 0.45880 0.22125
#
# Static dielectric constant tensor:
#      x y z
#    x 3.326270 0.000000 0.000000 
#    y 0.000000 3.302460 0.000000 
#    z 0.000000 0.000000 3.225090 
# 
# 
# High freq. dielectric constant tensor:
#      x y z
#    x 1.685660 0.000000 0.000000 
#    y 0.000000 1.678880 0.000000 
#    z 0.000000 0.000000 1.680560 
# 
# From -- ./inp_files/7980.got.cif
#   From: 2010.03.12/outbox.cif.g09.slc.cpg/sg55_4_cif.got.tgz:7980.got - 2010.04.16 15:19:21.
