data_PCOD8225005
_publ_section_title
;
Structure prediction by ZEFSAII (Michael W. Deem and Ramdas Pophale) SiO2 
 PCOD8225005
Probable space group: P B A M
;
_chemical_formula_sum "Si O2"
_cell_formula_units_Z 64
_cell_length_a 14.383333
_cell_length_b 30.112419
_cell_length_c 8.613745
_cell_angle_alpha 90.000000
_cell_angle_beta 90.000000
_cell_angle_gamma 90.000000
_cell_volume 3730.758962
_symmetry_space_group_name_H-M "P B A M"
_symmetry_group_IT_number 55
_symmetry_cell_setting 'orthorhombic'
loop_
_space_group_symop_operation_xyz
x,y,z
-x,-y,z
1/2+x,1/2-y,-z
1/2-x,1/2+y,-z
-x,-y,-z
x,y,-z
1/2-x,1/2+y,z
1/2+x,1/2-y,z
loop_
_atom_site_type_symbol
_atom_site_label
_atom_site_fract_x
_atom_site_fract_y
_atom_site_fract_z
Si Si1 0.815621 0.698089 0.178574
Si Si2 0.718632 0.787471 0.182088
Si Si3 0.603033 0.454866 0.681410
Si Si4 0.335388 0.630746 0.820008
Si Si5 0.904016 0.047919 0.818808
Si Si6 0.807214 0.127622 0.321967
Si Si7 0.487532 0.233384 0.177518
Si Si8 0.503174 0.674681 0.323765
O O1 0.767214 0.742755 0.249428
O O2 0.784345 0.653745 0.267480
O O3 0.927214 0.699405 0.197374
O O4 0.785603 0.693416 0.000000
O O5 0.765375 0.832196 0.251409
O O6 0.609505 0.789993 0.222505
O O7 0.739046 0.787938 0.000000
O O8 0.609553 0.464516 0.500000
O O9 0.674641 0.415807 0.728671
O O10 0.631935 0.499005 0.774115
O O11 0.497534 0.440498 0.723452
O O12 0.439869 0.648229 0.796930
O O13 0.316205 0.621629 0.000000
O O14 0.823406 0.082874 0.776363
O O15 0.927376 0.049680 0.000000
O O16 0.796257 0.113653 0.500000
O O17 0.891169 0.161484 0.293000
O O18 0.506201 0.273318 0.294007
O O19 0.482769 0.251098 0.000000
O O20 0.472239 0.663733 0.500000
#
# Coordination Sequence:
#
# PCOD8225005 Si02
#       8
#     8   8   8   8   8   8   8   8
#     4  10  19  32  51  73  96 133 176 211 249 299
#     4   9  18  31  50  74  98 129 171 215 252 288
#     4  11  21  34  50  74 106 135 163 206 254 301
#     4  11  20  33  51  73  99 136 176 209 246 301
#     4  11  21  34  53  75  99 134 171 206 245 302
#     4  11  22  34  48  72 104 137 168 209 255 300
#     4  10  19  34  51  69  99 134 173 216 254 294
#     4  11  21  30  45  70 101 134 169 209 255 298
#
# _framework density 17.154686000000002
#
# number of rings (size 3 to 8) (size 9 to 14) (size 15 to 20)
#    0.000    1.500    3.750    4.125    0.000    1.500 
#    0.000    1.250    0.000    0.000    0.000    0.875 
#    0.000    7.000    0.000    0.000    0.000    0.000 
#
# Total GULP energy -793669.988225 kJ/mol
# GULP energy per Si atom -12401.093566 kJ/mol
# Density = 1.711564 g / cm^3
# Si number density = 17.154686 Si / 1000 Ang^3
#
#
#
# Elastic Constant Matrix: (Units=GPa)
#
#
# Indices 1 2 3 4 5 6 
#
# 1 72.1753 30.9611 15.1450 0.0000 0.0000 0.0000
# 2 30.9611 106.7978 20.6372 0.0000 0.0000 0.0000
# 3 15.1450 20.6372 60.5188 0.0000 0.0000 0.0000
# 4 0.0000 0.0000 0.0000 25.7614 0.0000 0.0000
# 5 0.0000 0.0000 0.0000 0.0000 14.4969 0.0000
# 6 0.0000 0.0000 0.0000 0.0000 0.0000 28.4125
#
#
#
# Elastic Compliance Matrix: (Units=1/GPa)
#
#
# Indices 1 2 3 4 5 6 
#
# 1 0.016204 -0.004190 -0.002626 0.000000 0.000000 0.000000
# 2 -0.004190 0.011107 -0.002739 0.000000 0.000000 0.000000
# 3 -0.002626 -0.002739 0.018115 0.000000 0.000000 0.000000
# 4 0.000000 0.000000 0.000000 0.038818 0.000000 0.000000
# 5 0.000000 0.000000 0.000000 0.000000 0.068980 0.000000
# 6 0.000000 0.000000 0.000000 0.000000 0.000000 0.035196
#
#
# Mechanical properties :
#
#
# Convention : Reuss Voigt Hill
#
# Bulk Modulus (GPa) = 38.00044 41.44206 39.72125
# Shear Modulus (GPa) = 23.11580 25.25075 24.18327
#
# Velocity S-wave (km/s) = 3.67480 3.84076 3.75869
# Velocity P-wave (km/s) = 6.34076 6.62411 6.48399
#
# Compressibility (1/GPa) = 0.02631548
#
# Stress axis : x y z
#
# Youngs Moduli (GPa) = 61.71460 90.02927 55.20265
#
# Poissons Ratio (x) = 0.37722 0.14497
# Poissons Ratio (y) = 0.25859 0.15121
# Poissons Ratio (z) = 0.16207 0.24660
#
# Static dielectric constant tensor:
#      x y z
#    x 3.032360 0.000000 0.000000 
#    y 0.000000 3.282530 0.000000 
#    z 0.000000 0.000000 3.114650 
# 
# 
# High freq. dielectric constant tensor:
#      x y z
#    x 1.627580 0.000000 0.000000 
#    y 0.000000 1.657800 0.000000 
#    z 0.000000 0.000000 1.659470 
# 
# From -- ./inp_files/6950.got.cif
#   From: 2010.03.12/outbox.cif.g09.slc.cpg/sg55_4_cif.got.tgz:6950.got - 2010.04.16 15:19:21.
