data_PCOD8225458
_publ_section_title
;
Structure prediction by ZEFSAII (Michael W. Deem and Ramdas Pophale) SiO2 
 PCOD8225458
Probable space group: P B A M
;
_chemical_formula_sum "Si O2"
_cell_formula_units_Z 48
_cell_length_a 21.527504
_cell_length_b 12.053426
_cell_length_c 9.547343
_cell_angle_alpha 90.000000
_cell_angle_beta 90.000000
_cell_angle_gamma 90.000000
_cell_volume 2477.346246
_symmetry_space_group_name_H-M "P B A M"
_symmetry_group_IT_number 55
_symmetry_cell_setting 'orthorhombic'
loop_
_space_group_symop_operation_xyz
x,y,z
-x,-y,z
1/2+x,1/2-y,-z
1/2-x,1/2+y,-z
-x,-y,-z
x,y,-z
1/2-x,1/2+y,z
1/2+x,1/2-y,z
loop_
_atom_site_type_symbol
_atom_site_label
_atom_site_fract_x
_atom_site_fract_y
_atom_site_fract_z
Si Si1 0.610919 0.250188 0.663589
Si Si2 0.987944 0.370952 0.343244
Si Si3 0.834107 0.132593 0.841302
Si Si4 0.629039 0.872655 0.841371
Si Si5 0.804274 0.595394 0.834526
Si Si6 0.571566 0.497436 0.663289
O O1 0.623081 0.226088 0.500000
O O2 0.548139 0.191189 0.715509
O O3 0.667344 0.200355 0.753029
O O4 0.603975 0.380039 0.694615
O O5 0.972934 0.328755 0.500000
O O6 0.931144 0.340850 0.245836
O O7 0.000000 0.500000 0.340963
O O8 0.826521 0.265926 0.831160
O O9 0.767989 0.082990 0.794282
O O10 0.889529 0.090314 0.743825
O O11 0.850000 0.096825 0.000000
O O12 0.663636 0.981493 0.782399
O O13 0.608075 0.895990 0.000000
O O14 0.812370 0.615480 0.000000
O O15 0.500000 0.500000 0.715180
O O16 0.573664 0.527002 0.500000
#
# Coordination Sequence:
#
# PCOD8225458 Si02
#       6
#     8   8   8   8   8   8
#     4  10  21  37  58  86 118 150 191 237 284 344
#     4  10  19  34  57  84 113 148 187 230 283 338
#     4  10  23  40  60  85 115 153 197 238 283 345
#     4  10  21  37  57  84 115 147 189 236 282 336
#     4  10  22  38  58  84 116 154 190 234 289 339
#     4  10  22  41  63  87 118 154 193 240 294 347
#
# _framework density 19.375571000000001
#
# number of rings (size 3 to 8) (size 9 to 14) (size 15 to 20)
#    0.000    2.000    1.667    1.000    2.333    4.667 
#    0.000    0.000    0.000    0.000    0.000    0.000 
#    0.000    0.000    0.000    0.000    0.000    0.000 
#
# Total GULP energy -595317.487838 kJ/mol
# GULP energy per Si atom -12402.447663 kJ/mol
# Density = 1.933147 g / cm^3
# Si number density = 19.375571 Si / 1000 Ang^3
#
#
#
# Elastic Constant Matrix: (Units=GPa)
#
#
# Indices 1 2 3 4 5 6 
#
# 1 117.8831 35.3949 51.4642 0.0000 0.0000 0.0000
# 2 35.3949 84.3677 30.3260 0.0000 0.0000 0.0000
# 3 51.4642 30.3260 58.4694 0.0000 0.0000 0.0000
# 4 0.0000 0.0000 0.0000 31.2422 0.0000 0.0000
# 5 0.0000 0.0000 0.0000 0.0000 -0.6261 0.0000
# 6 0.0000 0.0000 0.0000 0.0000 0.0000 28.2342
#
#
#
# Elastic Compliance Matrix: (Units=1/GPa)
#
#
# Indices 1 2 3 4 5 6 
#
# 1 0.013990 -0.001774 -0.011394 0.000000 0.000000 0.000000
# 2 -0.001774 0.014794 -0.006112 0.000000 0.000000 0.000000
# 3 -0.011394 -0.006112 0.030302 0.000000 0.000000 0.000000
# 4 0.000000 0.000000 0.000000 0.032008 0.000000 0.000000
# 5 0.000000 0.000000 0.000000 0.000000 -1.597136 0.000000
# 6 0.000000 0.000000 0.000000 0.000000 0.000000 0.035418
#
#
# Mechanical properties :
#
#
# Convention : Reuss Voigt Hill
#
# Bulk Modulus (GPa) = 48.71697 55.01002 51.86350
# Shear Modulus (GPa) = -3.50822 21.33907 8.91542
#
# Velocity S-wave (km/s) = -1.34706 3.32224 2.14741
# Velocity P-wave (km/s) = 4.77270 6.57035 5.74230
#
# Compressibility (1/GPa) = 0.02052673
#
# Stress axis : x y z
#
# Youngs Moduli (GPa) = 71.48156 67.59531 33.00161
#
# Poissons Ratio (x) = 0.11989 0.37601
# Poissons Ratio (y) = 0.12678 0.20170
# Poissons Ratio (z) = 0.81443 0.41314
#
# Static dielectric constant tensor:
#      x y z
#    x 3.484070 0.000000 0.000000 
#    y 0.000000 3.524030 0.000000 
#    z 0.000000 0.000000 3.470010 
# 
# 
# High freq. dielectric constant tensor:
#      x y z
#    x 1.753040 0.000000 0.000000 
#    y 0.000000 1.765710 0.000000 
#    z 0.000000 0.000000 1.743780 
# 
# From -- ./inp_files/9423.got.cif
#   From: 2010.03.12/outbox.cif.g09.slc.cpg/sg55_5_cif.got.tgz:9423.got - 2010.04.16 15:19:21.
