data_PCOD8225582
_publ_section_title
;
Structure prediction by ZEFSAII (Michael W. Deem and Ramdas Pophale) SiO2 
 PCOD8225582
Probable space group: P B A M
;
_chemical_formula_sum "Si O2"
_cell_formula_units_Z 48
_cell_length_a 14.029585
_cell_length_b 14.868884
_cell_length_c 10.922492
_cell_angle_alpha 90.000000
_cell_angle_beta 90.000000
_cell_angle_gamma 90.000000
_cell_volume 2278.478491
_symmetry_space_group_name_H-M "P B A M"
_symmetry_group_IT_number 55
_symmetry_cell_setting 'orthorhombic'
loop_
_space_group_symop_operation_xyz
x,y,z
-x,-y,z
1/2+x,1/2-y,-z
1/2-x,1/2+y,-z
-x,-y,-z
x,y,-z
1/2-x,1/2+y,z
1/2+x,1/2-y,z
loop_
_atom_site_type_symbol
_atom_site_label
_atom_site_fract_x
_atom_site_fract_y
_atom_site_fract_z
Si Si1 0.860137 0.020793 0.863950
Si Si2 0.709297 0.833916 0.636429
Si Si3 0.413050 0.602750 0.638552
Si Si4 0.072369 0.799717 0.761195
Si Si5 0.350722 0.012673 0.794687
Si Si6 0.982786 0.631102 0.134158
O O1 0.909878 0.969208 0.750071
O O2 0.746886 0.009004 0.863365
O O3 0.887456 0.125354 0.852739
O O4 0.895040 0.987831 0.000000
O O5 0.676432 0.814820 0.500000
O O6 0.823337 0.830244 0.653027
O O7 0.664020 0.755157 0.716336
O O8 0.672118 0.934558 0.668883
O O9 0.410226 0.559416 0.500000
O O10 0.511760 0.657030 0.650061
O O11 0.998242 0.734017 0.828900
O O12 0.416069 0.079553 0.874576
O O13 0.409982 0.919968 0.772669
O O14 0.935442 0.628959 0.000000
#
# Coordination Sequence:
#
# PCOD8225582 Si02
#       6
#     8   8   8   8   8   8
#     4  11  23  39  61  90 123 160 203 247 295 357
#     4   9  20  40  61  86 119 153 201 250 294 353
#     4  10  23  43  63  85 119 164 204 244 301 360
#     4  11  23  35  60  90 123 154 198 246 303 355
#     4   9  19  37  60  84 115 158 200 242 298 354
#     4  10  19  35  58  85 119 156 196 247 302 357
#
# _framework density 21.066690000000001
#
# number of rings (size 3 to 8) (size 9 to 14) (size 15 to 20)
#    0.000    2.000    0.000    3.500    2.333    4.000 
#    0.000    8.333    0.000    0.000    0.000    0.000 
#    0.000    0.000    0.000    0.000    0.000    0.000 
#
# Total GULP energy -594744.135232 kJ/mol
# GULP energy per Si atom -12390.502817 kJ/mol
# Density = 2.101874 g / cm^3
# Si number density = 21.066690 Si / 1000 Ang^3
#
#
#
# Elastic Constant Matrix: (Units=GPa)
#
#
# Indices 1 2 3 4 5 6 
#
# 1 98.3096 36.3018 24.4085 0.0000 0.0000 0.0000
# 2 36.3018 101.2796 45.0980 0.0000 0.0000 0.0000
# 3 24.4085 45.0980 118.2871 0.0000 0.0000 0.0000
# 4 0.0000 0.0000 0.0000 23.6184 0.0000 0.0000
# 5 0.0000 0.0000 0.0000 0.0000 13.6604 0.0000
# 6 0.0000 0.0000 0.0000 0.0000 0.0000 37.1953
#
#
#
# Elastic Compliance Matrix: (Units=1/GPa)
#
#
# Indices 1 2 3 4 5 6 
#
# 1 0.011820 -0.003795 -0.000992 0.000000 0.000000 0.000000
# 2 -0.003795 0.013111 -0.004216 0.000000 0.000000 0.000000
# 3 -0.000992 -0.004216 0.010266 0.000000 0.000000 0.000000
# 4 0.000000 0.000000 0.000000 0.042340 0.000000 0.000000
# 5 0.000000 0.000000 0.000000 0.000000 0.073204 0.000000
# 6 0.000000 0.000000 0.000000 0.000000 0.000000 0.026885
#
#
# Mechanical properties :
#
#
# Convention : Reuss Voigt Hill
#
# Bulk Modulus (GPa) = 58.16850 58.83253 58.50051
# Shear Modulus (GPa) = 24.83100 29.03269 26.93184
#
# Velocity S-wave (km/s) = 3.43692 3.71635 3.57936
# Velocity P-wave (km/s) = 6.58950 6.81193 6.70164
#
# Compressibility (1/GPa) = 0.01719144
#
# Stress axis : x y z
#
# Youngs Moduli (GPa) = 84.60581 76.27216 97.40901
#
# Poissons Ratio (x) = 0.28943 0.09665
# Poissons Ratio (y) = 0.32105 0.41064
# Poissons Ratio (z) = 0.08395 0.32154
#
# Static dielectric constant tensor:
#      x y z
#    x 3.940260 0.000000 0.000000 
#    y 0.000000 3.763630 0.000000 
#    z 0.000000 0.000000 3.709570 
# 
# 
# High freq. dielectric constant tensor:
#      x y z
#    x 1.839190 0.000000 0.000000 
#    y 0.000000 1.816790 0.000000 
#    z 0.000000 0.000000 1.811530 
# 
# From -- ./inp_files/14146.got.cif
#   From: 2010.03.12/outbox.cif.g09.slc.cpg/sg55_8_cif.got.tgz:14146.got - 2010.04.16 15:19:21.
