data_PCOD8225604
_publ_section_title
;
Structure prediction by ZEFSAII (Michael W. Deem and Ramdas Pophale) SiO2 
 PCOD8225604
Probable space group: P B A M
;
_chemical_formula_sum "Si O2"
_cell_formula_units_Z 56
_cell_length_a 16.039809
_cell_length_b 19.310684
_cell_length_c 9.266095
_cell_angle_alpha 90.000000
_cell_angle_beta 90.000000
_cell_angle_gamma 90.000000
_cell_volume 2870.077328
_symmetry_space_group_name_H-M "P B A M"
_symmetry_group_IT_number 55
_symmetry_cell_setting 'orthorhombic'
loop_
_space_group_symop_operation_xyz
x,y,z
-x,-y,z
1/2+x,1/2-y,-z
1/2-x,1/2+y,-z
-x,-y,-z
x,y,-z
1/2-x,1/2+y,z
1/2+x,1/2-y,z
loop_
_atom_site_type_symbol
_atom_site_label
_atom_site_fract_x
_atom_site_fract_y
_atom_site_fract_z
Si Si1 0.714008 0.120154 0.832793
Si Si2 0.376871 0.386034 0.340483
Si Si3 0.720092 0.898129 0.666971
Si Si4 0.395113 0.540473 0.657591
Si Si5 0.596248 0.994839 0.168950
Si Si6 0.690082 0.278462 0.167840
Si Si7 0.978009 0.849459 0.165971
O O1 0.792644 0.097572 0.741422
O O2 0.695361 0.198744 0.788388
O O3 0.637495 0.069367 0.794797
O O4 0.737265 0.114311 0.000000
O O5 0.359562 0.356151 0.500000
O O6 0.422423 0.460518 0.348351
O O7 0.437681 0.332874 0.255856
O O8 0.697520 0.884251 0.500000
O O9 0.795955 0.951922 0.684313
O O10 0.640304 0.932192 0.745158
O O11 0.745643 0.824585 0.739544
O O12 0.415803 0.574808 0.500000
O O13 0.443077 0.575778 0.788987
O O14 0.500000 0.000000 0.217047
O O15 0.603976 0.977349 0.000000
O O16 0.593581 0.294610 0.202744
O O17 0.709930 0.292346 0.000000
O O18 0.003442 0.849979 0.000000
#
# Coordination Sequence:
#
# PCOD8225604 Si02
#       7
#     8   8   8   8   8   8   8
#     4  10  21  39  61  82 111 151 195 241 291 343
#     4  11  21  34  53  80 115 147 180 226 284 341
#     4  10  19  35  59  85 114 150 190 235 289 349
#     4   9  18  32  51  77 110 146 177 218 276 331
#     4  10  21  38  61  89 117 151 197 247 297 348
#     4   9  20  39  59  81 112 152 194 241 291 344
#     4  10  20  33  52  80 111 145 188 230 273 333
#
# _framework density 19.511669999999999
#
# number of rings (size 3 to 8) (size 9 to 14) (size 15 to 20)
#    0.000    2.143    1.429    1.714    0.000    4.857 
#    2.571    0.000    0.000    0.000    0.000    0.000 
#    0.000    0.000    0.000    0.000    0.000    0.000 
#
# Total GULP energy -694236.152396 kJ/mol
# GULP energy per Si atom -12397.074150 kJ/mol
# Density = 1.946726 g / cm^3
# Si number density = 19.511670 Si / 1000 Ang^3
#
#
#
# Elastic Constant Matrix: (Units=GPa)
#
#
# Indices 1 2 3 4 5 6 
#
# 1 98.8753 34.9221 51.5422 0.0000 0.0000 0.0000
# 2 34.9221 93.7986 46.7209 0.0000 0.0000 0.0000
# 3 51.5422 46.7209 90.2321 0.0000 0.0000 0.0000
# 4 0.0000 0.0000 0.0000 17.7931 0.0000 0.0000
# 5 0.0000 0.0000 0.0000 0.0000 23.7320 0.0000
# 6 0.0000 0.0000 0.0000 0.0000 0.0000 11.9794
#
#
#
# Elastic Compliance Matrix: (Units=1/GPa)
#
#
# Indices 1 2 3 4 5 6 
#
# 1 0.014607 -0.001728 -0.007449 0.000000 0.000000 0.000000
# 2 -0.001728 0.014571 -0.006557 0.000000 0.000000 0.000000
# 3 -0.007449 -0.006557 0.018733 0.000000 0.000000 0.000000
# 4 0.000000 0.000000 0.000000 0.056202 0.000000 0.000000
# 5 0.000000 0.000000 0.000000 0.000000 0.042137 0.000000
# 6 0.000000 0.000000 0.000000 0.000000 0.000000 0.083476
#
#
# Mechanical properties :
#
#
# Convention : Reuss Voigt Hill
#
# Bulk Modulus (GPa) = 60.82100 61.03074 60.92587
# Shear Modulus (GPa) = 18.74935 20.68229 19.71582
#
# Velocity S-wave (km/s) = 3.10325 3.25929 3.18223
# Velocity P-wave (km/s) = 6.63924 6.74618 6.69292
#
# Compressibility (1/GPa) = 0.01644169
#
# Stress axis : x y z
#
# Youngs Moduli (GPa) = 68.45937 68.63067 53.38172
#
# Poissons Ratio (x) = 0.11859 0.39765
# Poissons Ratio (y) = 0.11830 0.35005
# Poissons Ratio (z) = 0.50997 0.45004
#
# Static dielectric constant tensor:
#      x y z
#    x 3.605590 0.000000 0.000000 
#    y 0.000000 3.371900 0.000000 
#    z 0.000000 0.000000 3.637190 
# 
# 
# High freq. dielectric constant tensor:
#      x y z
#    x 1.763030 0.000000 0.000000 
#    y 0.000000 1.737790 0.000000 
#    z 0.000000 0.000000 1.763740 
# 
# From -- ./inp_files/6015.got.cif
#   From: 2010.03.12/outbox.cif.g09.slc.cpg/sg55_4_cif.got.tgz:6015.got - 2010.04.16 15:19:21.
