data_PCOD8225366
_publ_section_title
;
Structure prediction by ZEFSAII (Michael W. Deem and Ramdas Pophale) SiO2 
 PCOD8225366
Probable space group: P B A M
;
_chemical_formula_sum "Si O2"
_cell_formula_units_Z 64
_cell_length_a 10.942636
_cell_length_b 31.844605
_cell_length_c 9.349865
_cell_angle_alpha 90.000000
_cell_angle_beta 90.000000
_cell_angle_gamma 90.000000
_cell_volume 3258.090619
_symmetry_space_group_name_H-M "P B A M"
_symmetry_group_IT_number 55
_symmetry_cell_setting 'orthorhombic'
loop_
_space_group_symop_operation_xyz
x,y,z
-x,-y,z
1/2+x,1/2-y,-z
1/2-x,1/2+y,-z
-x,-y,-z
x,y,-z
1/2-x,1/2+y,z
1/2+x,1/2-y,z
loop_
_atom_site_type_symbol
_atom_site_label
_atom_site_fract_x
_atom_site_fract_y
_atom_site_fract_z
Si Si1 0.093423 0.911605 0.163713
Si Si2 0.372423 0.127219 0.162859
Si Si3 0.551289 0.071885 0.658469
Si Si4 0.665819 0.433883 0.837582
Si Si5 0.109072 0.721036 0.832433
Si Si6 0.208308 0.484146 0.163199
Si Si7 0.752986 0.643711 0.340736
Si Si8 0.166019 0.277740 0.830998
O O1 0.186887 0.949550 0.172396
O O2 0.133102 0.870638 0.253929
O O3 0.966461 0.927545 0.233672
O O4 0.075537 0.896484 0.000000
O O5 0.445055 0.093907 0.254828
O O6 0.233566 0.110980 0.168894
O O7 0.380360 0.173834 0.230333
O O8 0.423232 0.127184 0.000000
O O9 0.505098 0.059565 0.500000
O O10 0.592788 0.030049 0.742258
O O11 0.663271 0.103385 0.645810
O O12 0.742218 0.472241 0.767672
O O13 0.643831 0.448701 0.000000
O O14 0.223101 0.748399 0.771378
O O15 0.972593 0.739829 0.798326
O O16 0.130624 0.718244 0.000000
O O17 0.163373 0.490089 0.000000
O O18 0.718380 0.660227 0.500000
O O19 0.824960 0.678586 0.251318
O O20 0.179699 0.285886 0.000000
#
# Coordination Sequence:
#
# PCOD8225366 Si02
#       8
#     8   8   8   8   8   8   8   8
#     4   9  17  31  53  78 105 140 177 219 268 320
#     4  10  19  34  54  76 103 137 174 216 267 320
#     4  10  20  34  52  74 102 138 180 221 261 310
#     4   9  18  31  51  79 107 136 176 224 269 315
#     4   9  19  33  55  82 107 133 171 217 265 320
#     4   9  17  31  52  77 104 137 178 223 269 317
#     4  10  20  34  53  78 104 136 177 216 257 312
#     4  10  19  35  57  82 107 137 174 218 267 320
#
# _framework density 19.643407
#
# number of rings (size 3 to 8) (size 9 to 14) (size 15 to 20)
#    0.000    2.500    1.250    1.125    0.000    4.000 
#    0.000    9.375    0.000    3.000    0.000    0.000 
#    0.000    0.000    0.000    0.000    0.000    0.000 
#
# Total GULP energy -793215.975514 kJ/mol
# GULP energy per Si atom -12393.999617 kJ/mol
# Density = 1.959870 g / cm^3
# Si number density = 19.643407 Si / 1000 Ang^3
#
#
#
# Elastic Constant Matrix: (Units=GPa)
#
#
# Indices 1 2 3 4 5 6 
#
# 1 74.8729 33.1892 25.0475 0.0000 0.0000 0.0000
# 2 33.1892 47.3287 19.2358 0.0000 0.0000 0.0000
# 3 25.0475 19.2358 69.9810 0.0000 0.0000 0.0000
# 4 0.0000 0.0000 0.0000 5.1603 0.0000 0.0000
# 5 0.0000 0.0000 0.0000 0.0000 8.7670 0.0000
# 6 0.0000 0.0000 0.0000 0.0000 0.0000 24.3497
#
#
#
# Elastic Compliance Matrix: (Units=1/GPa)
#
#
# Indices 1 2 3 4 5 6 
#
# 1 0.020223 -0.012653 -0.003760 0.000000 0.000000 0.000000
# 2 -0.012653 0.031703 -0.004185 0.000000 0.000000 0.000000
# 3 -0.003760 -0.004185 0.016786 0.000000 0.000000 0.000000
# 4 0.000000 0.000000 0.000000 0.193787 0.000000 0.000000
# 5 0.000000 0.000000 0.000000 0.000000 0.114064 0.000000
# 6 0.000000 0.000000 0.000000 0.000000 0.000000 0.041068
#
#
# Mechanical properties :
#
#
# Convention : Reuss Voigt Hill
#
# Bulk Modulus (GPa) = 36.34479 38.56974 37.45726
# Shear Modulus (GPa) = 10.68379 15.30275 12.99327
#
# Velocity S-wave (km/s) = 2.33467 2.79413 2.57467
# Velocity P-wave (km/s) = 5.08036 5.48518 5.28664
#
# Compressibility (1/GPa) = 0.02751426
#
# Stress axis : x y z
#
# Youngs Moduli (GPa) = 49.44981 31.54307 59.57387
#
# Poissons Ratio (x) = 0.39911 0.22401
# Poissons Ratio (y) = 0.62568 0.24935
# Poissons Ratio (z) = 0.18594 0.13202
#
# Static dielectric constant tensor:
#      x y z
#    x 3.701120 0.000000 0.000000 
#    y 0.000000 3.600920 0.000000 
#    z 0.000000 0.000000 3.476890 
# 
# 
# High freq. dielectric constant tensor:
#      x y z
#    x 1.770090 0.000000 0.000000 
#    y 0.000000 1.758890 0.000000 
#    z 0.000000 0.000000 1.726700 
# 
# From -- ./inp_files/4596.got.cif
#   From: 2010.03.12/outbox.cif.g09.slc.cpg/sg55_3_cif.got.tgz:4596.got - 2010.04.16 15:19:21.
