data_PCOD8225976
_publ_section_title
;
Structure prediction by ZEFSAII (Michael W. Deem and Ramdas Pophale) SiO2 
 PCOD8225976
Probable space group: P B A M
;
_chemical_formula_sum "Si O2"
_cell_formula_units_Z 64
_cell_length_a 23.684275
_cell_length_b 15.015789
_cell_length_c 8.918940
_cell_angle_alpha 90.000000
_cell_angle_beta 90.000000
_cell_angle_gamma 90.000000
_cell_volume 3171.914662
_symmetry_space_group_name_H-M "P B A M"
_symmetry_group_IT_number 55
_symmetry_cell_setting 'orthorhombic'
loop_
_space_group_symop_operation_xyz
x,y,z
-x,-y,z
1/2+x,1/2-y,-z
1/2-x,1/2+y,-z
-x,-y,-z
x,y,-z
1/2-x,1/2+y,z
1/2+x,1/2-y,z
loop_
_atom_site_type_symbol
_atom_site_label
_atom_site_fract_x
_atom_site_fract_y
_atom_site_fract_z
Si Si1 0.368067 0.198110 0.670297
Si Si2 0.242800 0.235892 0.678356
Si Si3 0.525718 0.744284 0.176500
Si Si4 0.541611 0.424414 0.178257
Si Si5 0.638684 0.002736 0.329029
Si Si6 0.170346 0.079434 0.822688
Si Si7 0.960672 0.584560 0.168884
Si Si8 0.256637 0.927856 0.824859
O O1 0.369487 0.230435 0.500000
O O2 0.304933 0.207565 0.733844
O O3 0.410972 0.261630 0.759189
O O4 0.387079 0.095775 0.687688
O O5 0.236349 0.231778 0.500000
O O6 0.197867 0.166734 0.747100
O O7 0.234970 0.337046 0.732811
O O8 0.485931 0.666449 0.237384
O O9 0.496491 0.834048 0.232694
O O10 0.532396 0.739898 0.000000
O O11 0.500000 0.500000 0.243267
O O12 0.606015 0.431514 0.236931
O O13 0.542829 0.429167 0.000000
O O14 0.657226 0.021878 0.500000
O O15 0.591862 0.073536 0.279396
O O16 0.691511 0.008902 0.218440
O O17 0.201379 0.986192 0.781157
O O18 0.172684 0.096062 0.000000
O O19 0.000000 0.500000 0.169050
O O20 0.938522 0.603872 0.000000
O O21 0.256999 0.904892 0.000000
#
# Coordination Sequence:
#
# PCOD8225976 Si02
#       8
#     8   8   8   8   8   8   8   8
#     4  10  22  39  59  85 122 158 199 250 302 367
#     4  11  24  42  63  90 125 165 204 252 314 375
#     4  10  21  36  60  87 117 158 202 249 301 359
#     4   9  20  39  62  88 120 157 202 256 304 350
#     4  11  22  38  59  85 120 162 200 242 304 372
#     4  10  22  41  65  95 126 160 207 261 312 366
#     4  10  20  34  52  84 123 157 195 243 298 357
#     4  11  24  40  63  92 121 157 206 259 310 372
#
# _framework density 20.177087
#
# number of rings (size 3 to 8) (size 9 to 14) (size 15 to 20)
#    0.000    1.750    2.500    1.125    3.500    2.750 
#    0.000    0.625    0.000    0.750    0.000    0.000 
#    0.000    0.000    0.000    0.000    0.000    0.000 
#
# Total GULP energy -793543.938135 kJ/mol
# GULP energy per Si atom -12399.124033 kJ/mol
# Density = 2.013116 g / cm^3
# Si number density = 20.177087 Si / 1000 Ang^3
#
#
#
# Elastic Constant Matrix: (Units=GPa)
#
#
# Indices 1 2 3 4 5 6 
#
# 1 158.9245 54.1579 37.7854 0.0000 0.0000 0.0000
# 2 54.1579 112.4959 29.4415 0.0000 0.0000 0.0000
# 3 37.7854 29.4415 45.2553 0.0000 0.0000 0.0000
# 4 0.0000 0.0000 0.0000 -5.9379 0.0000 0.0000
# 5 0.0000 0.0000 0.0000 0.0000 28.6343 0.0000
# 6 0.0000 0.0000 0.0000 0.0000 0.0000 33.7515
#
#
#
# Elastic Compliance Matrix: (Units=1/GPa)
#
#
# Indices 1 2 3 4 5 6 
#
# 1 0.008474 -0.002685 -0.005329 0.000000 0.000000 0.000000
# 2 -0.002685 0.011564 -0.005281 0.000000 0.000000 0.000000
# 3 -0.005329 -0.005281 0.029982 0.000000 0.000000 0.000000
# 4 0.000000 0.000000 0.000000 -0.168411 0.000000 0.000000
# 5 0.000000 0.000000 0.000000 0.000000 0.034923 0.000000
# 6 0.000000 0.000000 0.000000 0.000000 0.000000 0.029628
#
#
# Mechanical properties :
#
#
# Convention : Reuss Voigt Hill
#
# Bulk Modulus (GPa) = 42.68030 62.16059 52.42045
# Shear Modulus (GPa) = -257.20710 24.30898 -116.44906
#
# Velocity S-wave (km/s) = -11.30272 3.47476 -7.60518
# Velocity P-wave (km/s) = 12.21215 6.85369 7.14715
#
# Compressibility (1/GPa) = 0.02343001
#
# Stress axis : x y z
#
# Youngs Moduli (GPa) = 118.00472 86.47488 33.35366
#
# Poissons Ratio (x) = 0.23219 0.17773
# Poissons Ratio (y) = 0.31686 0.17615
# Poissons Ratio (z) = 0.62880 0.45670
#
# Static dielectric constant tensor:
#      x y z
#    x 3.819260 0.000000 0.000000 
#    y 0.000000 3.748170 0.000000 
#    z 0.000000 0.000000 3.447430 
# 
# 
# High freq. dielectric constant tensor:
#      x y z
#    x 1.798080 0.000000 0.000000 
#    y 0.000000 1.791800 0.000000 
#    z 0.000000 0.000000 1.766360 
# 
# From -- ./inp_files/9733.got.cif
#   From: 2010.03.12/outbox.cif.g09.slc.cpg/sg55_5_cif.got.tgz:9733.got - 2010.04.16 15:19:21.
