data_PCOD8225135
_publ_section_title
;
Structure prediction by ZEFSAII (Michael W. Deem and Ramdas Pophale) SiO2 
 PCOD8225135
Probable space group: P B A M
;
_chemical_formula_sum "Si O2"
_cell_formula_units_Z 56
_cell_length_a 13.304579
_cell_length_b 23.567161
_cell_length_c 9.219856
_cell_angle_alpha 90.000000
_cell_angle_beta 90.000000
_cell_angle_gamma 90.000000
_cell_volume 2890.896501
_symmetry_space_group_name_H-M "P B A M"
_symmetry_group_IT_number 55
_symmetry_cell_setting 'orthorhombic'
loop_
_space_group_symop_operation_xyz
x,y,z
-x,-y,z
1/2+x,1/2-y,-z
1/2-x,1/2+y,-z
-x,-y,-z
x,y,-z
1/2-x,1/2+y,z
1/2+x,1/2-y,z
loop_
_atom_site_type_symbol
_atom_site_label
_atom_site_fract_x
_atom_site_fract_y
_atom_site_fract_z
Si Si1 0.619138 0.161508 0.668640
Si Si2 0.583402 0.827523 0.831622
Si Si3 0.758474 0.771634 0.334149
Si Si4 0.614042 0.378670 0.668237
Si Si5 0.280295 0.938367 0.166145
Si Si6 0.547317 0.559593 0.830424
Si Si7 0.711863 0.934419 0.835338
O O1 0.594437 0.154348 0.500000
O O2 0.519554 0.182395 0.748439
O O3 0.705121 0.208079 0.695675
O O4 0.656809 0.102119 0.730580
O O5 0.665537 0.783648 0.771114
O O6 0.619242 0.892255 0.805210
O O7 0.567075 0.814333 0.000000
O O8 0.722651 0.779787 0.500000
O O9 0.850584 0.814410 0.301098
O O10 0.599059 0.391010 0.500000
O O11 0.508115 0.389038 0.747658
O O12 0.696702 0.422237 0.728224
O O13 0.163876 0.938300 0.211506
O O14 0.325419 0.001389 0.188310
O O15 0.293714 0.918382 0.000000
O O16 0.500000 0.500000 0.778859
O O17 0.530350 0.568261 0.000000
O O18 0.752335 0.926762 0.000000
#
# Coordination Sequence:
#
# PCOD8225135 Si02
#       7
#     8   8   8   8   8   8   8
#     4  11  24  41  59  82 119 156 187 231 288 341
#     4  10  21  38  64  89 110 143 190 239 282 333
#     4   9  21  41  60  80 111 153 191 229 282 340
#     4  10  19  32  55  84 112 145 191 237 276 335
#     4  10  21  37  57  81 114 151 193 238 282 339
#     4  10  19  34  55  80 115 154 185 224 287 345
#     4   9  18  36  58  81 112 149 186 230 287 342
#
# _framework density 19.371154000000001
#
# number of rings (size 3 to 8) (size 9 to 14) (size 15 to 20)
#    0.000    2.143    1.429    1.286    0.000    5.429 
#    0.000    7.143    0.000    0.000    0.000    0.000 
#    0.000    0.000    0.000    0.000    0.000    0.000 
#
# Total GULP energy -694606.596209 kJ/mol
# GULP energy per Si atom -12403.689218 kJ/mol
# Density = 1.932706 g / cm^3
# Si number density = 19.371154 Si / 1000 Ang^3
#
#
#
# Elastic Constant Matrix: (Units=GPa)
#
#
# Indices 1 2 3 4 5 6 
#
# 1 79.5679 20.0934 49.7274 0.0000 0.0000 0.0000
# 2 20.0934 74.0728 34.6620 0.0000 0.0000 0.0000
# 3 49.7274 34.6620 93.2650 0.0000 0.0000 0.0000
# 4 0.0000 0.0000 0.0000 28.9498 0.0000 0.0000
# 5 0.0000 0.0000 0.0000 0.0000 36.2339 0.0000
# 6 0.0000 0.0000 0.0000 0.0000 0.0000 22.0358
#
#
#
# Elastic Compliance Matrix: (Units=1/GPa)
#
#
# Indices 1 2 3 4 5 6 
#
# 1 0.018864 -0.000497 -0.009873 0.000000 0.000000 0.000000
# 2 -0.000497 0.016355 -0.005814 0.000000 0.000000 0.000000
# 3 -0.009873 -0.005814 0.018147 0.000000 0.000000 0.000000
# 4 0.000000 0.000000 0.000000 0.034543 0.000000 0.000000
# 5 0.000000 0.000000 0.000000 0.000000 0.027598 0.000000
# 6 0.000000 0.000000 0.000000 0.000000 0.000000 0.045381
#
#
# Mechanical properties :
#
#
# Convention : Reuss Voigt Hill
#
# Bulk Modulus (GPa) = 47.62169 50.65235 49.13702
# Shear Modulus (GPa) = 24.96818 26.93875 25.95346
#
# Velocity S-wave (km/s) = 3.59407 3.73321 3.66430
# Velocity P-wave (km/s) = 6.46995 6.69235 6.58209
#
# Compressibility (1/GPa) = 0.02099884
#
# Stress axis : x y z
#
# Youngs Moduli (GPa) = 53.01163 61.14166 55.10578
#
# Poissons Ratio (x) = 0.03039 0.54407
# Poissons Ratio (y) = 0.02635 0.32036
# Poissons Ratio (z) = 0.52339 0.35545
#
# Static dielectric constant tensor:
#      x y z
#    x 3.417570 0.000000 0.000000 
#    y 0.000000 3.535950 0.000000 
#    z 0.000000 0.000000 3.555990 
# 
# 
# High freq. dielectric constant tensor:
#      x y z
#    x 1.746930 0.000000 0.000000 
#    y 0.000000 1.751590 0.000000 
#    z 0.000000 0.000000 1.756220 
# 
# From -- ./inp_files/6196.got.cif
#   From: 2010.03.12/outbox.cif.g09.slc.cpg/sg55_4_cif.got.tgz:6196.got - 2010.04.16 15:19:21.
