data_PCOD8225098
_publ_section_title
;
Structure prediction by ZEFSAII (Michael W. Deem and Ramdas Pophale) SiO2 
 PCOD8225098
Probable space group: P B A M
;
_chemical_formula_sum "Si O2"
_cell_formula_units_Z 48
_cell_length_a 9.023611
_cell_length_b 27.418994
_cell_length_c 10.422291
_cell_angle_alpha 90.000000
_cell_angle_beta 90.000000
_cell_angle_gamma 90.000000
_cell_volume 2578.665895
_symmetry_space_group_name_H-M "P B A M"
_symmetry_group_IT_number 55
_symmetry_cell_setting 'orthorhombic'
loop_
_space_group_symop_operation_xyz
x,y,z
-x,-y,z
1/2+x,1/2-y,-z
1/2-x,1/2+y,-z
-x,-y,-z
x,y,-z
1/2-x,1/2+y,z
1/2+x,1/2-y,z
loop_
_atom_site_type_symbol
_atom_site_label
_atom_site_fract_x
_atom_site_fract_y
_atom_site_fract_z
Si Si1 0.664814 0.495689 0.848094
Si Si2 0.283701 0.310337 0.147927
Si Si3 0.335592 0.911386 0.152113
Si Si4 0.457010 0.748408 0.727412
Si Si5 0.794415 0.317096 0.639616
Si Si6 0.172633 0.602763 0.848363
O O1 0.500000 0.500000 0.791137
O O2 0.763097 0.539624 0.789375
O O3 0.729281 0.443497 0.809871
O O4 0.663340 0.501236 0.000000
O O5 0.248452 0.363781 0.207101
O O6 0.140678 0.275698 0.164584
O O7 0.431566 0.290340 0.211602
O O8 0.318899 0.315299 0.000000
O O9 0.506387 0.910117 0.192179
O O10 0.323786 0.911665 0.000000
O O11 0.343188 0.720290 0.635571
O O12 0.550629 0.788301 0.649700
O O13 0.796050 0.343799 0.500000
O O14 0.771812 0.352707 0.760858
O O15 0.186959 0.616420 0.000000
#
# Coordination Sequence:
#
# PCOD8225098 Si02
#       6
#     8   8   8   8   8   8
#     4   9  18  31  52  82 113 145 184 228 278 334
#     4  10  19  32  53  85 120 145 179 233 289 331
#     4   9  17  31  51  80 115 147 178 221 277 333
#     4  10  22  36  54  79 109 154 193 228 275 340
#     4  11  23  40  59  81 112 152 192 233 278 336
#     4  10  20  35  57  85 113 145 184 232 283 334
#
# _framework density 18.614277000000001
#
# number of rings (size 3 to 8) (size 9 to 14) (size 15 to 20)
#    0.000    2.167    1.667    1.500    2.333    5.333 
#    0.000    0.000    0.000    2.500    0.000    0.000 
#    0.000    0.000    0.000    0.000    0.000    0.000 
#
# Total GULP energy -595016.596712 kJ/mol
# GULP energy per Si atom -12396.179098 kJ/mol
# Density = 1.857191 g / cm^3
# Si number density = 18.614277 Si / 1000 Ang^3
#
#
#
# Elastic Constant Matrix: (Units=GPa)
#
#
# Indices 1 2 3 4 5 6 
#
# 1 96.0756 39.9067 19.0192 0.0000 0.0000 0.0000
# 2 39.9067 114.2465 34.9701 0.0000 0.0000 0.0000
# 3 19.0192 34.9701 65.1357 0.0000 0.0000 0.0000
# 4 0.0000 0.0000 0.0000 9.7939 0.0000 0.0000
# 5 0.0000 0.0000 0.0000 0.0000 4.3841 0.0000
# 6 0.0000 0.0000 0.0000 0.0000 0.0000 35.1163
#
#
#
# Elastic Compliance Matrix: (Units=1/GPa)
#
#
# Indices 1 2 3 4 5 6 
#
# 1 0.012302 -0.003827 -0.001538 0.000000 0.000000 0.000000
# 2 -0.003827 0.011665 -0.005145 0.000000 0.000000 0.000000
# 3 -0.001538 -0.005145 0.018564 0.000000 0.000000 0.000000
# 4 0.000000 0.000000 0.000000 0.102105 0.000000 0.000000
# 5 0.000000 0.000000 0.000000 0.000000 0.228099 0.000000
# 6 0.000000 0.000000 0.000000 0.000000 0.000000 0.028477
#
#
# Mechanical properties :
#
#
# Convention : Reuss Voigt Hill
#
# Bulk Modulus (GPa) = 46.48611 51.47221 48.97916
# Shear Modulus (GPa) = 11.64415 21.96296 16.80355
#
# Velocity S-wave (km/s) = 2.50381 3.43869 3.00780
# Velocity P-wave (km/s) = 5.77809 6.59380 6.19938
#
# Compressibility (1/GPa) = 0.02151180
#
# Stress axis : x y z
#
# Youngs Moduli (GPa) = 81.28556 85.73003 53.86795
#
# Poissons Ratio (x) = 0.32805 0.08284
# Poissons Ratio (y) = 0.31104 0.27716
# Poissons Ratio (z) = 0.12500 0.44109
#
# Static dielectric constant tensor:
#      x y z
#    x 3.625680 0.000000 0.000000 
#    y 0.000000 3.653680 0.000000 
#    z 0.000000 0.000000 2.918040 
# 
# 
# High freq. dielectric constant tensor:
#      x y z
#    x 1.740500 0.000000 0.000000 
#    y 0.000000 1.728620 0.000000 
#    z 0.000000 0.000000 1.667440 
# 
# From -- ./inp_files/2801.got.cif
#   From: 2010.03.12/outbox.cif.g09.slc.cpg/sg55_2_cif.got.tgz:2801.got - 2010.04.16 15:19:21.
