data_PCOD8225389
_publ_section_title
;
Structure prediction by ZEFSAII (Michael W. Deem and Ramdas Pophale) SiO2 
 PCOD8225389
Probable space group: P B A M
;
_chemical_formula_sum "Si O2"
_cell_formula_units_Z 56
_cell_length_a 14.759489
_cell_length_b 20.877842
_cell_length_c 8.877456
_cell_angle_alpha 90.000000
_cell_angle_beta 90.000000
_cell_angle_gamma 90.000000
_cell_volume 2735.555036
_symmetry_space_group_name_H-M "P B A M"
_symmetry_group_IT_number 55
_symmetry_cell_setting 'orthorhombic'
loop_
_space_group_symop_operation_xyz
x,y,z
-x,-y,z
1/2+x,1/2-y,-z
1/2-x,1/2+y,-z
-x,-y,-z
x,y,-z
1/2-x,1/2+y,z
1/2+x,1/2-y,z
loop_
_atom_site_type_symbol
_atom_site_label
_atom_site_fract_x
_atom_site_fract_y
_atom_site_fract_z
Si Si1 0.934697 0.642093 0.326404
Si Si2 0.235043 0.399518 0.175010
Si Si3 0.935722 0.439875 0.165890
Si Si4 0.228740 0.037261 0.828237
Si Si5 0.310024 0.261100 0.823120
Si Si6 0.831623 0.837837 0.677096
Si Si7 0.517004 0.265522 0.176608
O O1 0.928666 0.661290 0.500000
O O2 0.854308 0.594493 0.278241
O O3 0.922604 0.704594 0.223059
O O4 0.031912 0.610423 0.291713
O O5 0.297786 0.462642 0.206612
O O6 0.286019 0.334248 0.218676
O O7 0.205463 0.400370 0.000000
O O8 0.835276 0.460827 0.201828
O O9 0.000000 0.500000 0.171580
O O10 0.941272 0.407125 0.000000
O O11 0.182677 0.087580 0.716991
O O12 0.203697 0.055538 0.000000
O O13 0.246897 0.208229 0.744189
O O14 0.414042 0.254546 0.768009
O O15 0.301222 0.248229 0.000000
O O16 0.830414 0.828298 0.500000
O O17 0.932119 0.823811 0.740959
O O18 0.521098 0.278260 0.000000
#
# Coordination Sequence:
#
# PCOD8225389 Si02
#       7
#     8   8   8   8   8   8   8
#     4  12  23  34  54  87 122 158 193 244 314 366
#     4  10  20  39  64  88 116 156 203 252 301 360
#     4  10  19  34  55  82 114 157 203 242 294 360
#     4  10  21  38  61  86 118 161 205 250 304 364
#     4  10  22  41  68  94 118 158 209 261 308 359
#     4  12  25  40  61  92 128 164 200 251 315 371
#     4  11  23  41  64  89 118 158 210 257 301 364
#
# _framework density 20.471164999999999
#
# number of rings (size 3 to 8) (size 9 to 14) (size 15 to 20)
#    0.000    1.286    2.857    3.857    0.000    6.000 
#    0.000    0.714    0.000    4.286    0.000    0.000 
#    0.000    0.000    0.000    0.000    0.000    0.000 
#
# Total GULP energy -694251.919215 kJ/mol
# GULP energy per Si atom -12397.355700 kJ/mol
# Density = 2.042457 g / cm^3
# Si number density = 20.471165 Si / 1000 Ang^3
#
#
#
# Elastic Constant Matrix: (Units=GPa)
#
#
# Indices 1 2 3 4 5 6 
#
# 1 57.4344 14.0383 31.2060 0.0000 0.0000 0.0000
# 2 14.0383 109.9139 34.2676 0.0000 0.0000 0.0000
# 3 31.2060 34.2676 87.3391 0.0000 0.0000 0.0000
# 4 0.0000 0.0000 0.0000 13.7450 0.0000 0.0000
# 5 0.0000 0.0000 0.0000 0.0000 -12.8435 0.0000
# 6 0.0000 0.0000 0.0000 0.0000 0.0000 31.3688
#
#
#
# Elastic Compliance Matrix: (Units=1/GPa)
#
#
# Indices 1 2 3 4 5 6 
#
# 1 0.021621 -0.000402 -0.007567 0.000000 0.000000 0.000000
# 2 -0.000402 0.010374 -0.003926 0.000000 0.000000 0.000000
# 3 -0.007567 -0.003926 0.015694 0.000000 0.000000 0.000000
# 4 0.000000 0.000000 0.000000 0.072754 0.000000 0.000000
# 5 0.000000 0.000000 0.000000 0.000000 -0.077860 0.000000
# 6 0.000000 0.000000 0.000000 0.000000 0.000000 0.031879
#
#
# Mechanical properties :
#
#
# Convention : Reuss Voigt Hill
#
# Bulk Modulus (GPa) = 41.84678 45.96792 43.90735
# Shear Modulus (GPa) = 47.07279 18.13241 32.60260
#
# Velocity S-wave (km/s) = 4.80048 2.97939 3.99508
# Velocity P-wave (km/s) = 7.15628 5.85998 6.54033
#
# Compressibility (1/GPa) = 0.02389670
#
# Stress axis : x y z
#
# Youngs Moduli (GPa) = 46.25114 96.39931 63.71887
#
# Poissons Ratio (x) = 0.03877 0.48218
# Poissons Ratio (y) = 0.01860 0.25018
# Poissons Ratio (z) = 0.35000 0.37850
#
# Static dielectric constant tensor:
#      x y z
#    x 3.774750 0.000000 0.000000 
#    y 0.000000 4.040510 0.000000 
#    z 0.000000 0.000000 3.536490 
# 
# 
# High freq. dielectric constant tensor:
#      x y z
#    x 1.783450 0.000000 0.000000 
#    y 0.000000 1.810560 0.000000 
#    z 0.000000 0.000000 1.783340 
# 
# From -- ./inp_files/6032.got.cif
#   From: 2010.03.12/outbox.cif.g09.slc.cpg/sg55_4_cif.got.tgz:6032.got - 2010.04.16 15:19:21.
