data_PCOD8225673
_publ_section_title
;
Structure prediction by ZEFSAII (Michael W. Deem and Ramdas Pophale) SiO2 
 PCOD8225673
Probable space group: P B A M
;
_chemical_formula_sum "Si O2"
_cell_formula_units_Z 48
_cell_length_a 31.033712
_cell_length_b 8.962458
_cell_length_c 8.386377
_cell_angle_alpha 90.000000
_cell_angle_beta 90.000000
_cell_angle_gamma 90.000000
_cell_volume 2332.572981
_symmetry_space_group_name_H-M "P B A M"
_symmetry_group_IT_number 55
_symmetry_cell_setting 'orthorhombic'
loop_
_space_group_symop_operation_xyz
x,y,z
-x,-y,z
1/2+x,1/2-y,-z
1/2-x,1/2+y,-z
-x,-y,-z
x,y,-z
1/2-x,1/2+y,z
1/2+x,1/2-y,z
loop_
_atom_site_type_symbol
_atom_site_label
_atom_site_fract_x
_atom_site_fract_y
_atom_site_fract_z
Si Si1 0.954829 0.421943 0.685390
Si Si2 0.793671 0.410417 0.189936
Si Si3 0.290227 0.423276 0.187051
Si Si4 0.127142 0.081459 0.685321
Si Si5 0.375941 0.905261 0.814992
Si Si6 0.542028 0.581744 0.689257
O O1 0.941727 0.431576 0.500000
O O2 0.919363 0.502389 0.791791
O O3 0.958035 0.252387 0.745505
O O4 0.000000 0.500000 0.717512
O O5 0.751801 0.495176 0.259487
O O6 0.794644 0.242523 0.261111
O O7 0.836106 0.496431 0.248731
O O8 0.792488 0.404177 0.000000
O O9 0.331850 0.521681 0.220966
O O10 0.283836 0.409260 0.000000
O O11 0.133272 0.046424 0.500000
O O12 0.121881 0.256786 0.710878
O O13 0.084832 0.999154 0.754150
O O14 0.370119 0.863487 0.000000
O O15 0.500000 0.500000 0.762000
O O16 0.540462 0.570291 0.500000
#
# Coordination Sequence:
#
# PCOD8225673 Si02
#       6
#     8   8   8   8   8   8
#     4  10  20  36  59  84 111 145 183 226 280 336
#     4   9  19  35  58  83 108 143 183 223 269 325
#     4  10  19  36  59  81 107 141 181 221 268 325
#     4  11  22  36  55  81 111 143 181 225 274 325
#     4  11  22  37  57  82 112 147 188 231 274 323
#     4   9  18  34  56  80 107 142 182 221 267 329
#
# _framework density 20.578135
#
# number of rings (size 3 to 8) (size 9 to 14) (size 15 to 20)
#    0.000    2.000    0.000    4.000    0.000    5.667 
#    0.000    5.833    0.000    3.500    0.000    0.000 
#    0.000    0.000    0.000    0.000    0.000    0.000 
#
# Total GULP energy -595387.648411 kJ/mol
# GULP energy per Si atom -12403.909342 kJ/mol
# Density = 2.053130 g / cm^3
# Si number density = 20.578135 Si / 1000 Ang^3
#
#
#
# Elastic Constant Matrix: (Units=GPa)
#
#
# Indices 1 2 3 4 5 6 
#
# 1 158.1774 73.4939 8.4465 0.0000 0.0000 0.0000
# 2 73.4939 171.6454 4.2775 0.0000 0.0000 0.0000
# 3 8.4465 4.2775 16.1910 0.0000 0.0000 0.0000
# 4 0.0000 0.0000 0.0000 23.1810 0.0000 0.0000
# 5 0.0000 0.0000 0.0000 0.0000 23.0168 0.0000
# 6 0.0000 0.0000 0.0000 0.0000 0.0000 47.2662
#
#
#
# Elastic Compliance Matrix: (Units=1/GPa)
#
#
# Indices 1 2 3 4 5 6 
#
# 1 0.008065 -0.003371 -0.003317 0.000000 0.000000 0.000000
# 2 -0.003371 0.007273 -0.000163 0.000000 0.000000 0.000000
# 3 -0.003317 -0.000163 0.063536 0.000000 0.000000 0.000000
# 4 0.000000 0.000000 0.000000 0.043139 0.000000 0.000000
# 5 0.000000 0.000000 0.000000 0.000000 0.043446 0.000000
# 6 0.000000 0.000000 0.000000 0.000000 0.000000 0.021157
#
#
# Mechanical properties :
#
#
# Convention : Reuss Voigt Hill
#
# Bulk Modulus (GPa) = 15.34372 57.60552 36.47462
# Shear Modulus (GPa) = 22.51818 36.01252 29.26535
#
# Velocity S-wave (km/s) = 3.31157 4.18788 3.77524
# Velocity P-wave (km/s) = 4.70048 7.17209 6.06355
#
# Compressibility (1/GPa) = 0.06517325
#
# Stress axis : x y z
#
# Youngs Moduli (GPa) = 123.98867 137.49000 15.73904
#
# Poissons Ratio (x) = 0.46343 0.05221
# Poissons Ratio (y) = 0.41792 0.00257
# Poissons Ratio (z) = 0.41127 0.02243
#
# Static dielectric constant tensor:
#      x y z
#    x 3.892640 0.000000 0.000000 
#    y 0.000000 3.971760 0.000000 
#    z 0.000000 0.000000 3.230040 
# 
# 
# High freq. dielectric constant tensor:
#      x y z
#    x 1.822290 0.000000 0.000000 
#    y 0.000000 1.824130 0.000000 
#    z 0.000000 0.000000 1.762000 
# 
# From -- ./inp_files/2831.got.cif
#   From: 2010.03.12/outbox.cif.g09.slc.cpg/sg55_2_cif.got.tgz:2831.got - 2010.04.16 15:19:21.
