data_PCOD8225876
_publ_section_title
;
Structure prediction by ZEFSAII (Michael W. Deem and Ramdas Pophale) SiO2 
 PCOD8225876
Probable space group: P B A M
;
_chemical_formula_sum "Si O2"
_cell_formula_units_Z 64
_cell_length_a 17.335367
_cell_length_b 22.116319
_cell_length_c 9.285818
_cell_angle_alpha 90.000000
_cell_angle_beta 90.000000
_cell_angle_gamma 90.000000
_cell_volume 3560.131610
_symmetry_space_group_name_H-M "P B A M"
_symmetry_group_IT_number 55
_symmetry_cell_setting 'orthorhombic'
loop_
_space_group_symop_operation_xyz
x,y,z
-x,-y,z
1/2+x,1/2-y,-z
1/2-x,1/2+y,-z
-x,-y,-z
x,y,-z
1/2-x,1/2+y,z
1/2+x,1/2-y,z
loop_
_atom_site_type_symbol
_atom_site_label
_atom_site_fract_x
_atom_site_fract_y
_atom_site_fract_z
Si Si1 0.155704 0.783691 0.831567
Si Si2 0.591037 0.933977 0.170989
Si Si3 0.736079 0.108438 0.168119
Si Si4 0.576146 0.068894 0.830248
Si Si5 0.279059 0.154757 0.171271
Si Si6 0.539123 0.639224 0.332009
Si Si7 0.867448 0.892796 0.330816
Si Si8 0.149337 0.968919 0.331689
O O1 0.224682 0.828914 0.788815
O O2 0.184330 0.718432 0.780683
O O3 0.077925 0.804558 0.751241
O O4 0.137168 0.784747 0.000000
O O5 0.507401 0.908128 0.225921
O O6 0.661470 0.895047 0.233573
O O7 0.597411 0.002247 0.229116
O O8 0.596423 0.929613 0.000000
O O9 0.645743 0.113669 0.213438
O O10 0.774050 0.052080 0.249621
O O11 0.744367 0.094240 0.000000
O O12 0.568750 0.062229 0.000000
O O13 0.196835 0.144560 0.245186
O O14 0.267270 0.152061 0.000000
O O15 0.549968 0.651509 0.500000
O O16 0.449571 0.636197 0.289149
O O17 0.578550 0.575254 0.289087
O O18 0.851080 0.887105 0.500000
O O19 0.869780 0.962992 0.283402
O O20 0.166267 0.965457 0.500000
#
# Coordination Sequence:
#
# PCOD8225876 Si02
#       8
#     8   8   8   8   8   8   8   8
#     4   9  19  34  48  69  99 128 163 204 244 288
#     4   8  14  25  42  65  91 117 151 193 236 282
#     4   9  16  28  47  70  96 125 159 198 240 289
#     4   8  13  23  42  67  89 114 153 196 233 277
#     4  10  20  34  49  70 100 132 165 203 249 294
#     4   9  18  34  54  73  96 131 168 202 244 295
#     4  10  20  33  51  76 101 127 164 205 246 299
#     4   9  17  30  50  75 102 129 158 199 250 297
#
# _framework density 17.976863000000002
#
# number of rings (size 3 to 8) (size 9 to 14) (size 15 to 20)
#    0.000    3.000    0.000    1.875    0.000    4.000 
#    2.250    0.000    0.000    4.500    0.000    3.500 
#    0.000    0.000    0.000    0.000    0.000    0.000 
#
# Total GULP energy -793267.060997 kJ/mol
# GULP energy per Si atom -12394.797828 kJ/mol
# Density = 1.793595 g / cm^3
# Si number density = 17.976863 Si / 1000 Ang^3
#
#
#
# Elastic Constant Matrix: (Units=GPa)
#
#
# Indices 1 2 3 4 5 6 
#
# 1 143.0202 50.9494 31.5215 0.0000 0.0000 0.0000
# 2 50.9494 86.4043 25.3564 0.0000 0.0000 0.0000
# 3 31.5215 25.3564 25.5572 0.0000 0.0000 0.0000
# 4 0.0000 0.0000 0.0000 20.1662 0.0000 0.0000
# 5 0.0000 0.0000 0.0000 0.0000 24.8735 0.0000
# 6 0.0000 0.0000 0.0000 0.0000 0.0000 20.0604
#
#
#
# Elastic Compliance Matrix: (Units=1/GPa)
#
#
# Indices 1 2 3 4 5 6 
#
# 1 0.010223 -0.003284 -0.009350 0.000000 0.000000 0.000000
# 2 -0.003284 0.017382 -0.013195 0.000000 0.000000 0.000000
# 3 -0.009350 -0.013195 0.063752 0.000000 0.000000 0.000000
# 4 0.000000 0.000000 0.000000 0.049588 0.000000 0.000000
# 5 0.000000 0.000000 0.000000 0.000000 0.040203 0.000000
# 6 0.000000 0.000000 0.000000 0.000000 0.000000 0.049849
#
#
# Mechanical properties :
#
#
# Convention : Reuss Voigt Hill
#
# Bulk Modulus (GPa) = 25.19037 52.29293 38.74165
# Shear Modulus (GPa) = 16.89825 22.83032 19.86428
#
# Velocity S-wave (km/s) = 3.06927 3.56755 3.32775
# Velocity P-wave (km/s) = 5.15787 6.79132 6.03016
#
# Compressibility (1/GPa) = 0.03969771
#
# Stress axis : x y z
#
# Youngs Moduli (GPa) = 97.82174 57.52988 15.68590
#
# Poissons Ratio (x) = 0.18893 0.14666
# Poissons Ratio (y) = 0.32125 0.20698
# Poissons Ratio (z) = 0.91464 0.75912
#
# Static dielectric constant tensor:
#      x y z
#    x 3.639470 0.000000 0.000000 
#    y 0.000000 3.286110 0.000000 
#    z 0.000000 0.000000 2.984290 
# 
# 
# High freq. dielectric constant tensor:
#      x y z
#    x 1.709730 0.000000 0.000000 
#    y 0.000000 1.683380 0.000000 
#    z 0.000000 0.000000 1.658600 
# 
# From -- ./inp_files/8202.got.cif
#   From: 2010.03.12/outbox.cif.g09.slc.cpg/sg55_5_cif.got.tgz:8202.got - 2010.04.16 15:19:21.
