data_PCOD8225778
_publ_section_title
;
Structure prediction by ZEFSAII (Michael W. Deem and Ramdas Pophale) SiO2 
 PCOD8225778
Probable space group: P B A M
;
_chemical_formula_sum "Si O2"
_cell_formula_units_Z 48
_cell_length_a 9.311677
_cell_length_b 18.635516
_cell_length_c 13.489555
_cell_angle_alpha 90.000000
_cell_angle_beta 90.000000
_cell_angle_gamma 90.000000
_cell_volume 2340.814228
_symmetry_space_group_name_H-M "P B A M"
_symmetry_group_IT_number 55
_symmetry_cell_setting 'orthorhombic'
loop_
_space_group_symop_operation_xyz
x,y,z
-x,-y,z
1/2+x,1/2-y,-z
1/2-x,1/2+y,-z
-x,-y,-z
x,y,-z
1/2-x,1/2+y,z
1/2+x,1/2-y,z
loop_
_atom_site_type_symbol
_atom_site_label
_atom_site_fract_x
_atom_site_fract_y
_atom_site_fract_z
Si Si1 0.787197 0.306839 0.612104
Si Si2 0.370455 0.052046 0.292558
Si Si3 0.531471 0.682823 0.691050
Si Si4 0.609071 0.845308 0.888733
Si Si5 0.852354 0.039672 0.390470
Si Si6 0.417085 0.715035 0.110985
O O1 0.812099 0.281902 0.500000
O O2 0.856540 0.385127 0.626622
O O3 0.618124 0.306848 0.633812
O O4 0.872808 0.254333 0.685024
O O5 0.383658 0.086068 0.183161
O O6 0.500000 0.000000 0.318609
O O7 0.232215 0.001565 0.304075
O O8 0.626034 0.620764 0.643976
O O9 0.497381 0.666350 0.806800
O O10 0.464821 0.798065 0.871490
O O11 0.746371 0.792793 0.873271
O O12 0.609791 0.876808 0.000000
O O13 0.776902 0.040046 0.500000
O O14 0.000000 0.000000 0.402547
O O15 0.463092 0.690385 0.000000
#
# Coordination Sequence:
#
# PCOD8225778 Si02
#       6
#     8   8   8   8   8   8
#     4  12  25  42  64  94 129 167 216 268 318 379
#     4  12  26  42  63  91 132 174 213 266 318 383
#     4  12  23  42  66  95 128 164 215 270 321 385
#     4  10  21  41  66  96 129 165 211 265 326 385
#     4  11  23  42  64  87 126 177 218 259 321 383
#     4  10  19  37  68  97 124 160 205 265 325 381
#
# _framework density 20.505687000000002
#
# number of rings (size 3 to 8) (size 9 to 14) (size 15 to 20)
#    0.000    0.833    5.000    2.000    2.333    3.000 
#    0.000    0.833    0.000    3.000    0.000    0.000 
#    0.000    0.000    0.000    0.000    0.000    0.000 
#
# Total GULP energy -595089.115819 kJ/mol
# GULP energy per Si atom -12397.689913 kJ/mol
# Density = 2.045902 g / cm^3
# Si number density = 20.505687 Si / 1000 Ang^3
#
#
#
# Elastic Constant Matrix: (Units=GPa)
#
#
# Indices 1 2 3 4 5 6 
#
# 1 72.6383 61.0341 22.9173 0.0000 0.0000 0.0000
# 2 61.0341 109.6446 18.8531 0.0000 0.0000 0.0000
# 3 22.9173 18.8531 93.0794 0.0000 0.0000 0.0000
# 4 0.0000 0.0000 0.0000 37.0145 0.0000 0.0000
# 5 0.0000 0.0000 0.0000 0.0000 24.7314 0.0000
# 6 0.0000 0.0000 0.0000 0.0000 0.0000 41.0187
#
#
#
# Elastic Compliance Matrix: (Units=1/GPa)
#
#
# Indices 1 2 3 4 5 6 
#
# 1 0.027067 -0.014423 -0.003743 0.000000 0.000000 0.000000
# 2 -0.014423 0.017135 0.000080 0.000000 0.000000 0.000000
# 3 -0.003743 0.000080 0.011649 0.000000 0.000000 0.000000
# 4 0.000000 0.000000 0.000000 0.027016 0.000000 0.000000
# 5 0.000000 0.000000 0.000000 0.000000 0.040434 0.000000
# 6 0.000000 0.000000 0.000000 0.000000 0.000000 0.024379
#
#
# Mechanical properties :
#
#
# Convention : Reuss Voigt Hill
#
# Bulk Modulus (GPa) = 50.81387 53.44126 52.12756
# Shear Modulus (GPa) = 26.25885 32.05676 29.15781
#
# Velocity S-wave (km/s) = 3.58238 3.95816 3.77495
# Velocity P-wave (km/s) = 6.47653 6.85621 6.66907
#
# Compressibility (1/GPa) = 0.01967967
#
# Stress axis : x y z
#
# Youngs Moduli (GPa) = 36.94562 58.35901 85.84622
#
# Poissons Ratio (x) = 0.84173 0.32130
# Poissons Ratio (y) = 0.53288 -0.00691
# Poissons Ratio (z) = 0.13828 -0.00470
#
# Static dielectric constant tensor:
#      x y z
#    x 3.710140 0.000000 0.000000 
#    y 0.000000 3.667150 0.000000 
#    z 0.000000 0.000000 4.025930 
# 
# 
# High freq. dielectric constant tensor:
#      x y z
#    x 1.800610 0.000000 0.000000 
#    y 0.000000 1.784760 0.000000 
#    z 0.000000 0.000000 1.819990 
# 
# From -- ./inp_files/17347.got.cif
#   From: 2010.03.12/outbox.cif.g09.slc.cpg/sg55_9_cif.got.tgz:17347.got - 2010.04.16 15:19:21.
