data_PCOD8225488
_publ_section_title
;
Structure prediction by ZEFSAII (Michael W. Deem and Ramdas Pophale) SiO2 
 PCOD8225488
Probable space group: P B A M
;
_chemical_formula_sum "Si O2"
_cell_formula_units_Z 56
_cell_length_a 18.852827
_cell_length_b 17.346271
_cell_length_c 8.585319
_cell_angle_alpha 90.000000
_cell_angle_beta 90.000000
_cell_angle_gamma 90.000000
_cell_volume 2807.624645
_symmetry_space_group_name_H-M "P B A M"
_symmetry_group_IT_number 55
_symmetry_cell_setting 'orthorhombic'
loop_
_space_group_symop_operation_xyz
x,y,z
-x,-y,z
1/2+x,1/2-y,-z
1/2-x,1/2+y,-z
-x,-y,-z
x,y,-z
1/2-x,1/2+y,z
1/2+x,1/2-y,z
loop_
_atom_site_type_symbol
_atom_site_label
_atom_site_fract_x
_atom_site_fract_y
_atom_site_fract_z
Si Si1 0.079930 0.520202 0.184128
Si Si2 0.372770 0.181770 0.682574
Si Si3 0.148889 0.956603 0.814864
Si Si4 0.048458 0.820329 0.185261
Si Si5 0.299781 0.905035 0.184707
Si Si6 0.103002 0.120946 0.185553
Si Si7 0.723546 0.265888 0.185098
O O1 0.105691 0.596204 0.270084
O O2 0.130012 0.449804 0.241158
O O3 0.000000 0.500000 0.233760
O O4 0.086242 0.533743 0.000000
O O5 0.362153 0.186434 0.500000
O O6 0.435301 0.238501 0.737078
O O7 0.300578 0.207361 0.763712
O O8 0.104984 0.883209 0.754335
O O9 0.229922 0.950412 0.756401
O O10 0.114962 0.034988 0.747467
O O11 0.145234 0.958158 0.000000
O O12 0.971669 0.846887 0.245357
O O13 0.050669 0.810840 0.000000
O O14 0.297031 0.818313 0.252419
O O15 0.299210 0.900835 0.000000
O O16 0.165450 0.174900 0.250801
O O17 0.104130 0.119366 0.000000
O O18 0.723161 0.264023 0.000000
#
# Coordination Sequence:
#
# PCOD8225488 Si02
#       7
#     8   8   8   8   8   8   8
#     4  10  22  39  64  92 119 151 197 254 305 351
#     4  12  25  40  57  81 119 163 202 233 283 352
#     4   9  15  28  51  84 117 143 176 227 287 342
#     4  10  19  34  58  85 114 148 189 240 294 345
#     4   9  17  31  56  89 116 144 186 239 295 345
#     4   9  18  29  55  90 115 138 180 241 299 346
#     4  10  19  36  61  87 114 147 192 245 291 340
#
# _framework density 19.945685999999998
#
# number of rings (size 3 to 8) (size 9 to 14) (size 15 to 20)
#    0.000    2.143    1.429    2.571    2.000    4.286 
#    0.000    1.429    0.000    1.714    0.000    0.000 
#    0.000    0.000    0.000    0.000    0.000    0.000 
#
# Total GULP energy -694412.547395 kJ/mol
# GULP energy per Si atom -12400.224061 kJ/mol
# Density = 1.990029 g / cm^3
# Si number density = 19.945686 Si / 1000 Ang^3
#
#
#
# Elastic Constant Matrix: (Units=GPa)
#
#
# Indices 1 2 3 4 5 6 
#
# 1 118.1547 54.0378 6.6914 0.0000 0.0000 0.0000
# 2 54.0378 138.5796 7.6009 0.0000 0.0000 0.0000
# 3 6.6914 7.6009 9.0207 0.0000 0.0000 0.0000
# 4 0.0000 0.0000 0.0000 5.7865 0.0000 0.0000
# 5 0.0000 0.0000 0.0000 0.0000 1.7449 0.0000
# 6 0.0000 0.0000 0.0000 0.0000 0.0000 40.2352
#
#
#
# Elastic Compliance Matrix: (Units=1/GPa)
#
#
# Indices 1 2 3 4 5 6 
#
# 1 0.010475 -0.003836 -0.004538 0.000000 0.000000 0.000000
# 2 -0.003836 0.008970 -0.004713 0.000000 0.000000 0.000000
# 3 -0.004538 -0.004713 0.118194 0.000000 0.000000 0.000000
# 4 0.000000 0.000000 0.000000 0.172815 0.000000 0.000000
# 5 0.000000 0.000000 0.000000 0.000000 0.573083 0.000000
# 6 0.000000 0.000000 0.000000 0.000000 0.000000 0.024854
#
#
# Mechanical properties :
#
#
# Convention : Reuss Voigt Hill
#
# Bulk Modulus (GPa) = 8.97141 44.71278 26.84209
# Shear Modulus (GPa) = 5.14552 22.71500 13.93026
#
# Velocity S-wave (km/s) = 1.60791 3.37834 2.64561
# Velocity P-wave (km/s) = 2.82043 6.13869 4.77694
#
# Compressibility (1/GPa) = 0.11146519
#
# Stress axis : x y z
#
# Youngs Moduli (GPa) = 95.46825 111.47976 8.46067
#
# Poissons Ratio (x) = 0.42759 0.03839
# Poissons Ratio (y) = 0.36618 0.03988
# Poissons Ratio (z) = 0.43324 0.52542
#
# Static dielectric constant tensor:
#      x y z
#    x 3.855030 0.000000 0.000000 
#    y 0.000000 3.950280 0.000000 
#    z 0.000000 0.000000 3.018710 
# 
# 
# High freq. dielectric constant tensor:
#      x y z
#    x 1.793100 0.000000 0.000000 
#    y 0.000000 1.796880 0.000000 
#    z 0.000000 0.000000 1.714850 
# 
# From -- ./inp_files/8764.got.cif
#   From: 2010.03.12/outbox.cif.g09.slc.cpg/sg55_5_cif.got.tgz:8764.got - 2010.04.16 15:19:21.
