data_PCOD8225280
_publ_section_title
;
Structure prediction by ZEFSAII (Michael W. Deem and Ramdas Pophale) SiO2 
 PCOD8225280
Probable space group: P B A M
;
_chemical_formula_sum "Si O2"
_cell_formula_units_Z 64
_cell_length_a 11.340405
_cell_length_b 33.579190
_cell_length_c 9.062895
_cell_angle_alpha 90.000000
_cell_angle_beta 90.000000
_cell_angle_gamma 90.000000
_cell_volume 3451.165045
_symmetry_space_group_name_H-M "P B A M"
_symmetry_group_IT_number 55
_symmetry_cell_setting 'orthorhombic'
loop_
_space_group_symop_operation_xyz
x,y,z
-x,-y,z
1/2+x,1/2-y,-z
1/2-x,1/2+y,-z
-x,-y,-z
x,y,-z
1/2-x,1/2+y,z
1/2+x,1/2-y,z
loop_
_atom_site_type_symbol
_atom_site_label
_atom_site_fract_x
_atom_site_fract_y
_atom_site_fract_z
Si Si1 0.729194 0.126466 0.326567
Si Si2 0.571229 0.200384 0.325045
Si Si3 0.488677 0.351122 0.327657
Si Si4 0.106278 0.446507 0.171464
Si Si5 0.894054 0.781068 0.166920
Si Si6 0.658563 0.964598 0.828135
Si Si7 0.844783 0.329168 0.833031
Si Si8 0.221373 0.102061 0.327498
O O1 0.720532 0.121677 0.500000
O O2 0.658081 0.165241 0.273473
O O3 0.864637 0.130679 0.275390
O O4 0.674250 0.087198 0.258505
O O5 0.563263 0.203694 0.500000
O O6 0.620539 0.241293 0.260807
O O7 0.442865 0.193264 0.259807
O O8 0.487597 0.340111 0.500000
O O9 0.510094 0.310361 0.239470
O O10 0.588712 0.383858 0.291544
O O11 0.168395 0.488605 0.206376
O O12 0.969914 0.448468 0.220055
O O13 0.114750 0.436586 0.000000
O O14 0.767834 0.801288 0.168688
O O15 0.934838 0.771418 0.000000
O O16 0.759506 0.942598 0.732798
O O17 0.680554 0.956327 0.000000
O O18 0.816897 0.370979 0.756290
O O19 0.887760 0.337414 0.000000
O O20 0.248048 0.104225 0.500000
#
# Coordination Sequence:
#
# PCOD8225280 Si02
#       8
#     8   8   8   8   8   8   8   8
#     4  10  22  38  55  79 109 144 182 222 271 326
#     4  11  23  36  55  81 108 140 179 223 273 327
#     4   9  20  39  57  76 108 147 183 223 272 327
#     4   9  19  35  55  81 111 146 180 221 275 327
#     4  10  22  38  56  80 106 137 181 227 271 320
#     4   9  18  34  56  81 112 144 179 223 275 327
#     4  10  21  37  55  78 109 140 176 223 271 322
#     4  10  19  33  56  82 106 140 184 225 271 322
#
# _framework density 18.544463
#
# number of rings (size 3 to 8) (size 9 to 14) (size 15 to 20)
#    0.000    2.250    0.000    3.000    1.750    6.500 
#    0.000    1.875    0.000    3.750    0.000    0.000 
#    0.000    0.000    0.000    0.000    0.000    0.000 
#
# Total GULP energy -793771.286185 kJ/mol
# GULP energy per Si atom -12402.676347 kJ/mol
# Density = 1.850225 g / cm^3
# Si number density = 18.544463 Si / 1000 Ang^3
#
#
#
# Elastic Constant Matrix: (Units=GPa)
#
#
# Indices 1 2 3 4 5 6 
#
# 1 66.9008 48.0196 33.5454 0.0000 0.0000 0.0000
# 2 48.0196 128.9378 51.8292 0.0000 0.0000 0.0000
# 3 33.5454 51.8292 75.5327 0.0000 0.0000 0.0000
# 4 0.0000 0.0000 0.0000 39.1297 0.0000 0.0000
# 5 0.0000 0.0000 0.0000 0.0000 27.0812 0.0000
# 6 0.0000 0.0000 0.0000 0.0000 0.0000 23.4983
#
#
#
# Elastic Compliance Matrix: (Units=1/GPa)
#
#
# Indices 1 2 3 4 5 6 
#
# 1 0.022071 -0.005910 -0.005747 0.000000 0.000000 0.000000
# 2 -0.005910 0.012292 -0.005810 0.000000 0.000000 0.000000
# 3 -0.005747 -0.005810 0.019778 0.000000 0.000000 0.000000
# 4 0.000000 0.000000 0.000000 0.025556 0.000000 0.000000
# 5 0.000000 0.000000 0.000000 0.000000 0.036926 0.000000
# 6 0.000000 0.000000 0.000000 0.000000 0.000000 0.042556
#
#
# Mechanical properties :
#
#
# Convention : Reuss Voigt Hill
#
# Bulk Modulus (GPa) = 52.06148 59.79551 55.92850
# Shear Modulus (GPa) = 24.93573 27.14032 26.03803
#
# Velocity S-wave (km/s) = 3.67092 3.82976 3.75118
# Velocity P-wave (km/s) = 6.78987 7.20211 6.99903
#
# Compressibility (1/GPa) = 0.01920806
#
# Stress axis : x y z
#
# Youngs Moduli (GPa) = 45.30844 81.35355 50.56031
#
# Poissons Ratio (x) = 0.48077 0.29057
# Poissons Ratio (y) = 0.26776 0.29376
# Poissons Ratio (z) = 0.26039 0.47266
#
# Static dielectric constant tensor:
#      x y z
#    x 3.382330 0.000000 0.000000 
#    y 0.000000 3.457790 0.000000 
#    z 0.000000 0.000000 3.481630 
# 
# 
# High freq. dielectric constant tensor:
#      x y z
#    x 1.713020 0.000000 0.000000 
#    y 0.000000 1.724960 0.000000 
#    z 0.000000 0.000000 1.724120 
# 
# From -- ./inp_files/4688.got.cif
#   From: 2010.03.12/outbox.cif.g09.slc.cpg/sg55_3_cif.got.tgz:4688.got - 2010.04.16 15:19:21.
