data_PCOD8225898
_publ_section_title
;
Structure prediction by ZEFSAII (Michael W. Deem and Ramdas Pophale) SiO2 
 PCOD8225898
Probable space group: P B A M
;
_chemical_formula_sum "Si O2"
_cell_formula_units_Z 64
_cell_length_a 23.407220
_cell_length_b 15.386057
_cell_length_c 9.439004
_cell_angle_alpha 90.000000
_cell_angle_beta 90.000000
_cell_angle_gamma 90.000000
_cell_volume 3399.408407
_symmetry_space_group_name_H-M "P B A M"
_symmetry_group_IT_number 55
_symmetry_cell_setting 'orthorhombic'
loop_
_space_group_symop_operation_xyz
x,y,z
-x,-y,z
1/2+x,1/2-y,-z
1/2-x,1/2+y,-z
-x,-y,-z
x,y,-z
1/2-x,1/2+y,z
1/2+x,1/2-y,z
loop_
_atom_site_type_symbol
_atom_site_label
_atom_site_fract_x
_atom_site_fract_y
_atom_site_fract_z
Si Si1 0.668078 0.568135 0.335709
Si Si2 0.879376 0.828026 0.845240
Si Si3 0.546806 0.168676 0.838150
Si Si4 0.932470 0.511994 0.659436
Si Si5 0.085202 0.650260 0.165388
Si Si6 0.177689 0.736767 0.664560
Si Si7 0.936159 0.012388 0.158457
Si Si8 0.780647 0.886401 0.665672
O O1 0.653570 0.554233 0.500000
O O2 0.698370 0.662557 0.311075
O O3 0.606831 0.568783 0.255348
O O4 0.710852 0.488476 0.286459
O O5 0.927882 0.761256 0.799269
O O6 0.909435 0.918975 0.852567
O O7 0.829114 0.826279 0.732571
O O8 0.854069 0.803878 0.000000
O O9 0.580080 0.102476 0.736287
O O10 0.479914 0.176119 0.808278
O O11 0.557270 0.139267 0.000000
O O12 0.907327 0.511977 0.500000
O O13 0.901020 0.438473 0.750784
O O14 0.000000 0.500000 0.657913
O O15 0.122834 0.725625 0.235487
O O16 0.099696 0.638729 0.000000
O O17 0.161189 0.724007 0.500000
O O18 0.222131 0.661201 0.712459
O O19 0.940328 0.054425 0.000000
O O20 0.000000 0.000000 0.223522
O O21 0.787560 0.878461 0.500000
#
# Coordination Sequence:
#
# PCOD8225898 Si02
#       8
#     8   8   8   8   8   8   8   8
#     4   9  19  36  56  77 105 141 178 224 278 325
#     4   9  18  33  52  76 106 139 175 221 266 315
#     4   9  18  32  51  76 110 144 176 217 267 323
#     4   9  17  31  50  72 103 140 176 214 258 309
#     4  10  20  33  53  79 109 143 178 218 271 324
#     4  10  21  37  56  79 108 141 181 231 278 325
#     4   9  18  31  52  79 110 143 176 214 263 324
#     4   9  19  38  57  74 103 140 182 226 273 325
#
# _framework density 18.826803999999999
#
# number of rings (size 3 to 8) (size 9 to 14) (size 15 to 20)
#    0.000    2.750    0.000    0.750    1.750    3.750 
#    2.250    0.000    0.000    0.000    0.000    0.000 
#    0.000    0.000    0.000    0.000    0.000    0.000 
#
# Total GULP energy -793079.821794 kJ/mol
# GULP energy per Si atom -12391.872216 kJ/mol
# Density = 1.878395 g / cm^3
# Si number density = 18.826804 Si / 1000 Ang^3
#
#
#
# Elastic Constant Matrix: (Units=GPa)
#
#
# Indices 1 2 3 4 5 6 
#
# 1 61.0888 53.8008 35.3796 0.0000 0.0000 0.0000
# 2 53.8008 87.6360 46.7434 0.0000 0.0000 0.0000
# 3 35.3796 46.7434 68.5957 0.0000 0.0000 0.0000
# 4 0.0000 0.0000 0.0000 24.3011 0.0000 0.0000
# 5 0.0000 0.0000 0.0000 0.0000 27.3268 0.0000
# 6 0.0000 0.0000 0.0000 0.0000 0.0000 27.6533
#
#
#
# Elastic Compliance Matrix: (Units=1/GPa)
#
#
# Indices 1 2 3 4 5 6 
#
# 1 0.036987 -0.019687 -0.005661 0.000000 0.000000 0.000000
# 2 -0.019687 0.028405 -0.009202 0.000000 0.000000 0.000000
# 3 -0.005661 -0.009202 0.023769 0.000000 0.000000 0.000000
# 4 0.000000 0.000000 0.000000 0.041150 0.000000 0.000000
# 5 0.000000 0.000000 0.000000 0.000000 0.036594 0.000000
# 6 0.000000 0.000000 0.000000 0.000000 0.000000 0.036162
#
#
# Mechanical properties :
#
#
# Convention : Reuss Voigt Hill
#
# Bulk Modulus (GPa) = 49.85136 54.35203 52.10170
# Shear Modulus (GPa) = 17.93048 21.28267 19.60657
#
# Velocity S-wave (km/s) = 3.08943 3.36586 3.23060
# Velocity P-wave (km/s) = 6.26598 6.63608 6.45368
#
# Compressibility (1/GPa) = 0.02005963
#
# Stress axis : x y z
#
# Youngs Moduli (GPa) = 27.03688 35.20476 42.07182
#
# Poissons Ratio (x) = 0.69307 0.23818
# Poissons Ratio (y) = 0.53227 0.38716
# Poissons Ratio (z) = 0.15306 0.32397
#
# Static dielectric constant tensor:
#      x y z
#    x 3.430430 0.000000 0.000000 
#    y 0.000000 3.646740 0.000000 
#    z 0.000000 0.000000 3.746740 
# 
# 
# High freq. dielectric constant tensor:
#      x y z
#    x 1.704460 0.000000 0.000000 
#    y 0.000000 1.736550 0.000000 
#    z 0.000000 0.000000 1.730920 
# 
# From -- ./inp_files/9696.got.cif
#   From: 2010.03.12/outbox.cif.g09.slc.cpg/sg55_5_cif.got.tgz:9696.got - 2010.04.16 15:19:21.
