data_PCOD8225800
_publ_section_title
;
Structure prediction by ZEFSAII (Michael W. Deem and Ramdas Pophale) SiO2 
 PCOD8225800
Probable space group: P B A M
;
_chemical_formula_sum "Si O2"
_cell_formula_units_Z 48
_cell_length_a 8.835773
_cell_length_b 24.896646
_cell_length_c 13.698659
_cell_angle_alpha 90.000000
_cell_angle_beta 90.000000
_cell_angle_gamma 90.000000
_cell_volume 3013.446247
_symmetry_space_group_name_H-M "P B A M"
_symmetry_group_IT_number 55
_symmetry_cell_setting 'orthorhombic'
loop_
_space_group_symop_operation_xyz
x,y,z
-x,-y,z
1/2+x,1/2-y,-z
1/2-x,1/2+y,-z
-x,-y,-z
x,y,-z
1/2-x,1/2+y,z
1/2+x,1/2-y,z
loop_
_atom_site_type_symbol
_atom_site_label
_atom_site_fract_x
_atom_site_fract_y
_atom_site_fract_z
Si Si1 0.915119 0.556100 0.391639
Si Si2 0.682771 0.204110 0.108603
Si Si3 0.166778 0.691774 0.110900
Si Si4 0.190437 0.414013 0.884421
Si Si5 0.608192 0.911813 0.223913
Si Si6 0.673786 0.510289 0.256875
O O1 0.892896 0.580630 0.500000
O O2 0.751291 0.545036 0.343222
O O3 0.000000 0.500000 0.397095
O O4 0.018163 0.596701 0.326804
O O5 0.746915 0.257527 0.160827
O O6 0.504745 0.209321 0.105679
O O7 0.726090 0.146476 0.155994
O O8 0.752483 0.205432 0.000000
O O9 0.188940 0.641773 0.184119
O O10 0.224320 0.677613 0.000000
O O11 0.315723 0.454237 0.841699
O O12 0.020714 0.431933 0.852227
O O13 0.196686 0.415273 0.000000
O O14 0.740559 0.954739 0.237171
O O15 0.500000 0.500000 0.284595
#
# Coordination Sequence:
#
# PCOD8225800 Si02
#       6
#     8   8   8   8   8   8
#     4   8  15  30  49  64  81 109 143 175 210 259
#     4   8  15  26  40  58  79 109 147 179 206 241
#     4   9  16  27  43  63  87 114 146 180 212 250
#     4   9  17  30  44  57  83 123 158 181 205 252
#     4   9  17  29  45  64  85 114 147 177 215 266
#     4  10  20  29  40  65  93 113 142 184 229 269
#
# _framework density 15.928607
#
# number of rings (size 3 to 8) (size 9 to 14) (size 15 to 20)
#    0.000    3.167    0.000    3.000    0.000    4.000 
#    0.000    1.667    0.000    0.000    0.000   10.500 
#    0.000    0.000    0.000    0.000    0.000    0.000 
#
# Total GULP energy -594661.659880 kJ/mol
# GULP energy per Si atom -12388.784581 kJ/mol
# Density = 1.589235 g / cm^3
# Si number density = 15.928607 Si / 1000 Ang^3
#
#
#
# Elastic Constant Matrix: (Units=GPa)
#
#
# Indices 1 2 3 4 5 6 
#
# 1 58.3430 49.7354 30.1033 0.0000 0.0000 0.0000
# 2 49.7354 88.1809 42.7026 0.0000 0.0000 0.0000
# 3 30.1033 42.7026 94.5687 0.0000 0.0000 0.0000
# 4 0.0000 0.0000 0.0000 11.4727 0.0000 0.0000
# 5 0.0000 0.0000 0.0000 0.0000 12.6853 0.0000
# 6 0.0000 0.0000 0.0000 0.0000 0.0000 28.5509
#
#
#
# Elastic Compliance Matrix: (Units=1/GPa)
#
#
# Indices 1 2 3 4 5 6 
#
# 1 0.033556 -0.017602 -0.002733 0.000000 0.000000 0.000000
# 2 -0.017602 0.023748 -0.005120 0.000000 0.000000 0.000000
# 3 -0.002733 -0.005120 0.013756 0.000000 0.000000 0.000000
# 4 0.000000 0.000000 0.000000 0.087164 0.000000 0.000000
# 5 0.000000 0.000000 0.000000 0.000000 0.078831 0.000000
# 6 0.000000 0.000000 0.000000 0.000000 0.000000 0.035025
#
#
# Mechanical properties :
#
#
# Convention : Reuss Voigt Hill
#
# Bulk Modulus (GPa) = 49.63138 54.01946 51.82542
# Shear Modulus (GPa) = 15.16498 18.44520 16.80509
#
# Velocity S-wave (km/s) = 3.08889 3.40662 3.25164
# Velocity P-wave (km/s) = 6.62933 7.03282 6.83405
#
# Compressibility (1/GPa) = 0.02014854
#
# Stress axis : x y z
#
# Youngs Moduli (GPa) = 29.80128 42.10921 72.69379
#
# Poissons Ratio (x) = 0.74122 0.19868
# Poissons Ratio (y) = 0.52457 0.37220
# Poissons Ratio (z) = 0.08145 0.21560
#
# Static dielectric constant tensor:
#      x y z
#    x 2.874810 0.000000 0.000000 
#    y 0.000000 3.120550 0.000000 
#    z 0.000000 0.000000 3.120900 
# 
# 
# High freq. dielectric constant tensor:
#      x y z
#    x 1.597860 0.000000 0.000000 
#    y 0.000000 1.605350 0.000000 
#    z 0.000000 0.000000 1.582510 
# 
# From -- ./inp_files/17702.got.cif
#   From: 2010.03.12/outbox.cif.g09.slc.cpg/sg55_9_cif.got.tgz:17702.got - 2010.04.16 15:19:21.
