data_PCOD8225206
_publ_section_title
;
Structure prediction by ZEFSAII (Michael W. Deem and Ramdas Pophale) SiO2 
 PCOD8225206
Probable space group: P B A M
;
_chemical_formula_sum "Si O2"
_cell_formula_units_Z 64
_cell_length_a 11.542114
_cell_length_b 32.928975
_cell_length_c 9.074803
_cell_angle_alpha 90.000000
_cell_angle_beta 90.000000
_cell_angle_gamma 90.000000
_cell_volume 3449.060225
_symmetry_space_group_name_H-M "P B A M"
_symmetry_group_IT_number 55
_symmetry_cell_setting 'orthorhombic'
loop_
_space_group_symop_operation_xyz
x,y,z
-x,-y,z
1/2+x,1/2-y,-z
1/2-x,1/2+y,-z
-x,-y,-z
x,y,-z
1/2-x,1/2+y,z
1/2+x,1/2-y,z
loop_
_atom_site_type_symbol
_atom_site_label
_atom_site_fract_x
_atom_site_fract_y
_atom_site_fract_z
Si Si1 0.889449 0.717689 0.671570
Si Si2 0.215497 0.135402 0.674291
Si Si3 0.807706 0.174927 0.829962
Si Si4 0.336974 0.468333 0.674405
Si Si5 0.319297 0.907077 0.828116
Si Si6 0.063811 0.200185 0.827464
Si Si7 0.911372 0.944444 0.674446
Si Si8 0.482075 0.135076 0.329864
O O1 0.879970 0.728314 0.500000
O O2 0.761422 0.707181 0.730701
O O3 0.942070 0.755359 0.758490
O O4 0.976106 0.680635 0.703334
O O5 0.198659 0.140489 0.500000
O O6 0.166634 0.175098 0.753140
O O7 0.149796 0.095727 0.737869
O O8 0.349268 0.131221 0.717222
O O9 0.768188 0.129538 0.789541
O O10 0.942916 0.177924 0.793373
O O11 0.781202 0.185084 0.000000
O O12 0.322015 0.463989 0.500000
O O13 0.228259 0.447787 0.753341
O O14 0.455842 0.446790 0.728757
O O15 0.340858 0.515457 0.724124
O O16 0.446088 0.897279 0.765067
O O17 0.330678 0.914833 0.000000
O O18 0.088262 0.203763 0.000000
O O19 0.910707 0.943192 0.500000
O O20 0.500990 0.124061 0.500000
#
# Coordination Sequence:
#
# PCOD8225206 Si02
#       8
#     8   8   8   8   8   8   8   8
#     4  10  21  36  54  76 101 132 175 221 261 305
#     4  10  20  36  56  79 106 138 178 221 266 316
#     4   9  20  37  53  74 104 136 172 215 261 316
#     4   9  16  30  54  81 109 140 176 218 267 319
#     4  10  19  33  54  78 104 138 179 219 263 313
#     4  11  23  36  53  78 106 137 170 210 266 325
#     4   8  16  31  53  81 110 140 175 219 268 319
#     4   9  20  37  55  75 102 137 177 221 265 311
#
# _framework density 18.555779999999999
#
# number of rings (size 3 to 8) (size 9 to 14) (size 15 to 20)
#    0.000    2.500    0.000    2.625    1.750    2.500 
#    0.000    2.500    0.000    3.750    0.000    0.000 
#    0.000    0.000    0.000    0.000    0.000    0.000 
#
# Total GULP energy -793757.815845 kJ/mol
# GULP energy per Si atom -12402.465873 kJ/mol
# Density = 1.851355 g / cm^3
# Si number density = 18.555780 Si / 1000 Ang^3
#
#
#
# Elastic Constant Matrix: (Units=GPa)
#
#
# Indices 1 2 3 4 5 6 
#
# 1 85.3962 30.4631 34.3601 0.0000 0.0000 0.0000
# 2 30.4631 73.9584 25.4812 0.0000 0.0000 0.0000
# 3 34.3601 25.4812 58.4580 0.0000 0.0000 0.0000
# 4 0.0000 0.0000 0.0000 18.8364 0.0000 0.0000
# 5 0.0000 0.0000 0.0000 0.0000 25.1044 0.0000
# 6 0.0000 0.0000 0.0000 0.0000 0.0000 24.8741
#
#
#
# Elastic Compliance Matrix: (Units=1/GPa)
#
#
# Indices 1 2 3 4 5 6 
#
# 1 0.016291 -0.004014 -0.007826 0.000000 0.000000 0.000000
# 2 -0.004014 0.016900 -0.005007 0.000000 0.000000 0.000000
# 3 -0.007826 -0.005007 0.023889 0.000000 0.000000 0.000000
# 4 0.000000 0.000000 0.000000 0.053089 0.000000 0.000000
# 5 0.000000 0.000000 0.000000 0.000000 0.039834 0.000000
# 6 0.000000 0.000000 0.000000 0.000000 0.000000 0.040202
#
#
# Mechanical properties :
#
#
# Convention : Reuss Voigt Hill
#
# Bulk Modulus (GPa) = 42.76135 44.26902 43.51518
# Shear Modulus (GPa) = 21.58039 22.26354 21.92196
#
# Velocity S-wave (km/s) = 3.41398 3.46759 3.44089
# Velocity P-wave (km/s) = 6.21572 6.31992 6.26803
#
# Compressibility (1/GPa) = 0.02338560
#
# Stress axis : x y z
#
# Youngs Moduli (GPa) = 61.38474 59.17332 41.86107
#
# Poissons Ratio (x) = 0.23751 0.32759
# Poissons Ratio (y) = 0.24639 0.20960
# Poissons Ratio (z) = 0.48038 0.29629
#
# Static dielectric constant tensor:
#      x y z
#    x 3.406940 0.000000 0.000000 
#    y 0.000000 3.502880 0.000000 
#    z 0.000000 0.000000 3.250200 
# 
# 
# High freq. dielectric constant tensor:
#      x y z
#    x 1.718010 0.000000 0.000000 
#    y 0.000000 1.719590 0.000000 
#    z 0.000000 0.000000 1.707910 
# 
# From -- ./inp_files/4522.got.cif
#   From: 2010.03.12/outbox.cif.g09.slc.cpg/sg55_3_cif.got.tgz:4522.got - 2010.04.16 15:19:21.
