data_PCOD8225034
_publ_section_title
;
Structure prediction by ZEFSAII (Michael W. Deem and Ramdas Pophale) SiO2 
 PCOD8225034
Probable space group: P B A M
;
_chemical_formula_sum "Si O2"
_cell_formula_units_Z 48
_cell_length_a 18.272905
_cell_length_b 16.290263
_cell_length_c 9.054845
_cell_angle_alpha 90.000000
_cell_angle_beta 90.000000
_cell_angle_gamma 90.000000
_cell_volume 2695.359589
_symmetry_space_group_name_H-M "P B A M"
_symmetry_group_IT_number 55
_symmetry_cell_setting 'orthorhombic'
loop_
_space_group_symop_operation_xyz
x,y,z
-x,-y,z
1/2+x,1/2-y,-z
1/2-x,1/2+y,-z
-x,-y,-z
x,y,-z
1/2-x,1/2+y,z
1/2+x,1/2-y,z
loop_
_atom_site_type_symbol
_atom_site_label
_atom_site_fract_x
_atom_site_fract_y
_atom_site_fract_z
Si Si1 0.548560 0.080880 0.166041
Si Si2 0.573731 0.837789 0.331087
Si Si3 0.670349 0.991748 0.326244
Si Si4 0.459294 0.585634 0.838311
Si Si5 0.913097 0.152739 0.669965
Si Si6 0.824290 0.013815 0.174862
O O1 0.500139 0.153771 0.235086
O O2 0.621224 0.065918 0.262349
O O3 0.500000 0.000000 0.168875
O O4 0.571551 0.104958 0.000000
O O5 0.550353 0.852407 0.500000
O O6 0.608070 0.747865 0.307559
O O7 0.634920 0.903985 0.285043
O O8 0.679007 0.004566 0.500000
O O9 0.748293 0.994277 0.250212
O O10 0.500000 0.500000 0.853959
O O11 0.502351 0.641881 0.721660
O O12 0.376997 0.563552 0.785602
O O13 0.458215 0.628797 0.000000
O O14 0.907461 0.125812 0.500000
O O15 0.856954 0.099201 0.764773
O O16 0.814929 0.023427 0.000000
#
# Coordination Sequence:
#
# PCOD8225034 Si02
#       6
#     8   8   8   8   8   8
#     4   9  17  30  50  74  97 125 163 201 239 289
#     4   9  19  34  51  74 102 131 165 207 251 295
#     4  10  19  33  53  74 100 133 167 204 248 296
#     4   8  16  31  49  69  95 127 161 200 243 289
#     4  10  19  32  52  76 100 129 167 208 251 298
#     4  10  20  34  51  73 102 133 167 205 248 299
#
# _framework density 17.808385000000001
#
# number of rings (size 3 to 8) (size 9 to 14) (size 15 to 20)
#    0.000    2.667    0.000    3.000    0.000    7.667 
#    0.000    1.667    0.000    6.000    0.000    0.000 
#    0.000    0.000    0.000    0.000    0.000    0.000 
#
# Total GULP energy -595065.073426 kJ/mol
# GULP energy per Si atom -12397.189030 kJ/mol
# Density = 1.776785 g / cm^3
# Si number density = 17.808385 Si / 1000 Ang^3
#
#
#
# Elastic Constant Matrix: (Units=GPa)
#
#
# Indices 1 2 3 4 5 6 
#
# 1 136.5581 38.0276 68.7948 0.0000 0.0000 0.0000
# 2 38.0276 64.0789 40.8288 0.0000 0.0000 0.0000
# 3 68.7948 40.8288 117.0894 0.0000 0.0000 0.0000
# 4 0.0000 0.0000 0.0000 19.2002 0.0000 0.0000
# 5 0.0000 0.0000 0.0000 0.0000 35.0016 0.0000
# 6 0.0000 0.0000 0.0000 0.0000 0.0000 17.7711
#
#
#
# Elastic Compliance Matrix: (Units=1/GPa)
#
#
# Indices 1 2 3 4 5 6 
#
# 1 0.010848 -0.003056 -0.005308 0.000000 0.000000 0.000000
# 2 -0.003056 0.020924 -0.005501 0.000000 0.000000 0.000000
# 3 -0.005308 -0.005501 0.013577 0.000000 0.000000 0.000000
# 4 0.000000 0.000000 0.000000 0.052083 0.000000 0.000000
# 5 0.000000 0.000000 0.000000 0.000000 0.028570 0.000000
# 6 0.000000 0.000000 0.000000 0.000000 0.000000 0.056271
#
#
# Mechanical properties :
#
#
# Convention : Reuss Voigt Hill
#
# Bulk Modulus (GPa) = 56.75311 68.11431 62.43371
# Shear Modulus (GPa) = 23.16146 25.73292 24.44719
#
# Velocity S-wave (km/s) = 3.61029 3.80543 3.70914
# Velocity P-wave (km/s) = 7.02259 7.59209 7.31289
#
# Compressibility (1/GPa) = 0.01762018
#
# Stress axis : x y z
#
# Youngs Moduli (GPa) = 92.18397 47.79189 73.65202
#
# Poissons Ratio (x) = 0.14603 0.39095
# Poissons Ratio (y) = 0.28167 0.40515
# Poissons Ratio (z) = 0.48932 0.26290
#
# Static dielectric constant tensor:
#      x y z
#    x 3.422900 0.000000 0.000000 
#    y 0.000000 3.124910 0.000000 
#    z 0.000000 0.000000 3.468270 
# 
# 
# High freq. dielectric constant tensor:
#      x y z
#    x 1.680930 0.000000 0.000000 
#    y 0.000000 1.663480 0.000000 
#    z 0.000000 0.000000 1.702490 
# 
# From -- ./inp_files/7558.got.cif
#   From: 2010.03.12/outbox.cif.g09.slc.cpg/sg55_4_cif.got.tgz:7558.got - 2010.04.16 15:19:21.
