data_PCOD8225081
_publ_section_title
;
Structure prediction by ZEFSAII (Michael W. Deem and Ramdas Pophale) SiO2 
 PCOD8225081
Probable space group: P B A M
;
_chemical_formula_sum "Si O2"
_cell_formula_units_Z 64
_cell_length_a 15.152430
_cell_length_b 24.322438
_cell_length_c 9.342525
_cell_angle_alpha 90.000000
_cell_angle_beta 90.000000
_cell_angle_gamma 90.000000
_cell_volume 3443.131900
_symmetry_space_group_name_H-M "P B A M"
_symmetry_group_IT_number 55
_symmetry_cell_setting 'orthorhombic'
loop_
_space_group_symop_operation_xyz
x,y,z
-x,-y,z
1/2+x,1/2-y,-z
1/2-x,1/2+y,-z
-x,-y,-z
x,y,-z
1/2-x,1/2+y,z
1/2+x,1/2-y,z
loop_
_atom_site_type_symbol
_atom_site_label
_atom_site_fract_x
_atom_site_fract_y
_atom_site_fract_z
Si Si1 0.053378 0.717194 0.163232
Si Si2 0.490105 0.897978 0.837292
Si Si3 0.831516 0.552992 0.669843
Si Si4 0.175838 0.148896 0.165845
Si Si5 0.776556 0.266085 0.668162
Si Si6 0.189026 0.857673 0.333114
Si Si7 0.980408 0.159321 0.837099
Si Si8 0.184337 0.556867 0.834605
O O1 0.134463 0.707642 0.269498
O O2 0.007786 0.775524 0.194235
O O3 0.983777 0.667802 0.189516
O O4 0.089142 0.713401 0.000000
O O5 0.426466 0.929831 0.730347
O O6 0.589545 0.916587 0.805519
O O7 0.463059 0.912895 0.000000
O O8 0.839093 0.548524 0.500000
O O9 0.759142 0.597467 0.718606
O O10 0.801455 0.495414 0.734475
O O11 0.194689 0.203089 0.259437
O O12 0.239608 0.099395 0.211072
O O13 0.074543 0.131168 0.196185
O O14 0.188624 0.164622 0.000000
O O15 0.774023 0.275991 0.500000
O O16 0.771857 0.201763 0.708487
O O17 0.170418 0.862006 0.500000
O O18 0.095103 0.868302 0.258328
O O19 0.951625 0.149631 0.000000
O O20 0.194634 0.539588 0.000000
#
# Coordination Sequence:
#
# PCOD8225081 Si02
#       8
#     8   8   8   8   8   8   8   8
#     4   9  17  33  53  80 114 145 177 219 271 325
#     4  10  20  35  56  83 113 148 182 221 280 336
#     4  11  24  39  56  79 109 147 192 237 275 321
#     4  10  20  36  57  84 115 144 179 230 280 325
#     4  10  19  32  53  80 110 147 183 217 269 331
#     4   9  21  40  55  76 114 150 182 229 282 325
#     4   9  19  34  58  86 111 143 186 228 272 329
#     4  10  21  39  58  78 111 148 183 226 279 332
#
# _framework density 18.587727999999998
#
# number of rings (size 3 to 8) (size 9 to 14) (size 15 to 20)
#    0.000    2.250    1.250    1.125    1.750    5.000 
#    0.000    0.625    0.000    3.750    0.000    0.000 
#    0.000    0.000    0.000    0.000    0.000    0.000 
#
# Total GULP energy -793704.416702 kJ/mol
# GULP energy per Si atom -12401.631511 kJ/mol
# Density = 1.854542 g / cm^3
# Si number density = 18.587728 Si / 1000 Ang^3
#
#
#
# Elastic Constant Matrix: (Units=GPa)
#
#
# Indices 1 2 3 4 5 6 
#
# 1 105.5986 54.0771 49.9199 0.0000 0.0000 0.0000
# 2 54.0771 94.0968 47.0772 0.0000 0.0000 0.0000
# 3 49.9199 47.0772 70.3095 0.0000 0.0000 0.0000
# 4 0.0000 0.0000 0.0000 28.4723 0.0000 0.0000
# 5 0.0000 0.0000 0.0000 0.0000 26.1507 0.0000
# 6 0.0000 0.0000 0.0000 0.0000 0.0000 23.9282
#
#
#
# Elastic Compliance Matrix: (Units=1/GPa)
#
#
# Indices 1 2 3 4 5 6 
#
# 1 0.015788 -0.005211 -0.007721 0.000000 0.000000 0.000000
# 2 -0.005211 0.017700 -0.008152 0.000000 0.000000 0.000000
# 3 -0.007721 -0.008152 0.025163 0.000000 0.000000 0.000000
# 4 0.000000 0.000000 0.000000 0.035122 0.000000 0.000000
# 5 0.000000 0.000000 0.000000 0.000000 0.038240 0.000000
# 6 0.000000 0.000000 0.000000 0.000000 0.000000 0.041792
#
#
# Mechanical properties :
#
#
# Convention : Reuss Voigt Hill
#
# Bulk Modulus (GPa) = 60.66279 63.57258 62.11769
# Shear Modulus (GPa) = 22.57679 23.63895 23.10787
#
# Velocity S-wave (km/s) = 3.48890 3.57003 3.52970
# Velocity P-wave (km/s) = 6.99548 7.16024 7.07834
#
# Compressibility (1/GPa) = 0.01648457
#
# Stress axis : x y z
#
# Youngs Moduli (GPa) = 63.33936 56.49579 39.74105
#
# Poissons Ratio (x) = 0.29438 0.30683
# Poissons Ratio (y) = 0.33004 0.32397
# Poissons Ratio (z) = 0.48902 0.46056
#
# Static dielectric constant tensor:
#      x y z
#    x 3.344890 0.000000 0.000000 
#    y 0.000000 3.469110 0.000000 
#    z 0.000000 0.000000 3.375170 
# 
# 
# High freq. dielectric constant tensor:
#      x y z
#    x 1.715440 0.000000 0.000000 
#    y 0.000000 1.715580 0.000000 
#    z 0.000000 0.000000 1.718090 
# 
# From -- ./inp_files/6655.got.cif
#   From: 2010.03.12/outbox.cif.g09.slc.cpg/sg55_4_cif.got.tgz:6655.got - 2010.04.16 15:19:21.
