data_PCOD8225885
_publ_section_title
;
Structure prediction by ZEFSAII (Michael W. Deem and Ramdas Pophale) SiO2 
 PCOD8225885
Probable space group: P B A M
;
_chemical_formula_sum "Si O2"
_cell_formula_units_Z 64
_cell_length_a 12.063520
_cell_length_b 29.614252
_cell_length_c 9.213136
_cell_angle_alpha 90.000000
_cell_angle_beta 90.000000
_cell_angle_gamma 90.000000
_cell_volume 3291.412380
_symmetry_space_group_name_H-M "P B A M"
_symmetry_group_IT_number 55
_symmetry_cell_setting 'orthorhombic'
loop_
_space_group_symop_operation_xyz
x,y,z
-x,-y,z
1/2+x,1/2-y,-z
1/2-x,1/2+y,-z
-x,-y,-z
x,y,-z
1/2-x,1/2+y,z
1/2+x,1/2-y,z
loop_
_atom_site_type_symbol
_atom_site_label
_atom_site_fract_x
_atom_site_fract_y
_atom_site_fract_z
Si Si1 0.757189 0.838423 0.329008
Si Si2 0.792388 0.937704 0.668389
Si Si3 0.882385 0.157843 0.170090
Si Si4 0.731832 0.032347 0.668164
Si Si5 0.535735 0.280449 0.329946
Si Si6 0.489868 0.179993 0.331757
Si Si7 0.463117 0.423695 0.663908
Si Si8 0.649302 0.116335 0.829043
O O1 0.775302 0.841907 0.500000
O O2 0.762110 0.889178 0.260200
O O3 0.855599 0.806401 0.268034
O O4 0.639662 0.816206 0.290064
O O5 0.764072 0.934757 0.500000
O O6 0.921917 0.949473 0.692641
O O7 0.720282 0.980525 0.727323
O O8 0.756104 0.146336 0.214083
O O9 0.924090 0.203035 0.249306
O O10 0.960713 0.117622 0.224447
O O11 0.895775 0.164103 0.000000
O O12 0.696373 0.036988 0.500000
O O13 0.657053 0.066086 0.762223
O O14 0.861520 0.042942 0.688671
O O15 0.518038 0.288435 0.500000
O O16 0.549112 0.227384 0.296335
O O17 0.504377 0.166779 0.500000
O O18 0.542378 0.140657 0.235471
O O19 0.461275 0.403724 0.500000
O O20 0.636907 0.111132 0.000000
#
# Coordination Sequence:
#
# PCOD8225885 Si02
#       8
#     8   8   8   8   8   8   8   8
#     4   9  18  34  54  83 115 138 173 226 279 325
#     4   9  15  27  51  80 111 142 175 226 283 325
#     4  10  20  33  51  78 110 144 180 216 264 325
#     4   9  17  29  52  82 106 139 188 229 270 329
#     4  10  20  35  58  84 110 140 176 224 278 325
#     4  10  22  37  59  83 105 139 185 230 270 324
#     4   9  15  27  48  76 110 142 177 223 273 321
#     4  10  22  39  55  75 111 151 184 226 274 319
#
# _framework density 19.44454
#
# number of rings (size 3 to 8) (size 9 to 14) (size 15 to 20)
#    0.000    2.500    1.250    1.125    1.750    3.500 
#    0.000    1.875    0.000    6.750    0.000    0.000 
#    0.000    0.000    0.000    0.000    0.000    0.000 
#
# Total GULP energy -793297.290045 kJ/mol
# GULP energy per Si atom -12395.270157 kJ/mol
# Density = 1.940028 g / cm^3
# Si number density = 19.444540 Si / 1000 Ang^3
#
#
#
# Elastic Constant Matrix: (Units=GPa)
#
#
# Indices 1 2 3 4 5 6 
#
# 1 62.0883 39.4487 18.5616 0.0000 0.0000 0.0000
# 2 39.4487 111.1805 25.8487 0.0000 0.0000 0.0000
# 3 18.5616 25.8487 42.1807 0.0000 0.0000 0.0000
# 4 0.0000 0.0000 0.0000 9.6025 0.0000 0.0000
# 5 0.0000 0.0000 0.0000 0.0000 18.9891 0.0000
# 6 0.0000 0.0000 0.0000 0.0000 0.0000 22.7478
#
#
#
# Elastic Compliance Matrix: (Units=1/GPa)
#
#
# Indices 1 2 3 4 5 6 
#
# 1 0.021904 -0.006450 -0.005686 0.000000 0.000000 0.000000
# 2 -0.006450 0.012388 -0.004753 0.000000 0.000000 0.000000
# 3 -0.005686 -0.004753 0.029123 0.000000 0.000000 0.000000
# 4 0.000000 0.000000 0.000000 0.104140 0.000000 0.000000
# 5 0.000000 0.000000 0.000000 0.000000 0.052662 0.000000
# 6 0.000000 0.000000 0.000000 0.000000 0.000000 0.043960
#
#
# Mechanical properties :
#
#
# Convention : Reuss Voigt Hill
#
# Bulk Modulus (GPa) = 33.74293 42.57416 38.15855
# Shear Modulus (GPa) = 16.24254 19.04059 17.64156
#
# Velocity S-wave (km/s) = 2.89334 3.13265 3.01537
# Velocity P-wave (km/s) = 5.34350 5.91839 5.63828
#
# Compressibility (1/GPa) = 0.02963583
#
# Stress axis : x y z
#
# Youngs Moduli (GPa) = 45.65358 80.72325 34.33764
#
# Poissons Ratio (x) = 0.52066 0.19525
# Poissons Ratio (y) = 0.29446 0.16321
# Poissons Ratio (z) = 0.25960 0.38369
#
# Static dielectric constant tensor:
#      x y z
#    x 3.414520 0.000000 0.000000 
#    y 0.000000 3.758130 0.000000 
#    z 0.000000 0.000000 3.173050 
# 
# 
# High freq. dielectric constant tensor:
#      x y z
#    x 1.743210 0.000000 0.000000 
#    y 0.000000 1.765270 0.000000 
#    z 0.000000 0.000000 1.713780 
# 
# From -- ./inp_files/4576.got.cif
#   From: 2010.03.12/outbox.cif.g09.slc.cpg/sg55_3_cif.got.tgz:4576.got - 2010.04.16 15:19:21.
