data_PCOD8225560
_publ_section_title
;
Structure prediction by ZEFSAII (Michael W. Deem and Ramdas Pophale) SiO2 
 PCOD8225560
Probable space group: P B A M
;
_chemical_formula_sum "Si O2"
_cell_formula_units_Z 64
_cell_length_a 12.825878
_cell_length_b 29.002548
_cell_length_c 8.838561
_cell_angle_alpha 90.000000
_cell_angle_beta 90.000000
_cell_angle_gamma 90.000000
_cell_volume 3287.795695
_symmetry_space_group_name_H-M "P B A M"
_symmetry_group_IT_number 55
_symmetry_cell_setting 'orthorhombic'
loop_
_space_group_symop_operation_xyz
x,y,z
-x,-y,z
1/2+x,1/2-y,-z
1/2-x,1/2+y,-z
-x,-y,-z
x,y,-z
1/2-x,1/2+y,z
1/2+x,1/2-y,z
loop_
_atom_site_type_symbol
_atom_site_label
_atom_site_fract_x
_atom_site_fract_y
_atom_site_fract_z
Si Si1 0.097414 0.922675 0.831048
Si Si2 0.678054 0.936041 0.322681
Si Si3 0.956091 0.603694 0.325702
Si Si4 0.301578 0.967278 0.819397
Si Si5 0.550933 0.299510 0.674175
Si Si6 0.653803 0.680448 0.168514
Si Si7 0.361472 0.799476 0.673591
Si Si8 0.620649 0.390167 0.180322
O O1 0.182319 0.957730 0.758164
O O2 0.157804 0.874502 0.829283
O O3 0.982831 0.917202 0.753467
O O4 0.075987 0.940042 0.000000
O O5 0.700881 0.937618 0.500000
O O6 0.576023 0.906275 0.283799
O O7 0.776264 0.913903 0.239846
O O8 0.657210 0.987000 0.260568
O O9 0.933904 0.590692 0.500000
O O10 0.878805 0.574084 0.222641
O O11 0.938806 0.657850 0.294500
O O12 0.301636 0.972982 0.000000
O O13 0.569625 0.311432 0.500000
O O14 0.429541 0.301345 0.712280
O O15 0.582426 0.247836 0.714571
O O16 0.616883 0.336812 0.769506
O O17 0.764776 0.699300 0.215229
O O18 0.625934 0.698140 0.000000
O O19 0.323367 0.800648 0.500000
O O20 0.618134 0.391271 0.000000
#
# Coordination Sequence:
#
# PCOD8225560 Si02
#       8
#     8   8   8   8   8   8   8   8
#     4   8  17  34  57  83 112 145 183 238 294 341
#     4  11  24  40  57  83 122 162 197 241 298 355
#     4  10  22  40  59  82 116 155 196 244 294 350
#     4  11  21  37  61  88 115 151 197 246 300 355
#     4  10  21  37  58  86 118 153 193 238 296 360
#     4  10  19  35  57  83 114 148 188 240 295 343
#     4  10  21  37  59  85 112 150 196 239 289 349
#     4  10  21  40  61  84 116 154 197 244 299 354
#
# _framework density 19.46593
#
# number of rings (size 3 to 8) (size 9 to 14) (size 15 to 20)
#    0.000    2.000    1.250    3.000    0.000    5.000 
#    0.000    6.875    0.000    0.000    0.000    0.000 
#    0.000    0.000    0.000    0.000    0.000    0.000 
#
# Total GULP energy -793415.419346 kJ/mol
# GULP energy per Si atom -12397.115927 kJ/mol
# Density = 1.942162 g / cm^3
# Si number density = 19.465930 Si / 1000 Ang^3
#
#
#
# Elastic Constant Matrix: (Units=GPa)
#
#
# Indices 1 2 3 4 5 6 
#
# 1 96.1227 26.9357 26.8220 0.0000 0.0000 0.0000
# 2 26.9357 66.6760 24.2390 0.0000 0.0000 0.0000
# 3 26.8220 24.2390 59.0424 0.0000 0.0000 0.0000
# 4 0.0000 0.0000 0.0000 26.8656 0.0000 0.0000
# 5 0.0000 0.0000 0.0000 0.0000 32.0541 0.0000
# 6 0.0000 0.0000 0.0000 0.0000 0.0000 25.9849
#
#
#
# Elastic Compliance Matrix: (Units=1/GPa)
#
#
# Indices 1 2 3 4 5 6 
#
# 1 0.012584 -0.003533 -0.004266 0.000000 0.000000 0.000000
# 2 -0.003533 0.018621 -0.006040 0.000000 0.000000 0.000000
# 3 -0.004266 -0.006040 0.021355 0.000000 0.000000 0.000000
# 4 0.000000 0.000000 0.000000 0.037222 0.000000 0.000000
# 5 0.000000 0.000000 0.000000 0.000000 0.031197 0.000000
# 6 0.000000 0.000000 0.000000 0.000000 0.000000 0.038484
#
#
# Mechanical properties :
#
#
# Convention : Reuss Voigt Hill
#
# Bulk Modulus (GPa) = 40.18999 41.98163 41.08581
# Shear Modulus (GPa) = 25.58415 26.57054 26.07734
#
# Velocity S-wave (km/s) = 3.62927 3.69857 3.66408
# Velocity P-wave (km/s) = 6.18492 6.31290 6.24924
#
# Compressibility (1/GPa) = 0.02488182
#
# Stress axis : x y z
#
# Youngs Moduli (GPa) = 79.46750 53.70389 46.82835
#
# Poissons Ratio (x) = 0.18972 0.19979
# Poissons Ratio (y) = 0.28073 0.28283
# Poissons Ratio (z) = 0.33903 0.32435
#
# Static dielectric constant tensor:
#      x y z
#    x 3.625720 0.000000 0.000000 
#    y 0.000000 3.594420 0.000000 
#    z 0.000000 0.000000 3.514520 
# 
# 
# High freq. dielectric constant tensor:
#      x y z
#    x 1.765640 0.000000 0.000000 
#    y 0.000000 1.756290 0.000000 
#    z 0.000000 0.000000 1.750940 
# 
# From -- ./inp_files/4566.got.cif
#   From: 2010.03.12/outbox.cif.g09.slc.cpg/sg55_3_cif.got.tgz:4566.got - 2010.04.16 15:19:21.
