data_PCOD8225623
_publ_section_title
;
Structure prediction by ZEFSAII (Michael W. Deem and Ramdas Pophale) SiO2 
 PCOD8225623
Probable space group: P B A M
;
_chemical_formula_sum "Si O2"
_cell_formula_units_Z 56
_cell_length_a 14.690019
_cell_length_b 21.785939
_cell_length_c 9.105201
_cell_angle_alpha 90.000000
_cell_angle_beta 90.000000
_cell_angle_gamma 90.000000
_cell_volume 2913.990813
_symmetry_space_group_name_H-M "P B A M"
_symmetry_group_IT_number 55
_symmetry_cell_setting 'orthorhombic'
loop_
_space_group_symop_operation_xyz
x,y,z
-x,-y,z
1/2+x,1/2-y,-z
1/2-x,1/2+y,-z
-x,-y,-z
x,y,-z
1/2-x,1/2+y,z
1/2+x,1/2-y,z
loop_
_atom_site_type_symbol
_atom_site_label
_atom_site_fract_x
_atom_site_fract_y
_atom_site_fract_z
Si Si1 0.214182 0.483368 0.671580
Si Si2 0.885078 0.751954 0.825470
Si Si3 0.610711 0.907996 0.828364
Si Si4 0.594640 0.113592 0.828413
Si Si5 0.186394 0.721031 0.825460
Si Si6 0.080458 0.955202 0.670692
Si Si7 0.555501 0.672943 0.825575
O O1 0.193193 0.482435 0.500000
O O2 0.168096 0.542658 0.740683
O O3 0.172549 0.422114 0.741635
O O4 0.322070 0.486243 0.703609
O O5 0.907075 0.683372 0.769801
O O6 0.788532 0.774759 0.763374
O O7 0.959674 0.800050 0.768125
O O8 0.886014 0.750791 0.000000
O O9 0.503434 0.917371 0.799634
O O10 0.639642 0.841150 0.768738
O O11 0.633175 0.915470 0.000000
O O12 0.619542 0.111128 0.000000
O O13 0.132571 0.780398 0.767953
O O14 0.184510 0.721011 0.000000
O O15 0.069140 0.939879 0.500000
O O16 0.073117 0.892796 0.758882
O O17 0.000000 0.000000 0.724965
O O18 0.557125 0.666965 0.000000
#
# Coordination Sequence:
#
# PCOD8225623 Si02
#       7
#     8   8   8   8   8   8   8
#     4  11  24  39  56  79 110 149 194 237 277 326
#     4   9  17  30  54  85 115 142 173 222 277 327
#     4  10  20  35  57  84 115 149 185 225 281 341
#     4  10  19  36  59  86 117 149 182 222 282 344
#     4   9  17  31  53  84 118 145 174 224 281 330
#     4  10  24  44  59  75 111 156 191 231 286 337
#     4  10  19  35  60  89 112 138 184 233 275 327
#
# _framework density 19.217631999999998
#
# number of rings (size 3 to 8) (size 9 to 14) (size 15 to 20)
#    0.000    2.143    1.429    1.714    2.000    4.857 
#    0.000    1.429    0.000    1.714    0.000    0.000 
#    0.000    0.000    0.000    0.000    0.000    0.000 
#
# Total GULP energy -694458.637939 kJ/mol
# GULP energy per Si atom -12401.047106 kJ/mol
# Density = 1.917389 g / cm^3
# Si number density = 19.217632 Si / 1000 Ang^3
#
#
#
# Elastic Constant Matrix: (Units=GPa)
#
#
# Indices 1 2 3 4 5 6 
#
# 1 118.6596 23.5757 33.2512 0.0000 0.0000 0.0000
# 2 23.5757 87.8212 31.5077 0.0000 0.0000 0.0000
# 3 33.2512 31.5077 45.4746 0.0000 0.0000 0.0000
# 4 0.0000 0.0000 0.0000 -19.1961 0.0000 0.0000
# 5 0.0000 0.0000 0.0000 0.0000 21.7503 0.0000
# 6 0.0000 0.0000 0.0000 0.0000 0.0000 37.5072
#
#
#
# Elastic Compliance Matrix: (Units=1/GPa)
#
#
# Indices 1 2 3 4 5 6 
#
# 1 0.010600 -0.000086 -0.007691 0.000000 0.000000 0.000000
# 2 -0.000086 0.015154 -0.010437 0.000000 0.000000 0.000000
# 3 -0.007691 -0.010437 0.034845 0.000000 0.000000 0.000000
# 4 0.000000 0.000000 0.000000 -0.052094 0.000000 0.000000
# 5 0.000000 0.000000 0.000000 0.000000 0.045976 0.000000
# 6 0.000000 0.000000 0.000000 0.000000 0.000000 0.026662
#
#
# Mechanical properties :
#
#
# Convention : Reuss Voigt Hill
#
# Bulk Modulus (GPa) = 41.37111 47.62495 44.49803
# Shear Modulus (GPa) = 39.79993 18.92032 29.36013
#
# Velocity S-wave (km/s) = 4.55577 3.14113 3.91291
# Velocity P-wave (km/s) = 7.01768 6.16371 6.60451
#
# Compressibility (1/GPa) = 0.02417145
#
# Stress axis : x y z
#
# Youngs Moduli (GPa) = 94.34183 65.98749 28.69838
#
# Poissons Ratio (x) = 0.00569 0.22071
# Poissons Ratio (y) = 0.00814 0.29952
# Poissons Ratio (z) = 0.72556 0.68870
#
# Static dielectric constant tensor:
#      x y z
#    x 3.873220 0.000000 0.000000 
#    y 0.000000 3.573130 0.000000 
#    z 0.000000 0.000000 3.119160 
# 
# 
# High freq. dielectric constant tensor:
#      x y z
#    x 1.766730 0.000000 0.000000 
#    y 0.000000 1.758830 0.000000 
#    z 0.000000 0.000000 1.704310 
# 
# From -- ./inp_files/6101.got.cif
#   From: 2010.03.12/outbox.cif.g09.slc.cpg/sg55_4_cif.got.tgz:6101.got - 2010.04.16 15:19:21.
