data_PCOD8225139
_publ_section_title
;
Structure prediction by ZEFSAII (Michael W. Deem and Ramdas Pophale) SiO2 
 PCOD8225139
Probable space group: P B A M
;
_chemical_formula_sum "Si O2"
_cell_formula_units_Z 64
_cell_length_a 8.607156
_cell_length_b 31.295314
_cell_length_c 12.474850
_cell_angle_alpha 90.000000
_cell_angle_beta 90.000000
_cell_angle_gamma 90.000000
_cell_volume 3360.271125
_symmetry_space_group_name_H-M "P B A M"
_symmetry_group_IT_number 55
_symmetry_cell_setting 'orthorhombic'
loop_
_space_group_symop_operation_xyz
x,y,z
-x,-y,z
1/2+x,1/2-y,-z
1/2-x,1/2+y,-z
-x,-y,-z
x,y,-z
1/2-x,1/2+y,z
1/2+x,1/2-y,z
loop_
_atom_site_type_symbol
_atom_site_label
_atom_site_fract_x
_atom_site_fract_y
_atom_site_fract_z
Si Si1 0.524533 0.455185 0.767545
Si Si2 0.242463 0.264874 0.751776
Si Si3 0.044866 0.611522 0.300260
Si Si4 0.285725 0.617785 0.876150
Si Si5 0.201938 0.527604 0.379952
Si Si6 0.041813 0.702015 0.622795
Si Si7 0.530741 0.297169 0.874721
Si Si8 0.266178 0.933333 0.372571
O O1 0.500000 0.500000 0.833424
O O2 0.606811 0.422244 0.847109
O O3 0.632765 0.471141 0.673521
O O4 0.381344 0.433932 0.705609
O O5 0.122940 0.293382 0.683380
O O6 0.324775 0.231143 0.673711
O O7 0.370656 0.294901 0.807817
O O8 0.145812 0.241331 0.844747
O O9 0.117247 0.617809 0.181875
O O10 0.096387 0.565603 0.340368
O O11 0.096502 0.652620 0.369656
O O12 0.860097 0.605535 0.315247
O O13 0.383360 0.659267 0.843692
O O14 0.243523 0.616876 0.000000
O O15 0.237977 0.538179 0.500000
O O16 0.138237 0.478771 0.365874
O O17 0.021518 0.715669 0.500000
O O18 0.491273 0.294490 0.000000
O O19 0.230838 0.923570 0.500000
#
# Coordination Sequence:
#
# PCOD8225139 Si02
#       8
#     8   8   8   8   8   8   8   8
#     4   9  19  34  56  81 112 147 184 225 272 330
#     4  10  22  38  60  84 111 144 180 228 270 333
#     4  11  21  35  54  81 111 146 186 225 270 325
#     4  10  22  40  58  77 109 147 187 233 277 320
#     4   9  17  32  54  81 113 148 182 221 275 328
#     4  11  22  38  57  81 115 151 181 215 265 331
#     4  10  20  39  62  86 108 138 182 234 283 321
#     4  10  19  32  55  86 117 144 177 225 274 324
#
# _framework density 19.046081999999998
#
# number of rings (size 3 to 8) (size 9 to 14) (size 15 to 20)
#    0.000    2.000    1.250    2.625    1.750    2.750 
#    0.000    1.250    0.000    9.750    0.000    0.000 
#    0.000    0.000    0.000    0.000    0.000    0.000 
#
# Total GULP energy -792860.370874 kJ/mol
# GULP energy per Si atom -12388.443295 kJ/mol
# Density = 1.900273 g / cm^3
# Si number density = 19.046082 Si / 1000 Ang^3
#
#
#
# Elastic Constant Matrix: (Units=GPa)
#
#
# Indices 1 2 3 4 5 6 
#
# 1 59.8268 14.8704 23.7309 0.0000 0.0000 0.0000
# 2 14.8704 68.5182 14.2111 0.0000 0.0000 0.0000
# 3 23.7309 14.2111 75.7261 0.0000 0.0000 0.0000
# 4 0.0000 0.0000 0.0000 19.7708 0.0000 0.0000
# 5 0.0000 0.0000 0.0000 0.0000 83.7389 0.0000
# 6 0.0000 0.0000 0.0000 0.0000 0.0000 30.1845
#
#
#
# Elastic Compliance Matrix: (Units=1/GPa)
#
#
# Indices 1 2 3 4 5 6 
#
# 1 0.019707 -0.003118 -0.005591 0.000000 0.000000 0.000000
# 2 -0.003118 0.015679 -0.001965 0.000000 0.000000 0.000000
# 3 -0.005591 -0.001965 0.015326 0.000000 0.000000 0.000000
# 4 0.000000 0.000000 0.000000 0.050580 0.000000 0.000000
# 5 0.000000 0.000000 0.000000 0.000000 0.011942 0.000000
# 6 0.000000 0.000000 0.000000 0.000000 0.000000 0.033130
#
#
# Mechanical properties :
#
#
# Convention : Reuss Voigt Hill
#
# Bulk Modulus (GPa) = 34.05392 34.41066 34.23229
# Shear Modulus (GPa) = 28.16906 36.82276 32.49591
#
# Velocity S-wave (km/s) = 3.84994 4.40176 4.13507
# Velocity P-wave (km/s) = 6.13851 6.62874 6.38833
#
# Compressibility (1/GPa) = 0.02936520
#
# Stress axis : x y z
#
# Youngs Moduli (GPa) = 50.74227 63.78005 65.24704
#
# Poissons Ratio (x) = 0.19883 0.36478
# Poissons Ratio (y) = 0.15819 0.12824
# Poissons Ratio (z) = 0.28369 0.12535
#
# Static dielectric constant tensor:
#      x y z
#    x 3.629650 0.000000 0.000000 
#    y 0.000000 3.604580 0.000000 
#    z 0.000000 0.000000 3.400990 
# 
# 
# High freq. dielectric constant tensor:
#      x y z
#    x 1.745480 0.000000 0.000000 
#    y 0.000000 1.753810 0.000000 
#    z 0.000000 0.000000 1.726310 
# 
# From -- ./inp_files/12595.got.cif
#   From: 2010.03.12/outbox.cif.g09.slc.cpg/sg55_7_cif.got.tgz:12595.got - 2010.04.16 15:19:21.
