data_PCOD8225327
_publ_section_title
;
Structure prediction by ZEFSAII (Michael W. Deem and Ramdas Pophale) SiO2 
 PCOD8225327
Probable space group: P B A M
;
_chemical_formula_sum "Si O2"
_cell_formula_units_Z 48
_cell_length_a 11.838935
_cell_length_b 23.772409
_cell_length_c 8.908630
_cell_angle_alpha 90.000000
_cell_angle_beta 90.000000
_cell_angle_gamma 90.000000
_cell_volume 2507.244871
_symmetry_space_group_name_H-M "P B A M"
_symmetry_group_IT_number 55
_symmetry_cell_setting 'orthorhombic'
loop_
_space_group_symop_operation_xyz
x,y,z
-x,-y,z
1/2+x,1/2-y,-z
1/2-x,1/2+y,-z
-x,-y,-z
x,y,-z
1/2-x,1/2+y,z
1/2+x,1/2-y,z
loop_
_atom_site_type_symbol
_atom_site_label
_atom_site_fract_x
_atom_site_fract_y
_atom_site_fract_z
Si Si1 0.011665 0.879519 0.678372
Si Si2 0.787130 0.046247 0.678012
Si Si3 0.844843 0.223901 0.671932
Si Si4 0.601186 0.836946 0.824151
Si Si5 0.229252 0.080192 0.321148
Si Si6 0.131107 0.354247 0.671704
O O1 0.015141 0.882929 0.500000
O O2 0.096091 0.927561 0.742605
O O3 0.055483 0.817928 0.727971
O O4 0.885405 0.890014 0.738005
O O5 0.796652 0.044823 0.500000
O O6 0.682057 0.085801 0.724335
O O7 0.768903 0.983661 0.740751
O O8 0.866477 0.242198 0.500000
O O9 0.842650 0.278575 0.774748
O O10 0.724930 0.193767 0.687387
O O11 0.663285 0.888779 0.745590
O O12 0.470585 0.838002 0.779505
O O13 0.614114 0.843694 0.000000
O O14 0.236171 0.081949 0.500000
O O15 0.088462 0.357662 0.500000
#
# Coordination Sequence:
#
# PCOD8225327 Si02
#       6
#     8   8   8   8   8   8
#     4   8  15  30  57  90 113 134 171 227 284 327
#     4   8  15  31  58  89 113 135 174 231 280 324
#     4   9  19  37  60  82 105 138 184 233 278 325
#     4  12  26  38  50  76 115 153 188 226 270 324
#     4  10  19  33  57  87 115 143 179 222 275 330
#     4   9  19  38  61  81 105 140 185 231 276 326
#
# _framework density 19.14452
#
# number of rings (size 3 to 8) (size 9 to 14) (size 15 to 20)
#    0.000    2.667    0.000    4.000    2.333    3.333 
#    0.000    4.167    0.000    4.000    0.000    0.000 
#    0.000    0.000    0.000    0.000    0.000    0.000 
#
# Total GULP energy -595144.337069 kJ/mol
# GULP energy per Si atom -12398.840356 kJ/mol
# Density = 1.910095 g / cm^3
# Si number density = 19.144520 Si / 1000 Ang^3
#
#
#
# Elastic Constant Matrix: (Units=GPa)
#
#
# Indices 1 2 3 4 5 6 
#
# 1 83.7654 35.5578 23.8322 0.0000 0.0000 0.0000
# 2 35.5578 101.2872 27.7912 0.0000 0.0000 0.0000
# 3 23.8322 27.7912 43.2244 0.0000 0.0000 0.0000
# 4 0.0000 0.0000 0.0000 -0.3639 0.0000 0.0000
# 5 0.0000 0.0000 0.0000 0.0000 7.6310 0.0000
# 6 0.0000 0.0000 0.0000 0.0000 0.0000 23.5826
#
#
#
# Elastic Compliance Matrix: (Units=1/GPa)
#
#
# Indices 1 2 3 4 5 6 
#
# 1 0.015217 -0.003691 -0.006017 0.000000 0.000000 0.000000
# 2 -0.003691 0.012883 -0.006248 0.000000 0.000000 0.000000
# 3 -0.006017 -0.006248 0.030470 0.000000 0.000000 0.000000
# 4 0.000000 0.000000 0.000000 -2.748026 0.000000 0.000000
# 5 0.000000 0.000000 0.000000 0.000000 0.131045 0.000000
# 6 0.000000 0.000000 0.000000 0.000000 0.000000 0.042404
#
#
# Mechanical properties :
#
#
# Convention : Reuss Voigt Hill
#
# Bulk Modulus (GPa) = 37.51258 44.73771 41.12515
# Shear Modulus (GPa) = -2.02003 15.57634 6.77815
#
# Velocity S-wave (km/s) = -1.02832 2.85549 1.88367
# Velocity P-wave (km/s) = 4.26931 5.85585 5.12435
#
# Compressibility (1/GPa) = 0.02665773
#
# Stress axis : x y z
#
# Youngs Moduli (GPa) = 65.71702 77.62133 32.81955
#
# Poissons Ratio (x) = 0.28651 0.19746
# Poissons Ratio (y) = 0.24257 0.20506
# Poissons Ratio (z) = 0.39540 0.48498
#
# Static dielectric constant tensor:
#      x y z
#    x 3.601550 0.000000 0.000000 
#    y 0.000000 3.765860 0.000000 
#    z 0.000000 0.000000 3.002420 
# 
# 
# High freq. dielectric constant tensor:
#      x y z
#    x 1.750590 0.000000 0.000000 
#    y 0.000000 1.756910 0.000000 
#    z 0.000000 0.000000 1.689660 
# 
# From -- ./inp_files/4042.got.cif
#   From: 2010.03.12/outbox.cif.g09.slc.cpg/sg55_3_cif.got.tgz:4042.got - 2010.04.16 15:19:21.
