data_PCOD8225436
_publ_section_title
;
Structure prediction by ZEFSAII (Michael W. Deem and Ramdas Pophale) SiO2 
 PCOD8225436
Probable space group: P B A M
;
_chemical_formula_sum "Si O2"
_cell_formula_units_Z 64
_cell_length_a 32.332445
_cell_length_b 10.821011
_cell_length_c 9.152492
_cell_angle_alpha 90.000000
_cell_angle_beta 90.000000
_cell_angle_gamma 90.000000
_cell_volume 3202.180024
_symmetry_space_group_name_H-M "P B A M"
_symmetry_group_IT_number 55
_symmetry_cell_setting 'orthorhombic'
loop_
_space_group_symop_operation_xyz
x,y,z
-x,-y,z
1/2+x,1/2-y,-z
1/2-x,1/2+y,-z
-x,-y,-z
x,y,-z
1/2-x,1/2+y,z
1/2+x,1/2-y,z
loop_
_atom_site_type_symbol
_atom_site_label
_atom_site_fract_x
_atom_site_fract_y
_atom_site_fract_z
Si Si1 0.580584 0.439567 0.667103
Si Si2 0.132728 0.249827 0.835761
Si Si3 0.487370 0.744454 0.335546
Si Si4 0.423620 0.180187 0.333927
Si Si5 0.782747 0.062722 0.174032
Si Si6 0.435913 0.937201 0.835497
Si Si7 0.773574 0.784845 0.829864
Si Si8 0.626059 0.639190 0.828769
O O1 0.588913 0.479925 0.500000
O O2 0.612768 0.333085 0.710905
O O3 0.533922 0.389409 0.688630
O O4 0.588708 0.553195 0.774159
O O5 0.110518 0.382381 0.831827
O O6 0.180717 0.266103 0.798925
O O7 0.127939 0.190523 0.000000
O O8 0.476515 0.791774 0.500000
O O9 0.536693 0.728426 0.319405
O O10 0.469848 0.838581 0.215997
O O11 0.409425 0.164981 0.500000
O O12 0.383849 0.228519 0.244079
O O13 0.438563 0.050266 0.273360
O O14 0.756470 0.178935 0.239206
O O15 0.830113 0.084362 0.223333
O O16 0.768241 0.926196 0.233412
O O17 0.779532 0.061159 0.000000
O O18 0.447322 0.977898 0.000000
O O19 0.763548 0.792500 0.000000
O O20 0.624530 0.657039 0.000000
#
# Coordination Sequence:
#
# PCOD8225436 Si02
#       8
#     8   8   8   8   8   8   8   8
#     4  10  19  34  57  80 104 141 185 224 270 330
#     4   9  17  32  55  82 110 140 179 223 268 319
#     4   9  20  37  56  78 106 145 191 231 272 333
#     4  11  23  38  54  75 108 149 188 230 280 336
#     4   9  18  31  53  82 113 142 179 228 280 332
#     4  10  20  33  54  84 114 144 181 231 281 330
#     4   9  16  30  53  83 112 144 181 226 276 330
#     4  11  22  37  55  79 110 143 182 233 284 331
#
# _framework density 19.986384000000001
#
# number of rings (size 3 to 8) (size 9 to 14) (size 15 to 20)
#    0.000    2.250    1.250    1.875    0.000    5.000 
#    0.000    6.250    0.000    1.500    0.000    0.000 
#    0.000    0.000    0.000    0.000    0.000    0.000 
#
# Total GULP energy -793233.507836 kJ/mol
# GULP energy per Si atom -12394.273560 kJ/mol
# Density = 1.994089 g / cm^3
# Si number density = 19.986384 Si / 1000 Ang^3
#
#
#
# Elastic Constant Matrix: (Units=GPa)
#
#
# Indices 1 2 3 4 5 6 
#
# 1 76.1984 42.7177 30.0236 0.0000 0.0000 0.0000
# 2 42.7177 71.7927 19.5107 0.0000 0.0000 0.0000
# 3 30.0236 19.5107 71.2768 0.0000 0.0000 0.0000
# 4 0.0000 0.0000 0.0000 26.4710 0.0000 0.0000
# 5 0.0000 0.0000 0.0000 0.0000 16.1510 0.0000
# 6 0.0000 0.0000 0.0000 0.0000 0.0000 27.9648
#
#
#
# Elastic Compliance Matrix: (Units=1/GPa)
#
#
# Indices 1 2 3 4 5 6 
#
# 1 0.021910 -0.011375 -0.006115 0.000000 0.000000 0.000000
# 2 -0.011375 0.020954 -0.000944 0.000000 0.000000 0.000000
# 3 -0.006115 -0.000944 0.016864 0.000000 0.000000 0.000000
# 4 0.000000 0.000000 0.000000 0.037777 0.000000 0.000000
# 5 0.000000 0.000000 0.000000 0.000000 0.061916 0.000000
# 6 0.000000 0.000000 0.000000 0.000000 0.000000 0.035759
#
#
# Mechanical properties :
#
#
# Convention : Reuss Voigt Hill
#
# Bulk Modulus (GPa) = 43.74656 44.86354 44.30505
# Shear Modulus (GPa) = 20.86209 22.58509 21.72359
#
# Velocity S-wave (km/s) = 3.23432 3.36523 3.30042
# Velocity P-wave (km/s) = 5.99028 6.13152 6.06131
#
# Compressibility (1/GPa) = 0.02285894
#
# Stress axis : x y z
#
# Youngs Moduli (GPa) = 45.64099 47.72396 59.29693
#
# Poissons Ratio (x) = 0.54285 0.36263
# Poissons Ratio (y) = 0.51916 0.05600
# Poissons Ratio (z) = 0.27912 0.04507
#
# Static dielectric constant tensor:
#      x y z
#    x 3.700650 0.000000 0.000000 
#    y 0.000000 3.754670 0.000000 
#    z 0.000000 0.000000 3.406930 
# 
# 
# High freq. dielectric constant tensor:
#      x y z
#    x 1.774320 0.000000 0.000000 
#    y 0.000000 1.780780 0.000000 
#    z 0.000000 0.000000 1.752680 
# 
# From -- ./inp_files/10748.got.cif
#   From: 2010.03.12/outbox.cif.g09.slc.cpg/sg55_6_cif.got.tgz:10748.got - 2010.04.16 15:19:21.
