data_PCOD8225078
_publ_section_title
;
Structure prediction by ZEFSAII (Michael W. Deem and Ramdas Pophale) SiO2 
 PCOD8225078
Probable space group: P B A M
;
_chemical_formula_sum "Si O2"
_cell_formula_units_Z 64
_cell_length_a 28.124273
_cell_length_b 13.002688
_cell_length_c 8.906980
_cell_angle_alpha 90.000000
_cell_angle_beta 90.000000
_cell_angle_gamma 90.000000
_cell_volume 3257.203733
_symmetry_space_group_name_H-M "P B A M"
_symmetry_group_IT_number 55
_symmetry_cell_setting 'orthorhombic'
loop_
_space_group_symop_operation_xyz
x,y,z
-x,-y,z
1/2+x,1/2-y,-z
1/2-x,1/2+y,-z
-x,-y,-z
x,y,-z
1/2-x,1/2+y,z
1/2+x,1/2-y,z
loop_
_atom_site_type_symbol
_atom_site_label
_atom_site_fract_x
_atom_site_fract_y
_atom_site_fract_z
Si Si1 0.128698 0.367829 0.675038
Si Si2 0.947716 0.465755 0.321183
Si Si3 0.503796 0.620349 0.665961
Si Si4 0.084373 0.183298 0.169365
Si Si5 0.172134 0.057693 0.830366
Si Si6 0.408575 0.249635 0.325243
Si Si7 0.716109 0.222154 0.176134
Si Si8 0.188065 0.845808 0.322018
O O1 0.139752 0.380051 0.500000
O O2 0.094231 0.458433 0.733751
O O3 0.101145 0.262971 0.706107
O O4 0.179029 0.363677 0.762174
O O5 0.950934 0.465343 0.500000
O O6 0.932188 0.353970 0.256389
O O7 0.000000 0.500000 0.257924
O O8 0.500000 0.500000 0.660688
O O9 0.490221 0.664957 0.500000
O O10 0.470125 0.660917 0.796903
O O11 0.556789 0.654822 0.707775
O O12 0.115683 0.079612 0.184424
O O13 0.089985 0.227813 0.000000
O O14 0.199143 0.162642 0.784671
O O15 0.186603 0.965695 0.721637
O O16 0.185560 0.025860 0.000000
O O17 0.401070 0.229567 0.500000
O O18 0.357515 0.282720 0.257190
O O19 0.766439 0.208781 0.253737
O O20 0.720753 0.204508 0.000000
O O21 0.190196 0.840034 0.500000
#
# Coordination Sequence:
#
# PCOD8225078 Si02
#       8
#     8   8   8   8   8   8   8   8
#     4  10  19  33  57  84 106 138 188 235 276 327
#     4   9  17  31  54  83 115 150 184 223 277 338
#     4  10  19  32  53  79 106 139 180 225 272 323
#     4  10  20  34  53  78 109 143 178 221 275 330
#     4   9  20  38  57  77 107 147 183 221 275 336
#     4   9  19  34  51  79 115 144 178 228 283 335
#     4  10  22  40  59  81 112 148 188 236 291 349
#     4  11  22  36  58  85 113 145 184 236 288 336
#
# _framework density 19.648755000000001
#
# number of rings (size 3 to 8) (size 9 to 14) (size 15 to 20)
#    0.000    2.250    0.000    3.750    0.000    7.250 
#    0.000    2.500    0.000    9.000    0.000    0.000 
#    0.000    0.000    0.000    0.000    0.000    0.000 
#
# Total GULP energy -793340.275634 kJ/mol
# GULP energy per Si atom -12395.941807 kJ/mol
# Density = 1.960403 g / cm^3
# Si number density = 19.648755 Si / 1000 Ang^3
#
#
#
# Elastic Constant Matrix: (Units=GPa)
#
#
# Indices 1 2 3 4 5 6 
#
# 1 172.0528 67.3750 44.7365 0.0000 0.0000 0.0000
# 2 67.3750 99.4509 30.8363 0.0000 0.0000 0.0000
# 3 44.7365 30.8363 59.8305 0.0000 0.0000 0.0000
# 4 0.0000 0.0000 0.0000 19.2439 0.0000 0.0000
# 5 0.0000 0.0000 0.0000 0.0000 18.4768 0.0000
# 6 0.0000 0.0000 0.0000 0.0000 0.0000 30.2817
#
#
#
# Elastic Compliance Matrix: (Units=1/GPa)
#
#
# Indices 1 2 3 4 5 6 
#
# 1 0.008688 -0.004608 -0.004121 0.000000 0.000000 0.000000
# 2 -0.004608 0.014412 -0.003982 0.000000 0.000000 0.000000
# 3 -0.004121 -0.003982 0.021848 0.000000 0.000000 0.000000
# 4 0.000000 0.000000 0.000000 0.051964 0.000000 0.000000
# 5 0.000000 0.000000 0.000000 0.000000 0.054122 0.000000
# 6 0.000000 0.000000 0.000000 0.000000 0.000000 0.033023
#
#
# Mechanical properties :
#
#
# Convention : Reuss Voigt Hill
#
# Bulk Modulus (GPa) = 51.21740 68.58109 59.89924
# Shear Modulus (GPa) = 23.14929 26.15958 24.65444
#
# Velocity S-wave (km/s) = 3.43615 3.65274 3.54610
# Velocity P-wave (km/s) = 6.47039 7.26425 6.87878
#
# Compressibility (1/GPa) = 0.01952462
#
# Stress axis : x y z
#
# Youngs Moduli (GPa) = 115.09659 69.38732 45.77095
#
# Poissons Ratio (x) = 0.31975 0.18864
# Poissons Ratio (y) = 0.53039 0.18227
# Poissons Ratio (z) = 0.47436 0.27631
#
# Static dielectric constant tensor:
#      x y z
#    x 4.158380 0.000000 0.000000 
#    y 0.000000 3.560670 0.000000 
#    z 0.000000 0.000000 3.391310 
# 
# 
# High freq. dielectric constant tensor:
#      x y z
#    x 1.776500 0.000000 0.000000 
#    y 0.000000 1.760600 0.000000 
#    z 0.000000 0.000000 1.740860 
# 
# From -- ./inp_files/10767.got.cif
#   From: 2010.03.12/outbox.cif.g09.slc.cpg/sg55_6_cif.got.tgz:10767.got - 2010.04.16 15:19:21.
