data_PCOD8225110
_publ_section_title
;
Structure prediction by ZEFSAII (Michael W. Deem and Ramdas Pophale) SiO2 
 PCOD8225110
Probable space group: P B A M
;
_chemical_formula_sum "Si O2"
_cell_formula_units_Z 64
_cell_length_a 19.693885
_cell_length_b 17.580468
_cell_length_c 9.212039
_cell_angle_alpha 90.000000
_cell_angle_beta 90.000000
_cell_angle_gamma 90.000000
_cell_volume 3189.463214
_symmetry_space_group_name_H-M "P B A M"
_symmetry_group_IT_number 55
_symmetry_cell_setting 'orthorhombic'
loop_
_space_group_symop_operation_xyz
x,y,z
-x,-y,z
1/2+x,1/2-y,-z
1/2-x,1/2+y,-z
-x,-y,-z
x,y,-z
1/2-x,1/2+y,z
1/2+x,1/2-y,z
loop_
_atom_site_type_symbol
_atom_site_label
_atom_site_fract_x
_atom_site_fract_y
_atom_site_fract_z
Si Si1 0.002321 0.624215 0.837979
Si Si2 0.350362 0.513608 0.340119
Si Si3 0.892924 0.847713 0.829522
Si Si4 0.245603 0.718876 0.170792
Si Si5 0.391421 0.989303 0.839219
Si Si6 0.517343 0.729405 0.669311
Si Si7 0.296122 0.079928 0.341213
Si Si8 0.338042 0.341748 0.670611
O O1 0.927346 0.590865 0.803235
O O2 0.054571 0.556184 0.832011
O O3 0.023225 0.682982 0.714487
O O4 0.002006 0.660998 0.000000
O O5 0.385698 0.508167 0.500000
O O6 0.393932 0.565917 0.231727
O O7 0.280597 0.556794 0.359435
O O8 0.338975 0.429291 0.276562
O O9 0.824321 0.799917 0.793589
O O10 0.956119 0.805756 0.759445
O O11 0.903442 0.853619 0.000000
O O12 0.197263 0.652515 0.235425
O O13 0.221988 0.797967 0.243725
O O14 0.232468 0.723187 0.000000
O O15 0.333551 0.006040 0.722652
O O16 0.358874 0.985478 0.000000
O O17 0.500916 0.721914 0.500000
O O18 0.588198 0.690583 0.710191
O O19 0.326221 0.101301 0.500000
O O20 0.321955 0.334965 0.500000
#
# Coordination Sequence:
#
# PCOD8225110 Si02
#       8
#     8   8   8   8   8   8   8   8
#     4   9  19  35  52  74 107 145 183 222 270 328
#     4   9  20  39  58  78 108 143 179 224 278 331
#     4  10  22  40  60  83 112 147 188 232 278 330
#     4  10  21  37  58  83 111 146 185 226 276 330
#     4   9  18  33  53  76 107 146 180 219 273 327
#     4  11  23  37  56  82 111 147 188 231 281 332
#     4  10  19  32  54  81 107 139 178 220 270 327
#     4  10  22  39  59  85 115 146 184 230 278 330
#
# _framework density 20.066072999999999
#
# number of rings (size 3 to 8) (size 9 to 14) (size 15 to 20)
#    0.000    2.250    0.000    3.000    0.000    8.000 
#    0.000    6.250    0.000    0.000    0.000    0.000 
#    0.000    0.000    0.000    0.000    0.000    0.000 
#
# Total GULP energy -793454.321493 kJ/mol
# GULP energy per Si atom -12397.723773 kJ/mol
# Density = 2.002040 g / cm^3
# Si number density = 20.066073 Si / 1000 Ang^3
#
#
#
# Elastic Constant Matrix: (Units=GPa)
#
#
# Indices 1 2 3 4 5 6 
#
# 1 43.5910 22.4123 34.0849 0.0000 0.0000 0.0000
# 2 22.4123 103.1417 47.8790 0.0000 0.0000 0.0000
# 3 34.0849 47.8790 97.4239 0.0000 0.0000 0.0000
# 4 0.0000 0.0000 0.0000 31.9899 0.0000 0.0000
# 5 0.0000 0.0000 0.0000 0.0000 22.5483 0.0000
# 6 0.0000 0.0000 0.0000 0.0000 0.0000 24.6172
#
#
#
# Elastic Compliance Matrix: (Units=1/GPa)
#
#
# Indices 1 2 3 4 5 6 
#
# 1 0.031986 -0.002275 -0.010073 0.000000 0.000000 0.000000
# 2 -0.002275 0.012723 -0.005457 0.000000 0.000000 0.000000
# 3 -0.010073 -0.005457 0.016470 0.000000 0.000000 0.000000
# 4 0.000000 0.000000 0.000000 0.031260 0.000000 0.000000
# 5 0.000000 0.000000 0.000000 0.000000 0.044349 0.000000
# 6 0.000000 0.000000 0.000000 0.000000 0.000000 0.040622
#
#
# Mechanical properties :
#
#
# Convention : Reuss Voigt Hill
#
# Bulk Modulus (GPa) = 39.10729 50.32322 44.71526
# Shear Modulus (GPa) = 22.56901 25.14977 23.85939
#
# Velocity S-wave (km/s) = 3.35735 3.54411 3.45199
# Velocity P-wave (km/s) = 5.87883 6.47154 6.18229
#
# Compressibility (1/GPa) = 0.02557068
#
# Stress axis : x y z
#
# Youngs Moduli (GPa) = 31.26341 78.59941 60.71527
#
# Poissons Ratio (x) = 0.17878 0.61158
# Poissons Ratio (y) = 0.07111 0.33131
# Poissons Ratio (z) = 0.31491 0.42890
#
# Static dielectric constant tensor:
#      x y z
#    x 3.765990 0.000000 0.000000 
#    y 0.000000 3.892060 0.000000 
#    z 0.000000 0.000000 4.002120 
# 
# 
# High freq. dielectric constant tensor:
#      x y z
#    x 1.773720 0.000000 0.000000 
#    y 0.000000 1.783030 0.000000 
#    z 0.000000 0.000000 1.785370 
# 
# From -- ./inp_files/8942.got.cif
#   From: 2010.03.12/outbox.cif.g09.slc.cpg/sg55_5_cif.got.tgz:8942.got - 2010.04.16 15:19:21.
