data_PCOD8225076
_publ_section_title
;
Structure prediction by ZEFSAII (Michael W. Deem and Ramdas Pophale) SiO2 
 PCOD8225076
Probable space group: P B A M
;
_chemical_formula_sum "Si O2"
_cell_formula_units_Z 48
_cell_length_a 14.766506
_cell_length_b 19.757880
_cell_length_c 9.163900
_cell_angle_alpha 90.000000
_cell_angle_beta 90.000000
_cell_angle_gamma 90.000000
_cell_volume 2673.612303
_symmetry_space_group_name_H-M "P B A M"
_symmetry_group_IT_number 55
_symmetry_cell_setting 'orthorhombic'
loop_
_space_group_symop_operation_xyz
x,y,z
-x,-y,z
1/2+x,1/2-y,-z
1/2-x,1/2+y,-z
-x,-y,-z
x,y,-z
1/2-x,1/2+y,z
1/2+x,1/2-y,z
loop_
_atom_site_type_symbol
_atom_site_label
_atom_site_fract_x
_atom_site_fract_y
_atom_site_fract_z
Si Si1 0.907683 0.465368 0.668818
Si Si2 0.573187 0.555279 0.329796
Si Si3 0.270546 0.513360 0.828835
Si Si4 0.804427 0.832422 0.171704
Si Si5 0.015399 0.196758 0.329304
Si Si6 0.624738 0.811343 0.331283
O O1 0.887262 0.480625 0.500000
O O2 0.828577 0.498613 0.763549
O O3 0.915288 0.385519 0.698717
O O4 0.000000 0.500000 0.720581
O O5 0.500000 0.500000 0.281637
O O6 0.596137 0.549431 0.500000
O O7 0.664242 0.542627 0.240030
O O8 0.536552 0.628499 0.286243
O O9 0.305984 0.588182 0.787214
O O10 0.266134 0.502249 0.000000
O O11 0.891703 0.796768 0.240696
O O12 0.714729 0.797921 0.237468
O O13 0.804564 0.820486 0.000000
O O14 0.039243 0.197834 0.500000
O O15 0.952214 0.258943 0.282458
O O16 0.650819 0.801064 0.500000
#
# Coordination Sequence:
#
# PCOD8225076 Si02
#       6
#     8   8   8   8   8   8
#     4   9  18  35  58  79 101 134 176 219 261 307
#     4  10  19  32  53  79 105 136 174 216 259 304
#     4  10  20  33  52  78 107 139 172 212 260 313
#     4  10  20  34  54  77 104 140 175 209 258 315
#     4  10  20  35  55  78 104 137 178 221 261 304
#     4   9  19  36  56  77 102 135 176 218 258 307
#
# _framework density 17.953239
#
# number of rings (size 3 to 8) (size 9 to 14) (size 15 to 20)
#    0.000    2.333    1.667    1.000    0.000    3.333 
#    3.000    0.000    0.000    0.000    0.000    0.000 
#    0.000    0.000    0.000    0.000    0.000    0.000 
#
# Total GULP energy -595418.621005 kJ/mol
# GULP energy per Si atom -12404.554604 kJ/mol
# Density = 1.791238 g / cm^3
# Si number density = 17.953239 Si / 1000 Ang^3
#
#
#
# Elastic Constant Matrix: (Units=GPa)
#
#
# Indices 1 2 3 4 5 6 
#
# 1 171.2011 70.3608 73.9072 0.0000 0.0000 0.0000
# 2 70.3608 76.9744 35.0508 0.0000 0.0000 0.0000
# 3 73.9072 35.0508 70.1221 0.0000 0.0000 0.0000
# 4 0.0000 0.0000 0.0000 14.6215 0.0000 0.0000
# 5 0.0000 0.0000 0.0000 0.0000 9.2852 0.0000
# 6 0.0000 0.0000 0.0000 0.0000 0.0000 32.1393
#
#
#
# Elastic Compliance Matrix: (Units=1/GPa)
#
#
# Indices 1 2 3 4 5 6 
#
# 1 0.013419 -0.007543 -0.010373 0.000000 0.000000 0.000000
# 2 -0.007543 0.021059 -0.002577 0.000000 0.000000 0.000000
# 3 -0.010373 -0.002577 0.026482 0.000000 0.000000 0.000000
# 4 0.000000 0.000000 0.000000 0.068392 0.000000 0.000000
# 5 0.000000 0.000000 0.000000 0.000000 0.107699 0.000000
# 6 0.000000 0.000000 0.000000 0.000000 0.000000 0.031115
#
#
# Mechanical properties :
#
#
# Convention : Reuss Voigt Hill
#
# Bulk Modulus (GPa) = 50.06234 75.21499 62.63866
# Shear Modulus (GPa) = 15.83234 20.47447 18.15341
#
# Velocity S-wave (km/s) = 2.97284 3.38069 3.18331
# Velocity P-wave (km/s) = 6.30310 7.56470 6.96254
#
# Compressibility (1/GPa) = 0.01997510
#
# Stress axis : x y z
#
# Youngs Moduli (GPa) = 74.52095 47.48512 37.76150
#
# Poissons Ratio (x) = 0.35816 0.39171
# Poissons Ratio (y) = 0.56208 0.09730
# Poissons Ratio (z) = 0.77302 0.12236
#
# Static dielectric constant tensor:
#      x y z
#    x 3.324130 0.000000 0.000000 
#    y 0.000000 3.246720 0.000000 
#    z 0.000000 0.000000 3.217550 
# 
# 
# High freq. dielectric constant tensor:
#      x y z
#    x 1.701870 0.000000 0.000000 
#    y 0.000000 1.679800 0.000000 
#    z 0.000000 0.000000 1.691750 
# 
# From -- ./inp_files/5618.got.cif
#   From: 2010.03.12/outbox.cif.g09.slc.cpg/sg55_3_cif.got.tgz:5618.got - 2010.04.16 15:19:21.
