data_PCOD8225315
_publ_section_title
;
Structure prediction by ZEFSAII (Michael W. Deem and Ramdas Pophale) SiO2 
 PCOD8225315
Probable space group: P B A M
;
_chemical_formula_sum "Si O2"
_cell_formula_units_Z 64
_cell_length_a 32.249389
_cell_length_b 11.096318
_cell_length_c 9.320135
_cell_angle_alpha 90.000000
_cell_angle_beta 90.000000
_cell_angle_gamma 90.000000
_cell_volume 3335.205423
_symmetry_space_group_name_H-M "P B A M"
_symmetry_group_IT_number 55
_symmetry_cell_setting 'orthorhombic'
loop_
_space_group_symop_operation_xyz
x,y,z
-x,-y,z
1/2+x,1/2-y,-z
1/2-x,1/2+y,-z
-x,-y,-z
x,y,-z
1/2-x,1/2+y,z
1/2+x,1/2-y,z
loop_
_atom_site_type_symbol
_atom_site_label
_atom_site_fract_x
_atom_site_fract_y
_atom_site_fract_z
Si Si1 0.605837 0.466087 0.340913
Si Si2 0.473557 0.887160 0.168819
Si Si3 0.619758 0.088576 0.833238
Si Si4 0.821420 0.380619 0.165880
Si Si5 0.731480 0.424515 0.832362
Si Si6 0.174743 0.231517 0.341354
Si Si7 0.471592 0.615154 0.832059
Si Si8 0.663727 0.619724 0.831083
O O1 0.590551 0.506568 0.500000
O O2 0.644811 0.380950 0.357276
O O3 0.569956 0.395017 0.258608
O O4 0.621331 0.578306 0.246520
O O5 0.426708 0.900040 0.228265
O O6 0.490468 0.750103 0.204134
O O7 0.500000 0.000000 0.235773
O O8 0.472827 0.906212 0.000000
O O9 0.651473 0.167257 0.745668
O O10 0.636381 0.953784 0.807847
O O11 0.621496 0.126812 0.000000
O O12 0.779138 0.447273 0.218341
O O13 0.826829 0.250078 0.236873
O O14 0.814614 0.355742 0.000000
O O15 0.715427 0.307860 0.745971
O O16 0.704194 0.540876 0.794371
O O17 0.727749 0.393645 0.000000
O O18 0.187253 0.278573 0.500000
O O19 0.500000 0.500000 0.789577
O O20 0.460643 0.609871 0.000000
O O21 0.653958 0.619086 0.000000
#
# Coordination Sequence:
#
# PCOD8225315 Si02
#       8
#     8   8   8   8   8   8   8   8
#     4  10  20  35  55  76 104 141 181 221 264 323
#     4   9  18  33  54  82 114 146 182 227 282 339
#     4  10  19  33  57  82 108 144 185 226 274 332
#     4   9  19  32  52  83 109 137 182 231 275 326
#     4   9  18  32  53  77 104 139 177 221 273 323
#     4  10  20  34  53  77 105 139 181 223 263 316
#     4  10  20  34  56  86 112 138 179 231 283 336
#     4   9  18  33  52  77 108 138 174 224 275 321
#
# _framework density 19.189222999999998
#
# number of rings (size 3 to 8) (size 9 to 14) (size 15 to 20)
#    0.000    2.500    1.250    0.750    1.750    2.250 
#    0.000    5.625    0.000    1.500    0.000    0.000 
#    0.000    0.000    0.000    0.000    0.000    0.000 
#
# Total GULP energy -793009.411585 kJ/mol
# GULP energy per Si atom -12390.772056 kJ/mol
# Density = 1.914555 g / cm^3
# Si number density = 19.189223 Si / 1000 Ang^3
#
#
#
# Elastic Constant Matrix: (Units=GPa)
#
#
# Indices 1 2 3 4 5 6 
#
# 1 57.0673 33.4389 17.0726 0.0000 0.0000 0.0000
# 2 33.4389 119.3580 25.2374 0.0000 0.0000 0.0000
# 3 17.0726 25.2374 51.7283 0.0000 0.0000 0.0000
# 4 0.0000 0.0000 0.0000 2.1187 0.0000 0.0000
# 5 0.0000 0.0000 0.0000 0.0000 2.6499 0.0000
# 6 0.0000 0.0000 0.0000 0.0000 0.0000 27.2311
#
#
#
# Elastic Compliance Matrix: (Units=1/GPa)
#
#
# Indices 1 2 3 4 5 6 
#
# 1 0.021957 -0.005151 -0.004734 0.000000 0.000000 0.000000
# 2 -0.005151 0.010550 -0.003447 0.000000 0.000000 0.000000
# 3 -0.004734 -0.003447 0.022576 0.000000 0.000000 0.000000
# 4 0.000000 0.000000 0.000000 0.471986 0.000000 0.000000
# 5 0.000000 0.000000 0.000000 0.000000 0.377367 0.000000
# 6 0.000000 0.000000 0.000000 0.000000 0.000000 0.036723
#
#
# Mechanical properties :
#
#
# Convention : Reuss Voigt Hill
#
# Bulk Modulus (GPa) = 35.18675 42.18351 38.68513
# Shear Modulus (GPa) = 5.11616 16.56027 10.83821
#
# Velocity S-wave (km/s) = 1.63461 2.94087 2.37915
# Velocity P-wave (km/s) = 4.68392 5.79329 5.26789
#
# Compressibility (1/GPa) = 0.02841979
#
# Stress axis : x y z
#
# Youngs Moduli (GPa) = 45.54273 94.78659 44.29469
#
# Poissons Ratio (x) = 0.48820 0.20969
# Poissons Ratio (y) = 0.23457 0.15270
# Poissons Ratio (z) = 0.21560 0.32676
#
# Static dielectric constant tensor:
#      x y z
#    x 3.572260 0.000000 0.000000 
#    y 0.000000 3.987500 0.000000 
#    z 0.000000 0.000000 3.424550 
# 
# 
# High freq. dielectric constant tensor:
#      x y z
#    x 1.739090 0.000000 0.000000 
#    y 0.000000 1.748830 0.000000 
#    z 0.000000 0.000000 1.712530 
# 
# From -- ./inp_files/10733.got.cif
#   From: 2010.03.12/outbox.cif.g09.slc.cpg/sg55_6_cif.got.tgz:10733.got - 2010.04.16 15:19:21.
