data_PCOD8225920
_publ_section_title
;
Structure prediction by ZEFSAII (Michael W. Deem and Ramdas Pophale) SiO2 
 PCOD8225920
Probable space group: P B A M
;
_chemical_formula_sum "Si O2"
_cell_formula_units_Z 64
_cell_length_a 10.883193
_cell_length_b 31.872552
_cell_length_c 9.688436
_cell_angle_alpha 90.000000
_cell_angle_beta 90.000000
_cell_angle_gamma 90.000000
_cell_volume 3360.677544
_symmetry_space_group_name_H-M "P B A M"
_symmetry_group_IT_number 55
_symmetry_cell_setting 'orthorhombic'
loop_
_space_group_symop_operation_xyz
x,y,z
-x,-y,z
1/2+x,1/2-y,-z
1/2-x,1/2+y,-z
-x,-y,-z
x,y,-z
1/2-x,1/2+y,z
1/2+x,1/2-y,z
loop_
_atom_site_type_symbol
_atom_site_label
_atom_site_fract_x
_atom_site_fract_y
_atom_site_fract_z
Si Si1 0.429309 0.758142 0.841285
Si Si2 0.948341 0.605020 0.850274
Si Si3 0.633218 0.316081 0.342211
Si Si4 0.741788 0.674012 0.150726
Si Si5 0.574698 0.623054 0.344242
Si Si6 0.890468 0.029414 0.336615
Si Si7 0.633879 0.826467 0.842499
Si Si8 0.612201 0.029383 0.662645
O O1 0.445396 0.718851 0.739607
O O2 0.297116 0.780277 0.812192
O O3 0.537604 0.790197 0.808235
O O4 0.435181 0.743049 0.000000
O O5 0.853704 0.642460 0.859468
O O6 0.909864 0.574269 0.729185
O O7 0.078725 0.626896 0.820202
O O8 0.951955 0.581676 0.000000
O O9 0.652283 0.301320 0.500000
O O10 0.565550 0.361317 0.339538
O O11 0.760965 0.322308 0.268283
O O12 0.648576 0.658743 0.265019
O O13 0.676461 0.676262 0.000000
O O14 0.625888 0.621645 0.500000
O O15 0.588546 0.576607 0.277828
O O16 0.905589 0.030142 0.500000
O O17 0.751265 0.013588 0.296955
O O18 0.000000 0.000000 0.274293
O O19 0.682257 0.821867 0.000000
O O20 0.603879 0.035417 0.500000
O O21 0.500000 0.000000 0.715086
#
# Coordination Sequence:
#
# PCOD8225920 Si02
#       8
#     8   8   8   8   8   8   8   8
#     4   9  20  38  58  79 105 145 191 231 276 336
#     4   9  18  35  58  81 106 139 180 229 281 332
#     4  11  24  36  51  82 118 147 184 236 289 339
#     4   9  18  34  58  82 103 136 184 229 270 328
#     4  10  21  36  55  81 112 148 187 229 284 342
#     4   9  18  35  57  79 111 154 193 232 286 351
#     4   9  20  39  58  77 106 146 190 230 279 343
#     4  10  20  33  55  87 113 143 192 240 285 347
#
# _framework density 19.043776999999999
#
# number of rings (size 3 to 8) (size 9 to 14) (size 15 to 20)
#    0.000    2.500    1.250    1.875    1.750    3.750 
#    0.000    5.000    0.000    1.500    0.000    0.000 
#    0.000    0.000    0.000    0.000    0.000    0.000 
#
# Total GULP energy -793140.303152 kJ/mol
# GULP energy per Si atom -12392.817237 kJ/mol
# Density = 1.900043 g / cm^3
# Si number density = 19.043777 Si / 1000 Ang^3
#
#
#
# Elastic Constant Matrix: (Units=GPa)
#
#
# Indices 1 2 3 4 5 6 
#
# 1 107.6605 41.5192 42.7788 0.0000 0.0000 0.0000
# 2 41.5192 72.0257 27.3828 0.0000 0.0000 0.0000
# 3 42.7788 27.3828 69.2020 0.0000 0.0000 0.0000
# 4 0.0000 0.0000 0.0000 -37.8596 0.0000 0.0000
# 5 0.0000 0.0000 0.0000 0.0000 59.2921 0.0000
# 6 0.0000 0.0000 0.0000 0.0000 0.0000 25.2574
#
#
#
# Elastic Compliance Matrix: (Units=1/GPa)
#
#
# Indices 1 2 3 4 5 6 
#
# 1 0.014019 -0.005634 -0.006437 0.000000 0.000000 0.000000
# 2 -0.005634 0.018607 -0.003880 0.000000 0.000000 0.000000
# 3 -0.006437 -0.003880 0.019965 0.000000 0.000000 0.000000
# 4 0.000000 0.000000 0.000000 -0.026413 0.000000 0.000000
# 5 0.000000 0.000000 0.000000 0.000000 0.016866 0.000000
# 6 0.000000 0.000000 0.000000 0.000000 0.000000 0.039592
#
#
# Mechanical properties :
#
#
# Convention : Reuss Voigt Hill
#
# Bulk Modulus (GPa) = 48.33445 52.47222 50.40333
# Shear Modulus (GPa) = 41.17522 18.48513 29.83018
#
# Velocity S-wave (km/s) = 4.65492 3.11893 3.96207
# Velocity P-wave (km/s) = 7.37068 6.37052 6.88878
#
# Compressibility (1/GPa) = 0.02068918
#
# Stress axis : x y z
#
# Youngs Moduli (GPa) = 71.33246 53.74409 50.08854
#
# Poissons Ratio (x) = 0.30280 0.32241
# Poissons Ratio (y) = 0.40189 0.19433
# Poissons Ratio (z) = 0.45915 0.20851
#
# Static dielectric constant tensor:
#      x y z
#    x 3.640440 0.000000 0.000000 
#    y 0.000000 3.600660 0.000000 
#    z 0.000000 0.000000 3.511680 
# 
# 
# High freq. dielectric constant tensor:
#      x y z
#    x 1.743740 0.000000 0.000000 
#    y 0.000000 1.732770 0.000000 
#    z 0.000000 0.000000 1.723430 
# 
# From -- ./inp_files/4500.got.cif
#   From: 2010.03.12/outbox.cif.g09.slc.cpg/sg55_3_cif.got.tgz:4500.got - 2010.04.16 15:19:21.
