data_PCOD8225112
_publ_section_title
;
Structure prediction by ZEFSAII (Michael W. Deem and Ramdas Pophale) SiO2 
 PCOD8225112
Probable space group: P B A M
;
_chemical_formula_sum "Si O2"
_cell_formula_units_Z 64
_cell_length_a 18.299899
_cell_length_b 20.550892
_cell_length_c 9.161029
_cell_angle_alpha 90.000000
_cell_angle_beta 90.000000
_cell_angle_gamma 90.000000
_cell_volume 3445.272897
_symmetry_space_group_name_H-M "P B A M"
_symmetry_group_IT_number 55
_symmetry_cell_setting 'orthorhombic'
loop_
_space_group_symop_operation_xyz
x,y,z
-x,-y,z
1/2+x,1/2-y,-z
1/2-x,1/2+y,-z
-x,-y,-z
x,y,-z
1/2-x,1/2+y,z
1/2+x,1/2-y,z
loop_
_atom_site_type_symbol
_atom_site_label
_atom_site_fract_x
_atom_site_fract_y
_atom_site_fract_z
Si Si1 0.588088 0.888064 0.832849
Si Si2 0.829343 0.495221 0.330767
Si Si3 0.566601 0.746231 0.164124
Si Si4 0.837982 0.997534 0.669635
Si Si5 0.564547 0.109978 0.329913
Si Si6 0.905468 0.877772 0.168466
Si Si7 0.077570 0.894443 0.163667
Si Si8 0.422530 0.746535 0.667836
O O1 0.649840 0.930236 0.755371
O O2 0.613962 0.812178 0.819961
O O3 0.508959 0.898917 0.761804
O O4 0.582176 0.909888 0.000000
O O5 0.841711 0.480523 0.500000
O O6 0.746058 0.513801 0.297368
O O7 0.879075 0.555084 0.277987
O O8 0.611720 0.678661 0.181521
O O9 0.507572 0.747501 0.291656
O O10 0.530203 0.745019 0.000000
O O11 0.853311 0.986604 0.500000
O O12 0.858917 0.932575 0.753235
O O13 0.885943 0.058310 0.721004
O O14 0.543807 0.102909 0.500000
O O15 0.604754 0.179582 0.302113
O O16 0.881699 0.807655 0.234794
O O17 0.991074 0.890960 0.194491
O O18 0.884349 0.877930 0.000000
O O19 0.091652 0.921243 0.000000
O O20 0.412941 0.726612 0.500000
#
# Coordination Sequence:
#
# PCOD8225112 Si02
#       8
#     8   8   8   8   8   8   8   8
#     4  10  19  32  54  82 106 131 170 214 251 296
#     4  10  22  38  51  69 103 142 174 207 254 304
#     4   8  16  31  50  75 107 134 159 202 257 304
#     4  11  23  36  51  73 101 134 174 216 251 294
#     4   9  18  34  55  76 103 138 170 206 256 306
#     4  10  20  35  55  77 103 134 165 204 259 313
#     4   9  18  34  55  76 100 132 164 199 253 312
#     4   9  16  28  51  80 103 127 166 210 249 296
#
# _framework density 18.576177999999999
#
# number of rings (size 3 to 8) (size 9 to 14) (size 15 to 20)
#    0.000    2.500    0.000    3.000    0.000    8.000 
#    0.000    1.250    0.000    4.500    0.000    0.000 
#    0.000    0.000    0.000    0.000    0.000    0.000 
#
# Total GULP energy -793306.071059 kJ/mol
# GULP energy per Si atom -12395.407360 kJ/mol
# Density = 1.853390 g / cm^3
# Si number density = 18.576178 Si / 1000 Ang^3
#
#
#
# Elastic Constant Matrix: (Units=GPa)
#
#
# Indices 1 2 3 4 5 6 
#
# 1 34.7997 17.3510 28.3657 0.0000 0.0000 0.0000
# 2 17.3510 108.8036 47.3515 0.0000 0.0000 0.0000
# 3 28.3657 47.3515 90.0619 0.0000 0.0000 0.0000
# 4 0.0000 0.0000 0.0000 35.0773 0.0000 0.0000
# 5 0.0000 0.0000 0.0000 0.0000 15.1776 0.0000
# 6 0.0000 0.0000 0.0000 0.0000 0.0000 4.9201
#
#
#
# Elastic Compliance Matrix: (Units=1/GPa)
#
#
# Indices 1 2 3 4 5 6 
#
# 1 0.038767 -0.001126 -0.011618 0.000000 0.000000 0.000000
# 2 -0.001126 0.011951 -0.005929 0.000000 0.000000 0.000000
# 3 -0.011618 -0.005929 0.017880 0.000000 0.000000 0.000000
# 4 0.000000 0.000000 0.000000 0.028508 0.000000 0.000000
# 5 0.000000 0.000000 0.000000 0.000000 0.065887 0.000000
# 6 0.000000 0.000000 0.000000 0.000000 0.000000 0.203246
#
#
# Mechanical properties :
#
#
# Convention : Reuss Voigt Hill
#
# Bulk Modulus (GPa) = 31.99764 46.64462 39.32113
# Shear Modulus (GPa) = 12.07725 20.40814 16.24270
#
# Velocity S-wave (km/s) = 2.55257 3.31814 2.96021
# Velocity P-wave (km/s) = 5.09411 6.31225 5.73561
#
# Compressibility (1/GPa) = 0.03125231
#
# Stress axis : x y z
#
# Youngs Moduli (GPa) = 25.79492 83.67817 55.92937
#
# Poissons Ratio (x) = 0.09423 0.64979
# Poissons Ratio (y) = 0.02905 0.33158
# Poissons Ratio (z) = 0.29969 0.49609
#
# Static dielectric constant tensor:
#      x y z
#    x 2.998500 0.000000 0.000000 
#    y 0.000000 3.878990 0.000000 
#    z 0.000000 0.000000 3.496020 
# 
# 
# High freq. dielectric constant tensor:
#      x y z
#    x 1.669690 0.000000 0.000000 
#    y 0.000000 1.744790 0.000000 
#    z 0.000000 0.000000 1.729910 
# 
# From -- ./inp_files/7937.got.cif
#   From: 2010.03.12/outbox.cif.g09.slc.cpg/sg55_4_cif.got.tgz:7937.got - 2010.04.16 15:19:21.
