data_PCOD8225532
_publ_section_title
;
Structure prediction by ZEFSAII (Michael W. Deem and Ramdas Pophale) SiO2 
 PCOD8225532
Probable space group: P B A M
;
_chemical_formula_sum "Si O2"
_cell_formula_units_Z 64
_cell_length_a 9.716917
_cell_length_b 30.962196
_cell_length_c 11.077101
_cell_angle_alpha 90.000000
_cell_angle_beta 90.000000
_cell_angle_gamma 90.000000
_cell_volume 3332.624358
_symmetry_space_group_name_H-M "P B A M"
_symmetry_group_IT_number 55
_symmetry_cell_setting 'orthorhombic'
loop_
_space_group_symop_operation_xyz
x,y,z
-x,-y,z
1/2+x,1/2-y,-z
1/2-x,1/2+y,-z
-x,-y,-z
x,y,-z
1/2-x,1/2+y,z
1/2+x,1/2-y,z
loop_
_atom_site_type_symbol
_atom_site_label
_atom_site_fract_x
_atom_site_fract_y
_atom_site_fract_z
Si Si1 0.220600 0.566305 0.632896
Si Si2 0.619746 0.302300 0.865037
Si Si3 0.970917 0.881180 0.287617
Si Si4 0.071417 0.408028 0.363455
Si Si5 0.731034 0.665570 0.361406
Si Si6 0.424059 0.458760 0.867025
Si Si7 0.322377 0.271848 0.139807
Si Si8 0.646546 0.011927 0.206981
O O1 0.207160 0.545093 0.500000
O O2 0.360650 0.593311 0.633815
O O3 0.218783 0.529620 0.733714
O O4 0.092108 0.598811 0.654146
O O5 0.612348 0.344711 0.784310
O O6 0.757992 0.275321 0.836717
O O7 0.487657 0.270680 0.847973
O O8 0.624636 0.320254 0.000000
O O9 0.084450 0.858603 0.371143
O O10 0.051650 0.914568 0.202754
O O11 0.118692 0.412025 0.500000
O O12 0.150728 0.366574 0.312579
O O13 0.114624 0.453411 0.308540
O O14 0.759708 0.683531 0.500000
O O15 0.733186 0.699711 0.251814
O O16 0.500000 0.500000 0.804820
O O17 0.260214 0.468032 0.881529
O O18 0.486628 0.452368 0.000000
O O19 0.283555 0.287175 0.000000
O O20 0.500000 0.000000 0.142120
#
# Coordination Sequence:
#
# PCOD8225532 Si02
#       8
#     8   8   8   8   8   8   8   8
#     4  10  20  33  51  76 108 145 187 229 275 328
#     4   9  19  36  59  81 105 140 181 227 274 333
#     4  11  20  35  55  82 112 145 184 231 281 334
#     4   9  18  33  52  76 108 143 181 229 276 323
#     4  10  20  35  56  83 114 143 181 229 284 339
#     4  11  22  36  53  77 111 150 192 237 286 332
#     4   9  19  37  59  82 108 140 181 224 275 338
#     4  10  19  35  54  75 105 147 191 229 271 326
#
# _framework density 19.204086
#
# number of rings (size 3 to 8) (size 9 to 14) (size 15 to 20)
#    0.000    2.125    2.500    1.125    0.000    3.250 
#    0.000    3.750    0.000    0.750    0.000    0.000 
#    0.000    0.000    0.000    0.000    0.000    0.000 
#
# Total GULP energy -792857.182705 kJ/mol
# GULP energy per Si atom -12388.393480 kJ/mol
# Density = 1.916038 g / cm^3
# Si number density = 19.204086 Si / 1000 Ang^3
#
#
#
# Elastic Constant Matrix: (Units=GPa)
#
#
# Indices 1 2 3 4 5 6 
#
# 1 73.4943 15.4629 8.9539 0.0000 0.0000 0.0000
# 2 15.4629 59.8065 25.5341 0.0000 0.0000 0.0000
# 3 8.9539 25.5341 65.2819 0.0000 0.0000 0.0000
# 4 0.0000 0.0000 0.0000 14.1878 0.0000 0.0000
# 5 0.0000 0.0000 0.0000 0.0000 21.1878 0.0000
# 6 0.0000 0.0000 0.0000 0.0000 0.0000 35.9778
#
#
#
# Elastic Compliance Matrix: (Units=1/GPa)
#
#
# Indices 1 2 3 4 5 6 
#
# 1 0.014410 -0.003460 -0.000623 0.000000 0.000000 0.000000
# 2 -0.003460 0.020903 -0.007701 0.000000 0.000000 0.000000
# 3 -0.000623 -0.007701 0.018416 0.000000 0.000000 0.000000
# 4 0.000000 0.000000 0.000000 0.070483 0.000000 0.000000
# 5 0.000000 0.000000 0.000000 0.000000 0.047197 0.000000
# 6 0.000000 0.000000 0.000000 0.000000 0.000000 0.027795
#
#
# Mechanical properties :
#
#
# Convention : Reuss Voigt Hill
#
# Bulk Modulus (GPa) = 33.15579 33.16497 33.16038
# Shear Modulus (GPa) = 21.47520 24.17947 22.82733
#
# Velocity S-wave (km/s) = 3.34767 3.55220 3.45145
# Velocity P-wave (km/s) = 5.67847 5.84221 5.76092
#
# Compressibility (1/GPa) = 0.03016065
#
# Stress axis : x y z
#
# Youngs Moduli (GPa) = 69.39459 47.83960 54.30064
#
# Poissons Ratio (x) = 0.16551 0.03385
# Poissons Ratio (y) = 0.24008 0.41819
# Poissons Ratio (z) = 0.04325 0.36844
#
# Static dielectric constant tensor:
#      x y z
#    x 3.758500 0.000000 0.000000 
#    y 0.000000 3.320240 0.000000 
#    z 0.000000 0.000000 3.354450 
# 
# 
# High freq. dielectric constant tensor:
#      x y z
#    x 1.758030 0.000000 0.000000 
#    y 0.000000 1.727410 0.000000 
#    z 0.000000 0.000000 1.737690 
# 
# From -- ./inp_files/12594.got.cif
#   From: 2010.03.12/outbox.cif.g09.slc.cpg/sg55_7_cif.got.tgz:12594.got - 2010.04.16 15:19:21.
