data_PCOD8225788
_publ_section_title
;
Structure prediction by ZEFSAII (Michael W. Deem and Ramdas Pophale) SiO2 
 PCOD8225788
Probable space group: P B A M
;
_chemical_formula_sum "Si O2"
_cell_formula_units_Z 48
_cell_length_a 9.382189
_cell_length_b 28.784046
_cell_length_c 8.473954
_cell_angle_alpha 90.000000
_cell_angle_beta 90.000000
_cell_angle_gamma 90.000000
_cell_volume 2288.453644
_symmetry_space_group_name_H-M "P B A M"
_symmetry_group_IT_number 55
_symmetry_cell_setting 'orthorhombic'
loop_
_space_group_symop_operation_xyz
x,y,z
-x,-y,z
1/2+x,1/2-y,-z
1/2-x,1/2+y,-z
-x,-y,-z
x,y,-z
1/2-x,1/2+y,z
1/2+x,1/2-y,z
loop_
_atom_site_type_symbol
_atom_site_label
_atom_site_fract_x
_atom_site_fract_y
_atom_site_fract_z
Si Si1 0.372365 0.464796 0.324586
Si Si2 0.210803 0.785183 0.684995
Si Si3 0.010304 0.867896 0.687464
Si Si4 0.642240 0.975016 0.818952
Si Si5 0.975232 0.295159 0.816903
Si Si6 0.808553 0.376124 0.315951
O O1 0.500000 0.500000 0.342105
O O2 0.305370 0.457011 0.500000
O O3 0.425468 0.416272 0.249807
O O4 0.261799 0.486049 0.202542
O O5 0.240042 0.790442 0.500000
O O6 0.109161 0.826230 0.750030
O O7 0.130849 0.737104 0.716953
O O8 0.361141 0.786761 0.772559
O O9 0.005434 0.869205 0.500000
O O10 0.848259 0.861427 0.748405
O O11 0.669611 0.930756 0.709421
O O12 0.500000 0.000000 0.762584
O O13 0.636000 0.958790 0.000000
O O14 0.929573 0.347962 0.778704
O O15 0.955485 0.284164 0.000000
O O16 0.824688 0.365021 0.500000
#
# Coordination Sequence:
#
# PCOD8225788 Si02
#       6
#     8   8   8   8   8   8
#     4  10  19  38  64  91 121 161 213 262 308 368
#     4  11  23  43  69  97 126 168 217 260 310 385
#     4   9  20  38  64  95 123 155 209 269 311 361
#     4  11  25  41  57  88 131 170 209 260 320 379
#     4  12  26  44  65  96 134 167 205 264 329 381
#     4  11  22  42  68  93 122 166 216 265 316 379
#
# _framework density 20.974861000000001
#
# number of rings (size 3 to 8) (size 9 to 14) (size 15 to 20)
#    0.000    1.333    1.667    4.000    2.333    3.000 
#    0.000    3.333    0.000    0.000    0.000    0.000 
#    0.000    0.000    0.000    0.000    0.000    0.000 
#
# Total GULP energy -595398.067588 kJ/mol
# GULP energy per Si atom -12404.126408 kJ/mol
# Density = 2.092712 g / cm^3
# Si number density = 20.974861 Si / 1000 Ang^3
#
#
#
# Elastic Constant Matrix: (Units=GPa)
#
#
# Indices 1 2 3 4 5 6 
#
# 1 138.3548 46.4040 21.6952 0.0000 0.0000 0.0000
# 2 46.4040 90.0914 21.1753 0.0000 0.0000 0.0000
# 3 21.6952 21.1753 49.0036 0.0000 0.0000 0.0000
# 4 0.0000 0.0000 0.0000 27.5851 0.0000 0.0000
# 5 0.0000 0.0000 0.0000 0.0000 25.2878 0.0000
# 6 0.0000 0.0000 0.0000 0.0000 0.0000 43.6394
#
#
#
# Elastic Compliance Matrix: (Units=1/GPa)
#
#
# Indices 1 2 3 4 5 6 
#
# 1 0.008944 -0.004092 -0.002192 0.000000 0.000000 0.000000
# 2 -0.004092 0.014226 -0.004336 0.000000 0.000000 0.000000
# 3 -0.002192 -0.004336 0.023251 0.000000 0.000000 0.000000
# 4 0.000000 0.000000 0.000000 0.036251 0.000000 0.000000
# 5 0.000000 0.000000 0.000000 0.000000 0.039545 0.000000
# 6 0.000000 0.000000 0.000000 0.000000 0.000000 0.022915
#
#
# Mechanical properties :
#
#
# Convention : Reuss Voigt Hill
#
# Bulk Modulus (GPa) = 39.71032 50.66654 45.18843
# Shear Modulus (GPa) = 28.60987 31.84746 30.22866
#
# Velocity S-wave (km/s) = 3.69725 3.90085 3.80041
# Velocity P-wave (km/s) = 6.09915 6.67061 6.39127
#
# Compressibility (1/GPa) = 0.02518237
#
# Stress axis : x y z
#
# Youngs Moduli (GPa) = 111.80964 70.29144 43.00964
#
# Poissons Ratio (x) = 0.28761 0.09426
# Poissons Ratio (y) = 0.45748 0.18649
# Poissons Ratio (z) = 0.24504 0.30479
#
# Static dielectric constant tensor:
#      x y z
#    x 3.886900 0.000000 0.000000 
#    y 0.000000 3.862040 0.000000 
#    z 0.000000 0.000000 3.524460 
# 
# 
# High freq. dielectric constant tensor:
#      x y z
#    x 1.830770 0.000000 0.000000 
#    y 0.000000 1.833410 0.000000 
#    z 0.000000 0.000000 1.803670 
# 
# From -- ./inp_files/2912.got.cif
#   From: 2010.03.12/outbox.cif.g09.slc.cpg/sg55_2_cif.got.tgz:2912.got - 2010.04.16 15:19:21.
