data_PCOD8225265
_publ_section_title
;
Structure prediction by ZEFSAII (Michael W. Deem and Ramdas Pophale) SiO2 
 PCOD8225265
Probable space group: P B A M
;
_chemical_formula_sum "Si O2"
_cell_formula_units_Z 64
_cell_length_a 24.915088
_cell_length_b 14.329696
_cell_length_c 9.210143
_cell_angle_alpha 90.000000
_cell_angle_beta 90.000000
_cell_angle_gamma 90.000000
_cell_volume 3288.257170
_symmetry_space_group_name_H-M "P B A M"
_symmetry_group_IT_number 55
_symmetry_cell_setting 'orthorhombic'
loop_
_space_group_symop_operation_xyz
x,y,z
-x,-y,z
1/2+x,1/2-y,-z
1/2-x,1/2+y,-z
-x,-y,-z
x,y,-z
1/2-x,1/2+y,z
1/2+x,1/2-y,z
loop_
_atom_site_type_symbol
_atom_site_label
_atom_site_fract_x
_atom_site_fract_y
_atom_site_fract_z
Si Si1 0.908646 0.709857 0.169194
Si Si2 0.895481 0.357586 0.836513
Si Si3 0.697677 0.313115 0.171737
Si Si4 0.838439 0.012582 0.171761
Si Si5 0.980003 0.210156 0.839626
Si Si6 0.443815 0.454860 0.669466
Si Si7 0.060788 0.476921 0.328332
Si Si8 0.304152 0.283950 0.827556
O O1 0.855384 0.760582 0.228394
O O2 0.919520 0.620265 0.265432
O O3 0.956967 0.782919 0.193489
O O4 0.904273 0.681163 0.000000
O O5 0.954792 0.313213 0.836168
O O6 0.897463 0.446540 0.732249
O O7 0.852887 0.281924 0.776301
O O8 0.879529 0.389173 0.000000
O O9 0.697908 0.423016 0.216032
O O10 0.749513 0.260358 0.237719
O O11 0.699081 0.305891 0.000000
O O12 0.895890 0.995252 0.245725
O O13 0.811868 0.109393 0.229288
O O14 0.847580 0.016500 0.000000
O O15 0.948453 0.152113 0.718572
O O16 0.970277 0.165742 0.000000
O O17 0.500000 0.500000 0.715253
O O18 0.432104 0.461506 0.500000
O O19 0.065554 0.473913 0.500000
O O20 0.000000 0.500000 0.279301
O O21 0.301971 0.287036 0.000000
#
# Coordination Sequence:
#
# PCOD8225265 Si02
#       8
#     8   8   8   8   8   8   8   8
#     4  10  20  35  56  83 114 147 186 235 284 334
#     4  10  19  34  57  83 110 142 183 233 278 324
#     4   9  19  34  57  88 115 144 186 233 282 330
#     4  10  19  36  60  83 112 148 187 233 277 328
#     4  10  19  33  55  83 111 141 183 229 280 335
#     4  11  23  35  51  80 115 150 187 229 281 339
#     4  11  23  36  53  80 114 154 191 228 280 339
#     4   9  18  34  57  87 114 142 185 232 281 329
#
# _framework density 19.463197000000001
#
# number of rings (size 3 to 8) (size 9 to 14) (size 15 to 20)
#    0.000    2.000    2.500    1.500    0.000    4.500 
#    0.000    4.375    0.000    4.500    0.000    0.000 
#    0.000    0.000    0.000    0.000    0.000    0.000 
#
# Total GULP energy -793470.422283 kJ/mol
# GULP energy per Si atom -12397.975348 kJ/mol
# Density = 1.941890 g / cm^3
# Si number density = 19.463197 Si / 1000 Ang^3
#
#
#
# Elastic Constant Matrix: (Units=GPa)
#
#
# Indices 1 2 3 4 5 6 
#
# 1 125.2298 56.3940 25.7254 0.0000 0.0000 0.0000
# 2 56.3940 127.5141 34.6040 0.0000 0.0000 0.0000
# 3 25.7254 34.6040 39.3671 0.0000 0.0000 0.0000
# 4 0.0000 0.0000 0.0000 13.8532 0.0000 0.0000
# 5 0.0000 0.0000 0.0000 0.0000 13.5508 0.0000
# 6 0.0000 0.0000 0.0000 0.0000 0.0000 30.3846
#
#
#
# Elastic Compliance Matrix: (Units=1/GPa)
#
#
# Indices 1 2 3 4 5 6 
#
# 1 0.010345 -0.003599 -0.003596 0.000000 0.000000 0.000000
# 2 -0.003599 0.011551 -0.007802 0.000000 0.000000 0.000000
# 3 -0.003596 -0.007802 0.034610 0.000000 0.000000 0.000000
# 4 0.000000 0.000000 0.000000 0.072186 0.000000 0.000000
# 5 0.000000 0.000000 0.000000 0.000000 0.073796 0.000000
# 6 0.000000 0.000000 0.000000 0.000000 0.000000 0.032911
#
#
# Mechanical properties :
#
#
# Convention : Reuss Voigt Hill
#
# Bulk Modulus (GPa) = 37.71953 58.39529 48.05741
# Shear Modulus (GPa) = 18.23283 23.25023 20.74153
#
# Velocity S-wave (km/s) = 3.06401 3.46001 3.26802
# Velocity P-wave (km/s) = 5.65151 6.78456 6.24379
#
# Compressibility (1/GPa) = 0.02651147
#
# Stress axis : x y z
#
# Youngs Moduli (GPa) = 96.66599 86.57133 28.89349
#
# Poissons Ratio (x) = 0.31158 0.10391
# Poissons Ratio (y) = 0.34791 0.22542
# Poissons Ratio (z) = 0.34766 0.67540
#
# Static dielectric constant tensor:
#      x y z
#    x 3.735830 0.000000 0.000000 
#    y 0.000000 3.622090 0.000000 
#    z 0.000000 0.000000 3.163170 
# 
# 
# High freq. dielectric constant tensor:
#      x y z
#    x 1.756650 0.000000 0.000000 
#    y 0.000000 1.764500 0.000000 
#    z 0.000000 0.000000 1.717260 
# 
# From -- ./inp_files/9782.got.cif
#   From: 2010.03.12/outbox.cif.g09.slc.cpg/sg55_5_cif.got.tgz:9782.got - 2010.04.16 15:19:21.
