data_PCOD8225296
_publ_section_title
;
Structure prediction by ZEFSAII (Michael W. Deem and Ramdas Pophale) SiO2 
 PCOD8225296
Probable space group: P B A M
;
_chemical_formula_sum "Si O2"
_cell_formula_units_Z 48
_cell_length_a 14.858212
_cell_length_b 20.010481
_cell_length_c 8.494095
_cell_angle_alpha 90.000000
_cell_angle_beta 90.000000
_cell_angle_gamma 90.000000
_cell_volume 2525.464061
_symmetry_space_group_name_H-M "P B A M"
_symmetry_group_IT_number 55
_symmetry_cell_setting 'orthorhombic'
loop_
_space_group_symop_operation_xyz
x,y,z
-x,-y,z
1/2+x,1/2-y,-z
1/2-x,1/2+y,-z
-x,-y,-z
x,y,-z
1/2-x,1/2+y,z
1/2+x,1/2-y,z
loop_
_atom_site_type_symbol
_atom_site_label
_atom_site_fract_x
_atom_site_fract_y
_atom_site_fract_z
Si Si1 0.620891 0.189351 0.186799
Si Si2 0.306065 0.341027 0.683380
Si Si3 0.011156 0.805766 0.183487
Si Si4 0.280031 0.484709 0.816363
Si Si5 0.436411 0.561135 0.682212
Si Si6 0.581534 0.042248 0.814150
O O1 0.718525 0.201027 0.265205
O O2 0.554132 0.247051 0.244505
O O3 0.580718 0.118575 0.246974
O O4 0.634675 0.189625 0.000000
O O5 0.302572 0.357695 0.500000
O O6 0.395145 0.298639 0.723255
O O7 0.313497 0.410262 0.777817
O O8 0.962121 0.875684 0.213594
O O9 0.031213 0.797307 0.000000
O O10 0.334009 0.540053 0.717876
O O11 0.175600 0.492718 0.768250
O O12 0.295712 0.497700 0.000000
O O13 0.500000 0.500000 0.731968
O O14 0.448506 0.579795 0.500000
O O15 0.500000 0.000000 0.736462
O O16 0.569895 0.043649 0.000000
#
# Coordination Sequence:
#
# PCOD8225296 Si02
#       6
#     8   8   8   8   8   8
#     4   9  20  38  58  82 109 144 190 233 275 332
#     4  11  21  35  57  81 110 149 185 223 282 340
#     4  11  22  37  58  82 111 147 191 239 281 332
#     4  10  19  33  56  83 110 144 187 230 275 331
#     4  11  22  35  54  82 114 147 183 229 287 342
#     4   8  15  32  58  84 109 137 177 226 276 325
#
# _framework density 19.006408
#
# number of rings (size 3 to 8) (size 9 to 14) (size 15 to 20)
#    0.000    2.000    1.667    4.000    0.000    2.000 
#    3.000    0.000    0.000   12.500    0.000    0.000 
#    0.000    0.000    0.000    0.000    0.000    0.000 
#
# Total GULP energy -595297.291289 kJ/mol
# GULP energy per Si atom -12402.026902 kJ/mol
# Density = 1.896315 g / cm^3
# Si number density = 19.006408 Si / 1000 Ang^3
#
#
#
# Elastic Constant Matrix: (Units=GPa)
#
#
# Indices 1 2 3 4 5 6 
#
# 1 159.9338 72.0072 24.6922 0.0000 0.0000 0.0000
# 2 72.0072 86.3690 14.7065 0.0000 0.0000 0.0000
# 3 24.6922 14.7065 34.9003 0.0000 0.0000 0.0000
# 4 0.0000 0.0000 0.0000 12.6495 0.0000 0.0000
# 5 0.0000 0.0000 0.0000 0.0000 15.1395 0.0000
# 6 0.0000 0.0000 0.0000 0.0000 0.0000 37.0984
#
#
#
# Elastic Compliance Matrix: (Units=1/GPa)
#
#
# Indices 1 2 3 4 5 6 
#
# 1 0.010512 -0.008077 -0.004034 0.000000 0.000000 0.000000
# 2 -0.008077 0.018679 -0.002157 0.000000 0.000000 0.000000
# 3 -0.004034 -0.002157 0.032416 0.000000 0.000000 0.000000
# 4 0.000000 0.000000 0.000000 0.079054 0.000000 0.000000
# 5 0.000000 0.000000 0.000000 0.000000 0.066052 0.000000
# 6 0.000000 0.000000 0.000000 0.000000 0.000000 0.026955
#
#
# Mechanical properties :
#
#
# Convention : Reuss Voigt Hill
#
# Bulk Modulus (GPa) = 30.23687 56.00165 43.11926
# Shear Modulus (GPa) = 18.29972 24.29730 21.29851
#
# Velocity S-wave (km/s) = 3.10630 3.57931 3.35116
# Velocity P-wave (km/s) = 5.36738 6.82719 6.14082
#
# Compressibility (1/GPa) = 0.03307220
#
# Stress axis : x y z
#
# Youngs Moduli (GPa) = 95.13015 53.53465 30.84925
#
# Poissons Ratio (x) = 0.43241 0.12444
# Poissons Ratio (y) = 0.76838 0.06653
# Poissons Ratio (z) = 0.38372 0.11546
#
# Static dielectric constant tensor:
#      x y z
#    x 3.786470 0.000000 0.000000 
#    y 0.000000 3.431570 0.000000 
#    z 0.000000 0.000000 3.264480 
# 
# 
# High freq. dielectric constant tensor:
#      x y z
#    x 1.751180 0.000000 0.000000 
#    y 0.000000 1.718350 0.000000 
#    z 0.000000 0.000000 1.727170 
# 
# From -- ./inp_files/5540.got.cif
#   From: 2010.03.12/outbox.cif.g09.slc.cpg/sg55_3_cif.got.tgz:5540.got - 2010.04.16 15:19:21.
