data_PCOD8225466
_publ_section_title
;
Structure prediction by ZEFSAII (Michael W. Deem and Ramdas Pophale) SiO2 
 PCOD8225466
Probable space group: P B A M
;
_chemical_formula_sum "Si O2"
_cell_formula_units_Z 64
_cell_length_a 34.637985
_cell_length_b 8.728846
_cell_length_c 10.774490
_cell_angle_alpha 90.000000
_cell_angle_beta 90.000000
_cell_angle_gamma 90.000000
_cell_volume 3257.663138
_symmetry_space_group_name_H-M "P B A M"
_symmetry_group_IT_number 55
_symmetry_cell_setting 'orthorhombic'
loop_
_space_group_symop_operation_xyz
x,y,z
-x,-y,z
1/2+x,1/2-y,-z
1/2-x,1/2+y,-z
-x,-y,-z
x,y,-z
1/2-x,1/2+y,z
1/2+x,1/2-y,z
loop_
_atom_site_type_symbol
_atom_site_label
_atom_site_fract_x
_atom_site_fract_y
_atom_site_fract_z
Si Si1 0.958948 0.945921 0.859242
Si Si2 0.141316 0.515096 0.141335
Si Si3 0.460094 0.053120 0.637870
Si Si4 0.858652 0.981976 0.361535
Si Si5 0.718524 0.849203 0.854929
Si Si6 0.591212 0.713155 0.229258
Si Si7 0.090422 0.285079 0.712455
Si Si8 0.202707 0.000372 0.852052
O O1 0.943232 0.795211 0.791715
O O2 0.926732 0.079556 0.855081
O O3 0.966190 0.897031 0.000000
O O4 0.000000 0.000000 0.800273
O O5 0.183436 0.550133 0.203006
O O6 0.116211 0.670653 0.146991
O O7 0.122338 0.368973 0.204141
O O8 0.146446 0.467496 0.000000
O O9 0.469203 0.111404 0.500000
O O10 0.444301 0.197041 0.711808
O O11 0.500000 0.000000 0.702584
O O12 0.429592 0.914414 0.629348
O O13 0.839208 0.996398 0.500000
O O14 0.888194 0.840101 0.371272
O O15 0.830639 0.949796 0.243837
O O16 0.881985 0.138723 0.336024
O O17 0.760422 0.901317 0.809193
O O18 0.712760 0.673484 0.821267
O O19 0.716391 0.875911 0.000000
O O20 0.191834 0.023665 0.000000
#
# Coordination Sequence:
#
# PCOD8225466 Si02
#       8
#     8   8   8   8   8   8   8   8
#     4  10  20  34  52  79 114 148 185 233 288 343
#     4  10  19  34  57  85 112 143 189 237 282 339
#     4  10  20  36  57  78 102 138 188 239 286 337
#     4  11  23  39  58  83 120 157 194 236 285 343
#     4   9  19  35  58  87 114 142 182 234 284 331
#     4  10  20  35  56  78 109 148 188 230 285 343
#     4  10  22  35  54  81 113 149 190 234 287 342
#     4  10  21  38  62  87 116 149 190 236 285 338
#
# _framework density 19.645983999999999
#
# number of rings (size 3 to 8) (size 9 to 14) (size 15 to 20)
#    0.000    2.000    1.250    2.250    1.750    2.500 
#    0.000    0.625    0.000   12.000    0.000    0.000 
#    0.000    0.000    0.000    0.000    0.000    0.000 
#
# Total GULP energy -793264.480515 kJ/mol
# GULP energy per Si atom -12394.757508 kJ/mol
# Density = 1.960127 g / cm^3
# Si number density = 19.645984 Si / 1000 Ang^3
#
#
#
# Elastic Constant Matrix: (Units=GPa)
#
#
# Indices 1 2 3 4 5 6 
#
# 1 88.7928 9.3954 22.6435 0.0000 0.0000 0.0000
# 2 9.3954 59.7797 7.3465 0.0000 0.0000 0.0000
# 3 22.6435 7.3465 71.5824 0.0000 0.0000 0.0000
# 4 0.0000 0.0000 0.0000 3.5502 0.0000 0.0000
# 5 0.0000 0.0000 0.0000 0.0000 21.7404 0.0000
# 6 0.0000 0.0000 0.0000 0.0000 0.0000 33.2772
#
#
#
# Elastic Compliance Matrix: (Units=1/GPa)
#
#
# Indices 1 2 3 4 5 6 
#
# 1 0.012379 -0.001483 -0.003764 0.000000 0.000000 0.000000
# 2 -0.001483 0.017119 -0.001288 0.000000 0.000000 0.000000
# 3 -0.003764 -0.001288 0.015293 0.000000 0.000000 0.000000
# 4 0.000000 0.000000 0.000000 0.281675 0.000000 0.000000
# 5 0.000000 0.000000 0.000000 0.000000 0.045997 0.000000
# 6 0.000000 0.000000 0.000000 0.000000 0.000000 0.030051
#
#
# Mechanical properties :
#
#
# Convention : Reuss Voigt Hill
#
# Bulk Modulus (GPa) = 31.52385 33.21396 32.36891
# Shear Modulus (GPa) = 11.73276 23.76485 17.74881
#
# Velocity S-wave (km/s) = 2.44644 3.48178 3.00898
# Velocity P-wave (km/s) = 4.90519 5.75384 5.34638
#
# Compressibility (1/GPa) = 0.03172201
#
# Stress axis : x y z
#
# Youngs Moduli (GPa) = 80.78279 58.41318 65.39102
#
# Poissons Ratio (x) = 0.08663 0.24610
# Poissons Ratio (y) = 0.11980 0.08421
# Poissons Ratio (z) = 0.30403 0.07523
#
# Static dielectric constant tensor:
#      x y z
#    x 3.947110 0.000000 0.000000 
#    y 0.000000 3.622190 0.000000 
#    z 0.000000 0.000000 3.207560 
# 
# 
# High freq. dielectric constant tensor:
#      x y z
#    x 1.775210 0.000000 0.000000 
#    y 0.000000 1.774650 0.000000 
#    z 0.000000 0.000000 1.733180 
# 
# From -- ./inp_files/16222.got.cif
#   From: 2010.03.12/outbox.cif.g09.slc.cpg/sg55_9_cif.got.tgz:16222.got - 2010.04.16 15:19:21.
