data_PCOD8225665
_publ_section_title
;
Structure prediction by ZEFSAII (Michael W. Deem and Ramdas Pophale) SiO2 
 PCOD8225665
Probable space group: P B A M
;
_chemical_formula_sum "Si O2"
_cell_formula_units_Z 36
_cell_length_a 15.247782
_cell_length_b 5.042981
_cell_length_c 22.882492
_cell_angle_alpha 90.000000
_cell_angle_beta 90.000000
_cell_angle_gamma 90.000000
_cell_volume 1759.532631
_symmetry_space_group_name_H-M "P B A M"
_symmetry_group_IT_number 55
_symmetry_cell_setting 'orthorhombic'
loop_
_space_group_symop_operation_xyz
x,y,z
-x,-y,z
1/2+x,1/2-y,-z
1/2-x,1/2+y,-z
-x,-y,-z
x,y,-z
1/2-x,1/2+y,z
1/2+x,1/2-y,z
loop_
_atom_site_type_symbol
_atom_site_label
_atom_site_fract_x
_atom_site_fract_y
_atom_site_fract_z
Si Si1 0.440593 0.252652 0.729019
Si Si2 0.309860 0.274040 0.625347
Si Si3 0.558200 0.742840 0.066803
Si Si4 0.808405 0.324477 0.165745
Si Si5 0.194913 0.876838 0.500000
O O1 0.500000 0.500000 0.745944
O O2 0.385272 0.324258 0.671847
O O3 0.378109 0.201187 0.783226
O O4 0.500000 0.000000 0.715719
O O5 0.230948 0.483220 0.633639
O O6 0.354804 0.307421 0.560739
O O7 0.500000 0.500000 0.090504
O O8 0.646532 0.774791 0.103445
O O9 0.500000 0.000000 0.074070
O O10 0.587047 0.693417 0.000000
O O11 0.771101 0.619782 0.171433
O O12 0.281711 0.688304 0.500000
#
# Coordination Sequence:
#
# PCOD8225665 Si02
#       5
#     8   8   8   8   4
#     4  12  24  39  57  81 113 148 184 228 282 331
#     4  10  19  36  58  82 109 143 186 226 270 327
#     4  10  21  39  61  85 116 151 182 220 276 334
#     4  12  24  39  60  85 112 146 189 234 273 320
#     4   8  16  30  54  80 106 140 178 222 270 324
#
# _framework density 20.459979000000001
#
# number of rings (size 3 to 8) (size 9 to 14) (size 15 to 20)
#    0.000    1.333    0.000    6.667    0.000    0.889 
#    0.000    1.111    0.000    0.000    0.000    0.000 
#    0.000    0.000    0.000    0.000    0.000    0.000 
#
# Total GULP energy -446487.608794 kJ/mol
# GULP energy per Si atom -12402.433578 kJ/mol
# Density = 2.041341 g / cm^3
# Si number density = 20.459979 Si / 1000 Ang^3
#
#
#
# Elastic Constant Matrix: (Units=GPa)
#
#
# Indices 1 2 3 4 5 6 
#
# 1 68.5870 3.7966 43.0214 0.0000 0.0000 0.0000
# 2 3.7966 80.9707 -2.1353 0.0000 0.0000 0.0000
# 3 43.0214 -2.1353 118.2721 0.0000 0.0000 0.0000
# 4 0.0000 0.0000 0.0000 21.2562 0.0000 0.0000
# 5 0.0000 0.0000 0.0000 0.0000 -77.8326 0.0000
# 6 0.0000 0.0000 0.0000 0.0000 0.0000 30.2935
#
#
#
# Elastic Compliance Matrix: (Units=1/GPa)
#
#
# Indices 1 2 3 4 5 6 
#
# 1 0.018983 -0.001073 -0.006924 0.000000 0.000000 0.000000
# 2 -0.001073 0.012417 0.000614 0.000000 0.000000 0.000000
# 3 -0.006924 0.000614 0.010985 0.000000 0.000000 0.000000
# 4 0.000000 0.000000 0.000000 0.047045 0.000000 0.000000
# 5 0.000000 0.000000 0.000000 0.000000 -0.012848 0.000000
# 6 0.000000 0.000000 0.000000 0.000000 0.000000 0.033010
#
#
# Mechanical properties :
#
#
# Convention : Reuss Voigt Hill
#
# Bulk Modulus (GPa) = 36.20701 39.68836 37.94768
# Shear Modulus (GPa) = 37.43549 9.61989 23.52769
#
# Velocity S-wave (km/s) = 4.28213 2.17072 3.39475
# Velocity P-wave (km/s) = 6.49491 5.07177 5.82695
#
# Compressibility (1/GPa) = 0.02761896
#
# Stress axis : x y z
#
# Youngs Moduli (GPa) = 52.67958 80.53706 91.03426
#
# Poissons Ratio (x) = 0.08639 0.63035
# Poissons Ratio (y) = 0.05651 -0.05593
# Poissons Ratio (z) = 0.36477 -0.04948
#
# Static dielectric constant tensor:
#      x y z
#    x 3.434420 0.000000 0.000000 
#    y 0.000000 3.937480 0.000000 
#    z 0.000000 0.000000 4.080730 
# 
# 
# High freq. dielectric constant tensor:
#      x y z
#    x 1.771050 0.000000 0.000000 
#    y 0.000000 1.823450 0.000000 
#    z 0.000000 0.000000 1.822230 
# 
# From -- ./inp_files/22901.got.cif
#   From: 2010.03.12/outbox.cif.g09.slc.cpg/sg55_12_cif.got.tgz:22901.got - 2010.04.16 15:19:21.
