data_PCOD8225995
_publ_section_title
;
Structure prediction by ZEFSAII (Michael W. Deem and Ramdas Pophale) SiO2 
 PCOD8225995
Probable space group: P B A M
;
_chemical_formula_sum "Si O2"
_cell_formula_units_Z 64
_cell_length_a 22.156191
_cell_length_b 15.879719
_cell_length_c 9.111721
_cell_angle_alpha 90.000000
_cell_angle_beta 90.000000
_cell_angle_gamma 90.000000
_cell_volume 3205.814041
_symmetry_space_group_name_H-M "P B A M"
_symmetry_group_IT_number 55
_symmetry_cell_setting 'orthorhombic'
loop_
_space_group_symop_operation_xyz
x,y,z
-x,-y,z
1/2+x,1/2-y,-z
1/2-x,1/2+y,-z
-x,-y,-z
x,y,-z
1/2-x,1/2+y,z
1/2+x,1/2-y,z
loop_
_atom_site_type_symbol
_atom_site_label
_atom_site_fract_x
_atom_site_fract_y
_atom_site_fract_z
Si Si1 0.662870 0.746364 0.673222
Si Si2 0.712488 0.568889 0.666658
Si Si3 0.991876 0.905466 0.665878
Si Si4 0.459688 0.243257 0.174649
Si Si5 0.352267 0.599192 0.660862
Si Si6 0.827154 0.598000 0.170387
Si Si7 0.036599 0.418234 0.174454
Si Si8 0.723291 0.280696 0.832282
O O1 0.652585 0.754900 0.500000
O O2 0.678882 0.651813 0.726627
O O3 0.604841 0.781006 0.758148
O O4 0.720010 0.800503 0.727037
O O5 0.732386 0.584080 0.500000
O O6 0.661880 0.498490 0.685082
O O7 0.774242 0.544015 0.752033
O O8 0.019202 0.901275 0.500000
O O9 0.922352 0.883491 0.664298
O O10 0.023383 0.835498 0.765821
O O11 0.000000 0.000000 0.730131
O O12 0.505634 0.169385 0.226259
O O13 0.455764 0.247478 0.000000
O O14 0.327119 0.627725 0.500000
O O15 0.324673 0.647799 0.797462
O O16 0.894226 0.578567 0.233908
O O17 0.811074 0.694438 0.203233
O O18 0.825399 0.575516 0.000000
O O19 0.000000 0.500000 0.234592
O O20 0.037459 0.420049 0.000000
O O21 0.744401 0.285288 0.000000
#
# Coordination Sequence:
#
# PCOD8225995 Si02
#       8
#     8   8   8   8   8   8   8   8
#     4  10  20  37  58  79 108 145 183 224 276 335
#     4   9  19  35  55  78 105 138 175 220 270 323
#     4  10  21  38  59  82 113 155 195 229 276 343
#     4  11  22  36  57  85 115 147 187 236 285 333
#     4  10  20  34  53  79 109 141 181 223 269 329
#     4   9  18  34  55  77 102 136 178 220 266 321
#     4   9  19  36  56  78 108 146 184 223 273 332
#     4  10  20  34  53  79 109 139 177 227 278 328
#
# _framework density 19.963728
#
# number of rings (size 3 to 8) (size 9 to 14) (size 15 to 20)
#    0.000    2.250    0.000    2.625    0.000    6.250 
#    0.000    3.750    0.000    2.625    0.000    0.000 
#    0.000    0.000    0.000    0.000    0.000    0.000 
#
# Total GULP energy -793434.630744 kJ/mol
# GULP energy per Si atom -12397.416105 kJ/mol
# Density = 1.991829 g / cm^3
# Si number density = 19.963728 Si / 1000 Ang^3
#
#
#
# Elastic Constant Matrix: (Units=GPa)
#
#
# Indices 1 2 3 4 5 6 
#
# 1 92.7589 4.4873 28.7722 0.0000 0.0000 0.0000
# 2 4.4873 54.9987 20.3475 0.0000 0.0000 0.0000
# 3 28.7722 20.3475 56.1308 0.0000 0.0000 0.0000
# 4 0.0000 0.0000 0.0000 26.2122 0.0000 0.0000
# 5 0.0000 0.0000 0.0000 0.0000 28.7358 0.0000
# 6 0.0000 0.0000 0.0000 0.0000 0.0000 26.5891
#
#
#
# Elastic Compliance Matrix: (Units=1/GPa)
#
#
# Indices 1 2 3 4 5 6 
#
# 1 0.012942 0.001615 -0.007219 0.000000 0.000000 0.000000
# 2 0.001615 0.021200 -0.008513 0.000000 0.000000 0.000000
# 3 -0.007219 -0.008513 0.024602 0.000000 0.000000 0.000000
# 4 0.000000 0.000000 0.000000 0.038150 0.000000 0.000000
# 5 0.000000 0.000000 0.000000 0.000000 0.034800 0.000000
# 6 0.000000 0.000000 0.000000 0.000000 0.000000 0.037609
#
#
# Mechanical properties :
#
#
# Convention : Reuss Voigt Hill
#
# Bulk Modulus (GPa) = 32.77676 34.56693 33.67185
# Shear Modulus (GPa) = 24.07235 26.32618 25.19927
#
# Velocity S-wave (km/s) = 3.47624 3.63533 3.55667
# Velocity P-wave (km/s) = 5.70667 5.91382 5.81117
#
# Compressibility (1/GPa) = 0.03050942
#
# Stress axis : x y z
#
# Youngs Moduli (GPa) = 77.26888 47.17008 40.64711
#
# Poissons Ratio (x) = -0.07618 0.29344
# Poissons Ratio (y) = -0.12479 0.34602
# Poissons Ratio (z) = 0.55783 0.40155
#
# Static dielectric constant tensor:
#      x y z
#    x 3.832960 0.000000 0.000000 
#    y 0.000000 3.548970 0.000000 
#    z 0.000000 0.000000 3.499330 
# 
# 
# High freq. dielectric constant tensor:
#      x y z
#    x 1.791750 0.000000 0.000000 
#    y 0.000000 1.769500 0.000000 
#    z 0.000000 0.000000 1.760320 
# 
# From -- ./inp_files/8027.got.cif
#   From: 2010.03.12/outbox.cif.g09.slc.cpg/sg55_5_cif.got.tgz:8027.got - 2010.04.16 15:19:21.
