data_PCOD8225473
_publ_section_title
;
Structure prediction by ZEFSAII (Michael W. Deem and Ramdas Pophale) SiO2 
 PCOD8225473
Probable space group: P B A M
;
_chemical_formula_sum "Si O2"
_cell_formula_units_Z 64
_cell_length_a 28.986440
_cell_length_b 11.940916
_cell_length_c 9.128100
_cell_angle_alpha 90.000000
_cell_angle_beta 90.000000
_cell_angle_gamma 90.000000
_cell_volume 3159.460374
_symmetry_space_group_name_H-M "P B A M"
_symmetry_group_IT_number 55
_symmetry_cell_setting 'orthorhombic'
loop_
_space_group_symop_operation_xyz
x,y,z
-x,-y,z
1/2+x,1/2-y,-z
1/2-x,1/2+y,-z
-x,-y,-z
x,y,-z
1/2-x,1/2+y,z
1/2+x,1/2-y,z
loop_
_atom_site_type_symbol
_atom_site_label
_atom_site_fract_x
_atom_site_fract_y
_atom_site_fract_z
Si Si1 0.717711 0.460957 0.831544
Si Si2 0.523962 0.748674 0.830822
Si Si3 0.182590 0.459629 0.834371
Si Si4 0.665717 0.262249 0.673903
Si Si5 0.437098 0.452074 0.337404
Si Si6 0.838449 0.134509 0.333535
Si Si7 0.437755 0.708023 0.332609
Si Si8 0.879978 0.339326 0.169070
O O1 0.772966 0.460495 0.816836
O O2 0.697952 0.356181 0.743785
O O3 0.701073 0.578870 0.764360
O O4 0.701830 0.452844 0.000000
O O5 0.540591 0.625116 0.785367
O O6 0.476507 0.782468 0.749205
O O7 0.565313 0.835259 0.792697
O O8 0.511992 0.747731 0.000000
O O9 0.184790 0.358458 0.720353
O O10 0.137695 0.535418 0.800831
O O11 0.180443 0.411465 0.000000
O O12 0.668057 0.276639 0.500000
O O13 0.613202 0.272838 0.733214
O O14 0.452503 0.410469 0.500000
O O15 0.381757 0.449779 0.327438
O O16 0.453101 0.578966 0.312553
O O17 0.820887 0.149749 0.500000
O O18 0.851595 0.255343 0.271056
O O19 0.437572 0.745771 0.500000
O O20 0.872222 0.303902 0.000000
#
# Coordination Sequence:
#
# PCOD8225473 Si02
#       8
#     8   8   8   8   8   8   8   8
#     4  11  23  39  62  89 120 156 196 240 299 367
#     4  10  20  32  53  86 116 150 200 250 294 347
#     4  10  24  44  64  85 116 160 202 242 298 361
#     4  11  24  43  64  90 122 154 200 254 299 350
#     4   9  17  32  51  75 115 158 190 231 294 355
#     4  10  19  34  57  87 119 154 196 241 293 349
#     4  10  20  36  55  79 117 160 194 239 303 359
#     4   9  20  40  60  83 120 159 200 249 297 355
#
# _framework density 20.256625
#
# number of rings (size 3 to 8) (size 9 to 14) (size 15 to 20)
#    0.000    2.000    1.250    1.875    1.750    5.500 
#    0.000    0.625    0.000    3.750    0.000    0.000 
#    0.000    0.000    0.000    0.000    0.000    0.000 
#
# Total GULP energy -793697.726256 kJ/mol
# GULP energy per Si atom -12401.526973 kJ/mol
# Density = 2.021052 g / cm^3
# Si number density = 20.256625 Si / 1000 Ang^3
#
#
#
# Elastic Constant Matrix: (Units=GPa)
#
#
# Indices 1 2 3 4 5 6 
#
# 1 95.6216 27.8216 39.7734 0.0000 0.0000 0.0000
# 2 27.8216 66.5778 37.6127 0.0000 0.0000 0.0000
# 3 39.7734 37.6127 93.1907 0.0000 0.0000 0.0000
# 4 0.0000 0.0000 0.0000 26.4674 0.0000 0.0000
# 5 0.0000 0.0000 0.0000 0.0000 32.9391 0.0000
# 6 0.0000 0.0000 0.0000 0.0000 0.0000 17.9865
#
#
#
# Elastic Compliance Matrix: (Units=1/GPa)
#
#
# Indices 1 2 3 4 5 6 
#
# 1 0.013166 -0.003015 -0.004403 0.000000 0.000000 0.000000
# 2 -0.003015 0.020147 -0.006845 0.000000 0.000000 0.000000
# 3 -0.004403 -0.006845 0.015372 0.000000 0.000000 0.000000
# 4 0.000000 0.000000 0.000000 0.037782 0.000000 0.000000
# 5 0.000000 0.000000 0.000000 0.000000 0.030359 0.000000
# 6 0.000000 0.000000 0.000000 0.000000 0.000000 0.055597
#
#
# Mechanical properties :
#
#
# Convention : Reuss Voigt Hill
#
# Bulk Modulus (GPa) = 49.60017 51.75618 50.67817
# Shear Modulus (GPa) = 24.07687 25.49076 24.78381
#
# Velocity S-wave (km/s) = 3.45134 3.55123 3.50164
# Velocity P-wave (km/s) = 6.35778 6.51312 6.43592
#
# Compressibility (1/GPa) = 0.02016122
#
# Stress axis : x y z
#
# Youngs Moduli (GPa) = 75.95173 49.63589 65.05225
#
# Poissons Ratio (x) = 0.14964 0.28639
# Poissons Ratio (y) = 0.22898 0.44526
# Poissons Ratio (z) = 0.33438 0.33974
#
# Static dielectric constant tensor:
#      x y z
#    x 3.884850 0.000000 0.000000 
#    y 0.000000 3.298510 0.000000 
#    z 0.000000 0.000000 3.699270 
# 
# 
# High freq. dielectric constant tensor:
#      x y z
#    x 1.804140 0.000000 0.000000 
#    y 0.000000 1.762310 0.000000 
#    z 0.000000 0.000000 1.791490 
# 
# From -- ./inp_files/10828.got.cif
#   From: 2010.03.12/outbox.cif.g09.slc.cpg/sg55_6_cif.got.tgz:10828.got - 2010.04.16 15:19:21.
