data_PCOD8225883
_publ_section_title
;
Structure prediction by ZEFSAII (Michael W. Deem and Ramdas Pophale) SiO2 
 PCOD8225883
Probable space group: P B A M
;
_chemical_formula_sum "Si O2"
_cell_formula_units_Z 40
_cell_length_a 9.372859
_cell_length_b 12.600961
_cell_length_c 16.707030
_cell_angle_alpha 90.000000
_cell_angle_beta 90.000000
_cell_angle_gamma 90.000000
_cell_volume 1973.217705
_symmetry_space_group_name_H-M "P B A M"
_symmetry_group_IT_number 55
_symmetry_cell_setting 'orthorhombic'
loop_
_space_group_symop_operation_xyz
x,y,z
-x,-y,z
1/2+x,1/2-y,-z
1/2-x,1/2+y,-z
-x,-y,-z
x,y,-z
1/2-x,1/2+y,z
1/2+x,1/2-y,z
loop_
_atom_site_type_symbol
_atom_site_label
_atom_site_fract_x
_atom_site_fract_y
_atom_site_fract_z
Si Si1 0.747565 0.653757 0.668974
Si Si2 0.485203 0.377063 0.905831
Si Si3 0.465306 0.207633 0.592804
Si Si4 0.645580 0.944709 0.718722
Si Si5 0.749002 0.270095 0.173144
O O1 0.590606 0.683022 0.634617
O O2 0.734782 0.531613 0.696247
O O3 0.807261 0.718838 0.745081
O O4 0.867924 0.681018 0.602696
O O5 0.500000 0.500000 0.875060
O O6 0.349409 0.317294 0.868431
O O7 0.622096 0.305286 0.885042
O O8 0.463916 0.377990 0.000000
O O9 0.426956 0.208470 0.500000
O O10 0.367832 0.120943 0.636833
O O11 0.674716 0.878366 0.799035
O O12 0.500000 0.000000 0.741488
#
# Coordination Sequence:
#
# PCOD8225883 Si02
#       5
#     8   8   8   8   8
#     4  10  20  35  55  79 106 144 191 235 284 339
#     4  11  24  40  61  90 121 154 191 239 301 358
#     4  10  20  33  51  77 109 144 183 231 285 339
#     4   9  19  34  56  82 106 146 199 239 284 340
#     4  11  21  39  62  83 116 152 194 243 289 355
#
# _framework density 20.271459
#
# number of rings (size 3 to 8) (size 9 to 14) (size 15 to 20)
#    0.000    1.800    0.000    6.000    0.000    4.400 
#    0.000    3.000    0.000   12.000    0.000    0.000 
#    0.000    0.000    0.000    0.000    0.000    0.000 
#
# Total GULP energy -495635.988238 kJ/mol
# GULP energy per Si atom -12390.899706 kJ/mol
# Density = 2.022532 g / cm^3
# Si number density = 20.271459 Si / 1000 Ang^3
#
#
#
# Elastic Constant Matrix: (Units=GPa)
#
#
# Indices 1 2 3 4 5 6 
#
# 1 62.8830 33.8677 19.0888 0.0000 0.0000 0.0000
# 2 33.8677 107.1696 25.2643 0.0000 0.0000 0.0000
# 3 19.0888 25.2643 78.5596 0.0000 0.0000 0.0000
# 4 0.0000 0.0000 0.0000 21.1090 0.0000 0.0000
# 5 0.0000 0.0000 0.0000 0.0000 31.3115 0.0000
# 6 0.0000 0.0000 0.0000 0.0000 0.0000 36.6941
#
#
#
# Elastic Compliance Matrix: (Units=1/GPa)
#
#
# Indices 1 2 3 4 5 6 
#
# 1 0.019809 -0.005546 -0.003030 0.000000 0.000000 0.000000
# 2 -0.005546 0.011649 -0.002399 0.000000 0.000000 0.000000
# 3 -0.003030 -0.002399 0.014237 0.000000 0.000000 0.000000
# 4 0.000000 0.000000 0.000000 0.047373 0.000000 0.000000
# 5 0.000000 0.000000 0.000000 0.000000 0.031937 0.000000
# 6 0.000000 0.000000 0.000000 0.000000 0.000000 0.027252
#
#
# Mechanical properties :
#
#
# Convention : Reuss Voigt Hill
#
# Bulk Modulus (GPa) = 42.11181 45.00597 43.55889
# Shear Modulus (GPa) = 27.45413 29.18233 28.31823
#
# Velocity S-wave (km/s) = 3.68411 3.79829 3.74164
# Velocity P-wave (km/s) = 6.23826 6.44095 6.34042
#
# Compressibility (1/GPa) = 0.02374631
#
# Stress axis : x y z
#
# Youngs Moduli (GPa) = 50.48163 85.84377 70.24046
#
# Poissons Ratio (x) = 0.47607 0.21282
# Poissons Ratio (y) = 0.27996 0.16849
# Poissons Ratio (z) = 0.15295 0.20591
#
# Static dielectric constant tensor:
#      x y z
#    x 3.603510 0.000000 0.000000 
#    y 0.000000 4.400430 0.000000 
#    z 0.000000 0.000000 3.521610 
# 
# 
# High freq. dielectric constant tensor:
#      x y z
#    x 1.780750 0.000000 0.000000 
#    y 0.000000 1.805700 0.000000 
#    z 0.000000 0.000000 1.788410 
# 
# From -- ./inp_files/18153.got.cif
#   From: 2010.03.12/outbox.cif.g09.slc.cpg/sg55_10_cif.got.tgz:18153.got - 2010.04.16 15:19:21.
