data_PCOD8225116
_publ_section_title
;
Structure prediction by ZEFSAII (Michael W. Deem and Ramdas Pophale) SiO2 
 PCOD8225116
Probable space group: P B A M
;
_chemical_formula_sum "Si O2"
_cell_formula_units_Z 64
_cell_length_a 19.541168
_cell_length_b 20.217771
_cell_length_c 9.020717
_cell_angle_alpha 90.000000
_cell_angle_beta 90.000000
_cell_angle_gamma 90.000000
_cell_volume 3563.894586
_symmetry_space_group_name_H-M "P B A M"
_symmetry_group_IT_number 55
_symmetry_cell_setting 'orthorhombic'
loop_
_space_group_symop_operation_xyz
x,y,z
-x,-y,z
1/2+x,1/2-y,-z
1/2-x,1/2+y,-z
-x,-y,-z
x,y,-z
1/2-x,1/2+y,z
1/2+x,1/2-y,z
loop_
_atom_site_type_symbol
_atom_site_label
_atom_site_fract_x
_atom_site_fract_y
_atom_site_fract_z
Si Si1 0.939465 0.227368 0.829201
Si Si2 0.299362 0.083339 0.671214
Si Si3 0.433575 0.117645 0.171313
Si Si4 0.214279 0.433459 0.330318
Si Si5 0.429768 0.881271 0.328902
Si Si6 0.211612 0.194468 0.823788
Si Si7 0.575991 0.273424 0.328916
Si Si8 0.293821 0.322212 0.174992
O O1 0.924452 0.304387 0.803893
O O2 0.872311 0.188104 0.775971
O O3 0.002749 0.202027 0.731279
O O4 0.957088 0.213447 0.000000
O O5 0.300344 0.105678 0.500000
O O6 0.376322 0.081080 0.732696
O O7 0.253794 0.132093 0.767344
O O8 0.267604 0.010287 0.688258
O O9 0.507307 0.093609 0.229515
O O10 0.425840 0.098075 0.000000
O O11 0.218796 0.410118 0.500000
O O12 0.137211 0.420004 0.273255
O O13 0.269098 0.391685 0.238984
O O14 0.447156 0.895808 0.500000
O O15 0.416073 0.804233 0.301380
O O16 0.135327 0.189316 0.760205
O O17 0.247472 0.261651 0.765443
O O18 0.209645 0.191929 0.000000
O O19 0.581952 0.292906 0.500000
O O20 0.288185 0.324607 0.000000
#
# Coordination Sequence:
#
# PCOD8225116 Si02
#       8
#     8   8   8   8   8   8   8   8
#     4   9  18  34  53  79 111 141 176 222 271 321
#     4  11  23  37  54  77 109 148 185 224 271 322
#     4  10  19  33  52  76 109 145 184 225 265 317
#     4  10  22  38  54  77 110 146 183 225 272 321
#     4   9  18  33  51  75 108 145 184 221 263 320
#     4  11  21  36  57  82 110 143 181 226 273 319
#     4  10  19  32  54  84 110 140 180 222 270 322
#     4  10  20  35  57  82 107 140 181 224 272 321
#
# _framework density 17.957882000000001
#
# number of rings (size 3 to 8) (size 9 to 14) (size 15 to 20)
#    0.000    2.000    2.500    1.500    0.000    4.000 
#    0.000    2.500    0.000    0.750    0.000    5.250 
#    0.000    0.000    0.000    0.000    0.000    0.000 
#
# Total GULP energy -793845.095032 kJ/mol
# GULP energy per Si atom -12403.829610 kJ/mol
# Density = 1.791701 g / cm^3
# Si number density = 17.957882 Si / 1000 Ang^3
#
#
#
# Elastic Constant Matrix: (Units=GPa)
#
#
# Indices 1 2 3 4 5 6 
#
# 1 110.2092 34.2430 47.4269 0.0000 0.0000 0.0000
# 2 34.2430 49.5595 24.5101 0.0000 0.0000 0.0000
# 3 47.4269 24.5101 73.9465 0.0000 0.0000 0.0000
# 4 0.0000 0.0000 0.0000 24.8476 0.0000 0.0000
# 5 0.0000 0.0000 0.0000 0.0000 36.0572 0.0000
# 6 0.0000 0.0000 0.0000 0.0000 0.0000 23.3337
#
#
#
# Elastic Compliance Matrix: (Units=1/GPa)
#
#
# Indices 1 2 3 4 5 6 
#
# 1 0.013984 -0.006251 -0.006897 0.000000 0.000000 0.000000
# 2 -0.006251 0.026928 -0.004916 0.000000 0.000000 0.000000
# 3 -0.006897 -0.004916 0.019576 0.000000 0.000000 0.000000
# 4 0.000000 0.000000 0.000000 0.040245 0.000000 0.000000
# 5 0.000000 0.000000 0.000000 0.000000 0.027734 0.000000
# 6 0.000000 0.000000 0.000000 0.000000 0.000000 0.042856
#
#
# Mechanical properties :
#
#
# Convention : Reuss Voigt Hill
#
# Bulk Modulus (GPa) = 41.05108 49.56391 45.30749
# Shear Modulus (GPa) = 23.19402 25.35003 24.27203
#
# Velocity S-wave (km/s) = 3.59775 3.76125 3.68041
# Velocity P-wave (km/s) = 6.33780 6.82076 6.58371
#
# Compressibility (1/GPa) = 0.02435989
#
# Stress axis : x y z
#
# Youngs Moduli (GPa) = 71.51071 37.13550 51.08236
#
# Poissons Ratio (x) = 0.23214 0.35231
# Poissons Ratio (y) = 0.44703 0.25113
# Poissons Ratio (z) = 0.49320 0.18257
#
# Static dielectric constant tensor:
#      x y z
#    x 3.390210 0.000000 0.000000 
#    y 0.000000 3.048700 0.000000 
#    z 0.000000 0.000000 3.322430 
# 
# 
# High freq. dielectric constant tensor:
#      x y z
#    x 1.699960 0.000000 0.000000 
#    y 0.000000 1.666500 0.000000 
#    z 0.000000 0.000000 1.700100 
# 
# From -- ./inp_files/7991.got.cif
#   From: 2010.03.12/outbox.cif.g09.slc.cpg/sg55_4_cif.got.tgz:7991.got - 2010.04.16 15:19:21.
