data_PCOD8225626
_publ_section_title
;
Structure prediction by ZEFSAII (Michael W. Deem and Ramdas Pophale) SiO2 
 PCOD8225626
Probable space group: P B A M
;
_chemical_formula_sum "Si O2"
_cell_formula_units_Z 24
_cell_length_a 5.127554
_cell_length_b 19.844475
_cell_length_c 11.730355
_cell_angle_alpha 90.000000
_cell_angle_beta 90.000000
_cell_angle_gamma 90.000000
_cell_volume 1193.606052
_symmetry_space_group_name_H-M "P B A M"
_symmetry_group_IT_number 55
_symmetry_cell_setting 'orthorhombic'
loop_
_space_group_symop_operation_xyz
x,y,z
-x,-y,z
1/2+x,1/2-y,-z
1/2-x,1/2+y,-z
-x,-y,-z
x,y,-z
1/2-x,1/2+y,z
1/2+x,1/2-y,z
loop_
_atom_site_type_symbol
_atom_site_label
_atom_site_fract_x
_atom_site_fract_y
_atom_site_fract_z
Si Si1 0.264865 0.130440 0.233443
Si Si2 0.000000 0.500000 0.703949
Si Si3 0.299627 0.706328 0.000000
Si Si4 0.244894 0.372208 0.628897
O O1 0.319775 0.049884 0.219443
O O2 0.507027 0.164235 0.303031
O O3 0.008480 0.145186 0.305970
O O4 0.243708 0.160431 0.109137
O O5 0.188687 0.453072 0.626516
O O6 0.594694 0.732794 0.000000
O O7 0.263093 0.345152 0.500000
#
# Coordination Sequence:
#
# PCOD8225626 Si02
#       4
#     8   4   4   8
#     4  10  22  37  60  93 118 160 198 245 298 355
#     4   8  21  33  60 100 124 155 185 236 304 370
#     4  12  26  47  67  77 111 166 218 260 292 346
#     4  10  19  35  60  96 131 154 182 229 304 375
#
# _framework density 20.107135
#
# number of rings (size 3 to 8) (size 9 to 14) (size 15 to 20)
#    2.000    0.000    0.000    4.500    0.000    2.000 
#    0.000    1.667    0.000   20.000    0.000    0.000 
#    0.000    0.000    0.000    0.000    0.000    0.000 
#
# Total GULP energy -297336.890833 kJ/mol
# GULP energy per Si atom -12389.037118 kJ/mol
# Density = 2.006137 g / cm^3
# Si number density = 20.107135 Si / 1000 Ang^3
#
#
#
# Elastic Constant Matrix: (Units=GPa)
#
#
# Indices 1 2 3 4 5 6 
#
# 1 161.0388 9.6319 69.6101 0.0000 0.0000 0.0000
# 2 9.6319 17.2473 34.2753 0.0000 0.0000 0.0000
# 3 69.6101 34.2753 189.2763 0.0000 0.0000 0.0000
# 4 0.0000 0.0000 0.0000 -9.2431 0.0000 0.0000
# 5 0.0000 0.0000 0.0000 0.0000 40.1280 0.0000
# 6 0.0000 0.0000 0.0000 0.0000 0.0000 11.3670
#
#
#
# Elastic Compliance Matrix: (Units=1/GPa)
#
#
# Indices 1 2 3 4 5 6 
#
# 1 0.007427 0.002000 -0.003094 0.000000 0.000000 0.000000
# 2 0.002000 0.091115 -0.017235 0.000000 0.000000 0.000000
# 3 -0.003094 -0.017235 0.009542 0.000000 0.000000 0.000000
# 4 0.000000 0.000000 0.000000 -0.108188 0.000000 0.000000
# 5 0.000000 0.000000 0.000000 0.000000 0.024920 0.000000
# 6 0.000000 0.000000 0.000000 0.000000 0.000000 0.087974
#
#
# Mechanical properties :
#
#
# Convention : Reuss Voigt Hill
#
# Bulk Modulus (GPa) = 14.00036 66.06636 40.03336
# Shear Modulus (GPa) = 28.85899 25.38670 27.12284
#
# Velocity S-wave (km/s) = 3.79259 3.55712 3.67674
# Velocity P-wave (km/s) = 5.11433 7.05686 6.16262
#
# Compressibility (1/GPa) = 0.07142673
#
# Stress axis : x y z
#
# Youngs Moduli (GPa) = 134.63748 10.97519 104.79807
#
# Poissons Ratio (x) = -0.02195 0.32422
# Poissons Ratio (y) = -0.26933 1.80622
# Poissons Ratio (z) = 0.41654 0.18916
#
# Static dielectric constant tensor:
#      x y z
#    x 3.796940 0.000000 0.000000 
#    y 0.000000 3.331770 0.000000 
#    z 0.000000 0.000000 3.435980 
# 
# 
# High freq. dielectric constant tensor:
#      x y z
#    x 1.800690 0.000000 0.000000 
#    y 0.000000 1.757200 0.000000 
#    z 0.000000 0.000000 1.775140 
# 
# From -- ./inp_files/11035.got.cif
#   From: 2010.03.12/outbox.cif.g09.slc.cpg/sg55_6_cif.got.tgz:11035.got - 2010.04.16 15:19:21.
