data_PCOD8225903
_publ_section_title
;
Structure prediction by ZEFSAII (Michael W. Deem and Ramdas Pophale) SiO2 
 PCOD8225903
Probable space group: P B A M
;
_chemical_formula_sum "Si O2"
_cell_formula_units_Z 48
_cell_length_a 12.099333
_cell_length_b 23.899452
_cell_length_c 8.822839
_cell_angle_alpha 90.000000
_cell_angle_beta 90.000000
_cell_angle_gamma 90.000000
_cell_volume 2551.277664
_symmetry_space_group_name_H-M "P B A M"
_symmetry_group_IT_number 55
_symmetry_cell_setting 'orthorhombic'
loop_
_space_group_symop_operation_xyz
x,y,z
-x,-y,z
1/2+x,1/2-y,-z
1/2-x,1/2+y,-z
-x,-y,-z
x,y,-z
1/2-x,1/2+y,z
1/2+x,1/2-y,z
loop_
_atom_site_type_symbol
_atom_site_label
_atom_site_fract_x
_atom_site_fract_y
_atom_site_fract_z
Si Si1 0.482559 0.384757 0.678755
Si Si2 0.096423 0.664141 0.820038
Si Si3 0.144515 0.359317 0.178144
Si Si4 0.800410 0.043958 0.178214
Si Si5 0.291019 0.584112 0.178176
Si Si6 0.848328 0.212692 0.178773
O O1 0.474555 0.385200 0.500000
O O2 0.413697 0.437353 0.742495
O O3 0.608217 0.390343 0.729907
O O4 0.437990 0.326092 0.740645
O O5 0.181650 0.616608 0.767715
O O6 0.137321 0.724391 0.760336
O O7 0.976118 0.650110 0.748022
O O8 0.089124 0.666030 0.000000
O O9 0.199388 0.417161 0.236909
O O10 0.224536 0.307538 0.220666
O O11 0.128744 0.363485 0.000000
O O12 0.772529 0.980558 0.220788
O O13 0.818679 0.052396 0.000000
O O14 0.313522 0.591915 0.000000
O O15 0.869227 0.207864 0.000000
#
# Coordination Sequence:
#
# PCOD8225903 Si02
#       6
#     8   8   8   8   8   8
#     4  11  22  35  53  77 105 142 181 221 265 310
#     4   9  18  30  52  83 108 136 174 216 262 314
#     4   8  15  29  49  77 107 135 168 209 261 311
#     4   9  18  34  55  78 108 140 173 219 266 313
#     4  10  20  33  53  82 109 137 175 218 266 313
#     4   9  18  33  55  78 104 136 174 221 264 311
#
# _framework density 18.814102999999999
#
# number of rings (size 3 to 8) (size 9 to 14) (size 15 to 20)
#    0.000    2.667    0.000    3.000    2.333    3.333 
#    0.000    4.167    0.000    4.000    0.000    5.833 
#    0.000    0.000    0.000    0.000    0.000    0.000 
#
# Total GULP energy -595160.850487 kJ/mol
# GULP energy per Si atom -12399.184385 kJ/mol
# Density = 1.877128 g / cm^3
# Si number density = 18.814103 Si / 1000 Ang^3
#
#
#
# Elastic Constant Matrix: (Units=GPa)
#
#
# Indices 1 2 3 4 5 6 
#
# 1 166.1271 70.1944 27.9522 0.0000 0.0000 0.0000
# 2 70.1944 103.3411 18.3782 0.0000 0.0000 0.0000
# 3 27.9522 18.3782 36.6998 0.0000 0.0000 0.0000
# 4 0.0000 0.0000 0.0000 5.4068 0.0000 0.0000
# 5 0.0000 0.0000 0.0000 0.0000 1.4166 0.0000
# 6 0.0000 0.0000 0.0000 0.0000 0.0000 23.3843
#
#
#
# Elastic Compliance Matrix: (Units=1/GPa)
#
#
# Indices 1 2 3 4 5 6 
#
# 1 0.008986 -0.005364 -0.004158 0.000000 0.000000 0.000000
# 2 -0.005364 0.013825 -0.002838 0.000000 0.000000 0.000000
# 3 -0.004158 -0.002838 0.031836 0.000000 0.000000 0.000000
# 4 0.000000 0.000000 0.000000 0.184951 0.000000 0.000000
# 5 0.000000 0.000000 0.000000 0.000000 0.705903 0.000000
# 6 0.000000 0.000000 0.000000 0.000000 0.000000 0.042764
#
#
# Mechanical properties :
#
#
# Convention : Reuss Voigt Hill
#
# Bulk Modulus (GPa) = 33.41398 59.91304 46.66351
# Shear Modulus (GPa) = 4.88778 18.68443 11.78611
#
# Velocity S-wave (km/s) = 1.61356 3.15478 2.50562
# Velocity P-wave (km/s) = 4.61195 6.72191 5.76429
#
# Compressibility (1/GPa) = 0.02992759
#
# Stress axis : x y z
#
# Youngs Moduli (GPa) = 111.29016 72.33364 31.41127
#
# Poissons Ratio (x) = 0.38800 0.13060
# Poissons Ratio (y) = 0.59696 0.08913
# Poissons Ratio (z) = 0.46270 0.20525
#
# Static dielectric constant tensor:
#      x y z
#    x 3.722470 0.000000 0.000000 
#    y 0.000000 3.758030 0.000000 
#    z 0.000000 0.000000 2.975950 
# 
# 
# High freq. dielectric constant tensor:
#      x y z
#    x 1.737040 0.000000 0.000000 
#    y 0.000000 1.740510 0.000000 
#    z 0.000000 0.000000 1.681220 
# 
# From -- ./inp_files/4051.got.cif
#   From: 2010.03.12/outbox.cif.g09.slc.cpg/sg55_3_cif.got.tgz:4051.got - 2010.04.16 15:19:21.
