data_PCOD8225721
_publ_section_title
;
Structure prediction by ZEFSAII (Michael W. Deem and Ramdas Pophale) SiO2 
 PCOD8225721
Probable space group: P B A M
;
_chemical_formula_sum "Si O2"
_cell_formula_units_Z 64
_cell_length_a 11.071185
_cell_length_b 32.717950
_cell_length_c 8.822973
_cell_angle_alpha 90.000000
_cell_angle_beta 90.000000
_cell_angle_gamma 90.000000
_cell_volume 3195.914429
_symmetry_space_group_name_H-M "P B A M"
_symmetry_group_IT_number 55
_symmetry_cell_setting 'orthorhombic'
loop_
_space_group_symop_operation_xyz
x,y,z
-x,-y,z
1/2+x,1/2-y,-z
1/2-x,1/2+y,-z
-x,-y,-z
x,y,-z
1/2-x,1/2+y,z
1/2+x,1/2-y,z
loop_
_atom_site_type_symbol
_atom_site_label
_atom_site_fract_x
_atom_site_fract_y
_atom_site_fract_z
Si Si1 0.346664 0.345360 0.674296
Si Si2 0.764073 0.726529 0.173245
Si Si3 0.654859 0.099018 0.827576
Si Si4 0.630317 0.014486 0.322168
Si Si5 0.763505 0.310647 0.323673
Si Si6 0.893844 0.883266 0.325902
Si Si7 0.001279 0.673862 0.167897
Si Si8 0.881638 0.974765 0.318869
O O1 0.303926 0.348561 0.500000
O O2 0.336706 0.298339 0.730600
O O3 0.269237 0.374336 0.781459
O O4 0.481220 0.360383 0.695495
O O5 0.787331 0.771418 0.237446
O O6 0.887956 0.702733 0.190882
O O7 0.720197 0.728977 0.000000
O O8 0.642557 0.061931 0.713039
O O9 0.535318 0.126595 0.813022
O O10 0.672311 0.083645 0.000000
O O11 0.626909 0.007179 0.500000
O O12 0.500000 0.000000 0.252377
O O13 0.752042 0.992231 0.258031
O O14 0.732933 0.305739 0.500000
O O15 0.704766 0.352235 0.255473
O O16 0.905954 0.313988 0.297917
O O17 0.861577 0.890342 0.500000
O O18 0.892620 0.928542 0.252137
O O19 0.056863 0.680811 0.000000
O O20 0.883864 0.976152 0.500000
O O21 0.000000 0.000000 0.259278
#
# Coordination Sequence:
#
# PCOD8225721 Si02
#       8
#     8   8   8   8   8   8   8   8
#     4  10  19  36  62  89 113 145 194 242 285 339
#     4  10  22  40  59  82 115 154 194 235 288 350
#     4  10  21  38  59  83 116 155 193 234 293 352
#     4  10  21  34  57  89 115 148 199 248 291 348
#     4  11  23  36  57  86 117 150 190 244 294 340
#     4   9  20  35  55  87 120 147 184 238 296 346
#     4   9  21  40  58  79 110 152 194 233 283 348
#     4   9  17  33  57  84 117 153 186 233 299 358
#
# _framework density 20.025566999999999
#
# number of rings (size 3 to 8) (size 9 to 14) (size 15 to 20)
#    0.000    2.250    0.000    3.000    3.500    5.250 
#    0.000    1.875    0.000    4.125    0.000    0.000 
#    0.000    0.000    0.000    0.000    0.000    0.000 
#
# Total GULP energy -793337.926672 kJ/mol
# GULP energy per Si atom -12395.905104 kJ/mol
# Density = 1.997999 g / cm^3
# Si number density = 20.025567 Si / 1000 Ang^3
#
#
#
# Elastic Constant Matrix: (Units=GPa)
#
#
# Indices 1 2 3 4 5 6 
#
# 1 92.1811 58.6527 24.8135 0.0000 0.0000 0.0000
# 2 58.6527 158.6553 21.5847 0.0000 0.0000 0.0000
# 3 24.8135 21.5847 35.8910 0.0000 0.0000 0.0000
# 4 0.0000 0.0000 0.0000 20.7232 0.0000 0.0000
# 5 0.0000 0.0000 0.0000 0.0000 14.7487 0.0000
# 6 0.0000 0.0000 0.0000 0.0000 0.0000 22.3170
#
#
#
# Elastic Compliance Matrix: (Units=1/GPa)
#
#
# Indices 1 2 3 4 5 6 
#
# 1 0.016155 -0.004850 -0.008253 0.000000 0.000000 0.000000
# 2 -0.004850 0.008320 -0.001651 0.000000 0.000000 0.000000
# 3 -0.008253 -0.001651 0.034560 0.000000 0.000000 0.000000
# 4 0.000000 0.000000 0.000000 0.048255 0.000000 0.000000
# 5 0.000000 0.000000 0.000000 0.000000 0.067802 0.000000
# 6 0.000000 0.000000 0.000000 0.000000 0.000000 0.044809
#
#
# Mechanical properties :
#
#
# Convention : Reuss Voigt Hill
#
# Bulk Modulus (GPa) = 33.86409 55.20326 44.53368
# Shear Modulus (GPa) = 19.28621 23.66955 21.47788
#
# Velocity S-wave (km/s) = 3.10672 3.44170 3.27849
# Velocity P-wave (km/s) = 5.46041 6.58939 6.05128
#
# Compressibility (1/GPa) = 0.02952981
#
# Stress axis : x y z
#
# Youngs Moduli (GPa) = 61.89890 120.18574 28.93480
#
# Poissons Ratio (x) = 0.58286 0.23879
# Poissons Ratio (y) = 0.30019 0.04777
# Poissons Ratio (z) = 0.51082 0.19843
#
# Static dielectric constant tensor:
#      x y z
#    x 3.706150 0.000000 0.000000 
#    y 0.000000 3.909890 0.000000 
#    z 0.000000 0.000000 3.419460 
# 
# 
# High freq. dielectric constant tensor:
#      x y z
#    x 1.782990 0.000000 0.000000 
#    y 0.000000 1.795170 0.000000 
#    z 0.000000 0.000000 1.752290 
# 
# From -- ./inp_files/4693.got.cif
#   From: 2010.03.12/outbox.cif.g09.slc.cpg/sg55_3_cif.got.tgz:4693.got - 2010.04.16 15:19:21.
