data_PCOD8225475
_publ_section_title
;
Structure prediction by ZEFSAII (Michael W. Deem and Ramdas Pophale) SiO2 
 PCOD8225475
Probable space group: P B A M
;
_chemical_formula_sum "Si O2"
_cell_formula_units_Z 56
_cell_length_a 20.949056
_cell_length_b 14.940967
_cell_length_c 9.111753
_cell_angle_alpha 90.000000
_cell_angle_beta 90.000000
_cell_angle_gamma 90.000000
_cell_volume 2851.970984
_symmetry_space_group_name_H-M "P B A M"
_symmetry_group_IT_number 55
_symmetry_cell_setting 'orthorhombic'
loop_
_space_group_symop_operation_xyz
x,y,z
-x,-y,z
1/2+x,1/2-y,-z
1/2-x,1/2+y,-z
-x,-y,-z
x,y,-z
1/2-x,1/2+y,z
1/2+x,1/2-y,z
loop_
_atom_site_type_symbol
_atom_site_label
_atom_site_fract_x
_atom_site_fract_y
_atom_site_fract_z
Si Si1 0.895583 0.258264 0.828621
Si Si2 0.672264 0.188494 0.826096
Si Si3 0.535266 0.254439 0.169999
Si Si4 0.728259 0.825375 0.675155
Si Si5 0.268297 0.991625 0.163210
Si Si6 0.370663 0.439338 0.160732
Si Si7 0.444390 0.570535 0.659876
O O1 0.843882 0.307468 0.728852
O O2 0.897013 0.154503 0.779380
O O3 0.967632 0.297410 0.800305
O O4 0.876327 0.267285 0.000000
O O5 0.598763 0.203528 0.776184
O O6 0.719650 0.257423 0.743446
O O7 0.681943 0.084224 0.782181
O O8 0.682244 0.203306 0.000000
O O9 0.529452 0.347929 0.249514
O O10 0.541550 0.275983 0.000000
O O11 0.731784 0.817754 0.500000
O O12 0.741127 0.927210 0.724348
O O13 0.205009 0.932169 0.151951
O O14 0.286661 0.028555 0.000000
O O15 0.384787 0.523394 0.263685
O O16 0.400406 0.458234 0.000000
O O17 0.500000 0.500000 0.647127
O O18 0.421633 0.603377 0.500000
#
# Coordination Sequence:
#
# PCOD8225475 Si02
#       7
#     8   8   8   8   8   8   8
#     4  10  20  38  61  86 115 152 198 245 293 346
#     4  10  21  41  65  91 119 154 200 250 301 351
#     4  10  21  37  61  87 115 152 198 249 298 351
#     4  12  25  39  60  90 122 159 199 243 299 359
#     4  10  21  39  62  85 113 151 198 248 294 348
#     4  10  19  34  58  82 107 148 195 242 292 343
#     4  11  22  32  47  78 120 157 186 227 288 358
#
# _framework density 19.635543999999999
#
# number of rings (size 3 to 8) (size 9 to 14) (size 15 to 20)
#    0.000    1.571    2.857    2.571    0.000    6.857 
#    0.000    0.714    0.000    4.286    0.000    0.000 
#    0.000    0.000    0.000    0.000    0.000    0.000 
#
# Total GULP energy -694023.377690 kJ/mol
# GULP energy per Si atom -12393.274602 kJ/mol
# Density = 1.959085 g / cm^3
# Si number density = 19.635544 Si / 1000 Ang^3
#
#
#
# Elastic Constant Matrix: (Units=GPa)
#
#
# Indices 1 2 3 4 5 6 
#
# 1 117.9553 33.4142 41.3252 0.0000 0.0000 0.0000
# 2 33.4142 73.1785 32.1531 0.0000 0.0000 0.0000
# 3 41.3252 32.1531 62.5105 0.0000 0.0000 0.0000
# 4 0.0000 0.0000 0.0000 -51.3027 0.0000 0.0000
# 5 0.0000 0.0000 0.0000 0.0000 322.5460 0.0000
# 6 0.0000 0.0000 0.0000 0.0000 0.0000 30.4314
#
#
#
# Elastic Compliance Matrix: (Units=1/GPa)
#
#
# Indices 1 2 3 4 5 6 
#
# 1 0.011360 -0.002439 -0.006256 0.000000 0.000000 0.000000
# 2 -0.002439 0.018179 -0.007738 0.000000 0.000000 0.000000
# 3 -0.006256 -0.007738 0.024113 0.000000 0.000000 0.000000
# 4 0.000000 0.000000 0.000000 -0.019492 0.000000 0.000000
# 5 0.000000 0.000000 0.000000 0.000000 0.003100 0.000000
# 6 0.000000 0.000000 0.000000 0.000000 0.000000 0.032861
#
#
# Mechanical properties :
#
#
# Convention : Reuss Voigt Hill
#
# Bulk Modulus (GPa) = 48.10753 51.93661 50.02207
# Shear Modulus (GPa) = 45.48925 70.11840 57.80382
#
# Velocity S-wave (km/s) = 4.81841 5.98226 5.43160
# Velocity P-wave (km/s) = 7.45047 8.61535 8.05400
#
# Compressibility (1/GPa) = 0.02078677
#
# Stress axis : x y z
#
# Youngs Moduli (GPa) = 88.02581 55.00921 41.47071
#
# Poissons Ratio (x) = 0.13414 0.25944
# Poissons Ratio (y) = 0.21465 0.32092
# Poissons Ratio (z) = 0.55068 0.42568
#
# Static dielectric constant tensor:
#      x y z
#    x 3.900400 0.000000 0.000000 
#    y 0.000000 3.413070 0.000000 
#    z 0.000000 0.000000 3.637450 
# 
# 
# High freq. dielectric constant tensor:
#      x y z
#    x 1.777770 0.000000 0.000000 
#    y 0.000000 1.744680 0.000000 
#    z 0.000000 0.000000 1.752120 
# 
# From -- ./inp_files/6190.got.cif
#   From: 2010.03.12/outbox.cif.g09.slc.cpg/sg55_4_cif.got.tgz:6190.got - 2010.04.16 15:19:21.
