data_PCOD8225018
_publ_section_title
;
Structure prediction by ZEFSAII (Michael W. Deem and Ramdas Pophale) SiO2 
 PCOD8225018
Probable space group: P B A M
;
_chemical_formula_sum "Si O2"
_cell_formula_units_Z 64
_cell_length_a 14.538027
_cell_length_b 24.468041
_cell_length_c 8.982927
_cell_angle_alpha 90.000000
_cell_angle_beta 90.000000
_cell_angle_gamma 90.000000
_cell_volume 3195.380209
_symmetry_space_group_name_H-M "P B A M"
_symmetry_group_IT_number 55
_symmetry_cell_setting 'orthorhombic'
loop_
_space_group_symop_operation_xyz
x,y,z
-x,-y,z
1/2+x,1/2-y,-z
1/2-x,1/2+y,-z
-x,-y,-z
x,y,-z
1/2-x,1/2+y,z
1/2+x,1/2-y,z
loop_
_atom_site_type_symbol
_atom_site_label
_atom_site_fract_x
_atom_site_fract_y
_atom_site_fract_z
Si Si1 0.955174 0.445158 0.173371
Si Si2 0.438200 0.374153 0.175333
Si Si3 0.756266 0.479816 0.172491
Si Si4 0.819049 0.702493 0.330620
Si Si5 0.003330 0.326908 0.825096
Si Si6 0.236639 0.915583 0.670895
Si Si7 0.432395 0.549823 0.675439
Si Si8 0.145060 0.759563 0.828161
O O1 0.845176 0.441709 0.196727
O O2 0.000000 0.500000 0.247443
O O3 0.996629 0.388700 0.240872
O O4 0.979526 0.446283 0.000000
O O5 0.364253 0.411225 0.260001
O O6 0.535328 0.394570 0.241125
O O7 0.420494 0.310722 0.214390
O O8 0.433225 0.385105 0.000000
O O9 0.789321 0.539113 0.231891
O O10 0.671198 0.460069 0.270827
O O11 0.727562 0.482608 0.000000
O O12 0.831489 0.720338 0.500000
O O13 0.915901 0.708688 0.248405
O O14 0.791895 0.639750 0.312371
O O15 0.740438 0.740787 0.261545
O O16 0.908139 0.295931 0.789163
O O17 0.021938 0.327611 0.000000
O O18 0.226450 0.934189 0.500000
O O19 0.500000 0.500000 0.719998
O O20 0.432063 0.559885 0.500000
O O21 0.172369 0.763312 0.000000
#
# Coordination Sequence:
#
# PCOD8225018 Si02
#       8
#     8   8   8   8   8   8   8   8
#     4   9  19  36  59  88 117 146 185 237 292 342
#     4  10  19  33  54  79 106 141 191 241 280 330
#     4  11  21  33  54  83 113 149 191 236 282 337
#     4  10  21  36  58  86 115 148 187 235 288 343
#     4  10  20  39  64  87 116 152 192 241 292 345
#     4  10  19  32  51  78 112 148 186 229 279 336
#     4  11  22  35  52  77 115 156 190 231 288 353
#     4   9  20  38  60  86 112 145 192 242 289 339
#
# _framework density 20.028917
#
# number of rings (size 3 to 8) (size 9 to 14) (size 15 to 20)
#    0.000    2.000    1.250    2.625    0.000    4.000 
#    2.250    1.250    0.000    3.375    0.000    0.000 
#    0.000    0.000    0.000    0.000    0.000    0.000 
#
# Total GULP energy -793547.409240 kJ/mol
# GULP energy per Si atom -12399.178269 kJ/mol
# Density = 1.998333 g / cm^3
# Si number density = 20.028917 Si / 1000 Ang^3
#
#
#
# Elastic Constant Matrix: (Units=GPa)
#
#
# Indices 1 2 3 4 5 6 
#
# 1 105.4508 39.3192 44.6911 0.0000 0.0000 0.0000
# 2 39.3192 80.4186 28.8280 0.0000 0.0000 0.0000
# 3 44.6911 28.8280 71.8385 0.0000 0.0000 0.0000
# 4 0.0000 0.0000 0.0000 19.7764 0.0000 0.0000
# 5 0.0000 0.0000 0.0000 0.0000 16.3249 0.0000
# 6 0.0000 0.0000 0.0000 0.0000 0.0000 23.4263
#
#
#
# Elastic Compliance Matrix: (Units=1/GPa)
#
#
# Indices 1 2 3 4 5 6 
#
# 1 0.014083 -0.004374 -0.007006 0.000000 0.000000 0.000000
# 2 -0.004374 0.015883 -0.003652 0.000000 0.000000 0.000000
# 3 -0.007006 -0.003652 0.019744 0.000000 0.000000 0.000000
# 4 0.000000 0.000000 0.000000 0.050565 0.000000 0.000000
# 5 0.000000 0.000000 0.000000 0.000000 0.061256 0.000000
# 6 0.000000 0.000000 0.000000 0.000000 0.000000 0.042687
#
#
# Mechanical properties :
#
#
# Convention : Reuss Voigt Hill
#
# Bulk Modulus (GPa) = 50.90299 53.70940 52.30619
# Shear Modulus (GPa) = 20.76127 21.56347 21.16237
#
# Velocity S-wave (km/s) = 3.22307 3.28474 3.25405
# Velocity P-wave (km/s) = 6.27063 6.42341 6.34748
#
# Compressibility (1/GPa) = 0.01964521
#
# Stress axis : x y z
#
# Youngs Moduli (GPa) = 71.00583 62.96053 50.64775
#
# Poissons Ratio (x) = 0.27541 0.35484
# Poissons Ratio (y) = 0.31060 0.18498
# Poissons Ratio (z) = 0.49746 0.22995
#
# Static dielectric constant tensor:
#      x y z
#    x 3.563450 0.000000 0.000000 
#    y 0.000000 3.698240 0.000000 
#    z 0.000000 0.000000 3.536680 
# 
# 
# High freq. dielectric constant tensor:
#      x y z
#    x 1.782060 0.000000 0.000000 
#    y 0.000000 1.770310 0.000000 
#    z 0.000000 0.000000 1.770850 
# 
# From -- ./inp_files/6531.got.cif
#   From: 2010.03.12/outbox.cif.g09.slc.cpg/sg55_4_cif.got.tgz:6531.got - 2010.04.16 15:19:21.
