data_PCOD8225205
_publ_section_title
;
Structure prediction by ZEFSAII (Michael W. Deem and Ramdas Pophale) SiO2 
 PCOD8225205
Probable space group: P B A M
;
_chemical_formula_sum "Si O2"
_cell_formula_units_Z 48
_cell_length_a 16.543065
_cell_length_b 5.253125
_cell_length_c 25.330314
_cell_angle_alpha 90.000000
_cell_angle_beta 90.000000
_cell_angle_gamma 90.000000
_cell_volume 2201.274916
_symmetry_space_group_name_H-M "P B A M"
_symmetry_group_IT_number 55
_symmetry_cell_setting 'orthorhombic'
loop_
_space_group_symop_operation_xyz
x,y,z
-x,-y,z
1/2+x,1/2-y,-z
1/2-x,1/2+y,-z
-x,-y,-z
x,y,-z
1/2-x,1/2+y,z
1/2+x,1/2-y,z
loop_
_atom_site_type_symbol
_atom_site_label
_atom_site_fract_x
_atom_site_fract_y
_atom_site_fract_z
Si Si1 0.802035 0.711763 0.387223
Si Si2 0.444186 0.249983 0.000000
Si Si3 0.799186 0.805281 0.500000
Si Si4 0.726102 0.250392 0.814703
Si Si5 0.452399 0.750279 0.684812
Si Si6 0.294556 0.249719 0.072076
Si Si7 0.953394 0.749709 0.809665
O O1 0.766612 0.427801 0.381909
O O2 0.845929 0.744775 0.444990
O O3 0.865069 0.753610 0.340894
O O4 0.500000 0.500000 0.000000
O O5 0.387408 0.249951 0.947663
O O6 0.500000 0.000000 0.000000
O O7 0.724063 0.604094 0.500000
O O8 0.749978 0.500415 0.780491
O O9 0.788779 0.250345 0.864109
O O10 0.634799 0.250367 0.836081
O O11 0.500000 0.500000 0.666565
O O12 0.439140 0.752084 0.747266
O O13 0.500000 0.000000 0.665897
O O14 0.249949 0.499634 0.049369
O O15 0.000000 0.500000 0.829192
O O16 0.000000 0.000000 0.828769
#
# Coordination Sequence:
#
# PCOD8225205 Si02
#       7
#     8   4   4   8   8   8   8
#     4  10  19  33  54  78 103 140 186 226 268 329
#     4  12  24  40  64  92 118 150 190 228 272 328
#     4   8  16  30  48  72 104 136 174 226 274 316
#     4  10  21  38  59  85 114 148 183 226 275 322
#     4  10  21  36  53  78 113 142 174 228 284 325
#     4  10  21  41  62  85 118 152 183 226 275 318
#     4  10  21  38  58  81 110 146 184 226 276 329
#
# _framework density 21.805544000000001
#
# number of rings (size 3 to 8) (size 9 to 14) (size 15 to 20)
#    0.000    2.000    0.000    3.500    0.000    1.333 
#    0.000   20.833    0.000    0.000    0.000    0.000 
#    0.000    0.000    0.000    0.000    0.000    0.000 
#
# Total GULP energy -594801.633920 kJ/mol
# GULP energy per Si atom -12391.700707 kJ/mol
# Density = 2.175591 g / cm^3
# Si number density = 21.805544 Si / 1000 Ang^3
#
#
#
# Elastic Constant Matrix: (Units=GPa)
#
#
# Indices 1 2 3 4 5 6 
#
# 1 118.8931 66.6305 7.5705 0.0000 0.0000 0.0000
# 2 66.6305 224.6264 4.9908 0.0000 0.0000 0.0000
# 3 7.5705 4.9908 29.8899 0.0000 0.0000 0.0000
# 4 0.0000 0.0000 0.0000 7.5658 0.0000 0.0000
# 5 0.0000 0.0000 0.0000 0.0000 25.2391 0.0000
# 6 0.0000 0.0000 0.0000 0.0000 0.0000 44.8707
#
#
#
# Elastic Compliance Matrix: (Units=1/GPa)
#
#
# Indices 1 2 3 4 5 6 
#
# 1 0.010216 -0.002984 -0.002089 0.000000 0.000000 0.000000
# 2 -0.002984 0.005340 -0.000136 0.000000 0.000000 0.000000
# 3 -0.002089 -0.000136 0.034008 0.000000 0.000000 0.000000
# 4 0.000000 0.000000 0.000000 0.132174 0.000000 0.000000
# 5 0.000000 0.000000 0.000000 0.000000 0.039621 0.000000
# 6 0.000000 0.000000 0.000000 0.000000 0.000000 0.022286
#
#
# Mechanical properties :
#
#
# Convention : Reuss Voigt Hill
#
# Bulk Modulus (GPa) = 25.54546 59.08811 42.31679
# Shear Modulus (GPa) = 18.71866 35.14961 26.93414
#
# Velocity S-wave (km/s) = 2.93309 4.01927 3.51835
# Velocity P-wave (km/s) = 4.81780 6.97825 5.99613
#
# Compressibility (1/GPa) = 0.03914589
#
# Stress axis : x y z
#
# Youngs Moduli (GPa) = 97.88320 187.26612 29.40487
#
# Poissons Ratio (x) = 0.55880 0.06144
# Poissons Ratio (y) = 0.29208 0.00399
# Poissons Ratio (z) = 0.20451 0.02544
#
# Static dielectric constant tensor:
#      x y z
#    x 3.668990 0.000000 0.000000 
#    y 0.000000 5.661090 0.000000 
#    z 0.000000 0.000000 3.788340 
# 
# 
# High freq. dielectric constant tensor:
#      x y z
#    x 1.832570 0.000000 0.000000 
#    y 0.000000 1.896990 0.000000 
#    z 0.000000 0.000000 1.836080 
# 
# From -- ./inp_files/23991.got.cif
#   From: 2010.03.12/outbox.cif.g09.slc.cpg/sg55_12_cif.got.tgz:23991.got - 2010.04.16 15:19:21.
