data_PCOD8225675
_publ_section_title
;
Structure prediction by ZEFSAII (Michael W. Deem and Ramdas Pophale) SiO2 
 PCOD8225675
Probable space group: P B A M
;
_chemical_formula_sum "Si O2"
_cell_formula_units_Z 48
_cell_length_a 16.571910
_cell_length_b 17.708943
_cell_length_c 8.708981
_cell_angle_alpha 90.000000
_cell_angle_beta 90.000000
_cell_angle_gamma 90.000000
_cell_volume 2555.833447
_symmetry_space_group_name_H-M "P B A M"
_symmetry_group_IT_number 55
_symmetry_cell_setting 'orthorhombic'
loop_
_space_group_symop_operation_xyz
x,y,z
-x,-y,z
1/2+x,1/2-y,-z
1/2-x,1/2+y,-z
-x,-y,-z
x,y,-z
1/2-x,1/2+y,z
1/2+x,1/2-y,z
loop_
_atom_site_type_symbol
_atom_site_label
_atom_site_fract_x
_atom_site_fract_y
_atom_site_fract_z
Si Si1 0.014702 0.914640 0.679787
Si Si2 0.588400 0.017191 0.680841
Si Si3 0.736864 0.947347 0.822977
Si Si4 0.330638 0.827689 0.319667
Si Si5 0.867566 0.829305 0.179793
Si Si6 0.181417 0.897019 0.178604
O O1 0.033258 0.910453 0.500000
O O2 0.937902 0.864837 0.719568
O O3 0.090182 0.881131 0.772208
O O4 0.000000 0.000000 0.734325
O O5 0.584241 0.013487 0.500000
O O6 0.617054 0.100040 0.734558
O O7 0.500000 0.000000 0.751706
O O8 0.652453 0.953714 0.733139
O O9 0.783299 0.870661 0.776833
O O10 0.796261 0.016547 0.782224
O O11 0.713521 0.948134 0.000000
O O12 0.339255 0.811516 0.500000
O O13 0.362927 0.757962 0.222130
O O14 0.237557 0.841535 0.277496
O O15 0.886496 0.840107 0.000000
O O16 0.192947 0.878299 0.000000
#
# Coordination Sequence:
#
# PCOD8225675 Si02
#       6
#     8   8   8   8   8   8
#     4  11  22  35  57  88 118 149 190 235 285 343
#     4   9  19  37  60  83 108 143 188 235 282 333
#     4   9  19  34  56  82 108 142 185 229 274 333
#     4  10  21  38  58  82 114 149 188 236 291 343
#     4  11  22  38  57  82 117 153 190 234 288 341
#     4  10  19  36  59  82 110 147 189 230 280 339
#
# _framework density 18.780567000000001
#
# number of rings (size 3 to 8) (size 9 to 14) (size 15 to 20)
#    0.000    2.000    1.667    2.000    0.000    3.667 
#    3.000    0.000    0.000    0.000    0.000    0.000 
#    0.000    0.000    0.000    0.000    0.000    0.000 
#
# Total GULP energy -595360.343050 kJ/mol
# GULP energy per Si atom -12403.340480 kJ/mol
# Density = 1.873782 g / cm^3
# Si number density = 18.780567 Si / 1000 Ang^3
#
#
#
# Elastic Constant Matrix: (Units=GPa)
#
#
# Indices 1 2 3 4 5 6 
#
# 1 130.8726 45.1737 18.5688 0.0000 0.0000 0.0000
# 2 45.1737 86.1475 19.0218 0.0000 0.0000 0.0000
# 3 18.5688 19.0218 33.7746 0.0000 0.0000 0.0000
# 4 0.0000 0.0000 0.0000 26.3668 0.0000 0.0000
# 5 0.0000 0.0000 0.0000 0.0000 30.7962 0.0000
# 6 0.0000 0.0000 0.0000 0.0000 0.0000 22.4316
#
#
#
# Elastic Compliance Matrix: (Units=1/GPa)
#
#
# Indices 1 2 3 4 5 6 
#
# 1 0.009552 -0.004396 -0.002776 0.000000 0.000000 0.000000
# 2 -0.004396 0.015280 -0.006189 0.000000 0.000000 0.000000
# 3 -0.002776 -0.006189 0.034620 0.000000 0.000000 0.000000
# 4 0.000000 0.000000 0.000000 0.037927 0.000000 0.000000
# 5 0.000000 0.000000 0.000000 0.000000 0.032472 0.000000
# 6 0.000000 0.000000 0.000000 0.000000 0.000000 0.044580
#
#
# Mechanical properties :
#
#
# Convention : Reuss Voigt Hill
#
# Bulk Modulus (GPa) = 30.55252 46.25813 38.40533
# Shear Modulus (GPa) = 23.57815 27.12094 25.34954
#
# Velocity S-wave (km/s) = 3.54708 3.80425 3.67791
# Velocity P-wave (km/s) = 5.75145 6.63180 6.20725
#
# Compressibility (1/GPa) = 0.03273052
#
# Stress axis : x y z
#
# Youngs Moduli (GPa) = 104.68719 65.44646 28.88536
#
# Poissons Ratio (x) = 0.28771 0.08018
# Poissons Ratio (y) = 0.46021 0.17876
# Poissons Ratio (z) = 0.29060 0.40502
#
# Static dielectric constant tensor:
#      x y z
#    x 3.548940 0.000000 0.000000 
#    y 0.000000 3.436720 0.000000 
#    z 0.000000 0.000000 3.363220 
# 
# 
# High freq. dielectric constant tensor:
#      x y z
#    x 1.733660 0.000000 0.000000 
#    y 0.000000 1.714630 0.000000 
#    z 0.000000 0.000000 1.732580 
# 
# From -- ./inp_files/5631.got.cif
#   From: 2010.03.12/outbox.cif.g09.slc.cpg/sg55_3_cif.got.tgz:5631.got - 2010.04.16 15:19:21.
