data_PCOD8225742
_publ_section_title
;
Structure prediction by ZEFSAII (Michael W. Deem and Ramdas Pophale) SiO2 
 PCOD8225742
Probable space group: P B A M
;
_chemical_formula_sum "Si O2"
_cell_formula_units_Z 48
_cell_length_a 17.041019
_cell_length_b 10.619314
_cell_length_c 13.199798
_cell_angle_alpha 90.000000
_cell_angle_beta 90.000000
_cell_angle_gamma 90.000000
_cell_volume 2388.687343
_symmetry_space_group_name_H-M "P B A M"
_symmetry_group_IT_number 55
_symmetry_cell_setting 'orthorhombic'
loop_
_space_group_symop_operation_xyz
x,y,z
-x,-y,z
1/2+x,1/2-y,-z
1/2-x,1/2+y,-z
-x,-y,-z
x,y,-z
1/2-x,1/2+y,z
1/2+x,1/2-y,z
loop_
_atom_site_type_symbol
_atom_site_label
_atom_site_fract_x
_atom_site_fract_y
_atom_site_fract_z
Si Si1 0.287443 0.778189 0.886659
Si Si2 0.582807 0.238478 0.616900
Si Si3 0.684654 0.040155 0.714054
Si Si4 0.106413 0.833580 0.885522
Si Si5 0.955586 0.377483 0.754490
Si Si6 0.347722 0.557133 0.754261
O O1 0.323684 0.893880 0.824053
O O2 0.193971 0.780736 0.884736
O O3 0.313406 0.645246 0.841900
O O4 0.320305 0.790086 0.000000
O O5 0.570702 0.269480 0.500000
O O6 0.655451 0.141249 0.630710
O O7 0.503471 0.176902 0.659347
O O8 0.598929 0.369402 0.674320
O O9 0.630700 0.915391 0.713583
O O10 0.774812 0.004234 0.692350
O O11 0.048882 0.725484 0.843349
O O12 0.099405 0.953170 0.810850
O O13 0.080377 0.868861 0.000000
O O14 0.000000 0.500000 0.798533
#
# Coordination Sequence:
#
# PCOD8225742 Si02
#       6
#     8   8   8   8   8   8
#     4   9  17  31  57  90 120 153 191 233 288 347
#     4  10  23  41  61  83 111 154 200 247 308 356
#     4   9  19  35  60  86 116 149 192 247 290 342
#     4  10  20  34  58  88 119 159 194 228 288 353
#     4  10  21  39  58  83 121 159 193 240 287 343
#     4  10  19  37  60  88 121 149 193 252 291 342
#
# _framework density 20.094719999999999
#
# number of rings (size 3 to 8) (size 9 to 14) (size 15 to 20)
#    0.000    2.333    1.667    0.500    0.000    6.000 
#    0.000   10.000    0.000    0.000    0.000    0.000 
#    0.000    0.000    0.000    0.000    0.000    0.000 
#
# Total GULP energy -595245.803262 kJ/mol
# GULP energy per Si atom -12400.954235 kJ/mol
# Density = 2.004898 g / cm^3
# Si number density = 20.094720 Si / 1000 Ang^3
#
#
#
# Elastic Constant Matrix: (Units=GPa)
#
#
# Indices 1 2 3 4 5 6 
#
# 1 52.2083 39.9394 40.9733 0.0000 0.0000 0.0000
# 2 39.9394 128.5097 63.6916 0.0000 0.0000 0.0000
# 3 40.9733 63.6916 136.7740 0.0000 0.0000 0.0000
# 4 0.0000 0.0000 0.0000 18.7831 0.0000 0.0000
# 5 0.0000 0.0000 0.0000 0.0000 24.9069 0.0000
# 6 0.0000 0.0000 0.0000 0.0000 0.0000 36.9932
#
#
#
# Elastic Compliance Matrix: (Units=1/GPa)
#
#
# Indices 1 2 3 4 5 6 
#
# 1 0.028143 -0.005939 -0.005665 0.000000 0.000000 0.000000
# 2 -0.005939 0.011370 -0.003515 0.000000 0.000000 0.000000
# 3 -0.005665 -0.003515 0.010645 0.000000 0.000000 0.000000
# 4 0.000000 0.000000 0.000000 0.053239 0.000000 0.000000
# 5 0.000000 0.000000 0.000000 0.000000 0.040150 0.000000
# 6 0.000000 0.000000 0.000000 0.000000 0.000000 0.027032
#
#
# Mechanical properties :
#
#
# Convention : Reuss Voigt Hill
#
# Bulk Modulus (GPa) = 50.20241 67.41116 58.80679
# Shear Modulus (GPa) = 24.10123 27.66248 25.88186
#
# Velocity S-wave (km/s) = 3.46697 3.71429 3.59276
# Velocity P-wave (km/s) = 6.40809 7.21208 6.82194
#
# Compressibility (1/GPa) = 0.01991936
#
# Stress axis : x y z
#
# Youngs Moduli (GPa) = 35.53219 87.95456 93.93644
#
# Poissons Ratio (x) = 0.52235 0.53219
# Poissons Ratio (y) = 0.21102 0.33022
# Poissons Ratio (z) = 0.20130 0.30919
#
# Static dielectric constant tensor:
#      x y z
#    x 3.616020 0.000000 0.000000 
#    y 0.000000 3.777520 0.000000 
#    z 0.000000 0.000000 3.408420 
# 
# 
# High freq. dielectric constant tensor:
#      x y z
#    x 1.777800 0.000000 0.000000 
#    y 0.000000 1.793870 0.000000 
#    z 0.000000 0.000000 1.757170 
# 
# From -- ./inp_files/14795.got.cif
#   From: 2010.03.12/outbox.cif.g09.slc.cpg/sg55_8_cif.got.tgz:14795.got - 2010.04.16 15:19:21.
