data_PCOD8225361
_publ_section_title
;
Structure prediction by ZEFSAII (Michael W. Deem and Ramdas Pophale) SiO2 
 PCOD8225361
Probable space group: P B A M
;
_chemical_formula_sum "Si O2"
_cell_formula_units_Z 64
_cell_length_a 19.136782
_cell_length_b 9.920330
_cell_length_c 18.936288
_cell_angle_alpha 90.000000
_cell_angle_beta 90.000000
_cell_angle_gamma 90.000000
_cell_volume 3594.925369
_symmetry_space_group_name_H-M "P B A M"
_symmetry_group_IT_number 55
_symmetry_cell_setting 'orthorhombic'
loop_
_space_group_symop_operation_xyz
x,y,z
-x,-y,z
1/2+x,1/2-y,-z
1/2-x,1/2+y,-z
-x,-y,-z
x,y,-z
1/2-x,1/2+y,z
1/2+x,1/2-y,z
loop_
_atom_site_type_symbol
_atom_site_label
_atom_site_fract_x
_atom_site_fract_y
_atom_site_fract_z
Si Si1 0.196763 0.395417 0.582056
Si Si2 0.274466 0.165076 0.653709
Si Si3 0.423592 0.869202 0.684413
Si Si4 0.781900 0.852918 0.080607
Si Si5 0.071816 0.918182 0.199380
Si Si6 0.660864 0.340851 0.770681
Si Si7 0.830285 0.139906 0.078129
Si Si8 0.074928 0.667591 0.703443
O O1 0.191974 0.428346 0.500000
O O2 0.241714 0.262589 0.595612
O O3 0.234443 0.515735 0.623559
O O4 0.118838 0.373755 0.611471
O O5 0.234906 0.171800 0.729493
O O6 0.355783 0.207970 0.660231
O O7 0.394446 0.762103 0.739379
O O8 0.502133 0.829770 0.659513
O O9 0.417127 0.011271 0.727080
O O10 0.832460 0.807913 0.145316
O O11 0.708396 0.779916 0.096771
O O12 0.774776 0.015421 0.086122
O O13 0.807716 0.813178 0.000000
O O14 0.100195 0.884942 0.122171
O O15 0.063219 0.772389 0.233941
O O16 0.129345 0.009012 0.240470
O O17 0.000000 0.000000 0.194161
O O18 0.860138 0.146739 0.000000
#
# Coordination Sequence:
#
# PCOD8225361 Si02
#       8
#     8   8   8   8   8   8   8   8
#     4  10  20  36  54  79 109 139 171 215 266 313
#     4  10  20  33  56  80 105 137 176 219 261 311
#     4   9  20  35  54  74 106 139 174 214 262 309
#     4   9  18  32  51  75 105 137 174 219 263 310
#     4  11  20  31  52  75 103 138 171 216 266 306
#     4  10  19  34  53  80 105 137 175 220 265 315
#     4   9  19  33  49  74 103 134 174 215 266 318
#     4  10  19  35  52  78 103 134 178 216 257 313
#
# _framework density 17.802873999999999
#
# number of rings (size 3 to 8) (size 9 to 14) (size 15 to 20)
#    0.000    2.250    1.250    1.875    0.000    6.250 
#    0.000    5.625    0.000    0.000    0.000    6.125 
#    0.000    0.000    0.000    0.000    0.000    0.000 
#
# Total GULP energy -792920.386844 kJ/mol
# GULP energy per Si atom -12389.381044 kJ/mol
# Density = 1.776235 g / cm^3
# Si number density = 17.802874 Si / 1000 Ang^3
#
#
#
# Elastic Constant Matrix: (Units=GPa)
#
#
# Indices 1 2 3 4 5 6 
#
# 1 118.2172 41.5021 41.3931 0.0000 0.0000 0.0000
# 2 41.5021 69.9414 29.4932 0.0000 0.0000 0.0000
# 3 41.3931 29.4932 90.1235 0.0000 0.0000 0.0000
# 4 0.0000 0.0000 0.0000 21.0830 0.0000 0.0000
# 5 0.0000 0.0000 0.0000 0.0000 15.9622 0.0000
# 6 0.0000 0.0000 0.0000 0.0000 0.0000 29.3707
#
#
#
# Elastic Compliance Matrix: (Units=1/GPa)
#
#
# Indices 1 2 3 4 5 6 
#
# 1 0.011595 -0.005377 -0.003566 0.000000 0.000000 0.000000
# 2 -0.005377 0.019080 -0.003774 0.000000 0.000000 0.000000
# 3 -0.003566 -0.003774 0.013969 0.000000 0.000000 0.000000
# 4 0.000000 0.000000 0.000000 0.047432 0.000000 0.000000
# 5 0.000000 0.000000 0.000000 0.000000 0.062648 0.000000
# 6 0.000000 0.000000 0.000000 0.000000 0.000000 0.034048
#
#
# Mechanical properties :
#
#
# Convention : Reuss Voigt Hill
#
# Bulk Modulus (GPa) = 52.05741 55.89543 53.97642
# Shear Modulus (GPa) = 22.66459 24.34277 23.50368
#
# Velocity S-wave (km/s) = 3.57190 3.70178 3.63742
# Velocity P-wave (km/s) = 6.80557 7.05237 6.93007
#
# Compressibility (1/GPa) = 0.01920956
#
# Stress axis : x y z
#
# Youngs Moduli (GPa) = 86.24254 52.41167 71.58739
#
# Poissons Ratio (x) = 0.28180 0.25529
# Poissons Ratio (y) = 0.46370 0.27020
# Poissons Ratio (z) = 0.30755 0.19782
#
# Static dielectric constant tensor:
#      x y z
#    x 3.364570 0.000000 0.000000 
#    y 0.000000 3.527910 0.000000 
#    z 0.000000 0.000000 3.144940 
# 
# 
# High freq. dielectric constant tensor:
#      x y z
#    x 1.682970 0.000000 0.000000 
#    y 0.000000 1.703420 0.000000 
#    z 0.000000 0.000000 1.669640 
# 
# From -- ./inp_files/21975.got.cif
#   From: 2010.03.12/outbox.cif.g09.slc.cpg/sg55_11_cif.got.tgz:21975.got - 2010.04.16 15:19:21.
