data_PCOD8225549
_publ_section_title
;
Structure prediction by ZEFSAII (Michael W. Deem and Ramdas Pophale) SiO2 
 PCOD8225549
Probable space group: P B A M
;
_chemical_formula_sum "Si O2"
_cell_formula_units_Z 48
_cell_length_a 29.772412
_cell_length_b 9.827958
_cell_length_c 8.412307
_cell_angle_alpha 90.000000
_cell_angle_beta 90.000000
_cell_angle_gamma 90.000000
_cell_volume 2461.457976
_symmetry_space_group_name_H-M "P B A M"
_symmetry_group_IT_number 55
_symmetry_cell_setting 'orthorhombic'
loop_
_space_group_symop_operation_xyz
x,y,z
-x,-y,z
1/2+x,1/2-y,-z
1/2-x,1/2+y,-z
-x,-y,-z
x,y,-z
1/2-x,1/2+y,z
1/2+x,1/2-y,z
loop_
_atom_site_type_symbol
_atom_site_label
_atom_site_fract_x
_atom_site_fract_y
_atom_site_fract_z
Si Si1 0.295512 0.318513 0.186795
Si Si2 0.442921 0.875358 0.187889
Si Si3 0.388507 0.384836 0.316040
Si Si4 0.224933 0.108187 0.313808
Si Si5 0.957539 0.322086 0.811819
Si Si6 0.130887 0.169168 0.186167
O O1 0.343876 0.302057 0.269117
O O2 0.265399 0.195656 0.246584
O O3 0.272877 0.461923 0.229999
O O4 0.302232 0.308539 0.000000
O O5 0.490857 0.817776 0.246961
O O6 0.402270 0.784798 0.256312
O O7 0.436448 0.032190 0.238293
O O8 0.443514 0.864779 0.000000
O O9 0.386319 0.424591 0.500000
O O10 0.432065 0.295466 0.281545
O O11 0.391640 0.522657 0.214234
O O12 0.230620 0.086991 0.500000
O O13 0.177903 0.182827 0.277750
O O14 0.953135 0.298796 0.000000
O O15 0.140012 0.189334 0.000000
#
# Coordination Sequence:
#
# PCOD8225549 Si02
#       6
#     8   8   8   8   8   8
#     4  11  22  39  60  82 107 144 187 226 265 323
#     4   8  17  33  57  81 104 135 180 227 267 313
#     4  11  22  36  52  78 111 144 178 221 271 321
#     4  11  22  38  57  82 113 144 176 224 280 327
#     4   9  17  35  57  79 105 139 179 224 270 319
#     4  10  19  35  56  80 106 140 182 224 266 321
#
# _framework density 19.500639
#
# number of rings (size 3 to 8) (size 9 to 14) (size 15 to 20)
#    0.000    2.000    0.000    8.000    0.000    2.000 
#    0.000   13.333    0.000    0.000    0.000    0.000 
#    0.000    0.000    0.000    0.000    0.000    0.000 
#
# Total GULP energy -595277.404392 kJ/mol
# GULP energy per Si atom -12401.612592 kJ/mol
# Density = 1.945626 g / cm^3
# Si number density = 19.500639 Si / 1000 Ang^3
#
#
#
# Elastic Constant Matrix: (Units=GPa)
#
#
# Indices 1 2 3 4 5 6 
#
# 1 25.7849 -3.5481 0.6240 0.0000 0.0000 0.0000
# 2 -3.5481 22.6004 -1.1235 0.0000 0.0000 0.0000
# 3 0.6240 -1.1235 59.1190 0.0000 0.0000 0.0000
# 4 0.0000 0.0000 0.0000 10.7834 0.0000 0.0000
# 5 0.0000 0.0000 0.0000 0.0000 12.6696 0.0000
# 6 0.0000 0.0000 0.0000 0.0000 0.0000 51.3092
#
#
#
# Elastic Compliance Matrix: (Units=1/GPa)
#
#
# Indices 1 2 3 4 5 6 
#
# 1 0.039644 0.006209 -0.000300 0.000000 0.000000 0.000000
# 2 0.006209 0.045261 0.000795 0.000000 0.000000 0.000000
# 3 -0.000300 0.000795 0.016933 0.000000 0.000000 0.000000
# 4 0.000000 0.000000 0.000000 0.092735 0.000000 0.000000
# 5 0.000000 0.000000 0.000000 0.000000 0.078929 0.000000
# 6 0.000000 0.000000 0.000000 0.000000 0.000000 0.019490
#
#
# Mechanical properties :
#
#
# Convention : Reuss Voigt Hill
#
# Bulk Modulus (GPa) = 8.67718 11.04545 9.86131
# Shear Modulus (GPa) = 15.72320 22.38923 19.05622
#
# Velocity S-wave (km/s) = 2.84261 3.39208 3.12943
# Velocity P-wave (km/s) = 3.90298 4.58454 4.25742
#
# Compressibility (1/GPa) = 0.11524482
#
# Stress axis : x y z
#
# Youngs Moduli (GPa) = 25.22445 22.09392 59.05520
#
# Poissons Ratio (x) = -0.13718 0.01774
# Poissons Ratio (y) = -0.15662 -0.04693
# Poissons Ratio (z) = 0.00758 -0.01756
#
# Static dielectric constant tensor:
#      x y z
#    x 3.708740 0.000000 0.000000 
#    y 0.000000 3.629750 0.000000 
#    z 0.000000 0.000000 3.442220 
# 
# 
# High freq. dielectric constant tensor:
#      x y z
#    x 1.763020 0.000000 0.000000 
#    y 0.000000 1.758600 0.000000 
#    z 0.000000 0.000000 1.752740 
# 
# From -- ./inp_files/10525.got.cif
#   From: 2010.03.12/outbox.cif.g09.slc.cpg/sg55_6_cif.got.tgz:10525.got - 2010.04.16 15:19:21.
