data_PCOD8225658
_publ_section_title
;
Structure prediction by ZEFSAII (Michael W. Deem and Ramdas Pophale) SiO2 
 PCOD8225658
Probable space group: P B A M
;
_chemical_formula_sum "Si O2"
_cell_formula_units_Z 64
_cell_length_a 14.244895
_cell_length_b 13.824048
_cell_length_c 18.008982
_cell_angle_alpha 90.000000
_cell_angle_beta 90.000000
_cell_angle_gamma 90.000000
_cell_volume 3546.366775
_symmetry_space_group_name_H-M "P B A M"
_symmetry_group_IT_number 55
_symmetry_cell_setting 'orthorhombic'
loop_
_space_group_symop_operation_xyz
x,y,z
-x,-y,z
1/2+x,1/2-y,-z
1/2-x,1/2+y,-z
-x,-y,-z
x,y,-z
1/2-x,1/2+y,z
1/2+x,1/2-y,z
loop_
_atom_site_type_symbol
_atom_site_label
_atom_site_fract_x
_atom_site_fract_y
_atom_site_fract_z
Si Si1 0.129922 0.694825 0.677461
Si Si2 0.257229 0.418920 0.853469
Si Si3 0.894448 0.741037 0.835674
Si Si4 0.081390 0.327719 0.677467
Si Si5 0.210929 0.489673 0.302786
Si Si6 0.390896 0.249805 0.845047
Si Si7 0.740861 0.378756 0.915473
Si Si8 0.252751 0.338400 0.413106
O O1 0.196674 0.601932 0.682112
O O2 0.128485 0.745484 0.757152
O O3 0.168298 0.764911 0.614285
O O4 0.025334 0.668877 0.651046
O O5 0.163442 0.353613 0.861882
O O6 0.266903 0.469851 0.773114
O O7 0.348110 0.352496 0.870561
O O8 0.256026 0.504912 0.913061
O O9 0.899528 0.745617 0.746000
O O10 0.843847 0.837050 0.865502
O O11 0.000315 0.739549 0.867081
O O12 0.109427 0.436271 0.704034
O O13 0.149658 0.296148 0.609518
O O14 0.268176 0.441672 0.371651
O O15 0.339854 0.161142 0.885630
O O16 0.725541 0.345548 0.000000
O O17 0.261074 0.354316 0.500000
#
# Coordination Sequence:
#
# PCOD8225658 Si02
#       8
#     8   8   8   8   8   8   8   8
#     4  11  17  34  62  80 104 146 186 222 278 321
#     4  10  19  36  57  81 113 146 184 230 272 331
#     4   9  20  38  59  82 110 147 191 228 274 331
#     4   8  19  34  54  84 108 139 182 229 266 324
#     4   9  18  33  55  80 111 138 180 226 266 325
#     4  10  20  37  61  84 107 146 192 231 276 334
#     4  11  23  37  57  84 114 148 182 231 287 332
#     4  10  21  34  50  83 117 143 179 226 277 327
#
# _framework density 18.046638999999999
#
# number of rings (size 3 to 8) (size 9 to 14) (size 15 to 20)
#    0.750    1.500    2.500    1.125    0.000    4.500 
#    0.000    1.875    0.000    0.750    0.000    1.750 
#    0.000    0.000    0.000    0.000    0.000    0.000 
#
# Total GULP energy -793237.523489 kJ/mol
# GULP energy per Si atom -12394.336305 kJ/mol
# Density = 1.800556 g / cm^3
# Si number density = 18.046639 Si / 1000 Ang^3
#
#
#
# Elastic Constant Matrix: (Units=GPa)
#
#
# Indices 1 2 3 4 5 6 
#
# 1 83.4596 39.4673 18.3107 0.0000 0.0000 0.0000
# 2 39.4673 76.3798 12.2931 0.0000 0.0000 0.0000
# 3 18.3107 12.2931 67.2146 0.0000 0.0000 0.0000
# 4 0.0000 0.0000 0.0000 22.3756 0.0000 0.0000
# 5 0.0000 0.0000 0.0000 0.0000 9.6479 0.0000
# 6 0.0000 0.0000 0.0000 0.0000 0.0000 18.4910
#
#
#
# Elastic Compliance Matrix: (Units=1/GPa)
#
#
# Indices 1 2 3 4 5 6 
#
# 1 0.016427 -0.008004 -0.003011 0.000000 0.000000 0.000000
# 2 -0.008004 0.017389 -0.001000 0.000000 0.000000 0.000000
# 3 -0.003011 -0.001000 0.015881 0.000000 0.000000 0.000000
# 4 0.000000 0.000000 0.000000 0.044692 0.000000 0.000000
# 5 0.000000 0.000000 0.000000 0.000000 0.103650 0.000000
# 6 0.000000 0.000000 0.000000 0.000000 0.000000 0.054080
#
#
# Mechanical properties :
#
#
# Convention : Reuss Voigt Hill
#
# Bulk Modulus (GPa) = 38.95997 40.79958 39.87978
# Shear Modulus (GPa) = 17.56205 20.56844 19.06524
#
# Velocity S-wave (km/s) = 3.12292 3.37966 3.25382
# Velocity P-wave (km/s) = 5.88548 6.15520 6.02185
#
# Compressibility (1/GPa) = 0.02566737
#
# Stress axis : x y z
#
# Youngs Moduli (GPa) = 60.87378 57.50710 62.96850
#
# Poissons Ratio (x) = 0.46027 0.18962
# Poissons Ratio (y) = 0.48722 0.06297
# Poissons Ratio (z) = 0.18331 0.05750
#
# Static dielectric constant tensor:
#      x y z
#    x 3.293830 0.000000 0.000000 
#    y 0.000000 3.177360 0.000000 
#    z 0.000000 0.000000 3.081660 
# 
# 
# High freq. dielectric constant tensor:
#      x y z
#    x 1.690140 0.000000 0.000000 
#    y 0.000000 1.691230 0.000000 
#    z 0.000000 0.000000 1.680930 
# 
# From -- ./inp_files/21685.got.cif
#   From: 2010.03.12/outbox.cif.g09.slc.cpg/sg55_11_cif.got.tgz:21685.got - 2010.04.16 15:19:21.
