data_PCOD8225028
_publ_section_title
;
Structure prediction by ZEFSAII (Michael W. Deem and Ramdas Pophale) SiO2 
 PCOD8225028
Probable space group: P B A M
;
_chemical_formula_sum "Si O2"
_cell_formula_units_Z 48
_cell_length_a 16.426627
_cell_length_b 18.178699
_cell_length_c 8.979056
_cell_angle_alpha 90.000000
_cell_angle_beta 90.000000
_cell_angle_gamma 90.000000
_cell_volume 2681.278184
_symmetry_space_group_name_H-M "P B A M"
_symmetry_group_IT_number 55
_symmetry_cell_setting 'orthorhombic'
loop_
_space_group_symop_operation_xyz
x,y,z
-x,-y,z
1/2+x,1/2-y,-z
1/2-x,1/2+y,-z
-x,-y,-z
x,y,-z
1/2-x,1/2+y,z
1/2+x,1/2-y,z
loop_
_atom_site_type_symbol
_atom_site_label
_atom_site_fract_x
_atom_site_fract_y
_atom_site_fract_z
Si Si1 0.517258 0.085422 0.328064
Si Si2 0.919128 0.798317 0.163931
Si Si3 0.494202 0.418274 0.325758
Si Si4 0.080683 0.702593 0.167209
Si Si5 0.331130 0.843085 0.822412
Si Si6 0.334665 0.328345 0.323968
O O1 0.524983 0.109585 0.500000
O O2 0.440855 0.127926 0.254716
O O3 0.601224 0.102779 0.244136
O O4 0.500000 0.000000 0.311193
O O5 0.849900 0.742166 0.221891
O O6 0.930273 0.869250 0.267709
O O7 0.001139 0.751887 0.159282
O O8 0.897002 0.827543 0.000000
O O9 0.500000 0.500000 0.256158
O O10 0.505651 0.422009 0.500000
O O11 0.408015 0.383081 0.281156
O O12 0.150100 0.747390 0.255469
O O13 0.111567 0.684058 0.000000
O O14 0.245056 0.863913 0.750027
O O15 0.329677 0.853082 0.000000
O O16 0.323672 0.321053 0.500000
#
# Coordination Sequence:
#
# PCOD8225028 Si02
#       6
#     8   8   8   8   8   8
#     4  10  20  34  53  77 104 134 170 210 254 309
#     4   8  16  30  48  70  93 122 160 198 237 287
#     4   9  18  32  50  73 100 130 163 200 244 295
#     4   9  17  31  51  73  98 128 164 204 246 298
#     4  10  20  34  52  74 101 132 169 213 258 303
#     4  10  19  32  52  75 100 132 170 212 257 302
#
# _framework density 17.901910000000001
#
# number of rings (size 3 to 8) (size 9 to 14) (size 15 to 20)
#    0.000    2.667    0.000    3.000    0.000    7.000 
#    0.000    1.667    0.000    6.000    0.000    0.000 
#    0.000    0.000    0.000    0.000    0.000    0.000 
#
# Total GULP energy -595069.666966 kJ/mol
# GULP energy per Si atom -12397.284728 kJ/mol
# Density = 1.786116 g / cm^3
# Si number density = 17.901910 Si / 1000 Ang^3
#
#
#
# Elastic Constant Matrix: (Units=GPa)
#
#
# Indices 1 2 3 4 5 6 
#
# 1 74.0296 31.4802 45.5886 0.0000 0.0000 0.0000
# 2 31.4802 103.1758 52.2913 0.0000 0.0000 0.0000
# 3 45.5886 52.2913 101.3377 0.0000 0.0000 0.0000
# 4 0.0000 0.0000 0.0000 24.5439 0.0000 0.0000
# 5 0.0000 0.0000 0.0000 0.0000 26.7790 0.0000
# 6 0.0000 0.0000 0.0000 0.0000 0.0000 17.6806
#
#
#
# Elastic Compliance Matrix: (Units=1/GPa)
#
#
# Indices 1 2 3 4 5 6 
#
# 1 0.018979 -0.001982 -0.007515 0.000000 0.000000 0.000000
# 2 -0.001982 0.013332 -0.005988 0.000000 0.000000 0.000000
# 3 -0.007515 -0.005988 0.016339 0.000000 0.000000 0.000000
# 4 0.000000 0.000000 0.000000 0.040743 0.000000 0.000000
# 5 0.000000 0.000000 0.000000 0.000000 0.037343 0.000000
# 6 0.000000 0.000000 0.000000 0.000000 0.000000 0.056559
#
#
# Mechanical properties :
#
#
# Convention : Reuss Voigt Hill
#
# Bulk Modulus (GPa) = 56.56297 59.69592 58.12944
# Shear Modulus (GPa) = 22.71106 23.74624 23.22865
#
# Velocity S-wave (km/s) = 3.56566 3.64602 3.60606
# Velocity P-wave (km/s) = 6.97256 7.15144 7.06256
#
# Compressibility (1/GPa) = 0.01767941
#
# Stress axis : x y z
#
# Youngs Moduli (GPa) = 52.68999 75.01027 61.20467
#
# Poissons Ratio (x) = 0.14865 0.45998
# Poissons Ratio (y) = 0.10442 0.36647
# Poissons Ratio (z) = 0.39599 0.44914
#
# Static dielectric constant tensor:
#      x y z
#    x 3.249470 0.000000 0.000000 
#    y 0.000000 3.382440 0.000000 
#    z 0.000000 0.000000 3.469640 
# 
# 
# High freq. dielectric constant tensor:
#      x y z
#    x 1.672840 0.000000 0.000000 
#    y 0.000000 1.680520 0.000000 
#    z 0.000000 0.000000 1.703790 
# 
# From -- ./inp_files/7532.got.cif
#   From: 2010.03.12/outbox.cif.g09.slc.cpg/sg55_4_cif.got.tgz:7532.got - 2010.04.16 15:19:21.
