data_PCOD8225769
_publ_section_title
;
Structure prediction by ZEFSAII (Michael W. Deem and Ramdas Pophale) SiO2 
 PCOD8225769
Probable space group: P B A M
;
_chemical_formula_sum "Si O2"
_cell_formula_units_Z 64
_cell_length_a 30.755058
_cell_length_b 11.781757
_cell_length_c 8.565844
_cell_angle_alpha 90.000000
_cell_angle_beta 90.000000
_cell_angle_gamma 90.000000
_cell_volume 3103.821751
_symmetry_space_group_name_H-M "P B A M"
_symmetry_group_IT_number 55
_symmetry_cell_setting 'orthorhombic'
loop_
_space_group_symop_operation_xyz
x,y,z
-x,-y,z
1/2+x,1/2-y,-z
1/2-x,1/2+y,-z
-x,-y,-z
x,y,-z
1/2-x,1/2+y,z
1/2+x,1/2-y,z
loop_
_atom_site_type_symbol
_atom_site_label
_atom_site_fract_x
_atom_site_fract_y
_atom_site_fract_z
Si Si1 0.934769 0.019606 0.320551
Si Si2 0.621050 0.896439 0.683253
Si Si3 0.455500 0.248308 0.819844
Si Si4 0.663714 0.503358 0.315552
Si Si5 0.125685 0.357994 0.183023
Si Si6 0.043826 0.233206 0.319955
Si Si7 0.296192 0.727055 0.313988
Si Si8 0.698761 0.738298 0.314253
O O1 0.936708 0.061840 0.500000
O O2 0.886005 0.994250 0.266508
O O3 0.961194 0.902913 0.299972
O O4 0.953443 0.117139 0.210396
O O5 0.623008 0.922265 0.500000
O O6 0.580184 0.815644 0.716674
O O7 0.665311 0.835427 0.742084
O O8 0.615204 0.012590 0.775827
O O9 0.503935 0.207396 0.771214
O O10 0.447461 0.220225 0.000000
O O11 0.669281 0.504490 0.500000
O O12 0.688130 0.393878 0.247465
O O13 0.683942 0.617659 0.243386
O O14 0.089830 0.275628 0.257012
O O15 0.173345 0.326426 0.247403
O O16 0.124451 0.340920 0.000000
O O17 0.040821 0.267624 0.500000
O O18 0.298321 0.734128 0.500000
O O19 0.247143 0.739750 0.251562
O O20 0.697801 0.734136 0.500000
#
# Coordination Sequence:
#
# PCOD8225769 Si02
#       8
#     8   8   8   8   8   8   8   8
#     4  10  19  37  63  91 124 162 208 256 302 357
#     4  11  23  43  67  90 119 164 217 262 302 361
#     4  12  25  40  61  94 131 163 197 250 319 381
#     4   9  16  32  59  93 125 154 201 261 302 341
#     4  12  26  43  61  89 129 165 200 255 320 379
#     4  11  23  42  67  92 119 162 215 260 300 361
#     4  10  20  37  64  95 123 161 209 258 306 360
#     4   9  19  34  63  97 122 153 208 266 303 344
#
# _framework density 20.619741000000001
#
# number of rings (size 3 to 8) (size 9 to 14) (size 15 to 20)
#    0.000    1.500    2.500    3.375    1.750    3.000 
#    0.000    3.750    0.000    0.000    0.000    0.000 
#    0.000    0.000    0.000    0.000    0.000    0.000 
#
# Total GULP energy -793770.482938 kJ/mol
# GULP energy per Si atom -12402.663796 kJ/mol
# Density = 2.057281 g / cm^3
# Si number density = 20.619741 Si / 1000 Ang^3
#
#
#
# Elastic Constant Matrix: (Units=GPa)
#
#
# Indices 1 2 3 4 5 6 
#
# 1 80.2243 13.3000 22.0300 0.0000 0.0000 0.0000
# 2 13.3000 80.6870 19.8101 0.0000 0.0000 0.0000
# 3 22.0300 19.8101 57.4471 0.0000 0.0000 0.0000
# 4 0.0000 0.0000 0.0000 19.1583 0.0000 0.0000
# 5 0.0000 0.0000 0.0000 0.0000 12.8545 0.0000
# 6 0.0000 0.0000 0.0000 0.0000 0.0000 25.4137
#
#
#
# Elastic Compliance Matrix: (Units=1/GPa)
#
#
# Indices 1 2 3 4 5 6 
#
# 1 0.014018 -0.001082 -0.005002 0.000000 0.000000 0.000000
# 2 -0.001082 0.013624 -0.004283 0.000000 0.000000 0.000000
# 3 -0.005002 -0.004283 0.020803 0.000000 0.000000 0.000000
# 4 0.000000 0.000000 0.000000 0.052197 0.000000 0.000000
# 5 0.000000 0.000000 0.000000 0.000000 0.077794 0.000000
# 6 0.000000 0.000000 0.000000 0.000000 0.000000 0.039349
#
#
# Mechanical properties :
#
#
# Convention : Reuss Voigt Hill
#
# Bulk Modulus (GPa) = 36.08971 36.51541 36.30256
# Shear Modulus (GPa) = 20.18120 22.36653 21.27386
#
# Velocity S-wave (km/s) = 3.13186 3.29707 3.21553
# Velocity P-wave (km/s) = 5.53341 5.67817 5.60626
#
# Compressibility (1/GPa) = 0.02770873
#
# Stress axis : x y z
#
# Youngs Moduli (GPa) = 71.33578 73.40249 48.07095
#
# Poissons Ratio (x) = 0.07946 0.24047
# Poissons Ratio (y) = 0.07722 0.20588
# Poissons Ratio (z) = 0.35686 0.31437
#
# Static dielectric constant tensor:
#      x y z
#    x 3.927230 0.000000 0.000000 
#    y 0.000000 3.789310 0.000000 
#    z 0.000000 0.000000 3.360570 
# 
# 
# High freq. dielectric constant tensor:
#      x y z
#    x 1.824170 0.000000 0.000000 
#    y 0.000000 1.808890 0.000000 
#    z 0.000000 0.000000 1.773270 
# 
# From -- ./inp_files/10718.got.cif
#   From: 2010.03.12/outbox.cif.g09.slc.cpg/sg55_6_cif.got.tgz:10718.got - 2010.04.16 15:19:21.
