data_PCOD8225638
_publ_section_title
;
Structure prediction by ZEFSAII (Michael W. Deem and Ramdas Pophale) SiO2 
 PCOD8225638
Probable space group: P B A M
;
_chemical_formula_sum "Si O2"
_cell_formula_units_Z 64
_cell_length_a 30.385621
_cell_length_b 11.970990
_cell_length_c 8.893727
_cell_angle_alpha 90.000000
_cell_angle_beta 90.000000
_cell_angle_gamma 90.000000
_cell_volume 3235.057311
_symmetry_space_group_name_H-M "P B A M"
_symmetry_group_IT_number 55
_symmetry_cell_setting 'orthorhombic'
loop_
_space_group_symop_operation_xyz
x,y,z
-x,-y,z
1/2+x,1/2-y,-z
1/2-x,1/2+y,-z
-x,-y,-z
x,y,-z
1/2-x,1/2+y,z
1/2+x,1/2-y,z
loop_
_atom_site_type_symbol
_atom_site_label
_atom_site_fract_x
_atom_site_fract_y
_atom_site_fract_z
Si Si1 0.926186 0.506871 0.670149
Si Si2 0.301852 0.778551 0.171811
Si Si3 0.945886 0.749762 0.677220
Si Si4 0.044432 0.724149 0.676849
Si Si5 0.372196 0.359361 0.321704
Si Si6 0.297827 0.214179 0.826493
Si Si7 0.125823 0.098514 0.175446
Si Si8 0.675472 0.998629 0.330430
O O1 0.942645 0.523509 0.500000
O O2 0.934767 0.627096 0.747482
O O3 0.952617 0.402657 0.744878
O O4 0.875763 0.470480 0.678879
O O5 0.251142 0.755640 0.203274
O O6 0.330548 0.669762 0.210116
O O7 0.317287 0.874920 0.282084
O O8 0.309837 0.815544 0.000000
O O9 0.935328 0.755751 0.500000
O O10 0.917471 0.842223 0.760516
O O11 0.996956 0.776946 0.712119
O O12 0.052494 0.711501 0.500000
O O13 0.082639 0.804155 0.741789
O O14 0.373168 0.369425 0.500000
O O15 0.330708 0.285093 0.275176
O O16 0.366896 0.480883 0.253347
O O17 0.298762 0.084557 0.779398
O O18 0.311311 0.226358 0.000000
O O19 0.118883 0.079327 0.000000
O O20 0.692861 0.983126 0.500000
#
# Coordination Sequence:
#
# PCOD8225638 Si02
#       8
#     8   8   8   8   8   8   8   8
#     4   9  16  31  57  90 122 147 185 240 295 347
#     4  10  24  43  62  84 118 161 202 239 292 362
#     4  10  19  35  62  90 116 155 199 244 296 355
#     4   9  18  34  59  89 120 152 193 243 300 357
#     4  11  23  41  62  88 119 154 202 256 299 349
#     4  11  24  42  63  88 121 163 201 239 297 365
#     4  11  24  42  60  83 119 161 201 247 300 361
#     4  11  21  37  64  95 123 151 195 251 298 343
#
# _framework density 19.783266999999999
#
# number of rings (size 3 to 8) (size 9 to 14) (size 15 to 20)
#    0.000    1.750    2.500    1.875    1.750    3.500 
#    0.000    3.750    0.000    0.750    0.000    0.000 
#    0.000    0.000    0.000    0.000    0.000    0.000 
#
# Total GULP energy -793663.259275 kJ/mol
# GULP energy per Si atom -12400.988426 kJ/mol
# Density = 1.973824 g / cm^3
# Si number density = 19.783267 Si / 1000 Ang^3
#
#
#
# Elastic Constant Matrix: (Units=GPa)
#
#
# Indices 1 2 3 4 5 6 
#
# 1 96.9919 34.8409 37.7981 0.0000 0.0000 0.0000
# 2 34.8409 113.4975 39.2155 0.0000 0.0000 0.0000
# 3 37.7981 39.2155 64.4248 0.0000 0.0000 0.0000
# 4 0.0000 0.0000 0.0000 31.7776 0.0000 0.0000
# 5 0.0000 0.0000 0.0000 0.0000 18.0821 0.0000
# 6 0.0000 0.0000 0.0000 0.0000 0.0000 22.6905
#
#
#
# Elastic Compliance Matrix: (Units=1/GPa)
#
#
# Indices 1 2 3 4 5 6 
#
# 1 0.013651 -0.001802 -0.006912 0.000000 0.000000 0.000000
# 2 -0.001802 0.011395 -0.005879 0.000000 0.000000 0.000000
# 3 -0.006912 -0.005879 0.023156 0.000000 0.000000 0.000000
# 4 0.000000 0.000000 0.000000 0.031469 0.000000 0.000000
# 5 0.000000 0.000000 0.000000 0.000000 0.055303 0.000000
# 6 0.000000 0.000000 0.000000 0.000000 0.000000 0.044071
#
#
# Mechanical properties :
#
#
# Convention : Reuss Voigt Hill
#
# Bulk Modulus (GPa) = 52.58825 55.40256 53.99540
# Shear Modulus (GPa) = 23.30233 25.38070 24.34151
#
# Velocity S-wave (km/s) = 3.43575 3.58570 3.51152
# Velocity P-wave (km/s) = 6.50992 6.72373 6.61769
#
# Compressibility (1/GPa) = 0.01901566
#
# Stress axis : x y z
#
# Youngs Moduli (GPa) = 73.25343 87.75541 43.18575
#
# Poissons Ratio (x) = 0.15816 0.29850
# Poissons Ratio (y) = 0.13203 0.25388
# Poissons Ratio (z) = 0.50634 0.51591
#
# Static dielectric constant tensor:
#      x y z
#    x 3.695740 0.000000 0.000000 
#    y 0.000000 3.677430 0.000000 
#    z 0.000000 0.000000 3.392510 
# 
# 
# High freq. dielectric constant tensor:
#      x y z
#    x 1.780880 0.000000 0.000000 
#    y 0.000000 1.782330 0.000000 
#    z 0.000000 0.000000 1.744520 
# 
# From -- ./inp_files/4524.got.cif
#   From: 2010.03.12/outbox.cif.g09.slc.cpg/sg55_3_cif.got.tgz:4524.got - 2010.04.16 15:19:21.
