data_PCOD8225564
_publ_section_title
;
Structure prediction by ZEFSAII (Michael W. Deem and Ramdas Pophale) SiO2 
 PCOD8225564
Probable space group: P B A M
;
_chemical_formula_sum "Si O2"
_cell_formula_units_Z 64
_cell_length_a 19.078764
_cell_length_b 19.642309
_cell_length_c 9.331796
_cell_angle_alpha 90.000000
_cell_angle_beta 90.000000
_cell_angle_gamma 90.000000
_cell_volume 3497.099676
_symmetry_space_group_name_H-M "P B A M"
_symmetry_group_IT_number 55
_symmetry_cell_setting 'orthorhombic'
loop_
_space_group_symop_operation_xyz
x,y,z
-x,-y,z
1/2+x,1/2-y,-z
1/2-x,1/2+y,-z
-x,-y,-z
x,y,-z
1/2-x,1/2+y,z
1/2+x,1/2-y,z
loop_
_atom_site_type_symbol
_atom_site_label
_atom_site_fract_x
_atom_site_fract_y
_atom_site_fract_z
Si Si1 0.679153 0.586674 0.665365
Si Si2 0.959735 0.069948 0.836763
Si Si3 0.225694 0.150513 0.166595
Si Si4 0.907440 0.682117 0.331107
Si Si5 0.434961 0.953118 0.834615
Si Si6 0.747911 0.222095 0.662317
Si Si7 0.717188 0.993714 0.166313
Si Si8 0.068476 0.186021 0.166930
O O1 0.679545 0.564852 0.500000
O O2 0.605931 0.566546 0.733187
O O3 0.690369 0.667565 0.682933
O O4 0.742752 0.549740 0.743013
O O5 0.009731 0.131634 0.791067
O O6 0.933835 0.078843 0.000000
O O7 0.000000 0.000000 0.817871
O O8 0.265800 0.212793 0.241731
O O9 0.259110 0.080383 0.222086
O O10 0.143363 0.152218 0.204922
O O11 0.239467 0.159473 0.000000
O O12 0.922060 0.681385 0.500000
O O13 0.937851 0.613602 0.263181
O O14 0.825303 0.686971 0.292765
O O15 0.946145 0.747011 0.260970
O O16 0.500000 0.000000 0.790364
O O17 0.365260 0.997287 0.807150
O O18 0.439708 0.930094 0.000000
O O19 0.742495 0.247871 0.500000
O O20 0.737447 0.002925 0.000000
O O21 0.065644 0.205858 0.000000
#
# Coordination Sequence:
#
# PCOD8225564 Si02
#       8
#     8   8   8   8   8   8   8   8
#     4  11  22  36  56  82 115 148 185 230 276 334
#     4  10  21  38  58  82 114 149 188 233 278 329
#     4   9  18  33  56  83 107 138 183 231 274 322
#     4  10  19  35  58  80 108 145 187 227 270 330
#     4  10  21  37  57  81 111 144 183 234 286 335
#     4   9  19  35  53  77 109 142 178 223 269 323
#     4  10  20  36  58  83 110 143 186 233 282 334
#     4   9  18  34  56  81 110 145 185 229 276 327
#
# _framework density 18.300879999999999
#
# number of rings (size 3 to 8) (size 9 to 14) (size 15 to 20)
#    0.000    2.250    1.250    1.500    0.000    5.000 
#    2.250    2.500    0.000    0.000    0.000    0.000 
#    0.000    0.000    0.000    0.000    0.000    0.000 
#
# Total GULP energy -793803.102183 kJ/mol
# GULP energy per Si atom -12403.173472 kJ/mol
# Density = 1.825923 g / cm^3
# Si number density = 18.300880 Si / 1000 Ang^3
#
#
#
# Elastic Constant Matrix: (Units=GPa)
#
#
# Indices 1 2 3 4 5 6 
#
# 1 85.1161 44.2187 41.3960 0.0000 0.0000 0.0000
# 2 44.2187 121.7030 57.9125 0.0000 0.0000 0.0000
# 3 41.3960 57.9125 77.6672 0.0000 0.0000 0.0000
# 4 0.0000 0.0000 0.0000 -39.6103 0.0000 0.0000
# 5 0.0000 0.0000 0.0000 0.0000 20.2745 0.0000
# 6 0.0000 0.0000 0.0000 0.0000 0.0000 26.6629
#
#
#
# Elastic Compliance Matrix: (Units=1/GPa)
#
#
# Indices 1 2 3 4 5 6 
#
# 1 0.016452 -0.002798 -0.006683 0.000000 0.000000 0.000000
# 2 -0.002798 0.013211 -0.008360 0.000000 0.000000 0.000000
# 3 -0.006683 -0.008360 0.022671 0.000000 0.000000 0.000000
# 4 0.000000 0.000000 0.000000 -0.025246 0.000000 0.000000
# 5 0.000000 0.000000 0.000000 0.000000 0.049323 0.000000
# 6 0.000000 0.000000 0.000000 0.000000 0.000000 0.037505
#
#
# Mechanical properties :
#
#
# Convention : Reuss Voigt Hill
#
# Bulk Modulus (GPa) = 60.04671 63.50452 61.77562
# Shear Modulus (GPa) = 32.22715 10.86269 21.54492
#
# Velocity S-wave (km/s) = 4.20093 2.43895 3.43485
# Velocity P-wave (km/s) = 7.51083 6.53505 7.03987
#
# Compressibility (1/GPa) = 0.01665370
#
# Stress axis : x y z
#
# Youngs Moduli (GPa) = 60.78196 75.69323 44.10932
#
# Poissons Ratio (x) = 0.21176 0.29478
# Poissons Ratio (y) = 0.17004 0.36875
# Poissons Ratio (z) = 0.40620 0.63279
#
# Static dielectric constant tensor:
#      x y z
#    x 3.260890 0.000000 0.000000 
#    y 0.000000 3.442000 0.000000 
#    z 0.000000 0.000000 3.357780 
# 
# 
# High freq. dielectric constant tensor:
#      x y z
#    x 1.696740 0.000000 0.000000 
#    y 0.000000 1.717590 0.000000 
#    z 0.000000 0.000000 1.708020 
# 
# From -- ./inp_files/9038.got.cif
#   From: 2010.03.12/outbox.cif.g09.slc.cpg/sg55_5_cif.got.tgz:9038.got - 2010.04.16 15:19:21.
