data_PCOD8225290
_publ_section_title
;
Structure prediction by ZEFSAII (Michael W. Deem and Ramdas Pophale) SiO2 
 PCOD8225290
Probable space group: P B A M
;
_chemical_formula_sum "Si O2"
_cell_formula_units_Z 56
_cell_length_a 21.955723
_cell_length_b 14.614637
_cell_length_c 9.099892
_cell_angle_alpha 90.000000
_cell_angle_beta 90.000000
_cell_angle_gamma 90.000000
_cell_volume 2919.927133
_symmetry_space_group_name_H-M "P B A M"
_symmetry_group_IT_number 55
_symmetry_cell_setting 'orthorhombic'
loop_
_space_group_symop_operation_xyz
x,y,z
-x,-y,z
1/2+x,1/2-y,-z
1/2-x,1/2+y,-z
-x,-y,-z
x,y,-z
1/2-x,1/2+y,z
1/2+x,1/2-y,z
loop_
_atom_site_type_symbol
_atom_site_label
_atom_site_fract_x
_atom_site_fract_y
_atom_site_fract_z
Si Si1 0.086145 0.340459 0.168286
Si Si2 0.860952 0.472339 0.168243
Si Si3 0.860369 0.829664 0.670582
Si Si4 0.568657 0.512087 0.326040
Si Si5 0.963831 0.367183 0.668673
Si Si6 0.718598 0.838176 0.328084
Si Si7 0.619479 0.699485 0.332556
O O1 0.138994 0.417344 0.181339
O O2 0.109877 0.244958 0.226868
O O3 0.030466 0.373546 0.266004
O O4 0.065163 0.328586 0.000000
O O5 0.922335 0.435954 0.240993
O O6 0.802093 0.431963 0.250323
O O7 0.859295 0.440304 0.000000
O O8 0.873733 0.807978 0.500000
O O9 0.889061 0.926579 0.716050
O O10 0.789062 0.826256 0.704727
O O11 0.500000 0.500000 0.261884
O O12 0.563496 0.524828 0.500000
O O13 0.601469 0.602638 0.256633
O O14 0.965057 0.399081 0.500000
O O15 0.939480 0.263729 0.682201
O O16 0.704246 0.849728 0.500000
O O17 0.678937 0.751836 0.264765
O O18 0.636131 0.678269 0.500000
#
# Coordination Sequence:
#
# PCOD8225290 Si02
#       7
#     8   8   8   8   8   8   8
#     4  11  23  36  51  75 109 146 179 215 267 325
#     4  10  21  36  54  77 108 145 178 211 261 325
#     4  10  21  35  54  79 104 136 181 228 268 313
#     4   9  16  28  49  76 102 130 169 217 269 320
#     4  10  19  33  56  83 108 136 174 221 269 317
#     4   9  19  35  54  79 106 134 176 224 268 318
#     4   8  15  29  50  75 103 132 163 209 268 321
#
# _framework density 19.178560000000001
#
# number of rings (size 3 to 8) (size 9 to 14) (size 15 to 20)
#    0.000    2.429    0.000    3.429    0.000    8.000 
#    0.000    2.857    0.000    7.286    0.000    0.000 
#    0.000    0.000    0.000    0.000    0.000    0.000 
#
# Total GULP energy -694240.070272 kJ/mol
# GULP energy per Si atom -12397.144112 kJ/mol
# Density = 1.913491 g / cm^3
# Si number density = 19.178560 Si / 1000 Ang^3
#
#
#
# Elastic Constant Matrix: (Units=GPa)
#
#
# Indices 1 2 3 4 5 6 
#
# 1 61.4930 8.3067 11.7440 0.0000 0.0000 0.0000
# 2 8.3067 94.8462 9.5977 0.0000 0.0000 0.0000
# 3 11.7440 9.5977 42.2860 0.0000 0.0000 0.0000
# 4 0.0000 0.0000 0.0000 24.7118 0.0000 0.0000
# 5 0.0000 0.0000 0.0000 0.0000 1.9118 0.0000
# 6 0.0000 0.0000 0.0000 0.0000 0.0000 13.5103
#
#
#
# Elastic Compliance Matrix: (Units=1/GPa)
#
#
# Indices 1 2 3 4 5 6 
#
# 1 0.017275 -0.001052 -0.004559 0.000000 0.000000 0.000000
# 2 -0.001052 0.010855 -0.002172 0.000000 0.000000 0.000000
# 3 -0.004559 -0.002172 0.025408 0.000000 0.000000 0.000000
# 4 0.000000 0.000000 0.000000 0.040466 0.000000 0.000000
# 5 0.000000 0.000000 0.000000 0.000000 0.523064 0.000000
# 6 0.000000 0.000000 0.000000 0.000000 0.000000 0.074018
#
#
# Mechanical properties :
#
#
# Convention : Reuss Voigt Hill
#
# Bulk Modulus (GPa) = 26.33460 28.65799 27.49629
# Shear Modulus (GPa) = 6.95112 19.29190 13.12151
#
# Velocity S-wave (km/s) = 1.90586 3.17505 2.61851
# Velocity P-wave (km/s) = 4.31325 5.33070 4.84874
#
# Compressibility (1/GPa) = 0.03797285
#
# Stress axis : x y z
#
# Youngs Moduli (GPa) = 57.88795 92.12128 39.35839
#
# Poissons Ratio (x) = 0.09688 0.17943
# Poissons Ratio (y) = 0.06088 0.08548
# Poissons Ratio (z) = 0.26391 0.20007
#
# Static dielectric constant tensor:
#      x y z
#    x 3.592120 0.000000 0.000000 
#    y 0.000000 3.698570 0.000000 
#    z 0.000000 0.000000 3.292180 
# 
# 
# High freq. dielectric constant tensor:
#      x y z
#    x 1.743130 0.000000 0.000000 
#    y 0.000000 1.755320 0.000000 
#    z 0.000000 0.000000 1.714810 
# 
# From -- ./inp_files/8786.got.cif
#   From: 2010.03.12/outbox.cif.g09.slc.cpg/sg55_5_cif.got.tgz:8786.got - 2010.04.16 15:19:21.
