data_PCOD8225444
_publ_section_title
;
Structure prediction by ZEFSAII (Michael W. Deem and Ramdas Pophale) SiO2 
 PCOD8225444
Probable space group: P B A M
;
_chemical_formula_sum "Si O2"
_cell_formula_units_Z 64
_cell_length_a 33.067496
_cell_length_b 11.517156
_cell_length_c 8.786645
_cell_angle_alpha 90.000000
_cell_angle_beta 90.000000
_cell_angle_gamma 90.000000
_cell_volume 3346.336723
_symmetry_space_group_name_H-M "P B A M"
_symmetry_group_IT_number 55
_symmetry_cell_setting 'orthorhombic'
loop_
_space_group_symop_operation_xyz
x,y,z
-x,-y,z
1/2+x,1/2-y,-z
1/2-x,1/2+y,-z
-x,-y,-z
x,y,-z
1/2-x,1/2+y,z
1/2+x,1/2-y,z
loop_
_atom_site_type_symbol
_atom_site_label
_atom_site_fract_x
_atom_site_fract_y
_atom_site_fract_z
Si Si1 0.441369 0.586242 0.323094
Si Si2 0.634788 0.030625 0.320817
Si Si3 0.301031 0.552595 0.180716
Si Si4 0.970613 0.166974 0.324135
Si Si5 0.210991 0.585290 0.822088
Si Si6 0.909398 0.324054 0.179755
Si Si7 0.629622 0.277034 0.178227
Si Si8 0.333584 0.314379 0.822973
O O1 0.429137 0.595099 0.500000
O O2 0.481706 0.660967 0.291933
O O3 0.449378 0.453331 0.275542
O O4 0.406262 0.634183 0.216300
O O5 0.634010 0.018527 0.500000
O O6 0.624169 0.161132 0.274417
O O7 0.679245 0.997928 0.261086
O O8 0.599613 0.949111 0.252480
O O9 0.255700 0.565188 0.245506
O O10 0.328028 0.663140 0.226153
O O11 0.320719 0.436058 0.253610
O O12 0.298647 0.541241 0.000000
O O13 0.962166 0.191641 0.500000
O O14 0.952955 0.274507 0.227589
O O15 0.201263 0.720049 0.792190
O O16 0.208180 0.554858 0.000000
O O17 0.875803 0.233413 0.243854
O O18 0.906475 0.339521 0.000000
O O19 0.628800 0.247999 0.000000
O O20 0.339919 0.336095 0.000000
#
# Coordination Sequence:
#
# PCOD8225444 Si02
#       8
#     8   8   8   8   8   8   8   8
#     4   9  19  36  56  83 120 156 185 221 272 332
#     4  11  23  39  56  75 108 150 185 228 284 342
#     4   9  18  30  52  81 107 138 176 222 275 326
#     4   9  18  34  58  85 116 153 188 221 271 334
#     4   9  18  33  55  79 104 137 181 228 270 323
#     4  10  19  34  57  82 108 141 186 237 278 323
#     4  11  22  36  56  83 111 145 189 234 279 331
#     4   8  15  28  47  76 107 133 168 217 269 318
#
# _framework density 19.125391
#
# number of rings (size 3 to 8) (size 9 to 14) (size 15 to 20)
#    0.000    2.500    0.000    4.125    1.750    2.000 
#    0.000    3.125    0.000    5.250    0.000    0.000 
#    0.000    0.000    0.000    0.000    0.000    0.000 
#
# Total GULP energy -793575.810549 kJ/mol
# GULP energy per Si atom -12399.622040 kJ/mol
# Density = 1.908186 g / cm^3
# Si number density = 19.125391 Si / 1000 Ang^3
#
#
#
# Elastic Constant Matrix: (Units=GPa)
#
#
# Indices 1 2 3 4 5 6 
#
# 1 72.0604 13.0575 24.7315 0.0000 0.0000 0.0000
# 2 13.0575 67.3920 23.2319 0.0000 0.0000 0.0000
# 3 24.7315 23.2319 64.8527 0.0000 0.0000 0.0000
# 4 0.0000 0.0000 0.0000 25.5081 0.0000 0.0000
# 5 0.0000 0.0000 0.0000 0.0000 22.5196 0.0000
# 6 0.0000 0.0000 0.0000 0.0000 0.0000 26.3598
#
#
#
# Elastic Compliance Matrix: (Units=1/GPa)
#
#
# Indices 1 2 3 4 5 6 
#
# 1 0.016043 -0.001140 -0.005710 0.000000 0.000000 0.000000
# 2 -0.001140 0.017010 -0.005659 0.000000 0.000000 0.000000
# 3 -0.005710 -0.005659 0.019624 0.000000 0.000000 0.000000
# 4 0.000000 0.000000 0.000000 0.039203 0.000000 0.000000
# 5 0.000000 0.000000 0.000000 0.000000 0.044406 0.000000
# 6 0.000000 0.000000 0.000000 0.000000 0.000000 0.037937
#
#
# Mechanical properties :
#
#
# Convention : Reuss Voigt Hill
#
# Bulk Modulus (GPa) = 36.15260 36.26075 36.20667
# Shear Modulus (GPa) = 23.98537 24.42979 24.20758
#
# Velocity S-wave (km/s) = 3.54519 3.57788 3.56157
# Velocity P-wave (km/s) = 5.97509 6.00574 5.99044
#
# Compressibility (1/GPa) = 0.02766053
#
# Stress axis : x y z
#
# Youngs Moduli (GPa) = 62.33078 58.78835 50.95800
#
# Poissons Ratio (x) = 0.06703 0.29095
# Poissons Ratio (y) = 0.07107 0.28835
# Poissons Ratio (z) = 0.35589 0.33266
#
# Static dielectric constant tensor:
#      x y z
#    x 3.625600 0.000000 0.000000 
#    y 0.000000 3.533740 0.000000 
#    z 0.000000 0.000000 3.169010 
# 
# 
# High freq. dielectric constant tensor:
#      x y z
#    x 1.744290 0.000000 0.000000 
#    y 0.000000 1.744760 0.000000 
#    z 0.000000 0.000000 1.716170 
# 
# From -- ./inp_files/10814.got.cif
#   From: 2010.03.12/outbox.cif.g09.slc.cpg/sg55_6_cif.got.tgz:10814.got - 2010.04.16 15:19:21.
