data_PCOD8225811
_publ_section_title
;
Structure prediction by ZEFSAII (Michael W. Deem and Ramdas Pophale) SiO2 
 PCOD8225811
Probable space group: P B A M
;
_chemical_formula_sum "Si O2"
_cell_formula_units_Z 48
_cell_length_a 9.224813
_cell_length_b 16.436657
_cell_length_c 15.088234
_cell_angle_alpha 90.000000
_cell_angle_beta 90.000000
_cell_angle_gamma 90.000000
_cell_volume 2287.754795
_symmetry_space_group_name_H-M "P B A M"
_symmetry_group_IT_number 55
_symmetry_cell_setting 'orthorhombic'
loop_
_space_group_symop_operation_xyz
x,y,z
-x,-y,z
1/2+x,1/2-y,-z
1/2-x,1/2+y,-z
-x,-y,-z
x,y,-z
1/2-x,1/2+y,z
1/2+x,1/2-y,z
loop_
_atom_site_type_symbol
_atom_site_label
_atom_site_fract_x
_atom_site_fract_y
_atom_site_fract_z
Si Si1 0.339934 0.013969 0.303650
Si Si2 0.591106 0.419534 0.399353
Si Si3 0.580738 0.910311 0.000000
Si Si4 0.332137 0.484704 0.000000
Si Si5 0.879440 0.338678 0.183492
Si Si6 0.626747 0.567498 0.183706
Si Si7 0.567354 0.297941 0.759688
O O1 0.258194 0.055148 0.386319
O O2 0.351363 0.071853 0.219341
O O3 0.500000 0.000000 0.341065
O O4 0.246148 0.938475 0.263453
O O5 0.500000 0.500000 0.373202
O O6 0.561015 0.392461 0.500000
O O7 0.560758 0.341885 0.336709
O O8 0.554892 0.852269 0.914895
O O9 0.500000 0.000000 0.000000
O O10 0.752105 0.928883 0.000000
O O11 0.500000 0.500000 0.000000
O O12 0.289032 0.437293 0.910240
O O13 0.724393 0.293037 0.193858
O O14 0.001398 0.293039 0.243081
O O15 0.500000 0.500000 0.196380
O O16 0.547507 0.653858 0.179921
#
# Coordination Sequence:
#
# PCOD8225811 Si02
#       7
#     8   8   4   4   8   8   8
#     4  11  21  37  63  92 127 164 214 264 321 385
#     4  10  20  40  69  94 120 163 215 266 324 400
#     4  12  24  41  61  92 126 166 224 268 301 363
#     4  10  20  31  59  84 117 161 214 254 296 354
#     4  11  25  39  60  89 130 174 209 267 317 383
#     4  11  18  38  60  85 120 171 220 261 314 378
#     4  11  23  41  61  92 131 167 214 263 337 389
#
# _framework density 20.981269000000001
#
# number of rings (size 3 to 8) (size 9 to 14) (size 15 to 20)
#    0.000    1.167    6.667    1.500    2.333    1.667 
#    0.000    3.333    0.000    0.000    0.000    0.000 
#    0.000    0.000    0.000    0.000    0.000    0.000 
#
# Total GULP energy -594638.760212 kJ/mol
# GULP energy per Si atom -12388.307504 kJ/mol
# Density = 2.093351 g / cm^3
# Si number density = 20.981269 Si / 1000 Ang^3
#
#
#
# Elastic Constant Matrix: (Units=GPa)
#
#
# Indices 1 2 3 4 5 6 
#
# 1 116.0344 40.0141 24.5967 0.0000 0.0000 0.0000
# 2 40.0141 37.4636 29.4705 0.0000 0.0000 0.0000
# 3 24.5967 29.4705 124.0901 0.0000 0.0000 0.0000
# 4 0.0000 0.0000 0.0000 23.8933 0.0000 0.0000
# 5 0.0000 0.0000 0.0000 0.0000 14.3202 0.0000
# 6 0.0000 0.0000 0.0000 0.0000 0.0000 41.2057
#
#
#
# Elastic Compliance Matrix: (Units=1/GPa)
#
#
# Indices 1 2 3 4 5 6 
#
# 1 0.013731 -0.015402 0.000936 0.000000 0.000000 0.000000
# 2 -0.015402 0.050102 -0.008846 0.000000 0.000000 0.000000
# 3 0.000936 -0.008846 0.009974 0.000000 0.000000 0.000000
# 4 0.000000 0.000000 0.000000 0.041853 0.000000 0.000000
# 5 0.000000 0.000000 0.000000 0.000000 0.069831 0.000000
# 6 0.000000 0.000000 0.000000 0.000000 0.000000 0.024268
#
#
# Mechanical properties :
#
#
# Convention : Reuss Voigt Hill
#
# Bulk Modulus (GPa) = 36.78766 51.75008 44.26887
# Shear Modulus (GPa) = 18.83629 28.11763 23.47696
#
# Velocity S-wave (km/s) = 2.99953 3.66475 3.34870
# Velocity P-wave (km/s) = 5.43763 6.52883 6.00806
#
# Compressibility (1/GPa) = 0.02718303
#
# Stress axis : x y z
#
# Youngs Moduli (GPa) = 72.82705 19.95924 100.26160
#
# Poissons Ratio (x) = 0.30742 -0.09387
# Poissons Ratio (y) = 1.12171 0.88690
# Poissons Ratio (z) = -0.06818 0.17656
#
# Static dielectric constant tensor:
#      x y z
#    x 4.530850 0.000000 0.000000 
#    y 0.000000 3.656310 0.000000 
#    z 0.000000 0.000000 3.838620 
# 
# 
# High freq. dielectric constant tensor:
#      x y z
#    x 1.836750 0.000000 0.000000 
#    y 0.000000 1.793660 0.000000 
#    z 0.000000 0.000000 1.805260 
# 
# From -- ./inp_files/20816.got.cif
#   From: 2010.03.12/outbox.cif.g09.slc.cpg/sg55_11_cif.got.tgz:20816.got - 2010.04.16 15:19:21.
