data_PCOD8225004
_publ_section_title
;
Structure prediction by ZEFSAII (Michael W. Deem and Ramdas Pophale) SiO2 
 PCOD8225004
Probable space group: P B A M
;
_chemical_formula_sum "Si O2"
_cell_formula_units_Z 64
_cell_length_a 19.022274
_cell_length_b 23.194692
_cell_length_c 8.770537
_cell_angle_alpha 90.000000
_cell_angle_beta 90.000000
_cell_angle_gamma 90.000000
_cell_volume 3869.699381
_symmetry_space_group_name_H-M "P B A M"
_symmetry_group_IT_number 55
_symmetry_cell_setting 'orthorhombic'
loop_
_space_group_symop_operation_xyz
x,y,z
-x,-y,z
1/2+x,1/2-y,-z
1/2-x,1/2+y,-z
-x,-y,-z
x,y,-z
1/2-x,1/2+y,z
1/2+x,1/2-y,z
loop_
_atom_site_type_symbol
_atom_site_label
_atom_site_fract_x
_atom_site_fract_y
_atom_site_fract_z
Si Si1 0.998043 0.115126 0.819822
Si Si2 0.737606 0.663793 0.823216
Si Si3 0.863780 0.718409 0.319069
Si Si4 0.496971 0.253096 0.819786
Si Si5 0.354031 0.443316 0.175062
Si Si6 0.781550 0.829886 0.320458
Si Si7 0.365762 0.562876 0.320103
Si Si8 0.648859 0.763556 0.320159
O O1 0.002795 0.180940 0.761259
O O2 0.057848 0.075825 0.746944
O O3 0.923755 0.089258 0.766673
O O4 0.005875 0.113255 0.000000
O O5 0.816502 0.668107 0.756471
O O6 0.712868 0.598046 0.802904
O O7 0.684596 0.703918 0.729145
O O8 0.734958 0.682298 0.000000
O O9 0.861812 0.711433 0.500000
O O10 0.943079 0.714377 0.258603
O O11 0.831792 0.778951 0.259544
O O12 0.423117 0.226067 0.769043
O O13 0.504072 0.249156 0.000000
O O14 0.339660 0.500023 0.273156
O O15 0.363647 0.461660 0.000000
O O16 0.788374 0.830110 0.500000
O O17 0.809018 0.890762 0.254623
O O18 0.700865 0.816556 0.274631
O O19 0.371070 0.566992 0.500000
O O20 0.634606 0.761353 0.500000
#
# Coordination Sequence:
#
# PCOD8225004 Si02
#       8
#     8   8   8   8   8   8   8   8
#     4  10  20  34  47  65  98 137 170 201 240 288
#     4  10  19  34  51  71  98 130 167 207 248 296
#     4  10  19  33  51  73 100 129 163 205 252 297
#     4  11  20  32  50  75 101 133 168 201 246 300
#     4  10  21  36  49  66  98 136 171 206 245 289
#     4   8  17  32  47  68  97 126 158 202 248 288
#     4  11  21  33  49  71  97 129 172 211 243 287
#     4  10  19  32  51  72  98 130 163 205 254 298
#
# _framework density 16.538753
#
# number of rings (size 3 to 8) (size 9 to 14) (size 15 to 20)
#    0.000    2.000    2.500    3.000    0.000    3.500 
#    0.000    1.875    0.000    0.000    0.000    0.875 
#    0.000    7.000    0.000    0.000    0.000    0.000 
#
# Total GULP energy -793631.806862 kJ/mol
# GULP energy per Si atom -12400.496982 kJ/mol
# Density = 1.650111 g / cm^3
# Si number density = 16.538753 Si / 1000 Ang^3
#
#
#
# Elastic Constant Matrix: (Units=GPa)
#
#
# Indices 1 2 3 4 5 6 
#
# 1 91.7319 39.9283 19.5259 0.0000 0.0000 0.0000
# 2 39.9283 69.9208 25.8595 0.0000 0.0000 0.0000
# 3 19.5259 25.8595 36.0481 0.0000 0.0000 0.0000
# 4 0.0000 0.0000 0.0000 22.5221 0.0000 0.0000
# 5 0.0000 0.0000 0.0000 0.0000 28.9158 0.0000
# 6 0.0000 0.0000 0.0000 0.0000 0.0000 23.9048
#
#
#
# Elastic Compliance Matrix: (Units=1/GPa)
#
#
# Indices 1 2 3 4 5 6 
#
# 1 0.014690 -0.007412 -0.002639 0.000000 0.000000 0.000000
# 2 -0.007412 0.023207 -0.012633 0.000000 0.000000 0.000000
# 3 -0.002639 -0.012633 0.038233 0.000000 0.000000 0.000000
# 4 0.000000 0.000000 0.000000 0.044401 0.000000 0.000000
# 5 0.000000 0.000000 0.000000 0.000000 0.034583 0.000000
# 6 0.000000 0.000000 0.000000 0.000000 0.000000 0.041833
#
#
# Mechanical properties :
#
#
# Convention : Reuss Voigt Hill
#
# Bulk Modulus (GPa) = 32.50974 40.92537 36.71756
# Shear Modulus (GPa) = 19.79667 22.56101 21.17884
#
# Velocity S-wave (km/s) = 3.46350 3.69742 3.58237
# Velocity P-wave (km/s) = 5.97443 6.55948 6.27378
#
# Compressibility (1/GPa) = 0.03076001
#
# Stress axis : x y z
#
# Youngs Moduli (GPa) = 68.07569 43.09087 26.15568
#
# Poissons Ratio (x) = 0.31940 0.06904
# Poissons Ratio (y) = 0.50460 0.33042
# Poissons Ratio (z) = 0.17968 0.54435
#
# Static dielectric constant tensor:
#      x y z
#    x 3.218460 0.000000 0.000000 
#    y 0.000000 3.062580 0.000000 
#    z 0.000000 0.000000 3.069730 
# 
# 
# High freq. dielectric constant tensor:
#      x y z
#    x 1.634760 0.000000 0.000000 
#    y 0.000000 1.607920 0.000000 
#    z 0.000000 0.000000 1.639500 
# 
# From -- ./inp_files/8008.got.cif
#   From: 2010.03.12/outbox.cif.g09.slc.cpg/sg55_5_cif.got.tgz:8008.got - 2010.04.16 15:19:21.
