data_PCOD8225889
_publ_section_title
;
Structure prediction by ZEFSAII (Michael W. Deem and Ramdas Pophale) SiO2 
 PCOD8225889
Probable space group: P B A M
;
_chemical_formula_sum "Si O2"
_cell_formula_units_Z 64
_cell_length_a 19.711294
_cell_length_b 19.174214
_cell_length_c 9.671057
_cell_angle_alpha 90.000000
_cell_angle_beta 90.000000
_cell_angle_gamma 90.000000
_cell_volume 3655.162157
_symmetry_space_group_name_H-M "P B A M"
_symmetry_group_IT_number 55
_symmetry_cell_setting 'orthorhombic'
loop_
_space_group_symop_operation_xyz
x,y,z
-x,-y,z
1/2+x,1/2-y,-z
1/2-x,1/2+y,-z
-x,-y,-z
x,y,-z
1/2-x,1/2+y,z
1/2+x,1/2-y,z
loop_
_atom_site_type_symbol
_atom_site_label
_atom_site_fract_x
_atom_site_fract_y
_atom_site_fract_z
Si Si1 0.290345 0.238144 0.656301
Si Si2 0.431448 0.460532 0.840045
Si Si3 0.331434 0.580234 0.160828
Si Si4 0.818337 0.388154 0.157894
Si Si5 0.009251 0.297725 0.660756
Si Si6 0.910640 0.171659 0.343330
Si Si7 0.534182 0.928291 0.839264
Si Si8 0.140032 0.211787 0.339799
O O1 0.299194 0.210692 0.500000
O O2 0.324693 0.180791 0.752125
O O3 0.330852 0.310510 0.676316
O O4 0.211427 0.250300 0.690989
O O5 0.500000 0.500000 0.802038
O O6 0.367474 0.508195 0.797732
O O7 0.431167 0.389796 0.756221
O O8 0.428851 0.440163 0.000000
O O9 0.251311 0.570863 0.194390
O O10 0.365027 0.642024 0.249045
O O11 0.344512 0.597566 0.000000
O O12 0.884574 0.435446 0.186356
O O13 0.816263 0.363202 0.000000
O O14 0.007212 0.319174 0.500000
O O15 0.081975 0.265795 0.702710
O O16 0.952619 0.240538 0.695434
O O17 0.997704 0.365907 0.751754
O O18 0.926751 0.148546 0.500000
O O19 0.500000 0.000000 0.789605
O O20 0.518419 0.913738 0.000000
O O21 0.132704 0.189746 0.500000
#
# Coordination Sequence:
#
# PCOD8225889 Si02
#       8
#     8   8   8   8   8   8   8   8
#     4   9  17  32  52  74 101 129 163 206 249 296
#     4  10  21  35  50  73 105 138 171 209 254 302
#     4   9  18  33  52  75 103 136 174 212 250 297
#     4   9  17  32  54  74  97 131 170 209 249 296
#     4  10  20  35  54  78 104 132 168 208 255 304
#     4  10  20  33  52  75 102 134 169 210 251 299
#     4  10  21  36  53  75 102 132 169 212 257 304
#     4   9  18  32  53  78 104 133 166 208 253 299
#
# _framework density 17.509484
#
# number of rings (size 3 to 8) (size 9 to 14) (size 15 to 20)
#    0.000    2.500    1.250    0.750    0.000    2.500 
#    2.250    0.000    0.000    0.000    0.000    0.000 
#    0.000    0.000    0.000    0.000    0.000    0.000 
#
# Total GULP energy -793557.936920 kJ/mol
# GULP energy per Si atom -12399.342764 kJ/mol
# Density = 1.746963 g / cm^3
# Si number density = 17.509484 Si / 1000 Ang^3
#
#
#
# Elastic Constant Matrix: (Units=GPa)
#
#
# Indices 1 2 3 4 5 6 
#
# 1 111.9087 60.2243 42.6181 0.0000 0.0000 0.0000
# 2 60.2243 110.9841 56.7970 0.0000 0.0000 0.0000
# 3 42.6181 56.7970 59.6322 0.0000 0.0000 0.0000
# 4 0.0000 0.0000 0.0000 35.1645 0.0000 0.0000
# 5 0.0000 0.0000 0.0000 0.0000 19.8115 0.0000
# 6 0.0000 0.0000 0.0000 0.0000 0.0000 22.7061
#
#
#
# Elastic Compliance Matrix: (Units=1/GPa)
#
#
# Indices 1 2 3 4 5 6 
#
# 1 0.013391 -0.004622 -0.005169 0.000000 0.000000 0.000000
# 2 -0.004622 0.019174 -0.014959 0.000000 0.000000 0.000000
# 3 -0.005169 -0.014959 0.034711 0.000000 0.000000 0.000000
# 4 0.000000 0.000000 0.000000 0.028438 0.000000 0.000000
# 5 0.000000 0.000000 0.000000 0.000000 0.050476 0.000000
# 6 0.000000 0.000000 0.000000 0.000000 0.000000 0.044041
#
#
# Mechanical properties :
#
#
# Convention : Reuss Voigt Hill
#
# Bulk Modulus (GPa) = 56.25069 66.86710 61.55890
# Shear Modulus (GPa) = 20.35372 23.72878 22.04125
#
# Velocity S-wave (km/s) = 3.41316 3.68529 3.55183
# Velocity P-wave (km/s) = 6.90858 7.50869 7.21488
#
# Compressibility (1/GPa) = 0.01777756
#
# Stress axis : x y z
#
# Youngs Moduli (GPa) = 74.67495 52.15527 28.80905
#
# Poissons Ratio (x) = 0.24104 0.14891
# Poissons Ratio (y) = 0.34511 0.43096
# Poissons Ratio (z) = 0.38598 0.78019
#
# Static dielectric constant tensor:
#      x y z
#    x 3.737820 0.000000 0.000000 
#    y 0.000000 2.979350 0.000000 
#    z 0.000000 0.000000 3.264900 
# 
# 
# High freq. dielectric constant tensor:
#      x y z
#    x 1.696340 0.000000 0.000000 
#    y 0.000000 1.650790 0.000000 
#    z 0.000000 0.000000 1.677510 
# 
# From -- ./inp_files/9187.got.cif
#   From: 2010.03.12/outbox.cif.g09.slc.cpg/sg55_5_cif.got.tgz:9187.got - 2010.04.16 15:19:21.
