data_PCOD8225730
_publ_section_title
;
Structure prediction by ZEFSAII (Michael W. Deem and Ramdas Pophale) SiO2 
 PCOD8225730
Probable space group: P B A M
;
_chemical_formula_sum "Si O2"
_cell_formula_units_Z 48
_cell_length_a 9.726116
_cell_length_b 28.041223
_cell_length_c 8.763452
_cell_angle_alpha 90.000000
_cell_angle_beta 90.000000
_cell_angle_gamma 90.000000
_cell_volume 2390.075436
_symmetry_space_group_name_H-M "P B A M"
_symmetry_group_IT_number 55
_symmetry_cell_setting 'orthorhombic'
loop_
_space_group_symop_operation_xyz
x,y,z
-x,-y,z
1/2+x,1/2-y,-z
1/2-x,1/2+y,-z
-x,-y,-z
x,y,-z
1/2-x,1/2+y,z
1/2+x,1/2-y,z
loop_
_atom_site_type_symbol
_atom_site_label
_atom_site_fract_x
_atom_site_fract_y
_atom_site_fract_z
Si Si1 0.163722 0.794401 0.181150
Si Si2 0.780657 0.389443 0.826184
Si Si3 0.781873 0.107285 0.678539
Si Si4 0.650257 0.293662 0.818334
Si Si5 0.515658 0.446523 0.174052
Si Si6 0.034669 0.446830 0.817895
O O1 0.237517 0.840383 0.251739
O O2 0.255621 0.750016 0.236799
O O3 0.006777 0.788286 0.241553
O O4 0.166059 0.799477 0.000000
O O5 0.719696 0.341624 0.747796
O O6 0.674636 0.433017 0.815808
O O7 0.921372 0.409268 0.752435
O O8 0.812020 0.375767 0.000000
O O9 0.757097 0.109668 0.500000
O O10 0.680193 0.069043 0.753043
O O11 0.934448 0.089485 0.717412
O O12 0.644432 0.296917 0.000000
O O13 0.500000 0.500000 0.234980
O O14 0.460995 0.441724 0.000000
O O15 0.000000 0.500000 0.759385
O O16 0.037912 0.446120 0.000000
#
# Coordination Sequence:
#
# PCOD8225730 Si02
#       6
#     8   8   8   8   8   8
#     4  10  20  37  61  87 114 146 195 250 299 349
#     4   9  17  32  57  88 115 139 186 250 304 349
#     4  12  25  39  56  84 125 166 197 231 289 359
#     4   9  18  32  58  90 111 140 189 251 307 345
#     4  10  19  36  64  90 112 145 193 249 298 343
#     4  10  21  38  62  89 116 152 200 252 299 343
#
# _framework density 20.083048000000002
#
# number of rings (size 3 to 8) (size 9 to 14) (size 15 to 20)
#    0.000    2.000    1.667    2.500    2.333    3.333 
#    0.000    1.667    0.000    0.000    0.000    0.000 
#    0.000    0.000    0.000    0.000    0.000    0.000 
#
# Total GULP energy -595179.869462 kJ/mol
# GULP energy per Si atom -12399.580614 kJ/mol
# Density = 2.003734 g / cm^3
# Si number density = 20.083048 Si / 1000 Ang^3
#
#
#
# Elastic Constant Matrix: (Units=GPa)
#
#
# Indices 1 2 3 4 5 6 
#
# 1 86.1421 28.3263 17.8839 0.0000 0.0000 0.0000
# 2 28.3263 128.3624 26.8601 0.0000 0.0000 0.0000
# 3 17.8839 26.8601 27.4142 0.0000 0.0000 0.0000
# 4 0.0000 0.0000 0.0000 7.2501 0.0000 0.0000
# 5 0.0000 0.0000 0.0000 0.0000 6.1397 0.0000
# 6 0.0000 0.0000 0.0000 0.0000 0.0000 42.5209
#
#
#
# Elastic Compliance Matrix: (Units=1/GPa)
#
#
# Indices 1 2 3 4 5 6 
#
# 1 0.013637 -0.001444 -0.007481 0.000000 0.000000 0.000000
# 2 -0.001444 0.009952 -0.008809 0.000000 0.000000 0.000000
# 3 -0.007481 -0.008809 0.049989 0.000000 0.000000 0.000000
# 4 0.000000 0.000000 0.000000 0.137929 0.000000 0.000000
# 5 0.000000 0.000000 0.000000 0.000000 0.162874 0.000000
# 6 0.000000 0.000000 0.000000 0.000000 0.000000 0.023518
#
#
# Mechanical properties :
#
#
# Convention : Reuss Voigt Hill
#
# Bulk Modulus (GPa) = 26.24036 43.11771 34.67904
# Shear Modulus (GPa) = 11.20894 22.43869 16.82381
#
# Velocity S-wave (km/s) = 2.36504 3.34622 2.89747
# Velocity P-wave (km/s) = 4.53345 6.03705 5.33845
#
# Compressibility (1/GPa) = 0.03810923
#
# Stress axis : x y z
#
# Youngs Moduli (GPa) = 73.33149 100.47799 20.00426
#
# Poissons Ratio (x) = 0.14507 0.14966
# Poissons Ratio (y) = 0.10587 0.17623
# Poissons Ratio (z) = 0.54863 0.88515
#
# Static dielectric constant tensor:
#      x y z
#    x 3.760210 0.000000 0.000000 
#    y 0.000000 3.879470 0.000000 
#    z 0.000000 0.000000 3.069780 
# 
# 
# High freq. dielectric constant tensor:
#      x y z
#    x 1.794590 0.000000 0.000000 
#    y 0.000000 1.800640 0.000000 
#    z 0.000000 0.000000 1.721290 
# 
# From -- ./inp_files/2872.got.cif
#   From: 2010.03.12/outbox.cif.g09.slc.cpg/sg55_2_cif.got.tgz:2872.got - 2010.04.16 15:19:21.
