data_PCOD8225663
_publ_section_title
;
Structure prediction by ZEFSAII (Michael W. Deem and Ramdas Pophale) SiO2 
 PCOD8225663
Probable space group: P B A M
;
_chemical_formula_sum "Si O2"
_cell_formula_units_Z 48
_cell_length_a 28.597105
_cell_length_b 9.539350
_cell_length_c 8.721321
_cell_angle_alpha 90.000000
_cell_angle_beta 90.000000
_cell_angle_gamma 90.000000
_cell_volume 2379.157126
_symmetry_space_group_name_H-M "P B A M"
_symmetry_group_IT_number 55
_symmetry_cell_setting 'orthorhombic'
loop_
_space_group_symop_operation_xyz
x,y,z
-x,-y,z
1/2+x,1/2-y,-z
1/2-x,1/2+y,-z
-x,-y,-z
x,y,-z
1/2-x,1/2+y,z
1/2+x,1/2-y,z
loop_
_atom_site_type_symbol
_atom_site_label
_atom_site_fract_x
_atom_site_fract_y
_atom_site_fract_z
Si Si1 0.122108 0.303120 0.181768
Si Si2 0.957070 0.102983 0.170855
Si Si3 0.286715 0.302886 0.318165
Si Si4 0.300123 0.986041 0.682538
Si Si5 0.632947 0.490347 0.679415
Si Si6 0.017446 0.353084 0.182784
O O1 0.151021 0.433462 0.248644
O O2 0.143691 0.156092 0.237131
O O3 0.069053 0.316092 0.245028
O O4 0.123612 0.309526 0.000000
O O5 0.977958 0.245627 0.240683
O O6 0.918849 0.044357 0.286400
O O7 0.935160 0.122788 0.000000
O O8 0.000000 0.000000 0.157059
O O9 0.286084 0.298987 0.500000
O O10 0.240133 0.380442 0.257966
O O11 0.330951 0.392723 0.259727
O O12 0.289776 0.143546 0.255407
O O13 0.303363 0.986313 0.500000
O O14 0.639322 0.463686 0.500000
O O15 0.000000 0.500000 0.249135
O O16 0.019159 0.350865 0.000000
#
# Coordination Sequence:
#
# PCOD8225663 Si02
#       6
#     8   8   8   8   8   8
#     4  11  22  38  58  85 116 150 191 237 286 339
#     4  10  19  36  58  81 112 153 194 235 285 339
#     4   9  20  38  62  87 114 149 188 229 284 347
#     4  10  20  39  63  85 111 147 188 230 281 343
#     4  11  22  37  59  87 117 153 196 239 283 339
#     4   9  19  35  55  78 110 153 193 227 280 347
#
# _framework density 20.175211999999998
#
# number of rings (size 3 to 8) (size 9 to 14) (size 15 to 20)
#    0.000    2.000    1.667    2.000    2.333    3.000 
#    0.000    5.000    0.000    2.500    0.000    0.000 
#    0.000    0.000    0.000    0.000    0.000    0.000 
#
# Total GULP energy -595203.719670 kJ/mol
# GULP energy per Si atom -12400.077493 kJ/mol
# Density = 2.012929 g / cm^3
# Si number density = 20.175212 Si / 1000 Ang^3
#
#
#
# Elastic Constant Matrix: (Units=GPa)
#
#
# Indices 1 2 3 4 5 6 
#
# 1 86.4952 41.9328 19.8660 0.0000 0.0000 0.0000
# 2 41.9328 167.1842 21.1517 0.0000 0.0000 0.0000
# 3 19.8660 21.1517 34.0820 0.0000 0.0000 0.0000
# 4 0.0000 0.0000 0.0000 27.3604 0.0000 0.0000
# 5 0.0000 0.0000 0.0000 0.0000 26.9337 0.0000
# 6 0.0000 0.0000 0.0000 0.0000 0.0000 42.8786
#
#
#
# Elastic Compliance Matrix: (Units=1/GPa)
#
#
# Indices 1 2 3 4 5 6 
#
# 1 0.014445 -0.002776 -0.006697 0.000000 0.000000 0.000000
# 2 -0.002776 0.007024 -0.002741 0.000000 0.000000 0.000000
# 3 -0.006697 -0.002741 0.034946 0.000000 0.000000 0.000000
# 4 0.000000 0.000000 0.000000 0.036549 0.000000 0.000000
# 5 0.000000 0.000000 0.000000 0.000000 0.037128 0.000000
# 6 0.000000 0.000000 0.000000 0.000000 0.000000 0.023322
#
#
# Mechanical properties :
#
#
# Convention : Reuss Voigt Hill
#
# Bulk Modulus (GPa) = 31.26290 50.40692 40.83491
# Shear Modulus (GPa) = 26.52429 33.08859 29.80644
#
# Velocity S-wave (km/s) = 3.62981 4.05416 3.84784
# Velocity P-wave (km/s) = 5.75297 6.85228 6.32655
#
# Compressibility (1/GPa) = 0.03198679
#
# Stress axis : x y z
#
# Youngs Moduli (GPa) = 69.22688 142.35893 28.61543
#
# Poissons Ratio (x) = 0.39516 0.19164
# Poissons Ratio (y) = 0.19216 0.07845
# Poissons Ratio (z) = 0.46363 0.39028
#
# Static dielectric constant tensor:
#      x y z
#    x 4.008390 0.000000 0.000000 
#    y 0.000000 3.800060 0.000000 
#    z 0.000000 0.000000 3.244230 
# 
# 
# High freq. dielectric constant tensor:
#      x y z
#    x 1.794560 0.000000 0.000000 
#    y 0.000000 1.806520 0.000000 
#    z 0.000000 0.000000 1.746020 
# 
# From -- ./inp_files/2786.got.cif
#   From: 2010.03.12/outbox.cif.g09.slc.cpg/sg55_2_cif.got.tgz:2786.got - 2010.04.16 15:19:21.
