data_PCOD8225111
_publ_section_title
;
Structure prediction by ZEFSAII (Michael W. Deem and Ramdas Pophale) SiO2 
 PCOD8225111
Probable space group: P B A M
;
_chemical_formula_sum "Si O2"
_cell_formula_units_Z 48
_cell_length_a 16.470549
_cell_length_b 17.751855
_cell_length_c 9.186609
_cell_angle_alpha 90.000000
_cell_angle_beta 90.000000
_cell_angle_gamma 90.000000
_cell_volume 2686.006440
_symmetry_space_group_name_H-M "P B A M"
_symmetry_group_IT_number 55
_symmetry_cell_setting 'orthorhombic'
loop_
_space_group_symop_operation_xyz
x,y,z
-x,-y,z
1/2+x,1/2-y,-z
1/2-x,1/2+y,-z
-x,-y,-z
x,y,-z
1/2-x,1/2+y,z
1/2+x,1/2-y,z
loop_
_atom_site_type_symbol
_atom_site_label
_atom_site_fract_x
_atom_site_fract_y
_atom_site_fract_z
Si Si1 0.824671 0.402690 0.169973
Si Si2 0.181425 0.163464 0.666137
Si Si3 0.591728 0.487011 0.330462
Si Si4 0.986373 0.413964 0.670006
Si Si5 0.738033 0.557008 0.171171
Si Si6 0.850626 0.666578 0.668580
O O1 0.758728 0.344545 0.230320
O O2 0.797506 0.487560 0.209043
O O3 0.909645 0.382549 0.243521
O O4 0.833216 0.390016 0.000000
O O5 0.211313 0.155530 0.500000
O O6 0.114284 0.099976 0.701486
O O7 0.142384 0.244505 0.695745
O O8 0.500000 0.500000 0.276682
O O9 0.601079 0.507142 0.500000
O O10 0.649983 0.542803 0.241087
O O11 0.969109 0.403788 0.500000
O O12 0.064360 0.367431 0.722083
O O13 0.000000 0.500000 0.713069
O O14 0.776787 0.632033 0.239121
O O15 0.726772 0.567857 0.000000
O O16 0.835062 0.646595 0.500000
#
# Coordination Sequence:
#
# PCOD8225111 Si02
#       6
#     8   8   8   8   8   8
#     4  10  20  34  53  77 106 141 177 212 260 320
#     4   9  19  36  56  76 103 139 178 222 268 314
#     4   9  18  35  58  80 103 136 182 227 265 312
#     4  10  19  32  54  81 108 139 177 220 264 313
#     4  10  20  33  53  78 106 140 175 215 264 321
#     4  10  20  35  54  78 107 140 179 223 269 316
#
# _framework density 17.870397000000001
#
# number of rings (size 3 to 8) (size 9 to 14) (size 15 to 20)
#    0.000    2.333    1.667    1.000    0.000    3.333 
#    3.000    0.000    0.000    0.000    0.000    0.000 
#    0.000    0.000    0.000    0.000    0.000    0.000 
#
# Total GULP energy -595382.551024 kJ/mol
# GULP energy per Si atom -12403.803146 kJ/mol
# Density = 1.782972 g / cm^3
# Si number density = 17.870397 Si / 1000 Ang^3
#
#
#
# Elastic Constant Matrix: (Units=GPa)
#
#
# Indices 1 2 3 4 5 6 
#
# 1 156.6072 60.9202 61.0661 0.0000 0.0000 0.0000
# 2 60.9202 91.9254 35.8980 0.0000 0.0000 0.0000
# 3 61.0661 35.8980 64.5776 0.0000 0.0000 0.0000
# 4 0.0000 0.0000 0.0000 15.1802 0.0000 0.0000
# 5 0.0000 0.0000 0.0000 0.0000 7.8905 0.0000
# 6 0.0000 0.0000 0.0000 0.0000 0.0000 25.2108
#
#
#
# Elastic Compliance Matrix: (Units=1/GPa)
#
#
# Indices 1 2 3 4 5 6 
#
# 1 0.011267 -0.004223 -0.008307 0.000000 0.000000 0.000000
# 2 -0.004223 0.015477 -0.004610 0.000000 0.000000 0.000000
# 3 -0.008307 -0.004610 0.025904 0.000000 0.000000 0.000000
# 4 0.000000 0.000000 0.000000 0.065875 0.000000 0.000000
# 5 0.000000 0.000000 0.000000 0.000000 0.126735 0.000000
# 6 0.000000 0.000000 0.000000 0.000000 0.000000 0.039666
#
#
# Mechanical properties :
#
#
# Convention : Reuss Voigt Hill
#
# Bulk Modulus (GPa) = 54.44468 69.87542 62.16005
# Shear Modulus (GPa) = 15.36910 20.00467 17.68688
#
# Velocity S-wave (km/s) = 2.93581 3.34942 3.14941
# Velocity P-wave (km/s) = 6.48263 7.35828 6.93429
#
# Compressibility (1/GPa) = 0.01836727
#
# Stress axis : x y z
#
# Youngs Moduli (GPa) = 88.75181 64.61015 38.60473
#
# Poissons Ratio (x) = 0.27285 0.32070
# Poissons Ratio (y) = 0.37480 0.17798
# Poissons Ratio (z) = 0.73728 0.29788
#
# Static dielectric constant tensor:
#      x y z
#    x 3.305380 0.000000 0.000000 
#    y 0.000000 3.199620 0.000000 
#    z 0.000000 0.000000 3.233520 
# 
# 
# High freq. dielectric constant tensor:
#      x y z
#    x 1.692680 0.000000 0.000000 
#    y 0.000000 1.678760 0.000000 
#    z 0.000000 0.000000 1.689220 
# 
# From -- ./inp_files/5541.got.cif
#   From: 2010.03.12/outbox.cif.g09.slc.cpg/sg55_3_cif.got.tgz:5541.got - 2010.04.16 15:19:21.
