data_PCOD8225550
_publ_section_title
;
Structure prediction by ZEFSAII (Michael W. Deem and Ramdas Pophale) SiO2 
 PCOD8225550
Probable space group: P B A M
;
_chemical_formula_sum "Si O2"
_cell_formula_units_Z 64
_cell_length_a 14.256297
_cell_length_b 24.643207
_cell_length_c 9.200507
_cell_angle_alpha 90.000000
_cell_angle_beta 90.000000
_cell_angle_gamma 90.000000
_cell_volume 3232.330198
_symmetry_space_group_name_H-M "P B A M"
_symmetry_group_IT_number 55
_symmetry_cell_setting 'orthorhombic'
loop_
_space_group_symop_operation_xyz
x,y,z
-x,-y,z
1/2+x,1/2-y,-z
1/2-x,1/2+y,-z
-x,-y,-z
x,y,-z
1/2-x,1/2+y,z
1/2+x,1/2-y,z
loop_
_atom_site_type_symbol
_atom_site_label
_atom_site_fract_x
_atom_site_fract_y
_atom_site_fract_z
Si Si1 0.595747 0.365604 0.662503
Si Si2 0.251371 0.405694 0.830618
Si Si3 0.037412 0.661099 0.833093
Si Si4 0.775863 0.205441 0.327341
Si Si5 0.958235 0.059154 0.166464
Si Si6 0.447423 0.947666 0.828581
Si Si7 0.252315 0.686330 0.168895
Si Si8 0.479563 0.261588 0.659587
O O1 0.620531 0.386467 0.500000
O O2 0.513890 0.401812 0.727530
O O3 0.686507 0.363468 0.765957
O O4 0.562520 0.303950 0.656139
O O5 0.238310 0.350656 0.739276
O O6 0.347657 0.437753 0.792815
O O7 0.163934 0.445444 0.791448
O O8 0.248635 0.389660 0.000000
O O9 0.147632 0.665589 0.806469
O O10 0.986691 0.712131 0.759166
O O11 0.998561 0.605583 0.763855
O O12 0.009321 0.664088 0.000000
O O13 0.756975 0.205747 0.500000
O O14 0.726688 0.257629 0.254010
O O15 0.885494 0.208778 0.284424
O O16 0.973487 0.077411 0.000000
O O17 0.000000 0.000000 0.193019
O O18 0.500000 0.000000 0.759055
O O19 0.463053 0.949186 0.000000
O O20 0.276217 0.694847 0.000000
O O21 0.459028 0.237565 0.500000
#
# Coordination Sequence:
#
# PCOD8225550 Si02
#       8
#     8   8   8   8   8   8   8   8
#     4  11  22  37  56  84 118 156 196 236 292 354
#     4  10  20  35  58  86 113 148 194 243 291 346
#     4   9  19  35  56  82 110 146 190 235 287 341
#     4  10  19  35  56  81 116 154 191 234 286 350
#     4  10  22  39  59  86 119 156 198 246 298 352
#     4   9  19  36  58  84 112 146 190 240 288 340
#     4  10  21  35  54  84 119 155 193 239 290 348
#     4   9  19  34  53  78 112 149 183 227 284 343
#
# _framework density 19.799956999999999
#
# number of rings (size 3 to 8) (size 9 to 14) (size 15 to 20)
#    0.000    2.250    1.250    1.125    1.750    3.250 
#    0.000    3.750    0.000    1.500    0.000    0.000 
#    0.000    0.000    0.000    0.000    0.000    0.000 
#
# Total GULP energy -793444.018361 kJ/mol
# GULP energy per Si atom -12397.562787 kJ/mol
# Density = 1.975489 g / cm^3
# Si number density = 19.799957 Si / 1000 Ang^3
#
#
#
# Elastic Constant Matrix: (Units=GPa)
#
#
# Indices 1 2 3 4 5 6 
#
# 1 86.2983 47.9585 41.4060 0.0000 0.0000 0.0000
# 2 47.9585 104.2139 45.1684 0.0000 0.0000 0.0000
# 3 41.4060 45.1684 86.2788 0.0000 0.0000 0.0000
# 4 0.0000 0.0000 0.0000 -7.1494 0.0000 0.0000
# 5 0.0000 0.0000 0.0000 0.0000 11.5050 0.0000
# 6 0.0000 0.0000 0.0000 0.0000 0.0000 32.5320
#
#
#
# Elastic Compliance Matrix: (Units=1/GPa)
#
#
# Indices 1 2 3 4 5 6 
#
# 1 0.017285 -0.005638 -0.005343 0.000000 0.000000 0.000000
# 2 -0.005638 0.014251 -0.004755 0.000000 0.000000 0.000000
# 3 -0.005343 -0.004755 0.016644 0.000000 0.000000 0.000000
# 4 0.000000 0.000000 0.000000 -0.139872 0.000000 0.000000
# 5 0.000000 0.000000 0.000000 0.000000 0.086919 0.000000
# 6 0.000000 0.000000 0.000000 0.000000 0.000000 0.030739
#
#
# Mechanical properties :
#
#
# Convention : Reuss Voigt Hill
#
# Bulk Modulus (GPa) = 59.85598 60.65076 60.25337
# Shear Modulus (GPa) = 79.35447 16.86139 48.10793
#
# Velocity S-wave (km/s) = 6.33759 2.92136 4.93454
# Velocity P-wave (km/s) = 9.15694 6.48671 7.93495
#
# Compressibility (1/GPa) = 0.01670677
#
# Stress axis : x y z
#
# Youngs Moduli (GPa) = 57.85386 70.16920 60.08216
#
# Poissons Ratio (x) = 0.39565 0.32104
# Poissons Ratio (y) = 0.32621 0.28568
# Poissons Ratio (z) = 0.30913 0.33364
#
# Static dielectric constant tensor:
#      x y z
#    x 3.679870 0.000000 0.000000 
#    y 0.000000 3.615870 0.000000 
#    z 0.000000 0.000000 3.554790 
# 
# 
# High freq. dielectric constant tensor:
#      x y z
#    x 1.781750 0.000000 0.000000 
#    y 0.000000 1.758720 0.000000 
#    z 0.000000 0.000000 1.756890 
# 
# From -- ./inp_files/6563.got.cif
#   From: 2010.03.12/outbox.cif.g09.slc.cpg/sg55_4_cif.got.tgz:6563.got - 2010.04.16 15:19:21.
