data_PCOD8225255
_publ_section_title
;
Structure prediction by ZEFSAII (Michael W. Deem and Ramdas Pophale) SiO2 
 PCOD8225255
Probable space group: P B A M
;
_chemical_formula_sum "Si O2"
_cell_formula_units_Z 64
_cell_length_a 23.002535
_cell_length_b 16.214572
_cell_length_c 8.739802
_cell_angle_alpha 90.000000
_cell_angle_beta 90.000000
_cell_angle_gamma 90.000000
_cell_volume 3259.738663
_symmetry_space_group_name_H-M "P B A M"
_symmetry_group_IT_number 55
_symmetry_cell_setting 'orthorhombic'
loop_
_space_group_symop_operation_xyz
x,y,z
-x,-y,z
1/2+x,1/2-y,-z
1/2-x,1/2+y,-z
-x,-y,-z
x,y,-z
1/2-x,1/2+y,z
1/2+x,1/2-y,z
loop_
_atom_site_type_symbol
_atom_site_label
_atom_site_fract_x
_atom_site_fract_y
_atom_site_fract_z
Si Si1 0.283363 0.957013 0.174163
Si Si2 0.829479 0.954814 0.176796
Si Si3 0.018665 0.589812 0.679350
Si Si4 0.257266 0.189014 0.823429
Si Si5 0.550888 0.247459 0.681130
Si Si6 0.652452 0.900362 0.324015
Si Si7 0.177859 0.305077 0.324507
Si Si8 0.047093 0.066451 0.681295
O O1 0.318189 0.902725 0.298309
O O2 0.213783 0.966913 0.204738
O O3 0.314069 0.044344 0.199846
O O4 0.294380 0.928397 0.000000
O O5 0.793658 0.874271 0.228397
O O6 0.888568 0.963428 0.272294
O O7 0.847111 0.948218 0.000000
O O8 0.004950 0.587171 0.500000
O O9 0.085416 0.605187 0.717294
O O10 0.000000 0.500000 0.749238
O O11 0.985864 0.670136 0.750981
O O12 0.314657 0.185274 0.714354
O O13 0.229536 0.277069 0.787277
O O14 0.274395 0.180503 0.000000
O O15 0.543568 0.245577 0.500000
O O16 0.616870 0.231457 0.731181
O O17 0.533328 0.339568 0.742057
O O18 0.661386 0.927301 0.500000
O O19 0.189063 0.281880 0.500000
O O20 0.044562 0.067637 0.500000
O O21 0.000000 0.000000 0.745795
#
# Coordination Sequence:
#
# PCOD8225255 Si02
#       8
#     8   8   8   8   8   8   8   8
#     4  10  21  36  54  80 114 148 178 224 289 345
#     4   9  19  36  56  76 104 144 183 221 279 339
#     4   9  17  31  53  81 114 149 184 232 290 335
#     4  10  20  35  55  77 110 148 178 224 288 340
#     4   9  18  33  54  82 114 144 185 239 287 333
#     4  10  19  33  55  81 108 144 191 229 269 333
#     4  11  20  33  57  85 108 139 187 236 278 333
#     4  10  20  35  56  81 109 145 187 237 289 331
#
# _framework density 19.633475000000001
#
# number of rings (size 3 to 8) (size 9 to 14) (size 15 to 20)
#    0.000    2.250    1.250    3.000    0.000    4.750 
#    2.250    0.000    0.000    9.750    0.000    0.000 
#    0.000    0.000    0.000    0.000    0.000    0.000 
#
# Total GULP energy -792950.665319 kJ/mol
# GULP energy per Si atom -12389.854146 kJ/mol
# Density = 1.958879 g / cm^3
# Si number density = 19.633475 Si / 1000 Ang^3
#
#
#
# Elastic Constant Matrix: (Units=GPa)
#
#
# Indices 1 2 3 4 5 6 
#
# 1 123.0596 62.1503 42.0169 0.0000 0.0000 0.0000
# 2 62.1503 106.3313 18.9462 0.0000 0.0000 0.0000
# 3 42.0169 18.9462 39.0110 0.0000 0.0000 0.0000
# 4 0.0000 0.0000 0.0000 23.9115 0.0000 0.0000
# 5 0.0000 0.0000 0.0000 0.0000 19.2363 0.0000
# 6 0.0000 0.0000 0.0000 0.0000 0.0000 32.6550
#
#
#
# Elastic Compliance Matrix: (Units=1/GPa)
#
#
# Indices 1 2 3 4 5 6 
#
# 1 0.016704 -0.007179 -0.014505 0.000000 0.000000 0.000000
# 2 -0.007179 0.013381 0.001234 0.000000 0.000000 0.000000
# 3 -0.014505 0.001234 0.040657 0.000000 0.000000 0.000000
# 4 0.000000 0.000000 0.000000 0.041821 0.000000 0.000000
# 5 0.000000 0.000000 0.000000 0.000000 0.051985 0.000000
# 6 0.000000 0.000000 0.000000 0.000000 0.000000 0.030623
#
#
# Mechanical properties :
#
#
# Convention : Reuss Voigt Hill
#
# Bulk Modulus (GPa) = 33.51000 57.18096 45.34548
# Shear Modulus (GPa) = 20.32360 24.84646 22.58503
#
# Velocity S-wave (km/s) = 3.22087 3.56127 3.39534
# Velocity P-wave (km/s) = 5.56209 6.78952 6.20622
#
# Compressibility (1/GPa) = 0.02984184
#
# Stress axis : x y z
#
# Youngs Moduli (GPa) = 59.86445 74.73302 24.59595
#
# Poissons Ratio (x) = 0.53652 0.35676
# Poissons Ratio (y) = 0.42978 -0.03034
# Poissons Ratio (z) = 0.86832 -0.09220
#
# Static dielectric constant tensor:
#      x y z
#    x 3.642150 0.000000 0.000000 
#    y 0.000000 3.776530 0.000000 
#    z 0.000000 0.000000 3.148830 
# 
# 
# High freq. dielectric constant tensor:
#      x y z
#    x 1.762780 0.000000 0.000000 
#    y 0.000000 1.765570 0.000000 
#    z 0.000000 0.000000 1.735680 
# 
# From -- ./inp_files/8018.got.cif
#   From: 2010.03.12/outbox.cif.g09.slc.cpg/sg55_5_cif.got.tgz:8018.got - 2010.04.16 15:19:21.
