data_PCOD8225577
_publ_section_title
;
Structure prediction by ZEFSAII (Michael W. Deem and Ramdas Pophale) SiO2 
 PCOD8225577
Probable space group: P B A M
;
_chemical_formula_sum "Si O2"
_cell_formula_units_Z 64
_cell_length_a 15.650776
_cell_length_b 22.811550
_cell_length_c 9.273003
_cell_angle_alpha 90.000000
_cell_angle_beta 90.000000
_cell_angle_gamma 90.000000
_cell_volume 3310.633244
_symmetry_space_group_name_H-M "P B A M"
_symmetry_group_IT_number 55
_symmetry_cell_setting 'orthorhombic'
loop_
_space_group_symop_operation_xyz
x,y,z
-x,-y,z
1/2+x,1/2-y,-z
1/2-x,1/2+y,-z
-x,-y,-z
x,y,-z
1/2-x,1/2+y,z
1/2+x,1/2-y,z
loop_
_atom_site_type_symbol
_atom_site_label
_atom_site_fract_x
_atom_site_fract_y
_atom_site_fract_z
Si Si1 0.087158 0.254176 0.164225
Si Si2 0.462747 0.344713 0.160334
Si Si3 0.255337 0.072140 0.169639
Si Si4 0.433368 0.547329 0.170438
Si Si5 0.903411 0.520015 0.165687
Si Si6 0.376045 0.862620 0.664873
Si Si7 0.811146 0.188364 0.659608
Si Si8 0.764100 0.808732 0.329286
O O1 0.069724 0.316290 0.241206
O O2 0.149630 0.211943 0.252441
O O3 0.996570 0.221558 0.163527
O O4 0.120728 0.263337 0.000000
O O5 0.533102 0.389378 0.224267
O O6 0.373821 0.348178 0.241089
O O7 0.441644 0.366068 0.000000
O O8 0.165879 0.041467 0.221308
O O9 0.270441 0.131675 0.258876
O O10 0.335809 0.030828 0.204696
O O11 0.250872 0.087685 0.000000
O O12 0.500000 0.500000 0.237707
O O13 0.433475 0.540982 0.000000
O O14 0.884946 0.573293 0.271010
O O15 0.000000 0.500000 0.194076
O O16 0.891297 0.539618 0.000000
O O17 0.408669 0.862247 0.500000
O O18 0.279236 0.842426 0.675973
O O19 0.847645 0.181843 0.500000
O O20 0.805187 0.257309 0.698684
O O21 0.781155 0.816726 0.500000
#
# Coordination Sequence:
#
# PCOD8225577 Si02
#       8
#     8   8   8   8   8   8   8   8
#     4  10  19  35  58  84 115 148 190 240 287 344
#     4  10  20  33  55  87 116 145 189 233 280 342
#     4  10  20  37  61  84 116 156 192 242 292 336
#     4   9  18  33  54  83 116 148 189 233 278 342
#     4  10  23  41  61  88 116 149 199 249 294 347
#     4  10  22  40  60  83 114 154 196 237 293 353
#     4   9  21  37  53  80 117 151 186 230 282 348
#     4  10  20  36  56  81 113 150 192 235 285 345
#
# _framework density 19.33165
#
# number of rings (size 3 to 8) (size 9 to 14) (size 15 to 20)
#    0.000    2.250    1.250    1.875    1.750    5.750 
#    0.000    3.750    0.000    0.750    0.000    0.000 
#    0.000    0.000    0.000    0.000    0.000    0.000 
#
# Total GULP energy -793339.301066 kJ/mol
# GULP energy per Si atom -12395.926579 kJ/mol
# Density = 1.928765 g / cm^3
# Si number density = 19.331650 Si / 1000 Ang^3
#
#
#
# Elastic Constant Matrix: (Units=GPa)
#
#
# Indices 1 2 3 4 5 6 
#
# 1 93.0719 46.1993 32.9070 0.0000 0.0000 0.0000
# 2 46.1993 124.4810 60.7178 0.0000 0.0000 0.0000
# 3 32.9070 60.7178 95.1555 0.0000 0.0000 0.0000
# 4 0.0000 0.0000 0.0000 29.1326 0.0000 0.0000
# 5 0.0000 0.0000 0.0000 0.0000 12.7056 0.0000
# 6 0.0000 0.0000 0.0000 0.0000 0.0000 22.1349
#
#
#
# Elastic Compliance Matrix: (Units=1/GPa)
#
#
# Indices 1 2 3 4 5 6 
#
# 1 0.013462 -0.003957 -0.002131 0.000000 0.000000 0.000000
# 2 -0.003957 0.012827 -0.006816 0.000000 0.000000 0.000000
# 3 -0.002131 -0.006816 0.015595 0.000000 0.000000 0.000000
# 4 0.000000 0.000000 0.000000 0.034326 0.000000 0.000000
# 5 0.000000 0.000000 0.000000 0.000000 0.078706 0.000000
# 6 0.000000 0.000000 0.000000 0.000000 0.000000 0.045178
#
#
# Mechanical properties :
#
#
# Convention : Reuss Voigt Hill
#
# Bulk Modulus (GPa) = 62.20286 65.81740 64.01013
# Shear Modulus (GPa) = 21.62080 24.32022 22.97051
#
# Velocity S-wave (km/s) = 3.34790 3.55075 3.45082
# Velocity P-wave (km/s) = 6.86958 7.13658 7.00435
#
# Compressibility (1/GPa) = 0.01607643
#
# Stress axis : x y z
#
# Youngs Moduli (GPa) = 74.28410 77.96294 64.12229
#
# Poissons Ratio (x) = 0.30850 0.13661
# Poissons Ratio (y) = 0.29394 0.43707
# Poissons Ratio (z) = 0.15826 0.53141
#
# Static dielectric constant tensor:
#      x y z
#    x 3.445240 0.000000 0.000000 
#    y 0.000000 3.603610 0.000000 
#    z 0.000000 0.000000 3.509080 
# 
# 
# High freq. dielectric constant tensor:
#      x y z
#    x 1.744800 0.000000 0.000000 
#    y 0.000000 1.756210 0.000000 
#    z 0.000000 0.000000 1.741160 
# 
# From -- ./inp_files/6639.got.cif
#   From: 2010.03.12/outbox.cif.g09.slc.cpg/sg55_4_cif.got.tgz:6639.got - 2010.04.16 15:19:21.
