data_PCOD8225074
_publ_section_title
;
Structure prediction by ZEFSAII (Michael W. Deem and Ramdas Pophale) SiO2 
 PCOD8225074
Probable space group: P B A M
;
_chemical_formula_sum "Si O2"
_cell_formula_units_Z 48
_cell_length_a 5.115777
_cell_length_b 17.013098
_cell_length_c 29.327030
_cell_angle_alpha 90.000000
_cell_angle_beta 90.000000
_cell_angle_gamma 90.000000
_cell_volume 2552.484374
_symmetry_space_group_name_H-M "P B A M"
_symmetry_group_IT_number 55
_symmetry_cell_setting 'orthorhombic'
loop_
_space_group_symop_operation_xyz
x,y,z
-x,-y,z
1/2+x,1/2-y,-z
1/2-x,1/2+y,-z
-x,-y,-z
x,y,-z
1/2-x,1/2+y,z
1/2+x,1/2-y,z
loop_
_atom_site_type_symbol
_atom_site_label
_atom_site_fract_x
_atom_site_fract_y
_atom_site_fract_z
Si Si1 0.009169 0.093011 0.604835
Si Si2 0.749490 0.945887 0.048059
Si Si3 0.655139 0.299482 0.210639
Si Si4 0.492707 0.906477 0.551016
Si Si5 0.346582 0.701698 0.683710
Si Si6 0.749508 0.445096 0.147013
O O1 0.737670 0.124523 0.583926
O O2 0.232644 0.123601 0.570521
O O3 0.070617 0.125889 0.654835
O O4 0.000000 0.000000 0.609745
O O5 0.500000 0.000000 0.046273
O O6 0.739670 0.901183 0.096889
O O7 0.754103 0.894867 0.000000
O O8 0.000000 0.000000 0.048495
O O9 0.370229 0.266359 0.197822
O O10 0.649351 0.322680 0.263595
O O11 0.728442 0.378066 0.184326
O O12 0.451508 0.873093 0.500000
O O13 0.500000 0.000000 0.549610
O O14 0.554128 0.770331 0.671972
O O15 0.500000 0.500000 0.150732
O O16 0.000000 0.500000 0.155971
#
# Coordination Sequence:
#
# PCOD8225074 Si02
#       6
#     8   8   8   8   8   8
#     4  10  19  32  53  78  98 123 164 207 239 277
#     4   8  14  25  43  69 100 131 164 205 254 305
#     4  10  21  37  54  73 102 141 175 206 260 324
#     4   9  17  30  50  76 103 128 156 194 242 292
#     4  10  21  37  54  71  98 136 167 196 247 307
#     4  10  19  32  53  80 104 131 174 223 260 294
#
# _framework density 18.805208
#
# number of rings (size 3 to 8) (size 9 to 14) (size 15 to 20)
#    0.000    2.500    0.000    2.500    0.000    2.667 
#    0.000    2.500    0.000   11.000    0.000    0.000 
#    0.000    0.000    0.000    0.000    0.000    0.000 
#
# Total GULP energy -594704.600922 kJ/mol
# GULP energy per Si atom -12389.679186 kJ/mol
# Density = 1.876241 g / cm^3
# Si number density = 18.805208 Si / 1000 Ang^3
#
#
#
# Elastic Constant Matrix: (Units=GPa)
#
#
# Indices 1 2 3 4 5 6 
#
# 1 132.8745 23.9333 45.1656 0.0000 0.0000 0.0000
# 2 23.9333 47.8769 57.1469 0.0000 0.0000 0.0000
# 3 45.1656 57.1469 135.5243 0.0000 0.0000 0.0000
# 4 0.0000 0.0000 0.0000 6.1805 0.0000 0.0000
# 5 0.0000 0.0000 0.0000 0.0000 27.9593 0.0000
# 6 0.0000 0.0000 0.0000 0.0000 0.0000 20.8501
#
#
#
# Elastic Compliance Matrix: (Units=1/GPa)
#
#
# Indices 1 2 3 4 5 6 
#
# 1 0.008560 -0.001760 -0.002111 0.000000 0.000000 0.000000
# 2 -0.001760 0.042415 -0.017299 0.000000 0.000000 0.000000
# 3 -0.002111 -0.017299 0.015377 0.000000 0.000000 0.000000
# 4 0.000000 0.000000 0.000000 0.161800 0.000000 0.000000
# 5 0.000000 0.000000 0.000000 0.000000 0.035766 0.000000
# 6 0.000000 0.000000 0.000000 0.000000 0.000000 0.047962
#
#
# Mechanical properties :
#
#
# Convention : Reuss Voigt Hill
#
# Bulk Modulus (GPa) = 41.64381 63.19636 52.42009
# Shear Modulus (GPa) = 13.80369 23.66663 18.73516
#
# Velocity S-wave (km/s) = 2.71225 3.55140 3.15981
# Velocity P-wave (km/s) = 5.65697 7.10601 6.42249
#
# Compressibility (1/GPa) = 0.02401317
#
# Stress axis : x y z
#
# Youngs Moduli (GPa) = 116.81749 23.57682 65.03402
#
# Poissons Ratio (x) = 0.04149 0.13728
# Poissons Ratio (y) = 0.20556 1.12500
# Poissons Ratio (z) = 0.24659 0.40785
#
# Static dielectric constant tensor:
#      x y z
#    x 3.831310 0.000000 0.000000 
#    y 0.000000 2.863800 0.000000 
#    z 0.000000 0.000000 4.004420 
# 
# 
# High freq. dielectric constant tensor:
#      x y z
#    x 1.760260 0.000000 0.000000 
#    y 0.000000 1.668420 0.000000 
#    z 0.000000 0.000000 1.749820 
# 
# From -- ./inp_files/23800.got.cif
#   From: 2010.03.12/outbox.cif.g09.slc.cpg/sg55_12_cif.got.tgz:23800.got - 2010.04.16 15:19:21.
