data_PCOD8225363
_publ_section_title
;
Structure prediction by ZEFSAII (Michael W. Deem and Ramdas Pophale) SiO2 
 PCOD8225363
Probable space group: P B A M
;
_chemical_formula_sum "Si O2"
_cell_formula_units_Z 64
_cell_length_a 14.648568
_cell_length_b 29.813762
_cell_length_c 8.667893
_cell_angle_alpha 90.000000
_cell_angle_beta 90.000000
_cell_angle_gamma 90.000000
_cell_volume 3785.519549
_symmetry_space_group_name_H-M "P B A M"
_symmetry_group_IT_number 55
_symmetry_cell_setting 'orthorhombic'
loop_
_space_group_symop_operation_xyz
x,y,z
-x,-y,z
1/2+x,1/2-y,-z
1/2-x,1/2+y,-z
-x,-y,-z
x,y,-z
1/2-x,1/2+y,z
1/2+x,1/2-y,z
loop_
_atom_site_type_symbol
_atom_site_label
_atom_site_fract_x
_atom_site_fract_y
_atom_site_fract_z
Si Si1 0.664235 0.362639 0.322157
Si Si2 0.490909 0.326030 0.826831
Si Si3 0.174961 0.302871 0.814955
Si Si4 0.107137 0.950357 0.820035
Si Si5 0.315921 0.365382 0.681017
Si Si6 0.518586 0.778195 0.827371
Si Si7 0.718748 0.785566 0.182877
Si Si8 0.603767 0.448529 0.820431
O O1 0.689301 0.358121 0.500000
O O2 0.560791 0.347898 0.291813
O O3 0.733028 0.331915 0.226181
O O4 0.670659 0.414623 0.270017
O O5 0.389066 0.335838 0.772887
O O6 0.507569 0.273627 0.829178
O O7 0.505886 0.345686 0.000000
O O8 0.218458 0.346979 0.737972
O O9 0.226446 0.257808 0.754586
O O10 0.069822 0.302534 0.753252
O O11 0.179210 0.305569 0.000000
O O12 0.173348 0.917726 0.724158
O O13 0.002228 0.936437 0.788798
O O14 0.124365 0.001068 0.762544
O O15 0.129830 0.946018 0.000000
O O16 0.327445 0.358753 0.500000
O O17 0.616031 0.786456 0.743285
O O18 0.529346 0.796588 0.000000
O O19 0.712971 0.781390 0.000000
O O20 0.625498 0.444773 0.000000
#
# Coordination Sequence:
#
# PCOD8225363 Si02
#       8
#     8   8   8   8   8   8   8   8
#     4  12  23  32  46  76 108 137 168 204 257 309
#     4  11  19  33  52  70  97 136 178 214 246 289
#     4  10  19  34  54  73  97 134 178 215 246 291
#     4   9  18  33  53  74  97 131 172 208 245 296
#     4  12  23  32  46  76 108 137 168 204 257 309
#     4   9  18  33  53  74  93 128 181 221 246 280
#     4  10  19  34  54  73  97 134 178 215 246 291
#     4   9  18  33  53  74  97 131 172 208 245 296
#
# _framework density 16.90653
#
# number of rings (size 3 to 8) (size 9 to 14) (size 15 to 20)
#    0.000    1.750    3.750    3.375    0.000    1.000 
#    0.000    1.875    0.000    0.000    0.000    0.875 
#    0.000    7.000    0.000    0.000    0.000    0.000 
#
# Total GULP energy -793424.119743 kJ/mol
# GULP energy per Si atom -12397.251871 kJ/mol
# Density = 1.686805 g / cm^3
# Si number density = 16.906530 Si / 1000 Ang^3
#
#
#
# Elastic Constant Matrix: (Units=GPa)
#
#
# Indices 1 2 3 4 5 6 
#
# 1 81.9091 34.9402 11.7781 0.0000 0.0000 0.0000
# 2 34.9402 85.6141 15.8203 0.0000 0.0000 0.0000
# 3 11.7781 15.8203 39.1142 0.0000 0.0000 0.0000
# 4 0.0000 0.0000 0.0000 6.9846 0.0000 0.0000
# 5 0.0000 0.0000 0.0000 0.0000 13.2366 0.0000
# 6 0.0000 0.0000 0.0000 0.0000 0.0000 26.4458
#
#
#
# Elastic Compliance Matrix: (Units=1/GPa)
#
#
# Indices 1 2 3 4 5 6 
#
# 1 0.014955 -0.005697 -0.002199 0.000000 0.000000 0.000000
# 2 -0.005697 0.014794 -0.004268 0.000000 0.000000 0.000000
# 3 -0.002199 -0.004268 0.027955 0.000000 0.000000 0.000000
# 4 0.000000 0.000000 0.000000 0.143172 0.000000 0.000000
# 5 0.000000 0.000000 0.000000 0.000000 0.075548 0.000000
# 6 0.000000 0.000000 0.000000 0.000000 0.000000 0.037813
#
#
# Mechanical properties :
#
#
# Convention : Reuss Voigt Hill
#
# Bulk Modulus (GPa) = 29.96226 36.85720 33.40973
# Shear Modulus (GPa) = 14.29833 18.93997 16.61915
#
# Velocity S-wave (km/s) = 2.91130 3.35068 3.13869
# Velocity P-wave (km/s) = 5.39088 6.06773 5.73929
#
# Compressibility (1/GPa) = 0.03337532
#
# Stress axis : x y z
#
# Youngs Moduli (GPa) = 66.86704 67.59478 35.77215
#
# Poissons Ratio (x) = 0.38509 0.07866
# Poissons Ratio (y) = 0.38094 0.15268
# Poissons Ratio (z) = 0.14704 0.28851
#
# Static dielectric constant tensor:
#      x y z
#    x 3.157840 0.000000 0.000000 
#    y 0.000000 3.197120 0.000000 
#    z 0.000000 0.000000 2.927250 
# 
# 
# High freq. dielectric constant tensor:
#      x y z
#    x 1.629050 0.000000 0.000000 
#    y 0.000000 1.646680 0.000000 
#    z 0.000000 0.000000 1.633260 
# 
# From -- ./inp_files/6951.got.cif
#   From: 2010.03.12/outbox.cif.g09.slc.cpg/sg55_4_cif.got.tgz:6951.got - 2010.04.16 15:19:21.
