data_PCOD8225276
_publ_section_title
;
Structure prediction by ZEFSAII (Michael W. Deem and Ramdas Pophale) SiO2 
 PCOD8225276
Probable space group: P B A M
;
_chemical_formula_sum "Si O2"
_cell_formula_units_Z 48
_cell_length_a 28.949563
_cell_length_b 10.136424
_cell_length_c 9.203189
_cell_angle_alpha 90.000000
_cell_angle_beta 90.000000
_cell_angle_gamma 90.000000
_cell_volume 2700.630212
_symmetry_space_group_name_H-M "P B A M"
_symmetry_group_IT_number 55
_symmetry_cell_setting 'orthorhombic'
loop_
_space_group_symop_operation_xyz
x,y,z
-x,-y,z
1/2+x,1/2-y,-z
1/2-x,1/2+y,-z
-x,-y,-z
x,y,-z
1/2-x,1/2+y,z
1/2+x,1/2-y,z
loop_
_atom_site_type_symbol
_atom_site_label
_atom_site_fract_x
_atom_site_fract_y
_atom_site_fract_z
Si Si1 0.114513 0.215768 0.330711
Si Si2 0.466687 0.117777 0.169739
Si Si3 0.212009 0.507494 0.830993
Si Si4 0.119197 0.520822 0.669444
Si Si5 0.526545 0.366706 0.832343
Si Si6 0.207359 0.205347 0.168907
O O1 0.117408 0.184802 0.500000
O O2 0.106095 0.369593 0.298401
O O3 0.072643 0.134023 0.262750
O O4 0.161984 0.168351 0.258810
O O5 0.419351 0.112948 0.258928
O O6 0.491897 0.251578 0.213901
O O7 0.500000 0.000000 0.217964
O O8 0.454533 0.109869 0.000000
O O9 0.168175 0.555466 0.739859
O O10 0.253960 0.600984 0.782643
O O11 0.224298 0.354649 0.796699
O O12 0.200361 0.526603 0.000000
O O13 0.122061 0.551779 0.500000
O O14 0.500000 0.500000 0.799804
O O15 0.541176 0.352011 0.000000
O O16 0.195276 0.190048 0.000000
#
# Coordination Sequence:
#
# PCOD8225276 Si02
#       6
#     8   8   8   8   8   8
#     4  10  20  34  54  78 106 141 175 209 256 313
#     4  10  19  33  56  80 101 132 175 217 254 298
#     4   9  18  34  55  77 102 133 172 216 258 303
#     4  10  20  33  53  80 107 137 173 214 258 306
#     4  10  21  37  55  77 105 137 174 217 261 306
#     4   9  18  34  56  78 101 133 173 216 258 303
#
# _framework density 17.773629
#
# number of rings (size 3 to 8) (size 9 to 14) (size 15 to 20)
#    0.000    2.333    1.667    1.000    0.000    3.333 
#    3.000    0.000    0.000    0.000    0.000    0.000 
#    0.000    0.000    0.000    0.000    0.000    0.000 
#
# Total GULP energy -595385.716091 kJ/mol
# GULP energy per Si atom -12403.869085 kJ/mol
# Density = 1.773318 g / cm^3
# Si number density = 17.773629 Si / 1000 Ang^3
#
#
#
# Elastic Constant Matrix: (Units=GPa)
#
#
# Indices 1 2 3 4 5 6 
#
# 1 159.6288 71.6114 81.0689 0.0000 0.0000 0.0000
# 2 71.6114 95.5602 41.4436 0.0000 0.0000 0.0000
# 3 81.0689 41.4436 81.3899 0.0000 0.0000 0.0000
# 4 0.0000 0.0000 0.0000 134.4686 0.0000 0.0000
# 5 0.0000 0.0000 0.0000 0.0000 -29.2942 0.0000
# 6 0.0000 0.0000 0.0000 0.0000 0.0000 21.9119
#
#
#
# Elastic Compliance Matrix: (Units=1/GPa)
#
#
# Indices 1 2 3 4 5 6 
#
# 1 0.015032 -0.006124 -0.011855 0.000000 0.000000 0.000000
# 2 -0.006124 0.015925 -0.002010 0.000000 0.000000 0.000000
# 3 -0.011855 -0.002010 0.025118 0.000000 0.000000 0.000000
# 4 0.000000 0.000000 0.000000 0.007437 0.000000 0.000000
# 5 0.000000 0.000000 0.000000 0.000000 -0.034136 0.000000
# 6 0.000000 0.000000 0.000000 0.000000 0.000000 0.045637
#
#
# Mechanical properties :
#
#
# Convention : Reuss Voigt Hill
#
# Bulk Modulus (GPa) = 62.11485 80.53630 71.32558
# Shear Modulus (GPa) = 41.54372 34.91427 38.22900
#
# Velocity S-wave (km/s) = 4.83989 4.43695 4.64279
# Velocity P-wave (km/s) = 8.13980 8.46518 8.30408
#
# Compressibility (1/GPa) = 0.01609921
#
# Stress axis : x y z
#
# Youngs Moduli (GPa) = 66.52360 62.79402 39.81224
#
# Poissons Ratio (x) = 0.38453 0.47197
# Poissons Ratio (y) = 0.40737 0.08000
# Poissons Ratio (z) = 0.78863 0.12619
#
# Static dielectric constant tensor:
#      x y z
#    x 3.243050 0.000000 0.000000 
#    y 0.000000 3.169950 0.000000 
#    z 0.000000 0.000000 3.225670 
# 
# 
# High freq. dielectric constant tensor:
#      x y z
#    x 1.692820 0.000000 0.000000 
#    y 0.000000 1.674940 0.000000 
#    z 0.000000 0.000000 1.686050 
# 
# From -- ./inp_files/2896.got.cif
#   From: 2010.03.12/outbox.cif.g09.slc.cpg/sg55_2_cif.got.tgz:2896.got - 2010.04.16 15:19:21.
