data_PCOD8225392
_publ_section_title
;
Structure prediction by ZEFSAII (Michael W. Deem and Ramdas Pophale) SiO2 
 PCOD8225392
Probable space group: P B A M
;
_chemical_formula_sum "Si O2"
_cell_formula_units_Z 64
_cell_length_a 24.311322
_cell_length_b 15.168666
_cell_length_c 8.914951
_cell_angle_alpha 90.000000
_cell_angle_beta 90.000000
_cell_angle_gamma 90.000000
_cell_volume 3287.569364
_symmetry_space_group_name_H-M "P B A M"
_symmetry_group_IT_number 55
_symmetry_cell_setting 'orthorhombic'
loop_
_space_group_symop_operation_xyz
x,y,z
-x,-y,z
1/2+x,1/2-y,-z
1/2-x,1/2+y,-z
-x,-y,-z
x,y,-z
1/2-x,1/2+y,z
1/2+x,1/2-y,z
loop_
_atom_site_type_symbol
_atom_site_label
_atom_site_fract_x
_atom_site_fract_y
_atom_site_fract_z
Si Si1 0.861063 0.801470 0.325907
Si Si2 0.059504 0.335004 0.173601
Si Si3 0.715668 0.956896 0.174209
Si Si4 0.390736 0.000596 0.676775
Si Si5 0.340617 0.522181 0.172286
Si Si6 0.851160 0.172268 0.826787
Si Si7 0.566764 0.825339 0.172436
Si Si8 0.264623 0.221721 0.325890
O O1 0.875638 0.793583 0.500000
O O2 0.902743 0.743265 0.232409
O O3 0.867224 0.903358 0.276821
O O4 0.799781 0.766515 0.290981
O O5 0.069267 0.425945 0.259919
O O6 0.997009 0.305978 0.201360
O O7 0.072323 0.351025 0.000000
O O8 0.671009 0.015945 0.261744
O O9 0.776316 0.991788 0.211216
O O10 0.709256 0.856484 0.228262
O O11 0.701411 0.961236 0.000000
O O12 0.389815 0.992503 0.500000
O O13 0.412748 0.095930 0.723553
O O14 0.369973 0.428639 0.204223
O O15 0.347300 0.552509 0.000000
O O16 0.901636 0.235628 0.783870
O O17 0.797592 0.191622 0.724847
O O18 0.833633 0.182280 0.000000
O O19 0.577757 0.852030 0.000000
O O20 0.274153 0.200617 0.500000
#
# Coordination Sequence:
#
# PCOD8225392 Si02
#       8
#     8   8   8   8   8   8   8   8
#     4  10  22  40  59  85 120 155 194 246 300 349
#     4  11  24  41  62  84 112 156 205 248 296 353
#     4  10  19  34  55  83 118 155 192 233 281 345
#     4  12  24  37  57  87 121 157 193 240 299 357
#     4   9  20  37  59  87 117 155 198 239 289 351
#     4  10  20  36  60  88 117 152 196 243 294 350
#     4  10  22  41  62  86 117 154 199 251 296 347
#     4  10  20  34  54  84 117 152 190 235 295 351
#
# _framework density 19.467269999999999
#
# number of rings (size 3 to 8) (size 9 to 14) (size 15 to 20)
#    0.000    1.750    1.250    3.000    1.750    5.000 
#    0.000    0.625    0.000    3.750    0.000    0.000 
#    0.000    0.000    0.000    0.000    0.000    0.000 
#
# Total GULP energy -793852.440662 kJ/mol
# GULP energy per Si atom -12403.944385 kJ/mol
# Density = 1.942296 g / cm^3
# Si number density = 19.467270 Si / 1000 Ang^3
#
#
#
# Elastic Constant Matrix: (Units=GPa)
#
#
# Indices 1 2 3 4 5 6 
#
# 1 90.5859 51.6375 50.4994 0.0000 0.0000 0.0000
# 2 51.6375 103.6793 48.9266 0.0000 0.0000 0.0000
# 3 50.4994 48.9266 110.0974 0.0000 0.0000 0.0000
# 4 0.0000 0.0000 0.0000 12.4271 0.0000 0.0000
# 5 0.0000 0.0000 0.0000 0.0000 22.5100 0.0000
# 6 0.0000 0.0000 0.0000 0.0000 0.0000 26.3694
#
#
#
# Elastic Compliance Matrix: (Units=1/GPa)
#
#
# Indices 1 2 3 4 5 6 
#
# 1 0.017538 -0.006249 -0.005267 0.000000 0.000000 0.000000
# 2 -0.006249 0.014431 -0.003547 0.000000 0.000000 0.000000
# 3 -0.005267 -0.003547 0.013075 0.000000 0.000000 0.000000
# 4 0.000000 0.000000 0.000000 0.080469 0.000000 0.000000
# 5 0.000000 0.000000 0.000000 0.000000 0.044425 0.000000
# 6 0.000000 0.000000 0.000000 0.000000 0.000000 0.037923
#
#
# Mechanical properties :
#
#
# Convention : Reuss Voigt Hill
#
# Bulk Modulus (GPa) = 67.03378 67.38774 67.21076
# Shear Modulus (GPa) = 20.57953 22.48122 21.53037
#
# Velocity S-wave (km/s) = 3.25489 3.40195 3.32923
# Velocity P-wave (km/s) = 6.97385 7.07970 7.02697
#
# Compressibility (1/GPa) = 0.01491785
#
# Stress axis : x y z
#
# Youngs Moduli (GPa) = 57.01969 69.29399 76.48184
#
# Poissons Ratio (x) = 0.43303 0.40284
# Poissons Ratio (y) = 0.35632 0.27127
# Poissons Ratio (z) = 0.30033 0.24577
#
# Static dielectric constant tensor:
#      x y z
#    x 3.560560 0.000000 0.000000 
#    y 0.000000 3.538970 0.000000 
#    z 0.000000 0.000000 3.554960 
# 
# 
# High freq. dielectric constant tensor:
#      x y z
#    x 1.749940 0.000000 0.000000 
#    y 0.000000 1.755780 0.000000 
#    z 0.000000 0.000000 1.761580 
# 
# From -- ./inp_files/6540.got.cif
#   From: 2010.03.12/outbox.cif.g09.slc.cpg/sg55_4_cif.got.tgz:6540.got - 2010.04.16 15:19:21.
