data_PCOD8225459
_publ_section_title
;
Structure prediction by ZEFSAII (Michael W. Deem and Ramdas Pophale) SiO2 
 PCOD8225459
Probable space group: P B A M
;
_chemical_formula_sum "Si O2"
_cell_formula_units_Z 48
_cell_length_a 17.551717
_cell_length_b 8.392415
_cell_length_c 15.558223
_cell_angle_alpha 90.000000
_cell_angle_beta 90.000000
_cell_angle_gamma 90.000000
_cell_volume 2291.746365
_symmetry_space_group_name_H-M "P B A M"
_symmetry_group_IT_number 55
_symmetry_cell_setting 'orthorhombic'
loop_
_space_group_symop_operation_xyz
x,y,z
-x,-y,z
1/2+x,1/2-y,-z
1/2-x,1/2+y,-z
-x,-y,-z
x,y,-z
1/2-x,1/2+y,z
1/2+x,1/2-y,z
loop_
_atom_site_type_symbol
_atom_site_label
_atom_site_fract_x
_atom_site_fract_y
_atom_site_fract_z
Si Si1 0.646695 0.347714 0.000000
Si Si2 0.144201 0.135808 0.186783
Si Si3 0.060205 0.269154 0.343003
Si Si4 0.608827 0.870810 0.341680
Si Si5 0.296281 0.307993 0.000000
Si Si6 0.308533 0.275052 0.813724
Si Si7 0.196406 0.770897 0.500000
Si Si8 0.143813 0.131366 0.500000
O O1 0.602821 0.347692 0.908108
O O2 0.705170 0.202793 0.000000
O O3 0.698475 0.503629 0.000000
O O4 0.079434 0.190517 0.251914
O O5 0.217849 0.249609 0.196580
O O6 0.171526 0.957403 0.208149
O O7 0.096751 0.442322 0.352517
O O8 0.091776 0.155119 0.416800
O O9 0.969591 0.275226 0.351506
O O10 0.644755 0.840711 0.248291
O O11 0.665762 0.813567 0.414905
O O12 0.332594 0.233957 0.087273
O O13 0.287464 0.757534 0.500000
O O14 0.176890 0.955319 0.500000
#
# Coordination Sequence:
#
# PCOD8225459 Si02
#       8
#     4   8   8   8   4   8   4   4
#     4   8  16  30  51  80 111 145 185 233 281 324
#     4  10  19  34  57  84 114 148 190 235 280 331
#     4  11  24  41  59  82 115 151 186 228 279 332
#     4  11  24  41  59  82 115 151 186 228 279 332
#     4   8  16  30  51  80 111 145 185 233 281 324
#     4  10  19  34  57  84 114 148 190 235 280 331
#     4  12  25  42  65  89 113 143 183 228 275 330
#     4  12  25  42  65  89 113 143 183 228 275 330
#
# _framework density 20.944725999999999
#
# number of rings (size 3 to 8) (size 9 to 14) (size 15 to 20)
#    0.000    1.667    0.000    5.000    0.000    6.000 
#    0.000    0.833    0.000    5.000    0.000    0.000 
#    0.000    0.000    0.000    0.000    0.000    0.000 
#
# Total GULP energy -595063.494981 kJ/mol
# GULP energy per Si atom -12397.156145 kJ/mol
# Density = 2.089706 g / cm^3
# Si number density = 20.944726 Si / 1000 Ang^3
#
#
#
# Elastic Constant Matrix: (Units=GPa)
#
#
# Indices 1 2 3 4 5 6 
#
# 1 43.7784 -6.7832 20.9581 0.0000 0.0000 0.0000
# 2 -6.7832 34.8698 13.7411 0.0000 0.0000 0.0000
# 3 20.9581 13.7411 136.3783 0.0000 0.0000 0.0000
# 4 0.0000 0.0000 0.0000 211.1359 0.0000 0.0000
# 5 0.0000 0.0000 0.0000 0.0000 7.7223 0.0000
# 6 0.0000 0.0000 0.0000 0.0000 0.0000 28.9985
#
#
#
# Elastic Compliance Matrix: (Units=1/GPa)
#
#
# Indices 1 2 3 4 5 6 
#
# 1 0.026182 0.006955 -0.004724 0.000000 0.000000 0.000000
# 2 0.006955 0.031711 -0.004264 0.000000 0.000000 0.000000
# 3 -0.004724 -0.004264 0.008488 0.000000 0.000000 0.000000
# 4 0.000000 0.000000 0.000000 0.004736 0.000000 0.000000
# 5 0.000000 0.000000 0.000000 0.000000 0.129495 0.000000
# 6 0.000000 0.000000 0.000000 0.000000 0.000000 0.034485
#
#
# Mechanical properties :
#
#
# Convention : Reuss Voigt Hill
#
# Bulk Modulus (GPa) = 16.04769 30.09538 23.07153
# Shear Modulus (GPa) = 19.23558 62.04537 40.64048
#
# Velocity S-wave (km/s) = 3.03379 5.44864 4.40974
# Velocity P-wave (km/s) = 4.46659 7.34736 6.08006
#
# Compressibility (1/GPa) = 0.06231428
#
# Stress axis : x y z
#
# Youngs Moduli (GPa) = 38.19484 31.53449 117.81107
#
# Poissons Ratio (x) = -0.21932 0.55657
# Poissons Ratio (y) = -0.26564 0.50234
# Poissons Ratio (z) = 0.18044 0.13446
#
# Static dielectric constant tensor:
#      x y z
#    x 3.521550 0.000000 0.000000 
#    y 0.000000 3.818840 0.000000 
#    z 0.000000 0.000000 4.213720 
# 
# 
# High freq. dielectric constant tensor:
#      x y z
#    x 1.789220 0.000000 0.000000 
#    y 0.000000 1.828430 0.000000 
#    z 0.000000 0.000000 1.845280 
# 
# From -- ./inp_files/19419.got.cif
#   From: 2010.03.12/outbox.cif.g09.slc.cpg/sg55_10_cif.got.tgz:19419.got - 2010.04.16 15:19:21.
