data_PCOD8225452
_publ_section_title
;
Structure prediction by ZEFSAII (Michael W. Deem and Ramdas Pophale) SiO2 
 PCOD8225452
Probable space group: P B A M
;
_chemical_formula_sum "Si O2"
_cell_formula_units_Z 56
_cell_length_a 14.623388
_cell_length_b 21.575249
_cell_length_c 9.556357
_cell_angle_alpha 90.000000
_cell_angle_beta 90.000000
_cell_angle_gamma 90.000000
_cell_volume 3015.061571
_symmetry_space_group_name_H-M "P B A M"
_symmetry_group_IT_number 55
_symmetry_cell_setting 'orthorhombic'
loop_
_space_group_symop_operation_xyz
x,y,z
-x,-y,z
1/2+x,1/2-y,-z
1/2-x,1/2+y,-z
-x,-y,-z
x,y,-z
1/2-x,1/2+y,z
1/2+x,1/2-y,z
loop_
_atom_site_type_symbol
_atom_site_label
_atom_site_fract_x
_atom_site_fract_y
_atom_site_fract_z
Si Si1 0.558105 0.829968 0.660880
Si Si2 0.390734 0.743372 0.661994
Si Si3 0.881224 0.109097 0.839110
Si Si4 0.410529 0.620278 0.838863
Si Si5 0.689106 0.720541 0.659801
Si Si6 0.718542 0.488150 0.834381
Si Si7 0.420330 0.047016 0.164604
O O1 0.552193 0.851604 0.500000
O O2 0.469306 0.791074 0.704777
O O3 0.647611 0.788469 0.688006
O O4 0.562757 0.888986 0.758701
O O5 0.398274 0.724013 0.500000
O O6 0.399803 0.682341 0.752364
O O7 0.295884 0.777519 0.694940
O O8 0.860446 0.171333 0.756490
O O9 0.987878 0.092505 0.823765
O O10 0.822309 0.052420 0.774706
O O11 0.854874 0.121088 0.000000
O O12 0.339917 0.569788 0.776692
O O13 0.388144 0.635801 0.000000
O O14 0.670535 0.700904 0.500000
O O15 0.823687 0.482022 0.787157
O O16 0.707530 0.489461 0.000000
O O17 0.500000 0.000000 0.208397
O O18 0.420700 0.060373 0.000000
#
# Coordination Sequence:
#
# PCOD8225452 Si02
#       7
#     8   8   8   8   8   8   8
#     4  10  21  38  57  79 110 145 178 222 273 322
#     4  10  21  36  56  80 110 145 179 221 274 325
#     4  10  20  34  56  83 109 141 182 225 275 328
#     4  10  19  34  57  84 109 141 183 224 271 327
#     4  10  21  37  56  80 111 145 183 226 274 324
#     4   9  19  36  55  78 112 146 178 225 275 320
#     4  10  22  38  57  81 110 145 185 227 270 319
#
# _framework density 18.573419000000001
#
# number of rings (size 3 to 8) (size 9 to 14) (size 15 to 20)
#    0.000    2.143    1.429    1.286    2.000    3.714 
#    0.000    1.429    0.000    1.714    0.000    0.000 
#    0.000    0.000    0.000    0.000    0.000    0.000 
#
# Total GULP energy -694573.526911 kJ/mol
# GULP energy per Si atom -12403.098695 kJ/mol
# Density = 1.853115 g / cm^3
# Si number density = 18.573419 Si / 1000 Ang^3
#
#
#
# Elastic Constant Matrix: (Units=GPa)
#
#
# Indices 1 2 3 4 5 6 
#
# 1 112.9250 45.3141 32.9351 0.0000 0.0000 0.0000
# 2 45.3141 112.4370 48.4283 0.0000 0.0000 0.0000
# 3 32.9351 48.4283 50.5579 0.0000 0.0000 0.0000
# 4 0.0000 0.0000 0.0000 96.6945 0.0000 0.0000
# 5 0.0000 0.0000 0.0000 0.0000 6.4424 0.0000
# 6 0.0000 0.0000 0.0000 0.0000 0.0000 27.3355
#
#
#
# Elastic Compliance Matrix: (Units=1/GPa)
#
#
# Indices 1 2 3 4 5 6 
#
# 1 0.011287 -0.002352 -0.005099 0.000000 0.000000 0.000000
# 2 -0.002352 0.015631 -0.013440 0.000000 0.000000 0.000000
# 3 -0.005099 -0.013440 0.035975 0.000000 0.000000 0.000000
# 4 0.000000 0.000000 0.000000 0.010342 0.000000 0.000000
# 5 0.000000 0.000000 0.000000 0.000000 0.155222 0.000000
# 6 0.000000 0.000000 0.000000 0.000000 0.000000 0.036582
#
#
# Mechanical properties :
#
#
# Convention : Reuss Voigt Hill
#
# Bulk Modulus (GPa) = 47.37254 58.80830 53.09042
# Shear Modulus (GPa) = 15.93080 36.04399 25.98740
#
# Velocity S-wave (km/s) = 2.93186 4.41003 3.74461
# Velocity P-wave (km/s) = 6.08457 7.59358 6.88057
#
# Compressibility (1/GPa) = 0.02110928
#
# Stress axis : x y z
#
# Youngs Moduli (GPa) = 88.60078 63.97686 27.79729
#
# Poissons Ratio (x) = 0.15050 0.14174
# Poissons Ratio (y) = 0.20843 0.37359
# Poissons Ratio (z) = 0.45179 0.85984
#
# Static dielectric constant tensor:
#      x y z
#    x 3.819140 0.000000 0.000000 
#    y 0.000000 3.315000 0.000000 
#    z 0.000000 0.000000 3.240010 
# 
# 
# High freq. dielectric constant tensor:
#      x y z
#    x 1.741220 0.000000 0.000000 
#    y 0.000000 1.721620 0.000000 
#    z 0.000000 0.000000 1.699660 
# 
# From -- ./inp_files/6109.got.cif
#   From: 2010.03.12/outbox.cif.g09.slc.cpg/sg55_4_cif.got.tgz:6109.got - 2010.04.16 15:19:21.
