data_PCOD8225691
_publ_section_title
;
Structure prediction by ZEFSAII (Michael W. Deem and Ramdas Pophale) SiO2 
 PCOD8225691
Probable space group: P B A M
;
_chemical_formula_sum "Si O2"
_cell_formula_units_Z 48
_cell_length_a 16.550115
_cell_length_b 18.070259
_cell_length_c 8.465131
_cell_angle_alpha 90.000000
_cell_angle_beta 90.000000
_cell_angle_gamma 90.000000
_cell_volume 2531.623256
_symmetry_space_group_name_H-M "P B A M"
_symmetry_group_IT_number 55
_symmetry_cell_setting 'orthorhombic'
loop_
_space_group_symop_operation_xyz
x,y,z
-x,-y,z
1/2+x,1/2-y,-z
1/2-x,1/2+y,-z
-x,-y,-z
x,y,-z
1/2-x,1/2+y,z
1/2+x,1/2-y,z
loop_
_atom_site_type_symbol
_atom_site_label
_atom_site_fract_x
_atom_site_fract_y
_atom_site_fract_z
Si Si1 0.745336 0.955492 0.184374
Si Si2 0.330811 0.830758 0.313669
Si Si3 0.831300 0.094852 0.684305
Si Si4 0.850735 0.833137 0.684909
Si Si5 0.499032 0.414767 0.817137
Si Si6 0.089107 0.478829 0.312070
O O1 0.777547 0.873849 0.225141
O O2 0.803023 0.011765 0.277988
O O3 0.652423 0.963110 0.237998
O O4 0.753830 0.971599 0.000000
O O5 0.338493 0.830958 0.500000
O O6 0.238839 0.848515 0.263754
O O7 0.355220 0.750667 0.246476
O O8 0.389860 0.895907 0.250108
O O9 0.851437 0.100130 0.500000
O O10 0.910365 0.117656 0.782588
O O11 0.830836 0.832917 0.500000
O O12 0.936651 0.870689 0.714061
O O13 0.500000 0.500000 0.764173
O O14 0.521834 0.405860 0.000000
O O15 0.096218 0.484495 0.500000
O O16 0.000000 0.500000 0.252251
#
# Coordination Sequence:
#
# PCOD8225691 Si02
#       6
#     8   8   8   8   8   8
#     4  11  21  34  54  81 113 144 180 224 275 332
#     4   8  18  36  57  83 109 137 181 235 277 318
#     4  10  19  36  60  82 105 141 188 225 269 327
#     4  11  21  36  57  80 111 147 187 230 275 324
#     4  11  22  35  54  83 118 146 180 226 276 328
#     4   9  18  37  63  85 107 141 189 234 275 325
#
# _framework density 18.960166000000001
#
# number of rings (size 3 to 8) (size 9 to 14) (size 15 to 20)
#    0.000    2.000    1.667    4.000    0.000    1.000 
#    3.000    8.333    0.000    0.000    0.000    0.000 
#    0.000    0.000    0.000    0.000    0.000    0.000 
#
# Total GULP energy -595254.415715 kJ/mol
# GULP energy per Si atom -12401.133661 kJ/mol
# Density = 1.891701 g / cm^3
# Si number density = 18.960166 Si / 1000 Ang^3
#
#
#
# Elastic Constant Matrix: (Units=GPa)
#
#
# Indices 1 2 3 4 5 6 
#
# 1 146.1974 65.9106 18.8595 0.0000 0.0000 0.0000
# 2 65.9106 124.4257 15.6500 0.0000 0.0000 0.0000
# 3 18.8595 15.6500 36.9382 0.0000 0.0000 0.0000
# 4 0.0000 0.0000 0.0000 9.7710 0.0000 0.0000
# 5 0.0000 0.0000 0.0000 0.0000 19.5687 0.0000
# 6 0.0000 0.0000 0.0000 0.0000 0.0000 23.9899
#
#
#
# Elastic Compliance Matrix: (Units=1/GPa)
#
#
# Indices 1 2 3 4 5 6 
#
# 1 0.009252 -0.004549 -0.002796 0.000000 0.000000 0.000000
# 2 -0.004549 0.010726 -0.002222 0.000000 0.000000 0.000000
# 3 -0.002796 -0.002222 0.029441 0.000000 0.000000 0.000000
# 4 0.000000 0.000000 0.000000 0.102344 0.000000 0.000000
# 5 0.000000 0.000000 0.000000 0.000000 0.051102 0.000000
# 6 0.000000 0.000000 0.000000 0.000000 0.000000 0.041684
#
#
# Mechanical properties :
#
#
# Convention : Reuss Voigt Hill
#
# Bulk Modulus (GPa) = 33.01996 56.48906 44.75451
# Shear Modulus (GPa) = 18.26294 24.47532 21.36913
#
# Velocity S-wave (km/s) = 3.10696 3.59678 3.36080
# Velocity P-wave (km/s) = 5.50674 6.86348 6.22220
#
# Compressibility (1/GPa) = 0.03028472
#
# Stress axis : x y z
#
# Youngs Moduli (GPa) = 108.08873 93.23049 33.96596
#
# Poissons Ratio (x) = 0.42411 0.09498
# Poissons Ratio (y) = 0.49170 0.07547
# Poissons Ratio (z) = 0.30224 0.20714
#
# Static dielectric constant tensor:
#      x y z
#    x 3.571380 0.000000 0.000000 
#    y 0.000000 3.665110 0.000000 
#    z 0.000000 0.000000 3.266030 
# 
# 
# High freq. dielectric constant tensor:
#      x y z
#    x 1.741860 0.000000 0.000000 
#    y 0.000000 1.723260 0.000000 
#    z 0.000000 0.000000 1.725780 
# 
# From -- ./inp_files/7541.got.cif
#   From: 2010.03.12/outbox.cif.g09.slc.cpg/sg55_4_cif.got.tgz:7541.got - 2010.04.16 15:19:21.
