data_PCOD8225555
_publ_section_title
;
Structure prediction by ZEFSAII (Michael W. Deem and Ramdas Pophale) SiO2 
 PCOD8225555
Probable space group: P B A M
;
_chemical_formula_sum "Si O2"
_cell_formula_units_Z 40
_cell_length_a 15.509953
_cell_length_b 15.710368
_cell_length_c 8.738442
_cell_angle_alpha 90.000000
_cell_angle_beta 90.000000
_cell_angle_gamma 90.000000
_cell_volume 2129.270552
_symmetry_space_group_name_H-M "P B A M"
_symmetry_group_IT_number 55
_symmetry_cell_setting 'orthorhombic'
loop_
_space_group_symop_operation_xyz
x,y,z
-x,-y,z
1/2+x,1/2-y,-z
1/2-x,1/2+y,-z
-x,-y,-z
x,y,-z
1/2-x,1/2+y,z
1/2+x,1/2-y,z
loop_
_atom_site_type_symbol
_atom_site_label
_atom_site_fract_x
_atom_site_fract_y
_atom_site_fract_z
Si Si1 0.695993 0.556056 0.821136
Si Si2 0.424763 0.568515 0.671491
Si Si3 0.958414 0.381388 0.180045
Si Si4 0.123272 0.460520 0.680380
Si Si5 0.049471 0.812312 0.177916
O O1 0.653680 0.465544 0.775214
O O2 0.782438 0.571220 0.726114
O O3 0.633115 0.633417 0.774152
O O4 0.717157 0.555003 0.000000
O O5 0.500000 0.500000 0.675762
O O6 0.390293 0.583379 0.500000
O O7 0.463126 0.656522 0.735965
O O8 0.054913 0.399419 0.237033
O O9 0.890548 0.442303 0.265216
O O10 0.932687 0.285139 0.221453
O O11 0.953194 0.398842 0.000000
O O12 0.110032 0.454321 0.500000
O O13 0.030273 0.824497 0.000000
#
# Coordination Sequence:
#
# PCOD8225555 Si02
#       5
#     8   8   8   8   8
#     4  10  19  35  57  81 110 144 183 227 268 319
#     4   9  17  30  51  79 111 144 174 213 269 323
#     4  10  20  38  60  80 105 144 185 225 271 325
#     4  11  22  37  56  80 109 145 183 224 275 328
#     4   9  19  35  57  83 109 141 183 225 269 321
#
# _framework density 18.785775999999998
#
# number of rings (size 3 to 8) (size 9 to 14) (size 15 to 20)
#    0.000    2.200    0.000    4.800    0.000    4.800 
#    3.600    0.000    0.000    0.000    0.000    0.000 
#    0.000    0.000    0.000    0.000    0.000    0.000 
#
# Total GULP energy -496073.582558 kJ/mol
# GULP energy per Si atom -12401.839564 kJ/mol
# Density = 1.874302 g / cm^3
# Si number density = 18.785776 Si / 1000 Ang^3
#
#
#
# Elastic Constant Matrix: (Units=GPa)
#
#
# Indices 1 2 3 4 5 6 
#
# 1 78.3312 32.9793 10.2884 0.0000 0.0000 0.0000
# 2 32.9793 99.0599 23.6109 0.0000 0.0000 0.0000
# 3 10.2884 23.6109 52.9835 0.0000 0.0000 0.0000
# 4 0.0000 0.0000 0.0000 17.8602 0.0000 0.0000
# 5 0.0000 0.0000 0.0000 0.0000 31.6601 0.0000
# 6 0.0000 0.0000 0.0000 0.0000 0.0000 14.8432
#
#
#
# Elastic Compliance Matrix: (Units=1/GPa)
#
#
# Indices 1 2 3 4 5 6 
#
# 1 0.014875 -0.004770 -0.000763 0.000000 0.000000 0.000000
# 2 -0.004770 0.012824 -0.004789 0.000000 0.000000 0.000000
# 3 -0.000763 -0.004789 0.021156 0.000000 0.000000 0.000000
# 4 0.000000 0.000000 0.000000 0.055990 0.000000 0.000000
# 5 0.000000 0.000000 0.000000 0.000000 0.031586 0.000000
# 6 0.000000 0.000000 0.000000 0.000000 0.000000 0.067371
#
#
# Mechanical properties :
#
#
# Convention : Reuss Voigt Hill
#
# Bulk Modulus (GPa) = 35.44597 40.45907 37.95252
# Shear Modulus (GPa) = 21.38130 23.77244 22.57687
#
# Velocity S-wave (km/s) = 3.37733 3.56117 3.47047
# Velocity P-wave (km/s) = 5.84106 6.20428 6.02541
#
# Compressibility (1/GPa) = 0.02821195
#
# Stress axis : x y z
#
# Youngs Moduli (GPa) = 67.22717 77.97608 47.26833
#
# Poissons Ratio (x) = 0.37198 0.03605
# Poissons Ratio (y) = 0.32070 0.22635
# Poissons Ratio (z) = 0.05127 0.37340
#
# Static dielectric constant tensor:
#      x y z
#    x 3.353810 0.000000 0.000000 
#    y 0.000000 3.444500 0.000000 
#    z 0.000000 0.000000 3.545480 
# 
# 
# High freq. dielectric constant tensor:
#      x y z
#    x 1.719790 0.000000 0.000000 
#    y 0.000000 1.719040 0.000000 
#    z 0.000000 0.000000 1.741180 
# 
# From -- ./inp_files/5206.got.cif
#   From: 2010.03.12/outbox.cif.g09.slc.cpg/sg55_3_cif.got.tgz:5206.got - 2010.04.16 15:19:21.
