data_PCOD8225793
_publ_section_title
;
Structure prediction by ZEFSAII (Michael W. Deem and Ramdas Pophale) SiO2 
 PCOD8225793
Probable space group: P B A M
;
_chemical_formula_sum "Si O2"
_cell_formula_units_Z 64
_cell_length_a 12.798364
_cell_length_b 27.847488
_cell_length_c 8.783874
_cell_angle_alpha 90.000000
_cell_angle_beta 90.000000
_cell_angle_gamma 90.000000
_cell_volume 3130.592790
_symmetry_space_group_name_H-M "P B A M"
_symmetry_group_IT_number 55
_symmetry_cell_setting 'orthorhombic'
loop_
_space_group_symop_operation_xyz
x,y,z
-x,-y,z
1/2+x,1/2-y,-z
1/2-x,1/2+y,-z
-x,-y,-z
x,y,-z
1/2-x,1/2+y,z
1/2+x,1/2-y,z
loop_
_atom_site_type_symbol
_atom_site_label
_atom_site_fract_x
_atom_site_fract_y
_atom_site_fract_z
Si Si1 0.375503 0.138656 0.325070
Si Si2 0.314155 0.703194 0.680784
Si Si3 0.247889 0.546577 0.670719
Si Si4 0.759506 0.194517 0.679422
Si Si5 0.522863 0.651216 0.318745
Si Si6 0.594109 0.034707 0.672463
Si Si7 0.037838 0.052248 0.178038
Si Si8 0.087344 0.367505 0.175222
O O1 0.400107 0.151515 0.500000
O O2 0.276556 0.167816 0.263770
O O3 0.349560 0.082497 0.303290
O O4 0.475682 0.153477 0.226632
O O5 0.320839 0.705374 0.500000
O O6 0.283950 0.755356 0.748909
O O7 0.424134 0.682305 0.743088
O O8 0.292827 0.555040 0.500000
O O9 0.204082 0.492977 0.689070
O O10 0.338994 0.556735 0.789945
O O11 0.766688 0.199491 0.500000
O O12 0.874045 0.179244 0.740952
O O13 0.678684 0.153814 0.723315
O O14 0.521225 0.647529 0.500000
O O15 0.522538 0.596574 0.256524
O O16 0.581720 0.055233 0.500000
O O17 0.591801 0.075915 0.797155
O O18 0.500000 0.000000 0.712212
O O19 0.016222 0.056013 0.000000
O O20 0.000000 0.000000 0.240528
O O21 0.106173 0.355286 0.000000
#
# Coordination Sequence:
#
# PCOD8225793 Si02
#       8
#     8   8   8   8   8   8   8   8
#     4  10  19  38  66  92 119 153 200 259 306 356
#     4   9  19  38  68  97 118 147 199 262 312 356
#     4  10  20  37  63  90 116 152 202 257 304 353
#     4  10  23  41  66  94 120 159 205 257 310 361
#     4  10  21  41  66  95 123 155 207 259 306 363
#     4  10  20  38  61  87 118 156 200 247 299 352
#     4  11  25  41  58  85 125 170 206 246 305 369
#     4  12  26  40  57  87 129 169 203 247 303 371
#
# _framework density 20.443411999999999
#
# number of rings (size 3 to 8) (size 9 to 14) (size 15 to 20)
#    0.000    1.750    2.500    1.500    3.500    2.750 
#    0.000    1.250    0.000    0.000    0.000    0.000 
#    0.000    0.000    0.000    0.000    0.000    0.000 
#
# Total GULP energy -793617.198364 kJ/mol
# GULP energy per Si atom -12400.268724 kJ/mol
# Density = 2.039688 g / cm^3
# Si number density = 20.443412 Si / 1000 Ang^3
#
#
#
# Elastic Constant Matrix: (Units=GPa)
#
#
# Indices 1 2 3 4 5 6 
#
# 1 136.8745 60.7893 14.7550 0.0000 0.0000 0.0000
# 2 60.7893 119.6610 23.1155 0.0000 0.0000 0.0000
# 3 14.7550 23.1155 19.4891 0.0000 0.0000 0.0000
# 4 0.0000 0.0000 0.0000 10.9032 0.0000 0.0000
# 5 0.0000 0.0000 0.0000 0.0000 17.6838 0.0000
# 6 0.0000 0.0000 0.0000 0.0000 0.0000 32.4928
#
#
#
# Elastic Compliance Matrix: (Units=1/GPa)
#
#
# Indices 1 2 3 4 5 6 
#
# 1 0.009489 -0.004453 -0.001902 0.000000 0.000000 0.000000
# 2 -0.004453 0.012930 -0.011965 0.000000 0.000000 0.000000
# 3 -0.001902 -0.011965 0.066943 0.000000 0.000000 0.000000
# 4 0.000000 0.000000 0.000000 0.091716 0.000000 0.000000
# 5 0.000000 0.000000 0.000000 0.000000 0.056549 0.000000
# 6 0.000000 0.000000 0.000000 0.000000 0.000000 0.030776
#
#
# Mechanical properties :
#
#
# Convention : Reuss Voigt Hill
#
# Bulk Modulus (GPa) = 18.96783 52.59379 35.78081
# Shear Modulus (GPa) = 15.49826 24.04031 19.76928
#
# Velocity S-wave (km/s) = 2.75636 3.43292 3.11308
# Velocity P-wave (km/s) = 4.40776 6.44171 5.51924
#
# Compressibility (1/GPa) = 0.05272085
#
# Stress axis : x y z
#
# Youngs Moduli (GPa) = 105.38897 77.33681 14.93817
#
# Poissons Ratio (x) = 0.34437 0.02842
# Poissons Ratio (y) = 0.46928 0.17874
# Poissons Ratio (z) = 0.20048 0.92536
#
# Static dielectric constant tensor:
#      x y z
#    x 3.807820 0.000000 0.000000 
#    y 0.000000 3.894680 0.000000 
#    z 0.000000 0.000000 3.285770 
# 
# 
# High freq. dielectric constant tensor:
#      x y z
#    x 1.809570 0.000000 0.000000 
#    y 0.000000 1.806090 0.000000 
#    z 0.000000 0.000000 1.759480 
# 
# From -- ./inp_files/4487.got.cif
#   From: 2010.03.12/outbox.cif.g09.slc.cpg/sg55_3_cif.got.tgz:4487.got - 2010.04.16 15:19:21.
