data_PCOD8225368
_publ_section_title
;
Structure prediction by ZEFSAII (Michael W. Deem and Ramdas Pophale) SiO2 
 PCOD8225368
Probable space group: P B A M
;
_chemical_formula_sum "Si O2"
_cell_formula_units_Z 64
_cell_length_a 12.748472
_cell_length_b 28.232669
_cell_length_c 9.401376
_cell_angle_alpha 90.000000
_cell_angle_beta 90.000000
_cell_angle_gamma 90.000000
_cell_volume 3383.775123
_symmetry_space_group_name_H-M "P B A M"
_symmetry_group_IT_number 55
_symmetry_cell_setting 'orthorhombic'
loop_
_space_group_symop_operation_xyz
x,y,z
-x,-y,z
1/2+x,1/2-y,-z
1/2-x,1/2+y,-z
-x,-y,-z
x,y,-z
1/2-x,1/2+y,z
1/2+x,1/2-y,z
loop_
_atom_site_type_symbol
_atom_site_label
_atom_site_fract_x
_atom_site_fract_y
_atom_site_fract_z
Si Si1 0.455835 0.104567 0.161392
Si Si2 0.348730 0.681914 0.340974
Si Si3 0.415412 0.573845 0.341338
Si Si4 0.693706 0.963240 0.669859
Si Si5 0.037908 0.796140 0.835720
Si Si6 0.172449 0.442487 0.834337
Si Si7 0.851081 0.300129 0.839164
Si Si8 0.105773 0.900206 0.834216
O O1 0.376156 0.079119 0.268385
O O2 0.576296 0.092728 0.197337
O O3 0.444148 0.161331 0.177050
O O4 0.428816 0.088400 0.000000
O O5 0.343735 0.702252 0.500000
O O6 0.379841 0.627622 0.339750
O O7 0.432907 0.712099 0.253698
O O8 0.236774 0.686174 0.271031
O O9 0.447421 0.557927 0.500000
O O10 0.316159 0.543239 0.286857
O O11 0.517682 0.567432 0.242792
O O12 0.680259 0.963895 0.500000
O O13 0.653074 0.011613 0.738463
O O14 0.111960 0.752329 0.799759
O O15 0.095833 0.844908 0.792153
O O16 0.005298 0.797004 0.000000
O O17 0.279105 0.416582 0.786317
O O18 0.177017 0.457131 0.000000
O O19 0.806636 0.301229 0.000000
O O20 0.087453 0.907863 0.000000
#
# Coordination Sequence:
#
# PCOD8225368 Si02
#       8
#     8   8   8   8   8   8   8   8
#     4  10  21  37  57  81 112 147 183 228 280 333
#     4  10  19  34  54  77 109 145 179 224 277 328
#     4   9  19  35  55  78 107 141 179 227 274 322
#     4  11  22  37  57  82 109 144 187 233 279 327
#     4   9  19  35  56  83 110 142 185 228 275 330
#     4  10  22  38  54  78 113 149 183 225 280 334
#     4  10  20  34  57  85 109 141 185 231 276 328
#     4   9  19  36  57  80 110 146 182 226 276 330
#
# _framework density 18.913786000000002
#
# number of rings (size 3 to 8) (size 9 to 14) (size 15 to 20)
#    0.000    2.250    1.250    1.125    0.000    6.000 
#    0.000    6.250    0.000    1.500    0.000    0.000 
#    0.000    0.000    0.000    0.000    0.000    0.000 
#
# Total GULP energy -793633.526642 kJ/mol
# GULP energy per Si atom -12400.523854 kJ/mol
# Density = 1.887074 g / cm^3
# Si number density = 18.913786 Si / 1000 Ang^3
#
#
#
# Elastic Constant Matrix: (Units=GPa)
#
#
# Indices 1 2 3 4 5 6 
#
# 1 100.5729 15.3205 42.8788 0.0000 0.0000 0.0000
# 2 15.3205 47.8887 18.0132 0.0000 0.0000 0.0000
# 3 42.8788 18.0132 66.2047 0.0000 0.0000 0.0000
# 4 0.0000 0.0000 0.0000 18.1590 0.0000 0.0000
# 5 0.0000 0.0000 0.0000 0.0000 10.3766 0.0000
# 6 0.0000 0.0000 0.0000 0.0000 0.0000 15.2616
#
#
#
# Elastic Compliance Matrix: (Units=1/GPa)
#
#
# Indices 1 2 3 4 5 6 
#
# 1 0.013795 -0.001173 -0.008615 0.000000 0.000000 0.000000
# 2 -0.001173 0.023362 -0.005597 0.000000 0.000000 0.000000
# 3 -0.008615 -0.005597 0.022207 0.000000 0.000000 0.000000
# 4 0.000000 0.000000 0.000000 0.055069 0.000000 0.000000
# 5 0.000000 0.000000 0.000000 0.000000 0.096370 0.000000
# 6 0.000000 0.000000 0.000000 0.000000 0.000000 0.065524
#
#
# Mechanical properties :
#
#
# Convention : Reuss Voigt Hill
#
# Bulk Modulus (GPa) = 34.97186 40.78793 37.87989
# Shear Modulus (GPa) = 15.79132 17.98970 16.89051
#
# Velocity S-wave (km/s) = 2.89262 3.08741 2.99160
# Velocity P-wave (km/s) = 5.44854 5.85845 5.65721
#
# Compressibility (1/GPa) = 0.02859442
#
# Stress axis : x y z
#
# Youngs Moduli (GPa) = 72.49103 42.80427 45.02985
#
# Poissons Ratio (x) = 0.05019 0.38795
# Poissons Ratio (y) = 0.08500 0.25203
# Poissons Ratio (z) = 0.62454 0.23958
#
# Static dielectric constant tensor:
#      x y z
#    x 3.538430 0.000000 0.000000 
#    y 0.000000 3.623790 0.000000 
#    z 0.000000 0.000000 3.580480 
# 
# 
# High freq. dielectric constant tensor:
#      x y z
#    x 1.737060 0.000000 0.000000 
#    y 0.000000 1.728850 0.000000 
#    z 0.000000 0.000000 1.732890 
# 
# From -- ./inp_files/4520.got.cif
#   From: 2010.03.12/outbox.cif.g09.slc.cpg/sg55_3_cif.got.tgz:4520.got - 2010.04.16 15:19:21.
