data_PCOD8225252
_publ_section_title
;
Structure prediction by ZEFSAII (Michael W. Deem and Ramdas Pophale) SiO2 
 PCOD8225252
Probable space group: P B A M
;
_chemical_formula_sum "Si O2"
_cell_formula_units_Z 48
_cell_length_a 4.902363
_cell_length_b 15.916276
_cell_length_c 30.071288
_cell_angle_alpha 90.000000
_cell_angle_beta 90.000000
_cell_angle_gamma 90.000000
_cell_volume 2346.383291
_symmetry_space_group_name_H-M "P B A M"
_symmetry_group_IT_number 55
_symmetry_cell_setting 'orthorhombic'
loop_
_space_group_symop_operation_xyz
x,y,z
-x,-y,z
1/2+x,1/2-y,-z
1/2-x,1/2+y,-z
-x,-y,-z
x,y,-z
1/2-x,1/2+y,z
1/2+x,1/2-y,z
loop_
_atom_site_type_symbol
_atom_site_label
_atom_site_fract_x
_atom_site_fract_y
_atom_site_fract_z
Si Si1 0.243473 0.443539 0.548765
Si Si2 0.929996 0.192343 0.618614
Si Si3 0.299745 0.193779 0.050951
Si Si4 0.567942 0.303646 0.711396
Si Si5 0.462376 0.691464 0.809970
Si Si6 0.746405 0.443398 0.878674
O O1 0.500000 0.500000 0.540536
O O2 0.153950 0.406791 0.500000
O O3 0.332011 0.371907 0.582129
O O4 0.000000 0.500000 0.569234
O O5 0.734742 0.272774 0.612971
O O6 0.947791 0.147052 0.667891
O O7 0.501891 0.270486 0.061841
O O8 0.359676 0.113592 0.081306
O O9 0.332614 0.164689 0.000000
O O10 0.389924 0.216876 0.708922
O O11 0.525975 0.345856 0.759555
O O12 0.759276 0.730374 0.819509
O O13 0.382811 0.612349 0.839559
O O14 0.500000 0.500000 0.897253
O O15 0.000000 0.500000 0.861360
#
# Coordination Sequence:
#
# PCOD8225252 Si02
#       6
#     8   8   8   8   8   8
#     4  10  21  36  52  74 109 149 182 216 269 334
#     4  10  19  33  55  81 105 132 178 231 272 315
#     4  10  21  39  61  82 107 146 194 231 265 327
#     4   8  16  30  52  78 100 129 171 220 265 309
#     4  10  19  36  59  77 102 145 188 218 261 331
#     4  12  24  36  54  84 118 145 177 229 286 327
#
# _framework density 20.457015999999999
#
# number of rings (size 3 to 8) (size 9 to 14) (size 15 to 20)
#    0.000    2.000    0.000    4.000    0.000    1.333 
#    0.000    0.833    0.000    2.000    0.000    0.000 
#    0.000    0.000    0.000    0.000    0.000    0.000 
#
# Total GULP energy -594627.259496 kJ/mol
# GULP energy per Si atom -12388.067906 kJ/mol
# Density = 2.041045 g / cm^3
# Si number density = 20.457016 Si / 1000 Ang^3
#
#
#
# Elastic Constant Matrix: (Units=GPa)
#
#
# Indices 1 2 3 4 5 6 
#
# 1 81.8316 11.7279 19.4007 0.0000 0.0000 0.0000
# 2 11.7279 72.9936 62.6634 0.0000 0.0000 0.0000
# 3 19.4007 62.6634 131.0882 0.0000 0.0000 0.0000
# 4 0.0000 0.0000 0.0000 -14.0103 0.0000 0.0000
# 5 0.0000 0.0000 0.0000 0.0000 29.2435 0.0000
# 6 0.0000 0.0000 0.0000 0.0000 0.0000 26.5412
#
#
#
# Elastic Compliance Matrix: (Units=1/GPa)
#
#
# Indices 1 2 3 4 5 6 
#
# 1 0.012687 -0.000723 -0.001532 0.000000 0.000000 0.000000
# 2 -0.000723 0.023276 -0.011019 0.000000 0.000000 0.000000
# 3 -0.001532 -0.011019 0.013123 0.000000 0.000000 0.000000
# 4 0.000000 0.000000 0.000000 -0.071376 0.000000 0.000000
# 5 0.000000 0.000000 0.000000 0.000000 0.034196 0.000000
# 6 0.000000 0.000000 0.000000 0.000000 0.000000 0.037677
#
#
# Mechanical properties :
#
#
# Convention : Reuss Voigt Hill
#
# Bulk Modulus (GPa) = 44.37254 52.61080 48.49167
# Shear Modulus (GPa) = 59.77705 21.16299 40.47002
#
# Velocity S-wave (km/s) = 5.41149 3.21987 4.45263
# Velocity P-wave (km/s) = 7.79637 6.29261 7.08450
#
# Compressibility (1/GPa) = 0.02253646
#
# Stress axis : x y z
#
# Youngs Moduli (GPa) = 78.82042 42.96266 76.20363
#
# Poissons Ratio (x) = 0.03108 0.11673
# Poissons Ratio (y) = 0.05702 0.83972
# Poissons Ratio (z) = 0.12074 0.47343
#
# Static dielectric constant tensor:
#      x y z
#    x 3.982120 0.000000 0.000000 
#    y 0.000000 3.207130 0.000000 
#    z 0.000000 0.000000 4.073910 
# 
# 
# High freq. dielectric constant tensor:
#      x y z
#    x 1.825240 0.000000 0.000000 
#    y 0.000000 1.746390 0.000000 
#    z 0.000000 0.000000 1.815860 
# 
# From -- ./inp_files/24042.got.cif
#   From: 2010.03.12/outbox.cif.g09.slc.cpg/sg55_13_cif.got.tgz:24042.got - 2010.04.16 15:19:21.
