data_PCOD8225167
_publ_section_title
;
Structure prediction by ZEFSAII (Michael W. Deem and Ramdas Pophale) SiO2 
 PCOD8225167
Probable space group: P B A M
;
_chemical_formula_sum "Si O2"
_cell_formula_units_Z 48
_cell_length_a 19.006726
_cell_length_b 15.290324
_cell_length_c 8.677477
_cell_angle_alpha 90.000000
_cell_angle_beta 90.000000
_cell_angle_gamma 90.000000
_cell_volume 2521.839677
_symmetry_space_group_name_H-M "P B A M"
_symmetry_group_IT_number 55
_symmetry_cell_setting 'orthorhombic'
loop_
_space_group_symop_operation_xyz
x,y,z
-x,-y,z
1/2+x,1/2-y,-z
1/2-x,1/2+y,-z
-x,-y,-z
x,y,-z
1/2-x,1/2+y,z
1/2+x,1/2-y,z
loop_
_atom_site_type_symbol
_atom_site_label
_atom_site_fract_x
_atom_site_fract_y
_atom_site_fract_z
Si Si1 0.918334 0.250283 0.316263
Si Si2 0.178621 0.903213 0.320717
Si Si3 0.667999 0.903088 0.181151
Si Si4 0.422095 0.744750 0.682675
Si Si5 0.838373 0.588506 0.319715
Si Si6 0.181993 0.097273 0.683843
O O1 0.912593 0.257719 0.500000
O O2 0.872306 0.169902 0.247538
O O3 0.892774 0.340088 0.242426
O O4 0.998150 0.234292 0.261304
O O5 0.162059 0.905653 0.500000
O O6 0.259290 0.877591 0.287939
O O7 0.162900 0.000124 0.253317
O O8 0.741577 0.874370 0.256689
O O9 0.645472 0.000980 0.226093
O O10 0.675030 0.895174 0.000000
O O11 0.416657 0.743039 0.500000
O O12 0.390778 0.836736 0.741820
O O13 0.376300 0.664130 0.748736
O O14 0.848702 0.567901 0.500000
O O15 0.185901 0.097684 0.500000
#
# Coordination Sequence:
#
# PCOD8225167 Si02
#       6
#     8   8   8   8   8   8
#     4  10  19  33  52  78 108 137 165 203 252 307
#     4   8  15  28  52  78 101 129 163 201 247 295
#     4  11  22  35  51  74  99 133 176 216 254 296
#     4   9  18  31  54  82 105 131 168 207 252 304
#     4   9  17  33  53  74  98 131 171 212 252 296
#     4   9  17  34  56  78 102 131 166 209 252 300
#
# _framework density 19.033722999999998
#
# number of rings (size 3 to 8) (size 9 to 14) (size 15 to 20)
#    0.000    2.667    0.000    3.500    0.000    4.000 
#    0.000   15.833    0.000    0.000    0.000    5.833 
#    0.000    0.000    0.000    0.000    0.000    0.000 
#
# Total GULP energy -595141.333459 kJ/mol
# GULP energy per Si atom -12398.777780 kJ/mol
# Density = 1.899040 g / cm^3
# Si number density = 19.033723 Si / 1000 Ang^3
#
#
#
# Elastic Constant Matrix: (Units=GPa)
#
#
# Indices 1 2 3 4 5 6 
#
# 1 95.7434 55.9039 19.1697 0.0000 0.0000 0.0000
# 2 55.9039 100.4282 19.9520 0.0000 0.0000 0.0000
# 3 19.1697 19.9520 34.1856 0.0000 0.0000 0.0000
# 4 0.0000 0.0000 0.0000 4.6785 0.0000 0.0000
# 5 0.0000 0.0000 0.0000 0.0000 5.2143 0.0000
# 6 0.0000 0.0000 0.0000 0.0000 0.0000 26.0778
#
#
#
# Elastic Compliance Matrix: (Units=1/GPa)
#
#
# Indices 1 2 3 4 5 6 
#
# 1 0.016007 -0.008062 -0.004271 0.000000 0.000000 0.000000
# 2 -0.008062 0.015324 -0.004423 0.000000 0.000000 0.000000
# 3 -0.004271 -0.004423 0.034228 0.000000 0.000000 0.000000
# 4 0.000000 0.000000 0.000000 0.213744 0.000000 0.000000
# 5 0.000000 0.000000 0.000000 0.000000 0.191779 0.000000
# 6 0.000000 0.000000 0.000000 0.000000 0.000000 0.038347
#
#
# Mechanical properties :
#
#
# Convention : Reuss Voigt Hill
#
# Bulk Modulus (GPa) = 31.20307 46.71204 38.95755
# Shear Modulus (GPa) = 9.03143 16.21623 12.62383
#
# Velocity S-wave (km/s) = 2.18066 2.92202 2.57813
# Velocity P-wave (km/s) = 4.77174 5.99828 5.41982
#
# Compressibility (1/GPa) = 0.03204813
#
# Stress axis : x y z
#
# Youngs Moduli (GPa) = 62.47287 65.25825 29.21566
#
# Poissons Ratio (x) = 0.52611 0.12477
# Poissons Ratio (y) = 0.50365 0.12921
# Poissons Ratio (z) = 0.26680 0.28862
#
# Static dielectric constant tensor:
#      x y z
#    x 3.570980 0.000000 0.000000 
#    y 0.000000 3.810250 0.000000 
#    z 0.000000 0.000000 2.983150 
# 
# 
# High freq. dielectric constant tensor:
#      x y z
#    x 1.737670 0.000000 0.000000 
#    y 0.000000 1.755150 0.000000 
#    z 0.000000 0.000000 1.689700 
# 
# From -- ./inp_files/5615.got.cif
#   From: 2010.03.12/outbox.cif.g09.slc.cpg/sg55_3_cif.got.tgz:5615.got - 2010.04.16 15:19:21.
