data_PCOD8225572
_publ_section_title
;
Structure prediction by ZEFSAII (Michael W. Deem and Ramdas Pophale) SiO2 
 PCOD8225572
Probable space group: P B A M
;
_chemical_formula_sum "Si O2"
_cell_formula_units_Z 40
_cell_length_a 29.183346
_cell_length_b 7.881745
_cell_length_c 8.354761
_cell_angle_alpha 90.000000
_cell_angle_beta 90.000000
_cell_angle_gamma 90.000000
_cell_volume 1921.726128
_symmetry_space_group_name_H-M "P B A M"
_symmetry_group_IT_number 55
_symmetry_cell_setting 'orthorhombic'
loop_
_space_group_symop_operation_xyz
x,y,z
-x,-y,z
1/2+x,1/2-y,-z
1/2-x,1/2+y,-z
-x,-y,-z
x,y,-z
1/2-x,1/2+y,z
1/2+x,1/2-y,z
loop_
_atom_site_type_symbol
_atom_site_label
_atom_site_fract_x
_atom_site_fract_y
_atom_site_fract_z
Si Si1 0.890025 0.183178 0.811699
Si Si2 0.948591 0.494573 0.190750
Si Si3 0.293183 0.195640 0.184101
Si Si4 0.702277 0.162408 0.682698
Si Si5 0.887073 0.806713 0.811443
O O1 0.923711 0.326387 0.738049
O O2 0.838002 0.206781 0.749953
O O3 0.907244 0.993510 0.768271
O O4 0.889350 0.213647 0.000000
O O5 0.922237 0.663412 0.249894
O O6 0.000000 0.500000 0.260310
O O7 0.949830 0.489734 0.000000
O O8 0.250192 0.243080 0.292449
O O9 0.302588 0.995998 0.198821
O O10 0.282856 0.241830 0.000000
O O11 0.698953 0.101761 0.500000
O O12 0.661357 0.291057 0.722737
O O13 0.878492 0.791155 0.000000
#
# Coordination Sequence:
#
# PCOD8225572 Si02
#       5
#     8   8   8   8   8
#     4   9  18  32  54  84 113 148 193 238 290 352
#     4   9  17  31  54  87 121 149 190 251 304 347
#     4  11  21  37  58  81 115 158 201 241 291 360
#     4  12  24  37  55  85 120 153 197 249 300 353
#     4  10  19  35  58  82 115 157 197 239 295 361
#
# _framework density 20.814620999999999
#
# number of rings (size 3 to 8) (size 9 to 14) (size 15 to 20)
#    0.000    1.800    2.000    3.600    0.000    2.400 
#    0.000    5.000    0.000    0.600    0.000    1.400 
#    0.000    0.000    0.000    0.000    0.000    0.000 
#
# Total GULP energy -496034.574524 kJ/mol
# GULP energy per Si atom -12400.864363 kJ/mol
# Density = 2.076725 g / cm^3
# Si number density = 20.814621 Si / 1000 Ang^3
#
#
#
# Elastic Constant Matrix: (Units=GPa)
#
#
# Indices 1 2 3 4 5 6 
#
# 1 167.4566 82.5607 20.2287 0.0000 0.0000 0.0000
# 2 82.5607 169.0200 12.2619 0.0000 0.0000 0.0000
# 3 20.2287 12.2619 37.2262 0.0000 0.0000 0.0000
# 4 0.0000 0.0000 0.0000 11.0328 0.0000 0.0000
# 5 0.0000 0.0000 0.0000 0.0000 2.3718 0.0000
# 6 0.0000 0.0000 0.0000 0.0000 0.0000 32.4110
#
#
#
# Elastic Compliance Matrix: (Units=1/GPa)
#
#
# Indices 1 2 3 4 5 6 
#
# 1 0.008227 -0.003785 -0.003224 0.000000 0.000000 0.000000
# 2 -0.003785 0.007802 -0.000513 0.000000 0.000000 0.000000
# 3 -0.003224 -0.000513 0.028784 0.000000 0.000000 0.000000
# 4 0.000000 0.000000 0.000000 0.090639 0.000000 0.000000
# 5 0.000000 0.000000 0.000000 0.000000 0.421621 0.000000
# 6 0.000000 0.000000 0.000000 0.000000 0.000000 0.030854
#
#
# Mechanical properties :
#
#
# Convention : Reuss Voigt Hill
#
# Bulk Modulus (GPa) = 33.59189 67.08952 50.34071
# Shear Modulus (GPa) = 8.15802 26.40655 17.28229
#
# Velocity S-wave (km/s) = 1.98189 3.56568 2.88461
# Velocity P-wave (km/s) = 4.62718 7.01812 5.94411
#
# Compressibility (1/GPa) = 0.02976909
#
# Stress axis : x y z
#
# Youngs Moduli (GPa) = 121.54853 128.16472 34.74180
#
# Poissons Ratio (x) = 0.48508 0.11201
# Poissons Ratio (y) = 0.46004 0.01784
# Poissons Ratio (z) = 0.39187 0.06580
#
# Static dielectric constant tensor:
#      x y z
#    x 3.899690 0.000000 0.000000 
#    y 0.000000 3.896300 0.000000 
#    z 0.000000 0.000000 3.168620 
# 
# 
# High freq. dielectric constant tensor:
#      x y z
#    x 1.812490 0.000000 0.000000 
#    y 0.000000 1.827980 0.000000 
#    z 0.000000 0.000000 1.765380 
# 
# From -- ./inp_files/2515.got.cif
#   From: 2010.03.12/outbox.cif.g09.slc.cpg/sg55_2_cif.got.tgz:2515.got - 2010.04.16 15:19:21.
