data_PCOD8225127
_publ_section_title
;
Structure prediction by ZEFSAII (Michael W. Deem and Ramdas Pophale) SiO2 
 PCOD8225127
Probable space group: P B A M
;
_chemical_formula_sum "Si O2"
_cell_formula_units_Z 64
_cell_length_a 24.761204
_cell_length_b 15.294763
_cell_length_c 9.031795
_cell_angle_alpha 90.000000
_cell_angle_beta 90.000000
_cell_angle_gamma 90.000000
_cell_volume 3420.492020
_symmetry_space_group_name_H-M "P B A M"
_symmetry_group_IT_number 55
_symmetry_cell_setting 'orthorhombic'
loop_
_space_group_symop_operation_xyz
x,y,z
-x,-y,z
1/2+x,1/2-y,-z
1/2-x,1/2+y,-z
-x,-y,-z
x,y,-z
1/2-x,1/2+y,z
1/2+x,1/2-y,z
loop_
_atom_site_type_symbol
_atom_site_label
_atom_site_fract_x
_atom_site_fract_y
_atom_site_fract_z
Si Si1 0.532109 0.797288 0.672360
Si Si2 0.928257 0.633452 0.175542
Si Si3 0.919299 0.942524 0.170579
Si Si4 0.219345 0.491987 0.326473
Si Si5 0.899040 0.463685 0.327187
Si Si6 0.187704 0.113945 0.326800
Si Si7 0.536018 0.627248 0.171337
Si Si8 0.179206 0.309142 0.327462
O O1 0.516997 0.796585 0.500000
O O2 0.478999 0.811668 0.769109
O O3 0.577422 0.869011 0.708087
O O4 0.557010 0.705016 0.723805
O O5 0.933596 0.535470 0.238944
O O6 0.874660 0.681274 0.231994
O O7 0.927778 0.631050 0.000000
O O8 0.871346 0.902614 0.264657
O O9 0.974854 0.896241 0.216825
O O10 0.924504 0.045845 0.200903
O O11 0.906660 0.924340 0.000000
O O12 0.223777 0.506159 0.500000
O O13 0.162782 0.532936 0.270972
O O14 0.268696 0.546870 0.253538
O O15 0.220887 0.388118 0.285823
O O16 0.903142 0.487553 0.500000
O O17 0.183960 0.097686 0.500000
O O18 0.205530 0.214536 0.293332
O O19 0.538477 0.655012 0.000000
O O20 0.163172 0.317830 0.500000
#
# Coordination Sequence:
#
# PCOD8225127 Si02
#       8
#     8   8   8   8   8   8   8   8
#     4  11  21  32  50  79 107 136 171 212 262 313
#     4  11  21  32  51  77 104 138 177 216 256 309
#     4   9  19  36  55  74 102 139 172 210 262 311
#     4   8  16  34  53  73 102 135 171 215 261 307
#     4   9  19  36  53  71 103 140 172 213 263 309
#     4  10  19  32  55  82 101 131 178 219 261 311
#     4   9  19  36  54  73 103 141 174 207 256 315
#     4   9  18  34  54  76 104 138 173 219 268 309
#
# _framework density 18.710758999999999
#
# number of rings (size 3 to 8) (size 9 to 14) (size 15 to 20)
#    0.000    2.500    0.000    4.125    0.000    6.000 
#    2.250    3.750    0.000    0.000    0.000    0.000 
#    0.000    0.000    0.000    0.000    0.000    0.000 
#
# Total GULP energy -793470.217482 kJ/mol
# GULP energy per Si atom -12397.972148 kJ/mol
# Density = 1.866817 g / cm^3
# Si number density = 18.710759 Si / 1000 Ang^3
#
#
#
# Elastic Constant Matrix: (Units=GPa)
#
#
# Indices 1 2 3 4 5 6 
#
# 1 48.0737 41.0394 19.4460 0.0000 0.0000 0.0000
# 2 41.0394 136.2793 40.7751 0.0000 0.0000 0.0000
# 3 19.4460 40.7751 58.8592 0.0000 0.0000 0.0000
# 4 0.0000 0.0000 0.0000 25.8373 0.0000 0.0000
# 5 0.0000 0.0000 0.0000 0.0000 10.2958 0.0000
# 6 0.0000 0.0000 0.0000 0.0000 0.0000 25.7965
#
#
#
# Elastic Compliance Matrix: (Units=1/GPa)
#
#
# Indices 1 2 3 4 5 6 
#
# 1 0.028890 -0.007372 -0.004438 0.000000 0.000000 0.000000
# 2 -0.007372 0.011138 -0.005280 0.000000 0.000000 0.000000
# 3 -0.004438 -0.005280 0.022114 0.000000 0.000000 0.000000
# 4 0.000000 0.000000 0.000000 0.038704 0.000000 0.000000
# 5 0.000000 0.000000 0.000000 0.000000 0.097127 0.000000
# 6 0.000000 0.000000 0.000000 0.000000 0.000000 0.038765
#
#
# Mechanical properties :
#
#
# Convention : Reuss Voigt Hill
#
# Bulk Modulus (GPa) = 35.76347 49.52592 42.64469
# Shear Modulus (GPa) = 17.84203 21.84938 19.84571
#
# Velocity S-wave (km/s) = 3.09134 3.42093 3.26031
# Velocity P-wave (km/s) = 5.64776 6.49079 6.08390
#
# Compressibility (1/GPa) = 0.02796149
#
# Stress axis : x y z
#
# Youngs Moduli (GPa) = 34.61423 89.78453 45.22104
#
# Poissons Ratio (x) = 0.66191 0.20067
# Poissons Ratio (y) = 0.25518 0.23877
# Poissons Ratio (z) = 0.15360 0.47407
#
# Static dielectric constant tensor:
#      x y z
#    x 3.367840 0.000000 0.000000 
#    y 0.000000 3.758240 0.000000 
#    z 0.000000 0.000000 3.207140 
# 
# 
# High freq. dielectric constant tensor:
#      x y z
#    x 1.705590 0.000000 0.000000 
#    y 0.000000 1.743230 0.000000 
#    z 0.000000 0.000000 1.706280 
# 
# From -- ./inp_files/9829.got.cif
#   From: 2010.03.12/outbox.cif.g09.slc.cpg/sg55_5_cif.got.tgz:9829.got - 2010.04.16 15:19:21.
