data_PCOD8225729
_publ_section_title
;
Structure prediction by ZEFSAII (Michael W. Deem and Ramdas Pophale) SiO2 
 PCOD8225729
Probable space group: P B A M
;
_chemical_formula_sum "Si O2"
_cell_formula_units_Z 64
_cell_length_a 19.640978
_cell_length_b 18.540859
_cell_length_c 8.772955
_cell_angle_alpha 90.000000
_cell_angle_beta 90.000000
_cell_angle_gamma 90.000000
_cell_volume 3194.764589
_symmetry_space_group_name_H-M "P B A M"
_symmetry_group_IT_number 55
_symmetry_cell_setting 'orthorhombic'
loop_
_space_group_symop_operation_xyz
x,y,z
-x,-y,z
1/2+x,1/2-y,-z
1/2-x,1/2+y,-z
-x,-y,-z
x,y,-z
1/2-x,1/2+y,z
1/2+x,1/2-y,z
loop_
_atom_site_type_symbol
_atom_site_label
_atom_site_fract_x
_atom_site_fract_y
_atom_site_fract_z
Si Si1 0.690076 0.517444 0.823227
Si Si2 0.925080 0.469523 0.175078
Si Si3 0.622582 0.827306 0.679297
Si Si4 0.766356 0.856718 0.821168
Si Si5 0.473724 0.286663 0.179681
Si Si6 0.672838 0.091980 0.821428
Si Si7 0.877513 0.744060 0.181353
Si Si8 0.947462 0.062800 0.676526
O O1 0.719199 0.439356 0.779688
O O2 0.748003 0.576898 0.788617
O O3 0.627544 0.535151 0.715408
O O4 0.667609 0.519646 0.000000
O O5 0.920814 0.395978 0.267895
O O6 0.873059 0.527637 0.247432
O O7 0.000000 0.500000 0.190038
O O8 0.905931 0.452260 0.000000
O O9 0.622799 0.823442 0.500000
O O10 0.699355 0.830136 0.737121
O O11 0.587794 0.755355 0.742259
O O12 0.829341 0.808797 0.761470
O O13 0.754407 0.846625 0.000000
O O14 0.546117 0.257164 0.241528
O O15 0.467728 0.370370 0.218971
O O16 0.468011 0.276212 0.000000
O O17 0.650973 0.168744 0.750091
O O18 0.657461 0.093900 0.000000
O O19 0.877206 0.742275 0.000000
O O20 0.950523 0.085117 0.500000
O O21 0.000000 0.000000 0.715929
#
# Coordination Sequence:
#
# PCOD8225729 Si02
#       8
#     8   8   8   8   8   8   8   8
#     4  10  20  36  61  91 122 159 208 262 305 360
#     4  10  19  36  63  88 117 158 205 253 298 353
#     4  12  25  39  57  88 130 168 202 246 308 376
#     4  10  20  38  63  90 121 159 210 261 307 364
#     4  11  23  42  67  92 120 160 212 263 310 367
#     4   9  17  32  55  90 123 149 195 256 307 349
#     4   9  19  35  61  92 118 149 200 263 316 361
#     4  11  25  43  63  90 128 166 202 254 318 378
#
# _framework density 20.032775999999998
#
# number of rings (size 3 to 8) (size 9 to 14) (size 15 to 20)
#    0.000    1.750    1.250    3.375    1.750    4.750 
#    0.000    1.250    0.000    2.250    0.000    0.000 
#    0.000    0.000    0.000    0.000    0.000    0.000 
#
# Total GULP energy -793858.828967 kJ/mol
# GULP energy per Si atom -12404.044203 kJ/mol
# Density = 1.998718 g / cm^3
# Si number density = 20.032776 Si / 1000 Ang^3
#
#
#
# Elastic Constant Matrix: (Units=GPa)
#
#
# Indices 1 2 3 4 5 6 
#
# 1 127.5506 53.9110 38.5346 0.0000 0.0000 0.0000
# 2 53.9110 118.4096 33.7169 0.0000 0.0000 0.0000
# 3 38.5346 33.7169 59.4574 0.0000 0.0000 0.0000
# 4 0.0000 0.0000 0.0000 20.0017 0.0000 0.0000
# 5 0.0000 0.0000 0.0000 0.0000 17.3489 0.0000
# 6 0.0000 0.0000 0.0000 0.0000 0.0000 38.6140
#
#
#
# Elastic Compliance Matrix: (Units=1/GPa)
#
#
# Indices 1 2 3 4 5 6 
#
# 1 0.010843 -0.003501 -0.005042 0.000000 0.000000 0.000000
# 2 -0.003501 0.011202 -0.004083 0.000000 0.000000 0.000000
# 3 -0.005042 -0.004083 0.022402 0.000000 0.000000 0.000000
# 4 0.000000 0.000000 0.000000 0.049996 0.000000 0.000000
# 5 0.000000 0.000000 0.000000 0.000000 0.057641 0.000000
# 6 0.000000 0.000000 0.000000 0.000000 0.000000 0.025897
#
#
# Mechanical properties :
#
#
# Convention : Reuss Voigt Hill
#
# Bulk Modulus (GPa) = 52.09897 61.97143 57.03520
# Shear Modulus (GPa) = 23.85135 27.14327 25.49731
#
# Velocity S-wave (km/s) = 3.45427 3.68495 3.57147
# Velocity P-wave (km/s) = 6.47863 7.00766 6.74833
#
# Compressibility (1/GPa) = 0.01919424
#
# Stress axis : x y z
#
# Youngs Moduli (GPa) = 92.22484 89.26989 44.63861
#
# Poissons Ratio (x) = 0.31254 0.22507
# Poissons Ratio (y) = 0.32288 0.18227
# Poissons Ratio (z) = 0.46501 0.36452
#
# Static dielectric constant tensor:
#      x y z
#    x 3.763880 0.000000 0.000000 
#    y 0.000000 3.862690 0.000000 
#    z 0.000000 0.000000 3.294570 
# 
# 
# High freq. dielectric constant tensor:
#      x y z
#    x 1.798150 0.000000 0.000000 
#    y 0.000000 1.796630 0.000000 
#    z 0.000000 0.000000 1.744960 
# 
# From -- ./inp_files/9034.got.cif
#   From: 2010.03.12/outbox.cif.g09.slc.cpg/sg55_5_cif.got.tgz:9034.got - 2010.04.16 15:19:21.
