data_PCOD8225900
_publ_section_title
;
Structure prediction by ZEFSAII (Michael W. Deem and Ramdas Pophale) SiO2 
 PCOD8225900
Probable space group: P B A M
;
_chemical_formula_sum "Si O2"
_cell_formula_units_Z 56
_cell_length_a 12.923377
_cell_length_b 19.993089
_cell_length_c 11.033411
_cell_angle_alpha 90.000000
_cell_angle_beta 90.000000
_cell_angle_gamma 90.000000
_cell_volume 2850.793167
_symmetry_space_group_name_H-M "P B A M"
_symmetry_group_IT_number 55
_symmetry_cell_setting 'orthorhombic'
loop_
_space_group_symop_operation_xyz
x,y,z
-x,-y,z
1/2+x,1/2-y,-z
1/2-x,1/2+y,-z
-x,-y,-z
x,y,-z
1/2-x,1/2+y,z
1/2+x,1/2-y,z
loop_
_atom_site_type_symbol
_atom_site_label
_atom_site_fract_x
_atom_site_fract_y
_atom_site_fract_z
Si Si1 0.862354 0.625944 0.359545
Si Si2 0.163075 0.613913 0.129584
Si Si3 0.579535 0.445852 0.362558
Si Si4 0.297233 0.268207 0.359369
Si Si5 0.355598 0.677017 0.222706
Si Si6 0.015317 0.715851 0.218733
Si Si7 0.683881 0.975097 0.638544
O O1 0.877908 0.639099 0.500000
O O2 0.754984 0.661508 0.318767
O O3 0.960406 0.658624 0.296560
O O4 0.860010 0.547747 0.329015
O O5 0.280162 0.642793 0.125171
O O6 0.141647 0.572513 0.253476
O O7 0.082792 0.675938 0.120426
O O8 0.150071 0.574400 0.000000
O O9 0.500000 0.500000 0.307707
O O10 0.547602 0.428414 0.500000
O O11 0.571738 0.378510 0.284705
O O12 0.693019 0.477920 0.356374
O O13 0.318404 0.264513 0.500000
O O14 0.219038 0.208076 0.325816
O O15 0.408206 0.261433 0.297713
O O16 0.429505 0.733577 0.162099
O O17 0.648964 0.953404 0.500000
#
# Coordination Sequence:
#
# PCOD8225900 Si02
#       7
#     8   8   8   8   8   8   8
#     4   9  18  32  51  81 116 150 183 225 277 324
#     4  10  22  40  60  80 107 144 184 228 278 331
#     4   9  17  28  48  79 109 145 183 221 268 321
#     4   9  17  29  49  79 116 149 181 224 272 322
#     4   9  19  34  51  76 108 144 177 227 272 330
#     4  10  20  33  53  81 107 143 187 228 272 329
#     4   9  19  36  55  78 113 148 184 228 273 324
#
# _framework density 19.643654999999999
#
# number of rings (size 3 to 8) (size 9 to 14) (size 15 to 20)
#    0.000    2.714    0.000    0.857    2.000    6.857 
#    0.000    2.857    0.000   10.286    0.000    0.000 
#    0.000    0.000    0.000    0.000    0.000    0.000 
#
# Total GULP energy -693859.155359 kJ/mol
# GULP energy per Si atom -12390.342060 kJ/mol
# Density = 1.959895 g / cm^3
# Si number density = 19.643655 Si / 1000 Ang^3
#
#
#
# Elastic Constant Matrix: (Units=GPa)
#
#
# Indices 1 2 3 4 5 6 
#
# 1 67.3854 31.8796 22.8883 0.0000 0.0000 0.0000
# 2 31.8796 96.0312 41.3069 0.0000 0.0000 0.0000
# 3 22.8883 41.3069 92.4850 0.0000 0.0000 0.0000
# 4 0.0000 0.0000 0.0000 10.0531 0.0000 0.0000
# 5 0.0000 0.0000 0.0000 0.0000 -2.0169 0.0000
# 6 0.0000 0.0000 0.0000 0.0000 0.0000 39.1231
#
#
#
# Elastic Compliance Matrix: (Units=1/GPa)
#
#
# Indices 1 2 3 4 5 6 
#
# 1 0.017961 -0.005014 -0.002206 0.000000 0.000000 0.000000
# 2 -0.005014 0.014289 -0.005141 0.000000 0.000000 0.000000
# 3 -0.002206 -0.005141 0.013655 0.000000 0.000000 0.000000
# 4 0.000000 0.000000 0.000000 0.099472 0.000000 0.000000
# 5 0.000000 0.000000 0.000000 0.000000 -0.495818 0.000000
# 6 0.000000 0.000000 0.000000 0.000000 0.000000 0.025560
#
#
# Mechanical properties :
#
#
# Convention : Reuss Voigt Hill
#
# Bulk Modulus (GPa) = 47.20643 49.78348 48.49495
# Shear Modulus (GPa) = -17.05913 20.08700 1.51393
#
# Velocity S-wave (km/s) = -2.95011 3.20123 0.87885
# Velocity P-wave (km/s) = 3.53261 6.24997 5.07649
#
# Compressibility (1/GPa) = 0.02118356
#
# Stress axis : x y z
#
# Youngs Moduli (GPa) = 55.67545 69.98315 73.23511
#
# Poissons Ratio (x) = 0.35088 0.16154
# Poissons Ratio (y) = 0.27915 0.37651
# Poissons Ratio (z) = 0.12280 0.35980
#
# Static dielectric constant tensor:
#      x y z
#    x 3.628820 0.000000 0.000000 
#    y 0.000000 3.671280 0.000000 
#    z 0.000000 0.000000 3.219290 
# 
# 
# High freq. dielectric constant tensor:
#      x y z
#    x 1.773530 0.000000 0.000000 
#    y 0.000000 1.763960 0.000000 
#    z 0.000000 0.000000 1.728170 
# 
# From -- ./inp_files/13404.got.cif
#   From: 2010.03.12/outbox.cif.g09.slc.cpg/sg55_7_cif.got.tgz:13404.got - 2010.04.16 15:19:21.
