data_PCOD8225630
_publ_section_title
;
Structure prediction by ZEFSAII (Michael W. Deem and Ramdas Pophale) SiO2 
 PCOD8225630
Probable space group: P B A M
;
_chemical_formula_sum "Si O2"
_cell_formula_units_Z 48
_cell_length_a 5.062115
_cell_length_b 35.496567
_cell_length_c 13.733801
_cell_angle_alpha 90.000000
_cell_angle_beta 90.000000
_cell_angle_gamma 90.000000
_cell_volume 2467.795172
_symmetry_space_group_name_H-M "P B A M"
_symmetry_group_IT_number 55
_symmetry_cell_setting 'orthorhombic'
loop_
_space_group_symop_operation_xyz
x,y,z
-x,-y,z
1/2+x,1/2-y,-z
1/2-x,1/2+y,-z
-x,-y,-z
x,y,-z
1/2-x,1/2+y,z
1/2+x,1/2-y,z
loop_
_atom_site_type_symbol
_atom_site_label
_atom_site_fract_x
_atom_site_fract_y
_atom_site_fract_z
Si Si1 0.799085 0.774331 0.611995
Si Si2 0.284180 0.393207 0.386022
Si Si3 0.715616 0.854111 0.302000
Si Si4 0.748409 0.023207 0.305703
Si Si5 0.195129 0.108109 0.108794
Si Si6 0.194521 0.441688 0.108898
O O1 0.776281 0.787344 0.500000
O O2 0.585371 0.742338 0.635735
O O3 0.754679 0.810241 0.679014
O O4 0.234928 0.389775 0.500000
O O5 0.578810 0.379814 0.361216
O O6 0.245226 0.435843 0.352690
O O7 0.078062 0.366246 0.331670
O O8 0.754521 0.859027 0.186252
O O9 0.743600 0.025801 0.187863
O O10 0.500000 0.000000 0.344803
O O11 0.000000 0.000000 0.341062
O O12 0.401547 0.074313 0.125776
O O13 0.902256 0.092023 0.125015
O O14 0.227362 0.124958 0.000000
O O15 0.224445 0.458836 0.000000
#
# Coordination Sequence:
#
# PCOD8225630 Si02
#       6
#     8   8   8   8   8   8
#     4  10  21  36  56  87 122 152 184 226 284 341
#     4  12  25  40  60  86 111 152 206 243 280 339
#     4  12  21  40  65  87 117 153 192 240 283 334
#     4  12  24  38  57  79 116 151 190 243 301 344
#     4  10  19  35  61  87 112 144 189 239 287 337
#     4  10  20  37  57  82 112 144 189 243 295 345
#
# _framework density 19.450562000000001
#
# number of rings (size 3 to 8) (size 9 to 14) (size 15 to 20)
#    0.000    1.000    3.333    4.500    0.000    2.667 
#    0.000    0.000    0.000    1.000    0.000    0.000 
#    0.000    0.000    0.000    0.000    0.000    0.000 
#
# Total GULP energy -595465.970559 kJ/mol
# GULP energy per Si atom -12405.541053 kJ/mol
# Density = 1.940629 g / cm^3
# Si number density = 19.450562 Si / 1000 Ang^3
#
#
#
# Elastic Constant Matrix: (Units=GPa)
#
#
# Indices 1 2 3 4 5 6 
#
# 1 86.2420 11.7763 12.8723 0.0000 0.0000 0.0000
# 2 11.7763 78.9674 28.0985 0.0000 0.0000 0.0000
# 3 12.8723 28.0985 85.5981 0.0000 0.0000 0.0000
# 4 0.0000 0.0000 0.0000 27.0427 0.0000 0.0000
# 5 0.0000 0.0000 0.0000 0.0000 28.5006 0.0000
# 6 0.0000 0.0000 0.0000 0.0000 0.0000 19.8911
#
#
#
# Elastic Compliance Matrix: (Units=1/GPa)
#
#
# Indices 1 2 3 4 5 6 
#
# 1 0.011978 -0.001297 -0.001376 0.000000 0.000000 0.000000
# 2 -0.001297 0.014479 -0.004558 0.000000 0.000000 0.000000
# 3 -0.001376 -0.004558 0.013385 0.000000 0.000000 0.000000
# 4 0.000000 0.000000 0.000000 0.036979 0.000000 0.000000
# 5 0.000000 0.000000 0.000000 0.000000 0.035087 0.000000
# 6 0.000000 0.000000 0.000000 0.000000 0.000000 0.050274
#
#
# Mechanical properties :
#
#
# Convention : Reuss Voigt Hill
#
# Bulk Modulus (GPa) = 39.39854 39.58908 39.49381
# Shear Modulus (GPa) = 27.01217 28.29090 27.65154
#
# Velocity S-wave (km/s) = 3.73065 3.81793 3.77454
# Velocity P-wave (km/s) = 6.23352 6.31137 6.27256
#
# Compressibility (1/GPa) = 0.02538165
#
# Stress axis : x y z
#
# Youngs Moduli (GPa) = 83.48873 69.06744 74.70780
#
# Poissons Ratio (x) = 0.08956 0.10276
# Poissons Ratio (y) = 0.10827 0.34050
# Poissons Ratio (z) = 0.11484 0.31479
#
# Static dielectric constant tensor:
#      x y z
#    x 3.767010 0.000000 0.000000 
#    y 0.000000 3.221430 0.000000 
#    z 0.000000 0.000000 3.746390 
# 
# 
# High freq. dielectric constant tensor:
#      x y z
#    x 1.783050 0.000000 0.000000 
#    y 0.000000 1.730540 0.000000 
#    z 0.000000 0.000000 1.756280 
# 
# From -- ./inp_files/16669.got.cif
#   From: 2010.03.12/outbox.cif.g09.slc.cpg/sg55_9_cif.got.tgz:16669.got - 2010.04.16 15:19:21.
