data_PCOD8225606
_publ_section_title
;
Structure prediction by ZEFSAII (Michael W. Deem and Ramdas Pophale) SiO2 
 PCOD8225606
Probable space group: P B A M
;
_chemical_formula_sum "Si O2"
_cell_formula_units_Z 64
_cell_length_a 11.159731
_cell_length_b 16.053311
_cell_length_c 18.999673
_cell_angle_alpha 90.000000
_cell_angle_beta 90.000000
_cell_angle_gamma 90.000000
_cell_volume 3403.803434
_symmetry_space_group_name_H-M "P B A M"
_symmetry_group_IT_number 55
_symmetry_cell_setting 'orthorhombic'
loop_
_space_group_symop_operation_xyz
x,y,z
-x,-y,z
1/2+x,1/2-y,-z
1/2-x,1/2+y,-z
-x,-y,-z
x,y,-z
1/2-x,1/2+y,z
1/2+x,1/2-y,z
loop_
_atom_site_type_symbol
_atom_site_label
_atom_site_fract_x
_atom_site_fract_y
_atom_site_fract_z
Si Si1 0.723888 0.339398 0.358056
Si Si2 0.621045 0.304630 0.920888
Si Si3 0.731474 0.649466 0.648864
Si Si4 0.852478 0.087914 0.785491
Si Si5 0.359784 0.010777 0.419182
Si Si6 0.872303 0.901519 0.217727
Si Si7 0.150108 0.813019 0.078570
Si Si8 0.005397 0.907120 0.419823
O O1 0.733601 0.241749 0.375284
O O2 0.832210 0.402908 0.377084
O O3 0.696070 0.345231 0.274816
O O4 0.623582 0.367938 0.412086
O O5 0.645814 0.374086 0.862718
O O6 0.482864 0.268604 0.910338
O O7 0.731358 0.241870 0.910080
O O8 0.629699 0.342217 0.000000
O O9 0.734522 0.640698 0.733990
O O10 0.802660 0.573369 0.613104
O O11 0.594309 0.645882 0.626650
O O12 0.835773 0.112546 0.866492
O O13 0.988983 0.100577 0.761432
O O14 0.815218 0.992512 0.777267
O O15 0.315764 0.018566 0.500000
O O16 0.500000 0.000000 0.414583
O O17 0.153270 0.850713 0.000000
O O18 0.048722 0.907494 0.500000
O O19 0.000000 0.000000 0.388782
#
# Coordination Sequence:
#
# PCOD8225606 Si02
#       8
#     8   8   8   8   8   8   8   8
#     4  12  24  40  63  89 118 155 200 249 299 360
#     4   9  18  33  55  85 118 154 196 243 296 356
#     4  12  24  40  63  89 118 155 200 249 299 360
#     4  10  19  35  59  85 116 151 194 249 298 346
#     4  11  26  45  61  85 124 160 194 248 311 367
#     4  10  19  35  59  85 116 151 194 249 298 346
#     4   9  18  33  55  85 118 154 196 243 296 356
#     4  11  22  40  64  87 112 150 200 250 296 355
#
# _framework density 18.802495
#
# number of rings (size 3 to 8) (size 9 to 14) (size 15 to 20)
#    0.000    1.500    3.750    1.500    1.750    2.500 
#    0.000    3.750    0.000    0.000    0.000    3.500 
#    0.000    0.000    0.000    0.000    0.000    0.000 
#
# Total GULP energy -792853.427844 kJ/mol
# GULP energy per Si atom -12388.334810 kJ/mol
# Density = 1.875970 g / cm^3
# Si number density = 18.802495 Si / 1000 Ang^3
#
#
#
# Elastic Constant Matrix: (Units=GPa)
#
#
# Indices 1 2 3 4 5 6 
#
# 1 71.4115 25.8035 28.5689 0.0000 0.0000 0.0000
# 2 25.8035 119.9473 41.5601 0.0000 0.0000 0.0000
# 3 28.5689 41.5601 107.2887 0.0000 0.0000 0.0000
# 4 0.0000 0.0000 0.0000 46.3715 0.0000 0.0000
# 5 0.0000 0.0000 0.0000 0.0000 34.8482 0.0000
# 6 0.0000 0.0000 0.0000 0.0000 0.0000 26.6957
#
#
#
# Elastic Compliance Matrix: (Units=1/GPa)
#
#
# Indices 1 2 3 4 5 6 
#
# 1 0.016204 -0.002299 -0.003424 0.000000 0.000000 0.000000
# 2 -0.002299 0.009956 -0.003244 0.000000 0.000000 0.000000
# 3 -0.003424 -0.003244 0.011489 0.000000 0.000000 0.000000
# 4 0.000000 0.000000 0.000000 0.021565 0.000000 0.000000
# 5 0.000000 0.000000 0.000000 0.000000 0.028696 0.000000
# 6 0.000000 0.000000 0.000000 0.000000 0.000000 0.037459
#
#
# Mechanical properties :
#
#
# Convention : Reuss Voigt Hill
#
# Bulk Modulus (GPa) = 50.72702 54.50139 52.61421
# Shear Modulus (GPa) = 33.36096 35.09740 34.22918
#
# Velocity S-wave (km/s) = 4.21679 4.32514 4.27131
# Velocity P-wave (km/s) = 7.12362 7.34790 7.23663
#
# Compressibility (1/GPa) = 0.01971336
#
# Stress axis : x y z
#
# Youngs Moduli (GPa) = 61.71287 100.44452 87.03888
#
# Poissons Ratio (x) = 0.23097 0.29803
# Poissons Ratio (y) = 0.14191 0.28237
# Poissons Ratio (z) = 0.21131 0.32586
#
# Static dielectric constant tensor:
#      x y z
#    x 3.568800 0.000000 0.000000 
#    y 0.000000 3.950690 0.000000 
#    z 0.000000 0.000000 3.637630 
# 
# 
# High freq. dielectric constant tensor:
#      x y z
#    x 1.727040 0.000000 0.000000 
#    y 0.000000 1.710600 0.000000 
#    z 0.000000 0.000000 1.753000 
# 
# From -- ./inp_files/21345.got.cif
#   From: 2010.03.12/outbox.cif.g09.slc.cpg/sg55_11_cif.got.tgz:21345.got - 2010.04.16 15:19:21.
