data_PCOD8225709
_publ_section_title
;
Structure prediction by ZEFSAII (Michael W. Deem and Ramdas Pophale) SiO2 
 PCOD8225709
Probable space group: P B A M
;
_chemical_formula_sum "Si O2"
_cell_formula_units_Z 48
_cell_length_a 16.858418
_cell_length_b 19.080201
_cell_length_c 7.420634
_cell_angle_alpha 90.000000
_cell_angle_beta 90.000000
_cell_angle_gamma 90.000000
_cell_volume 2386.936003
_symmetry_space_group_name_H-M "P B A M"
_symmetry_group_IT_number 55
_symmetry_cell_setting 'orthorhombic'
loop_
_space_group_symop_operation_xyz
x,y,z
-x,-y,z
1/2+x,1/2-y,-z
1/2-x,1/2+y,-z
-x,-y,-z
x,y,-z
1/2-x,1/2+y,z
1/2+x,1/2-y,z
loop_
_atom_site_type_symbol
_atom_site_label
_atom_site_fract_x
_atom_site_fract_y
_atom_site_fract_z
Si Si1 0.372990 0.338994 0.212600
Si Si2 0.563069 0.899525 0.500000
Si Si3 0.735537 0.056044 0.787103
Si Si4 0.342217 0.182760 0.212912
Si Si5 0.521960 0.422404 0.214870
Si Si6 0.608618 0.060367 0.500000
Si Si7 0.302775 0.591341 0.788988
O O1 0.304304 0.391230 0.273474
O O2 0.353035 0.261652 0.285153
O O3 0.457012 0.367128 0.289875
O O4 0.377457 0.336475 0.000000
O O5 0.595557 0.865026 0.317534
O O6 0.468331 0.890202 0.500000
O O7 0.585196 0.979940 0.500000
O O8 0.656890 0.078416 0.681330
O O9 0.761248 0.979213 0.717642
O O10 0.717943 0.058844 0.000000
O O11 0.252400 0.157749 0.260644
O O12 0.358714 0.174627 0.000000
O O13 0.500000 0.500000 0.284739
O O14 0.608566 0.400123 0.292187
O O15 0.520981 0.421993 0.000000
O O16 0.312738 0.582252 0.000000
#
# Coordination Sequence:
#
# PCOD8225709 Si02
#       7
#     8   4   8   8   8   4   8
#     4   9  18  33  57  88 120 155 191 236 298 358
#     4  11  24  41  60  81 111 154 202 249 293 343
#     4  10  19  36  61  88 117 149 192 242 291 353
#     4  10  21  39  60  84 117 157 196 239 298 357
#     4   9  14  25  51  86 116 143 186 237 284 346
#     4  11  24  39  60  86 109 149 205 251 295 334
#     4   9  16  29  54  84 114 150 189 231 287 350
#
# _framework density 20.109462000000001
#
# number of rings (size 3 to 8) (size 9 to 14) (size 15 to 20)
#    0.000    2.333    3.333    0.000    0.000    1.333 
#    3.000    1.667    0.000    4.000    0.000    0.000 
#    0.000    0.000    0.000    0.000    0.000    0.000 
#
# Total GULP energy -595047.135746 kJ/mol
# GULP energy per Si atom -12396.815328 kJ/mol
# Density = 2.006369 g / cm^3
# Si number density = 20.109462 Si / 1000 Ang^3
#
#
#
# Elastic Constant Matrix: (Units=GPa)
#
#
# Indices 1 2 3 4 5 6 
#
# 1 199.6051 76.7436 40.3832 0.0000 0.0000 0.0000
# 2 76.7436 125.5944 18.0052 0.0000 0.0000 0.0000
# 3 40.3832 18.0052 62.5676 0.0000 0.0000 0.0000
# 4 0.0000 0.0000 0.0000 7.4479 0.0000 0.0000
# 5 0.0000 0.0000 0.0000 0.0000 -13.7161 0.0000
# 6 0.0000 0.0000 0.0000 0.0000 0.0000 35.2345
#
#
#
# Elastic Compliance Matrix: (Units=1/GPa)
#
#
# Indices 1 2 3 4 5 6 
#
# 1 0.007230 -0.003910 -0.003541 0.000000 0.000000 0.000000
# 2 -0.003910 0.010419 -0.000475 0.000000 0.000000 0.000000
# 3 -0.003541 -0.000475 0.018405 0.000000 0.000000 0.000000
# 4 0.000000 0.000000 0.000000 0.134266 0.000000 0.000000
# 5 0.000000 0.000000 0.000000 0.000000 -0.072907 0.000000
# 6 0.000000 0.000000 0.000000 0.000000 0.000000 0.028381
#
#
# Mechanical properties :
#
#
# Convention : Reuss Voigt Hill
#
# Bulk Modulus (GPa) = 49.49946 73.11457 61.30701
# Shear Modulus (GPa) = 33.69734 22.63560 28.16647
#
# Velocity S-wave (km/s) = 4.09797 3.35866 3.74660
# Velocity P-wave (km/s) = 6.86000 7.17482 7.01917
#
# Compressibility (1/GPa) = 0.02020224
#
# Stress axis : x y z
#
# Youngs Moduli (GPa) = 138.32057 95.97530 54.33347
#
# Poissons Ratio (x) = 0.37526 0.19240
# Poissons Ratio (y) = 0.54083 0.02580
# Poissons Ratio (z) = 0.48980 0.04557
#
# Static dielectric constant tensor:
#      x y z
#    x 3.987680 0.000000 0.000000 
#    y 0.000000 3.797930 0.000000 
#    z 0.000000 0.000000 3.298020 
# 
# 
# High freq. dielectric constant tensor:
#      x y z
#    x 1.789800 0.000000 0.000000 
#    y 0.000000 1.773590 0.000000 
#    z 0.000000 0.000000 1.771030 
# 
# From -- ./inp_files/5725.got.cif
#   From: 2010.03.12/outbox.cif.g09.slc.cpg/sg55_3_cif.got.tgz:5725.got - 2010.04.16 15:19:21.
