data_PCOD8225259
_publ_section_title
;
Structure prediction by ZEFSAII (Michael W. Deem and Ramdas Pophale) SiO2 
 PCOD8225259
Probable space group: P B A M
;
_chemical_formula_sum "Si O2"
_cell_formula_units_Z 64
_cell_length_a 8.882819
_cell_length_b 21.006438
_cell_length_c 18.058271
_cell_angle_alpha 90.000000
_cell_angle_beta 90.000000
_cell_angle_gamma 90.000000
_cell_volume 3369.608117
_symmetry_space_group_name_H-M "P B A M"
_symmetry_group_IT_number 55
_symmetry_cell_setting 'orthorhombic'
loop_
_space_group_symop_operation_xyz
x,y,z
-x,-y,z
1/2+x,1/2-y,-z
1/2-x,1/2+y,-z
-x,-y,-z
x,y,-z
1/2-x,1/2+y,z
1/2+x,1/2-y,z
loop_
_atom_site_type_symbol
_atom_site_label
_atom_site_fract_x
_atom_site_fract_y
_atom_site_fract_z
Si Si1 0.541030 0.838252 0.153407
Si Si2 0.638683 0.955962 0.083290
Si Si3 0.629511 0.449907 0.786101
Si Si4 0.003779 0.826435 0.730634
Si Si5 0.223959 0.264995 0.200363
Si Si6 0.937644 0.334958 0.416757
Si Si7 0.895801 0.791966 0.584196
Si Si8 0.419921 0.067415 0.709511
O O1 0.580218 0.882907 0.083762
O O2 0.672379 0.785580 0.158029
O O3 0.376942 0.806044 0.142340
O O4 0.537145 0.884596 0.224552
O O5 0.782018 0.964341 0.137413
O O6 0.500000 0.000000 0.110051
O O7 0.689128 0.973804 0.000000
O O8 0.500000 0.500000 0.771986
O O9 0.549187 0.381616 0.786117
O O10 0.742988 0.449448 0.716424
O O11 0.896550 0.765942 0.744554
O O12 0.987161 0.837756 0.641916
O O13 0.175785 0.812031 0.750203
O O14 0.944255 0.361132 0.500000
O O15 0.780574 0.299842 0.400066
O O16 0.959316 0.397095 0.366350
O O17 0.065696 0.282340 0.402540
O O18 0.939137 0.812127 0.500000
O O19 0.500000 0.000000 0.714449
#
# Coordination Sequence:
#
# PCOD8225259 Si02
#       8
#     8   8   8   8   8   8   8   8
#     4  10  19  37  57  87 114 146 189 232 282 343
#     4  10  22  42  65  85 117 155 189 233 280 339
#     4  11  23  38  59  87 112 147 194 240 281 336
#     4  11  19  34  55  85 114 146 188 240 285 335
#     4  10  20  31  59  85 115 146 184 237 289 335
#     4  10  20  36  56  81 112 149 193 243 297 355
#     4  10  19  33  55  81 113 147 188 238 295 346
#     4  11  22  37  55  79 112 156 195 245 287 342
#
# _framework density 18.993307000000001
#
# number of rings (size 3 to 8) (size 9 to 14) (size 15 to 20)
#    0.000    1.625    3.750    3.750    3.500    0.500 
#    0.000    0.625    0.000    1.500    0.000    0.000 
#    0.000    0.000    0.000    0.000    0.000    0.000 
#
# Total GULP energy -793246.387048 kJ/mol
# GULP energy per Si atom -12394.474798 kJ/mol
# Density = 1.895008 g / cm^3
# Si number density = 18.993307 Si / 1000 Ang^3
#
#
#
# Elastic Constant Matrix: (Units=GPa)
#
#
# Indices 1 2 3 4 5 6 
#
# 1 90.5931 42.6642 1.6131 0.0000 0.0000 0.0000
# 2 42.6642 91.1239 15.9315 0.0000 0.0000 0.0000
# 3 1.6131 15.9315 50.8763 0.0000 0.0000 0.0000
# 4 0.0000 0.0000 0.0000 20.0510 0.0000 0.0000
# 5 0.0000 0.0000 0.0000 0.0000 20.5701 0.0000
# 6 0.0000 0.0000 0.0000 0.0000 0.0000 40.3691
#
#
#
# Elastic Compliance Matrix: (Units=1/GPa)
#
#
# Indices 1 2 3 4 5 6 
#
# 1 0.014305 -0.007001 0.001739 0.000000 0.000000 0.000000
# 2 -0.007001 0.015037 -0.004487 0.000000 0.000000 0.000000
# 3 0.001739 -0.004487 0.021005 0.000000 0.000000 0.000000
# 4 0.000000 0.000000 0.000000 0.049873 0.000000 0.000000
# 5 0.000000 0.000000 0.000000 0.000000 0.048614 0.000000
# 6 0.000000 0.000000 0.000000 0.000000 0.000000 0.024771
#
#
# Mechanical properties :
#
#
# Convention : Reuss Voigt Hill
#
# Bulk Modulus (GPa) = 32.41672 39.22342 35.82007
# Shear Modulus (GPa) = 24.58378 27.69034 26.13706
#
# Velocity S-wave (km/s) = 3.60160 3.82239 3.71363
# Velocity P-wave (km/s) = 5.86514 6.33852 6.10642
#
# Compressibility (1/GPa) = 0.03084828
#
# Stress axis : x y z
#
# Youngs Moduli (GPa) = 69.90701 66.50449 47.60701
#
# Poissons Ratio (x) = 0.46563 -0.08278
# Poissons Ratio (y) = 0.48945 0.21359
# Poissons Ratio (z) = -0.12156 0.29838
#
# Static dielectric constant tensor:
#      x y z
#    x 3.523810 0.000000 0.000000 
#    y 0.000000 3.543920 0.000000 
#    z 0.000000 0.000000 3.430510 
# 
# 
# High freq. dielectric constant tensor:
#      x y z
#    x 1.744630 0.000000 0.000000 
#    y 0.000000 1.730910 0.000000 
#    z 0.000000 0.000000 1.718770 
# 
# From -- ./inp_files/21077.got.cif
#   From: 2010.03.12/outbox.cif.g09.slc.cpg/sg55_11_cif.got.tgz:21077.got - 2010.04.16 15:19:21.
