data_PCOD8225333
_publ_section_title
;
Structure prediction by ZEFSAII (Michael W. Deem and Ramdas Pophale) SiO2 
 PCOD8225333
Probable space group: P B A M
;
_chemical_formula_sum "Si O2"
_cell_formula_units_Z 48
_cell_length_a 16.522672
_cell_length_b 17.646314
_cell_length_c 9.265624
_cell_angle_alpha 90.000000
_cell_angle_beta 90.000000
_cell_angle_gamma 90.000000
_cell_volume 2701.524789
_symmetry_space_group_name_H-M "P B A M"
_symmetry_group_IT_number 55
_symmetry_cell_setting 'orthorhombic'
loop_
_space_group_symop_operation_xyz
x,y,z
-x,-y,z
1/2+x,1/2-y,-z
1/2-x,1/2+y,-z
-x,-y,-z
x,y,-z
1/2-x,1/2+y,z
1/2+x,1/2-y,z
loop_
_atom_site_type_symbol
_atom_site_label
_atom_site_fract_x
_atom_site_fract_y
_atom_site_fract_z
Si Si1 0.679239 0.412176 0.335988
Si Si2 0.739173 0.043468 0.169127
Si Si3 0.500935 0.588168 0.664524
Si Si4 0.165413 0.676905 0.336063
Si Si5 0.909100 0.483300 0.331023
Si Si6 0.861301 0.172025 0.168137
O O1 0.687223 0.443861 0.500000
O O2 0.699238 0.480573 0.228811
O O3 0.589552 0.380251 0.307979
O O4 0.740376 0.342720 0.312844
O O5 0.652148 0.038882 0.246856
O O6 0.779266 0.125214 0.201212
O O7 0.726948 0.029569 0.000000
O O8 0.500000 0.500000 0.702303
O O9 0.528830 0.601797 0.500000
O O10 0.560791 0.630743 0.769289
O O11 0.148034 0.702010 0.500000
O O12 0.111420 0.603837 0.295437
O O13 0.143372 0.744472 0.231506
O O14 0.898341 0.500208 0.500000
O O15 0.000000 0.500000 0.278580
O O16 0.875948 0.179825 0.000000
#
# Coordination Sequence:
#
# PCOD8225333 Si02
#       6
#     8   8   8   8   8   8
#     4   9  18  35  57  81 104 136 181 223 266 317
#     4  10  20  33  53  79 108 143 178 215 263 323
#     4  10  19  33  58  85 109 139 179 226 271 319
#     4   9  19  36  57  78 106 140 178 224 273 321
#     4   9  19  38  62  84 104 134 183 235 275 318
#     4  11  23  36  51  78 116 149 179 217 267 324
#
# _framework density 17.767744
#
# number of rings (size 3 to 8) (size 9 to 14) (size 15 to 20)
#    0.000    2.333    1.667    2.000    0.000    6.000 
#    3.000    0.000    0.000    0.000    0.000    0.000 
#    0.000    0.000    0.000    0.000    0.000    0.000 
#
# Total GULP energy -595233.261991 kJ/mol
# GULP energy per Si atom -12400.692958 kJ/mol
# Density = 1.772730 g / cm^3
# Si number density = 17.767744 Si / 1000 Ang^3
#
#
#
# Elastic Constant Matrix: (Units=GPa)
#
#
# Indices 1 2 3 4 5 6 
#
# 1 149.3931 67.9600 69.4858 0.0000 0.0000 0.0000
# 2 67.9600 96.9430 62.3968 0.0000 0.0000 0.0000
# 3 69.4858 62.3968 90.4611 0.0000 0.0000 0.0000
# 4 0.0000 0.0000 0.0000 22.5111 0.0000 0.0000
# 5 0.0000 0.0000 0.0000 0.0000 26.9525 0.0000
# 6 0.0000 0.0000 0.0000 0.0000 0.0000 19.7878
#
#
#
# Elastic Compliance Matrix: (Units=1/GPa)
#
#
# Indices 1 2 3 4 5 6 
#
# 1 0.011290 -0.004195 -0.005778 0.000000 0.000000 0.000000
# 2 -0.004195 0.020111 -0.010649 0.000000 0.000000 0.000000
# 3 -0.005778 -0.010649 0.022838 0.000000 0.000000 0.000000
# 4 0.000000 0.000000 0.000000 0.044422 0.000000 0.000000
# 5 0.000000 0.000000 0.000000 0.000000 0.037102 0.000000
# 6 0.000000 0.000000 0.000000 0.000000 0.000000 0.050536
#
#
# Mechanical properties :
#
#
# Convention : Reuss Voigt Hill
#
# Bulk Modulus (GPa) = 76.96188 81.83136 79.39662
# Shear Modulus (GPa) = 21.56328 22.98060 22.27194
#
# Velocity S-wave (km/s) = 3.48748 3.60027 3.54433
# Velocity P-wave (km/s) = 7.72180 7.96484 7.84427
#
# Compressibility (1/GPa) = 0.01299345
#
# Stress axis : x y z
#
# Youngs Moduli (GPa) = 88.57530 49.72517 43.78642
#
# Poissons Ratio (x) = 0.20862 0.25301
# Poissons Ratio (y) = 0.37161 0.46628
# Poissons Ratio (z) = 0.51181 0.52952
#
# Static dielectric constant tensor:
#      x y z
#    x 3.730450 0.000000 0.000000 
#    y 0.000000 3.164440 0.000000 
#    z 0.000000 0.000000 3.271080 
# 
# 
# High freq. dielectric constant tensor:
#      x y z
#    x 1.696770 0.000000 0.000000 
#    y 0.000000 1.668800 0.000000 
#    z 0.000000 0.000000 1.687680 
# 
# From -- ./inp_files/5630.got.cif
#   From: 2010.03.12/outbox.cif.g09.slc.cpg/sg55_3_cif.got.tgz:5630.got - 2010.04.16 15:19:21.
