data_PCOD8225341
_publ_section_title
;
Structure prediction by ZEFSAII (Michael W. Deem and Ramdas Pophale) SiO2 
 PCOD8225341
Probable space group: P B A M
;
_chemical_formula_sum "Si O2"
_cell_formula_units_Z 64
_cell_length_a 12.381948
_cell_length_b 28.241360
_cell_length_c 9.113817
_cell_angle_alpha 90.000000
_cell_angle_beta 90.000000
_cell_angle_gamma 90.000000
_cell_volume 3186.947335
_symmetry_space_group_name_H-M "P B A M"
_symmetry_group_IT_number 55
_symmetry_cell_setting 'orthorhombic'
loop_
_space_group_symop_operation_xyz
x,y,z
-x,-y,z
1/2+x,1/2-y,-z
1/2-x,1/2+y,-z
-x,-y,-z
x,y,-z
1/2-x,1/2+y,z
1/2+x,1/2-y,z
loop_
_atom_site_type_symbol
_atom_site_label
_atom_site_fract_x
_atom_site_fract_y
_atom_site_fract_z
Si Si1 0.005429 0.798863 0.670343
Si Si2 0.382404 0.133397 0.827041
Si Si3 0.705333 0.663185 0.828393
Si Si4 0.751305 0.070793 0.331421
Si Si5 0.113359 0.018230 0.673118
Si Si6 0.435287 0.792227 0.829030
Si Si7 0.995189 0.553578 0.669327
Si Si8 0.167815 0.122189 0.329253
O O1 0.027450 0.789905 0.500000
O O2 0.119626 0.802246 0.752463
O O3 0.938440 0.755190 0.734618
O O4 0.938090 0.846553 0.697291
O O5 0.465907 0.174253 0.781344
O O6 0.421232 0.083203 0.764625
O O7 0.266565 0.145853 0.758573
O O8 0.372199 0.129141 0.000000
O O9 0.691078 0.610260 0.766671
O O10 0.824268 0.681614 0.790606
O O11 0.682118 0.662581 0.000000
O O12 0.783144 0.080688 0.500000
O O13 0.623971 0.073823 0.307162
O O14 0.793408 0.019036 0.283882
O O15 0.100930 0.023658 0.500000
O O16 0.144154 0.069819 0.735975
O O17 0.000000 0.000000 0.740392
O O18 0.441770 0.779219 0.000000
O O19 0.031605 0.556267 0.500000
O O20 0.000000 0.500000 0.725955
O O21 0.199582 0.120505 0.500000
#
# Coordination Sequence:
#
# PCOD8225341 Si02
#       8
#     8   8   8   8   8   8   8   8
#     4  11  25  42  66  96 122 154 205 263 311 365
#     4  11  23  40  61  87 122 162 206 250 303 372
#     4  11  23  42  65  89 125 165 202 249 307 373
#     4  10  19  33  58  89 118 156 206 255 298 355
#     4   9  17  33  59  87 121 161 201 248 305 363
#     4  10  24  44  63  87 120 164 205 248 314 376
#     4  10  20  35  57  86 120 160 205 252 306 362
#     4  10  22  41  63  92 127 162 203 253 312 369
#
# _framework density 20.081914999999999
#
# number of rings (size 3 to 8) (size 9 to 14) (size 15 to 20)
#    0.000    1.750    1.250    2.625    1.750    7.250 
#    0.000    1.875    0.000    1.500    0.000    0.000 
#    0.000    0.000    0.000    0.000    0.000    0.000 
#
# Total GULP energy -793954.603723 kJ/mol
# GULP energy per Si atom -12405.540683 kJ/mol
# Density = 2.003621 g / cm^3
# Si number density = 20.081915 Si / 1000 Ang^3
#
#
#
# Elastic Constant Matrix: (Units=GPa)
#
#
# Indices 1 2 3 4 5 6 
#
# 1 100.8685 29.7340 45.9507 0.0000 0.0000 0.0000
# 2 29.7340 114.8769 49.1778 0.0000 0.0000 0.0000
# 3 45.9507 49.1778 75.1887 0.0000 0.0000 0.0000
# 4 0.0000 0.0000 0.0000 22.1514 0.0000 0.0000
# 5 0.0000 0.0000 0.0000 0.0000 28.6698 0.0000
# 6 0.0000 0.0000 0.0000 0.0000 0.0000 29.6552
#
#
#
# Elastic Compliance Matrix: (Units=1/GPa)
#
#
# Indices 1 2 3 4 5 6 
#
# 1 0.013739 0.000053 -0.008431 0.000000 0.000000 0.000000
# 2 0.000053 0.012090 -0.007940 0.000000 0.000000 0.000000
# 3 -0.008431 -0.007940 0.023646 0.000000 0.000000 0.000000
# 4 0.000000 0.000000 0.000000 0.045144 0.000000 0.000000
# 5 0.000000 0.000000 0.000000 0.000000 0.034880 0.000000
# 6 0.000000 0.000000 0.000000 0.000000 0.000000 0.033721
#
#
# Mechanical properties :
#
#
# Convention : Reuss Voigt Hill
#
# Bulk Modulus (GPa) = 59.38719 60.07324 59.73022
# Shear Modulus (GPa) = 24.81761 27.16672 25.99216
#
# Velocity S-wave (km/s) = 3.51924 3.68203 3.60155
# Velocity P-wave (km/s) = 6.79338 6.93220 6.86314
#
# Compressibility (1/GPa) = 0.01683865
#
# Stress axis : x y z
#
# Youngs Moduli (GPa) = 72.78502 82.71035 42.29047
#
# Poissons Ratio (x) = -0.00440 0.35656
# Poissons Ratio (y) = -0.00387 0.33580
# Poissons Ratio (z) = 0.61367 0.65675
#
# Static dielectric constant tensor:
#      x y z
#    x 3.701480 0.000000 0.000000 
#    y 0.000000 3.693690 0.000000 
#    z 0.000000 0.000000 3.441860 
# 
# 
# High freq. dielectric constant tensor:
#      x y z
#    x 1.795390 0.000000 0.000000 
#    y 0.000000 1.791790 0.000000 
#    z 0.000000 0.000000 1.762790 
# 
# From -- ./inp_files/4646.got.cif
#   From: 2010.03.12/outbox.cif.g09.slc.cpg/sg55_3_cif.got.tgz:4646.got - 2010.04.16 15:19:21.
