data_PCOD8225731
_publ_section_title
;
Structure prediction by ZEFSAII (Michael W. Deem and Ramdas Pophale) SiO2 
 PCOD8225731
Probable space group: P B A M
;
_chemical_formula_sum "Si O2"
_cell_formula_units_Z 48
_cell_length_a 28.062922
_cell_length_b 9.758421
_cell_length_c 8.462806
_cell_angle_alpha 90.000000
_cell_angle_beta 90.000000
_cell_angle_gamma 90.000000
_cell_volume 2317.537793
_symmetry_space_group_name_H-M "P B A M"
_symmetry_group_IT_number 55
_symmetry_cell_setting 'orthorhombic'
loop_
_space_group_symop_operation_xyz
x,y,z
-x,-y,z
1/2+x,1/2-y,-z
1/2-x,1/2+y,-z
-x,-y,-z
x,y,-z
1/2-x,1/2+y,z
1/2+x,1/2-y,z
loop_
_atom_site_type_symbol
_atom_site_label
_atom_site_fract_x
_atom_site_fract_y
_atom_site_fract_z
Si Si1 0.612273 0.767589 0.821236
Si Si2 0.393504 0.734725 0.319362
Si Si3 0.208073 0.862957 0.814126
Si Si4 0.553338 0.504318 0.820900
Si Si5 0.712772 0.333076 0.685389
Si Si6 0.946572 0.514632 0.185124
O O1 0.660132 0.706929 0.740861
O O2 0.569691 0.659915 0.813923
O O3 0.590375 0.903743 0.738395
O O4 0.626846 0.803729 0.000000
O O5 0.398796 0.779584 0.500000
O O6 0.413644 0.583158 0.294211
O O7 0.338466 0.729401 0.268314
O O8 0.424557 0.836652 0.213408
O O9 0.250475 0.757523 0.783767
O O10 0.217539 0.007562 0.730142
O O11 0.202251 0.892091 0.000000
O O12 0.500000 0.500000 0.755817
O O13 0.556411 0.446521 0.000000
O O14 0.722918 0.318358 0.500000
O O15 0.000000 0.500000 0.258430
O O16 0.950380 0.484066 0.000000
#
# Coordination Sequence:
#
# PCOD8225731 Si02
#       6
#     8   8   8   8   8   8
#     4   9  19  36  59  91 121 150 198 253 302 354
#     4  11  24  40  59  88 126 165 201 244 302 367
#     4  11  23  41  66  94 121 158 210 263 308 363
#     4  10  19  36  64  91 118 155 199 250 302 354
#     4  11  25  44  63  90 128 166 203 251 316 380
#     4  10  21  39  63  90 123 163 206 254 304 356
#
# _framework density 20.711638000000001
#
# number of rings (size 3 to 8) (size 9 to 14) (size 15 to 20)
#    0.000    1.667    1.667    2.500    2.333    5.333 
#    0.000    1.667    0.000    0.000    0.000    0.000 
#    0.000    0.000    0.000    0.000    0.000    0.000 
#
# Total GULP energy -595209.422254 kJ/mol
# GULP energy per Si atom -12400.196297 kJ/mol
# Density = 2.066450 g / cm^3
# Si number density = 20.711638 Si / 1000 Ang^3
#
#
#
# Elastic Constant Matrix: (Units=GPa)
#
#
# Indices 1 2 3 4 5 6 
#
# 1 123.2489 26.6960 20.8019 0.0000 0.0000 0.0000
# 2 26.6960 91.5601 10.3963 0.0000 0.0000 0.0000
# 3 20.8019 10.3963 26.5124 0.0000 0.0000 0.0000
# 4 0.0000 0.0000 0.0000 5.1678 0.0000 0.0000
# 5 0.0000 0.0000 0.0000 0.0000 21.1534 0.0000
# 6 0.0000 0.0000 0.0000 0.0000 0.0000 43.6304
#
#
#
# Elastic Compliance Matrix: (Units=1/GPa)
#
#
# Indices 1 2 3 4 5 6 
#
# 1 0.009709 -0.002057 -0.006811 0.000000 0.000000 0.000000
# 2 -0.002057 0.011867 -0.003039 0.000000 0.000000 0.000000
# 3 -0.006811 -0.003039 0.044254 0.000000 0.000000 0.000000
# 4 0.000000 0.000000 0.000000 0.193507 0.000000 0.000000
# 5 0.000000 0.000000 0.000000 0.000000 0.047274 0.000000
# 6 0.000000 0.000000 0.000000 0.000000 0.000000 0.022920
#
#
# Mechanical properties :
#
#
# Convention : Reuss Voigt Hill
#
# Bulk Modulus (GPa) = 23.80123 39.67887 31.74005
# Shear Modulus (GPa) = 13.61101 26.21881 19.91491
#
# Velocity S-wave (km/s) = 2.56631 3.56180 3.10422
# Velocity P-wave (km/s) = 4.50532 6.00954 5.31096
#
# Compressibility (1/GPa) = 0.04201463
#
# Stress axis : x y z
#
# Youngs Moduli (GPa) = 102.99885 84.26910 22.59698
#
# Poissons Ratio (x) = 0.17338 0.15391
# Poissons Ratio (y) = 0.21191 0.06867
# Poissons Ratio (z) = 0.70151 0.25610
#
# Static dielectric constant tensor:
#      x y z
#    x 3.972710 0.000000 0.000000 
#    y 0.000000 3.680390 0.000000 
#    z 0.000000 0.000000 3.428500 
# 
# 
# High freq. dielectric constant tensor:
#      x y z
#    x 1.828130 0.000000 0.000000 
#    y 0.000000 1.819000 0.000000 
#    z 0.000000 0.000000 1.778990 
# 
# From -- ./inp_files/10522.got.cif
#   From: 2010.03.12/outbox.cif.g09.slc.cpg/sg55_6_cif.got.tgz:10522.got - 2010.04.16 15:19:21.
