data_PCOD8225901
_publ_section_title
;
Structure prediction by ZEFSAII (Michael W. Deem and Ramdas Pophale) SiO2 
 PCOD8225901
Probable space group: P B A M
;
_chemical_formula_sum "Si O2"
_cell_formula_units_Z 40
_cell_length_a 25.713148
_cell_length_b 9.133601
_cell_length_c 9.002153
_cell_angle_alpha 90.000000
_cell_angle_beta 90.000000
_cell_angle_gamma 90.000000
_cell_volume 2114.188348
_symmetry_space_group_name_H-M "P B A M"
_symmetry_group_IT_number 55
_symmetry_cell_setting 'orthorhombic'
loop_
_space_group_symop_operation_xyz
x,y,z
-x,-y,z
1/2+x,1/2-y,-z
1/2-x,1/2+y,-z
-x,-y,-z
x,y,-z
1/2-x,1/2+y,z
1/2+x,1/2-y,z
loop_
_atom_site_type_symbol
_atom_site_label
_atom_site_fract_x
_atom_site_fract_y
_atom_site_fract_z
Si Si1 0.108863 0.872365 0.828141
Si Si2 0.991556 0.172377 0.336190
Si Si3 0.895954 0.823040 0.326643
Si Si4 0.702176 0.132869 0.325061
Si Si5 0.790917 0.320585 0.174487
O O1 0.056871 0.790960 0.769444
O O2 0.156741 0.767534 0.793634
O O3 0.120533 0.027811 0.753709
O O4 0.101053 0.902287 0.000000
O O5 0.978894 0.235467 0.500000
O O6 0.046792 0.236055 0.275587
O O7 0.000000 0.000000 0.343712
O O8 0.898253 0.862536 0.500000
O O9 0.854887 0.696748 0.291875
O O10 0.714139 0.124714 0.500000
O O11 0.743237 0.236378 0.246146
O O12 0.704558 0.974814 0.253853
O O13 0.780724 0.342705 0.000000
#
# Coordination Sequence:
#
# PCOD8225901 Si02
#       5
#     8   8   8   8   8
#     4  10  20  33  53  81 110 143 181 218 261 319
#     4   8  15  30  52  77 107 141 176 218 266 312
#     4   9  19  35  55  81 110 139 176 224 271 313
#     4  11  23  39  60  83 106 139 186 229 267 322
#     4  11  24  40  56  79 113 146 177 221 279 329
#
# _framework density 18.919789000000002
#
# number of rings (size 3 to 8) (size 9 to 14) (size 15 to 20)
#    0.000    2.200    0.000    4.200    0.000   11.600 
#    0.000    1.000    0.000    6.000    0.000    0.000 
#    0.000    0.000    0.000    0.000    0.000    0.000 
#
# Total GULP energy -495939.810640 kJ/mol
# GULP energy per Si atom -12398.495266 kJ/mol
# Density = 1.887673 g / cm^3
# Si number density = 18.919789 Si / 1000 Ang^3
#
#
#
# Elastic Constant Matrix: (Units=GPa)
#
#
# Indices 1 2 3 4 5 6 
#
# 1 -135.0883 -196.3833 -146.6051 0.0000 0.0000 0.0000
# 2 -196.3833 -127.6098 -138.5575 0.0000 0.0000 0.0000
# 3 -146.6051 -138.5575 -74.9077 0.0000 0.0000 0.0000
# 4 0.0000 0.0000 0.0000 33.5494 0.0000 0.0000
# 5 0.0000 0.0000 0.0000 0.0000 32.1914 0.0000
# 6 0.0000 0.0000 0.0000 0.0000 0.0000 21.6657
#
#
#
# Elastic Compliance Matrix: (Units=1/GPa)
#
#
# Indices 1 2 3 4 5 6 
#
# 1 0.009228 -0.005364 -0.008139 0.000000 0.000000 0.000000
# 2 -0.005364 0.010889 -0.009643 0.000000 0.000000 0.000000
# 3 -0.008139 -0.009643 0.020418 0.000000 0.000000 0.000000
# 4 0.000000 0.000000 0.000000 0.029807 0.000000 0.000000
# 5 0.000000 0.000000 0.000000 0.000000 0.031064 0.000000
# 6 0.000000 0.000000 0.000000 0.000000 0.000000 0.046156
#
#
# Mechanical properties :
#
#
# Convention : Reuss Voigt Hill
#
# Bulk Modulus (GPa) = -173.65641 -144.52193 -159.08917
# Shear Modulus (GPa) = 26.05056 27.07733 26.56394
#
# Velocity S-wave (km/s) = 3.71468 3.78718 3.75110
# Velocity P-wave (km/s) = 8.57825 7.57818 8.09368
#
# Compressibility (1/GPa) = -0.00575850
#
# Stress axis : x y z
#
# Youngs Moduli (GPa) = 108.36663 91.83911 48.97688
#
# Poissons Ratio (x) = 0.49258 0.39864
# Poissons Ratio (y) = 0.58123 0.47231
# Poissons Ratio (z) = 0.88203 0.88565
#
# Static dielectric constant tensor:
#      x y z
#    x 4.271140 0.000000 0.000000 
#    y 0.000000 3.192300 0.000000 
#    z 0.000000 0.000000 3.597260 
# 
# 
# High freq. dielectric constant tensor:
#      x y z
#    x 1.759450 0.000000 0.000000 
#    y 0.000000 1.709910 0.000000 
#    z 0.000000 0.000000 1.740870 
# 
# From -- ./inp_files/2297.got.cif
#   From: 2010.03.12/outbox.cif.g09.slc.cpg/sg55_2_cif.got.tgz:2297.got - 2010.04.16 15:19:21.
