data_PCOD8225593
_publ_section_title
;
Structure prediction by ZEFSAII (Michael W. Deem and Ramdas Pophale) SiO2 
 PCOD8225593
Probable space group: P B A M
;
_chemical_formula_sum "Si O2"
_cell_formula_units_Z 56
_cell_length_a 21.595038
_cell_length_b 14.939825
_cell_length_c 8.724133
_cell_angle_alpha 90.000000
_cell_angle_beta 90.000000
_cell_angle_gamma 90.000000
_cell_volume 2814.632906
_symmetry_space_group_name_H-M "P B A M"
_symmetry_group_IT_number 55
_symmetry_cell_setting 'orthorhombic'
loop_
_space_group_symop_operation_xyz
x,y,z
-x,-y,z
1/2+x,1/2-y,-z
1/2-x,1/2+y,-z
-x,-y,-z
x,y,-z
1/2-x,1/2+y,z
1/2+x,1/2-y,z
loop_
_atom_site_type_symbol
_atom_site_label
_atom_site_fract_x
_atom_site_fract_y
_atom_site_fract_z
Si Si1 0.570561 0.986076 0.682154
Si Si2 0.406380 0.534907 0.317522
Si Si3 0.394890 0.209881 0.682579
Si Si4 0.726950 0.422418 0.677128
Si Si5 0.478577 0.364055 0.317979
Si Si6 0.236849 0.776269 0.676100
Si Si7 0.186581 0.437545 0.180015
O O1 0.572915 0.992282 0.500000
O O2 0.594613 0.890002 0.744849
O O3 0.500000 0.000000 0.739858
O O4 0.616992 0.061851 0.748954
O O5 0.402421 0.536736 0.500000
O O6 0.337982 0.545755 0.250382
O O7 0.433342 0.441713 0.255620
O O8 0.451376 0.616232 0.261624
O O9 0.390511 0.205304 0.500000
O O10 0.453601 0.268552 0.740021
O O11 0.332091 0.257282 0.743227
O O12 0.735758 0.450210 0.500000
O O13 0.726284 0.315899 0.694158
O O14 0.781180 0.469539 0.771339
O O15 0.476413 0.367798 0.500000
O O16 0.232754 0.807568 0.500000
O O17 0.272793 0.853260 0.766239
O O18 0.180069 0.432571 0.000000
#
# Coordination Sequence:
#
# PCOD8225593 Si02
#       7
#     8   8   8   8   8   8   8
#     4  10  21  39  63  88 115 150 199 256 305 353
#     4   8  14  24  43  75 110 140 170 222 285 341
#     4   9  16  30  53  83 113 145 187 240 296 349
#     4  10  19  35  59  83 109 143 191 247 298 344
#     4   8  13  22  40  72 112 142 170 214 280 348
#     4  10  20  35  59  85 112 147 196 251 296 348
#     4  12  25  39  57  83 121 160 197 243 299 371
#
# _framework density 19.896021999999999
#
# number of rings (size 3 to 8) (size 9 to 14) (size 15 to 20)
#    0.000    2.429    1.429    3.000    0.000    4.286 
#    0.000    4.286    0.000    0.000    0.000    8.000 
#    0.000    0.000    0.000    0.000    0.000    0.000 
#
# Total GULP energy -694035.770028 kJ/mol
# GULP energy per Si atom -12393.495893 kJ/mol
# Density = 1.985074 g / cm^3
# Si number density = 19.896022 Si / 1000 Ang^3
#
#
#
# Elastic Constant Matrix: (Units=GPa)
#
#
# Indices 1 2 3 4 5 6 
#
# 1 150.7868 46.6365 31.9742 0.0000 0.0000 0.0000
# 2 46.6365 91.4662 24.2633 0.0000 0.0000 0.0000
# 3 31.9742 24.2633 44.0233 0.0000 0.0000 0.0000
# 4 0.0000 0.0000 0.0000 9.4034 0.0000 0.0000
# 5 0.0000 0.0000 0.0000 0.0000 8.7936 0.0000
# 6 0.0000 0.0000 0.0000 0.0000 0.0000 35.5308
#
#
#
# Elastic Compliance Matrix: (Units=1/GPa)
#
#
# Indices 1 2 3 4 5 6 
#
# 1 0.008563 -0.003181 -0.004466 0.000000 0.000000 0.000000
# 2 -0.003181 0.013987 -0.005398 0.000000 0.000000 0.000000
# 3 -0.004466 -0.005398 0.028934 0.000000 0.000000 0.000000
# 4 0.000000 0.000000 0.000000 0.106345 0.000000 0.000000
# 5 0.000000 0.000000 0.000000 0.000000 0.113719 0.000000
# 6 0.000000 0.000000 0.000000 0.000000 0.000000 0.028145
#
#
# Mechanical properties :
#
#
# Convention : Reuss Voigt Hill
#
# Bulk Modulus (GPa) = 39.38091 54.66936 47.02513
# Shear Modulus (GPa) = 14.95897 22.97237 18.96567
#
# Velocity S-wave (km/s) = 2.74498 3.40166 3.09081
# Velocity P-wave (km/s) = 5.46652 6.55481 6.03525
#
# Compressibility (1/GPa) = 0.02539302
#
# Stress axis : x y z
#
# Youngs Moduli (GPa) = 116.78438 71.49438 34.56134
#
# Poissons Ratio (x) = 0.22745 0.15434
# Poissons Ratio (y) = 0.37153 0.18657
# Poissons Ratio (z) = 0.52153 0.38595
#
# Static dielectric constant tensor:
#      x y z
#    x 4.046230 0.000000 0.000000 
#    y 0.000000 3.722090 0.000000 
#    z 0.000000 0.000000 2.976740 
# 
# 
# High freq. dielectric constant tensor:
#      x y z
#    x 1.793260 0.000000 0.000000 
#    y 0.000000 1.777820 0.000000 
#    z 0.000000 0.000000 1.706430 
# 
# From -- ./inp_files/8707.got.cif
#   From: 2010.03.12/outbox.cif.g09.slc.cpg/sg55_5_cif.got.tgz:8707.got - 2010.04.16 15:19:21.
