data_PCOD8225966
_publ_section_title
;
Structure prediction by ZEFSAII (Michael W. Deem and Ramdas Pophale) SiO2 
 PCOD8225966
Probable space group: P B A M
;
_chemical_formula_sum "Si O2"
_cell_formula_units_Z 64
_cell_length_a 17.265710
_cell_length_b 22.203397
_cell_length_c 8.814335
_cell_angle_alpha 90.000000
_cell_angle_beta 90.000000
_cell_angle_gamma 90.000000
_cell_volume 3379.040668
_symmetry_space_group_name_H-M "P B A M"
_symmetry_group_IT_number 55
_symmetry_cell_setting 'orthorhombic'
loop_
_space_group_symop_operation_xyz
x,y,z
-x,-y,z
1/2+x,1/2-y,-z
1/2-x,1/2+y,-z
-x,-y,-z
x,y,-z
1/2-x,1/2+y,z
1/2+x,1/2-y,z
loop_
_atom_site_type_symbol
_atom_site_label
_atom_site_fract_x
_atom_site_fract_y
_atom_site_fract_z
Si Si1 0.912654 0.568516 0.678739
Si Si2 0.362961 0.476766 0.173605
Si Si3 0.160722 0.788794 0.678609
Si Si4 0.126644 0.104509 0.321198
Si Si5 0.211424 0.658083 0.319313
Si Si6 0.766615 0.615973 0.174137
Si Si7 0.914662 0.432936 0.678767
Si Si8 0.468081 0.364939 0.821313
O O1 0.894907 0.573605 0.500000
O O2 0.854771 0.609931 0.773455
O O3 0.902612 0.500412 0.739492
O O4 0.999257 0.591035 0.717577
O O5 0.369136 0.534215 0.280595
O O6 0.278521 0.447153 0.195173
O O7 0.428029 0.428347 0.223138
O O8 0.376697 0.497041 0.000000
O O9 0.147951 0.787767 0.500000
O O10 0.186983 0.723641 0.740672
O O11 0.229145 0.833945 0.720122
O O12 0.080091 0.809023 0.754136
O O13 0.117227 0.110314 0.500000
O O14 0.203282 0.139106 0.262243
O O15 0.054371 0.137049 0.243108
O O16 0.209313 0.656345 0.500000
O O17 0.149409 0.611024 0.249399
O O18 0.761833 0.637167 0.000000
O O19 0.905119 0.435512 0.500000
O O20 0.469473 0.356965 0.000000
#
# Coordination Sequence:
#
# PCOD8225966 Si02
#       8
#     8   8   8   8   8   8   8   8
#     4   9  16  29  54  83 107 136 177 216 261 323
#     4   9  19  34  52  76 109 147 175 208 267 321
#     4  10  20  37  58  75  98 138 186 227 263 307
#     4  11  21  33  55  86 111 135 175 222 265 319
#     4   9  19  35  53  77 108 138 174 226 274 308
#     4  10  20  34  52  76 110 144 175 218 268 317
#     4   8  15  30  52  79 109 138 170 218 272 315
#     4  10  21  38  56  77 111 147 176 215 266 319
#
# _framework density 18.940287000000001
#
# number of rings (size 3 to 8) (size 9 to 14) (size 15 to 20)
#    0.000    2.500    0.000    4.125    0.000    5.500 
#    2.250    3.750    0.000    3.750    0.000    0.000 
#    0.000    0.000    0.000    0.000    0.000    0.000 
#
# Total GULP energy -793590.353305 kJ/mol
# GULP energy per Si atom -12399.849270 kJ/mol
# Density = 1.889718 g / cm^3
# Si number density = 18.940287 Si / 1000 Ang^3
#
#
#
# Elastic Constant Matrix: (Units=GPa)
#
#
# Indices 1 2 3 4 5 6 
#
# 1 160.2666 65.8908 36.5311 0.0000 0.0000 0.0000
# 2 65.8908 100.8581 29.6824 0.0000 0.0000 0.0000
# 3 36.5311 29.6824 53.9560 0.0000 0.0000 0.0000
# 4 0.0000 0.0000 0.0000 12.6986 0.0000 0.0000
# 5 0.0000 0.0000 0.0000 0.0000 23.4750 0.0000
# 6 0.0000 0.0000 0.0000 0.0000 0.0000 16.5111
#
#
#
# Elastic Compliance Matrix: (Units=1/GPa)
#
#
# Indices 1 2 3 4 5 6 
#
# 1 0.009031 -0.004893 -0.003423 0.000000 0.000000 0.000000
# 2 -0.004893 0.014481 -0.004654 0.000000 0.000000 0.000000
# 3 -0.003423 -0.004654 0.023411 0.000000 0.000000 0.000000
# 4 0.000000 0.000000 0.000000 0.078749 0.000000 0.000000
# 5 0.000000 0.000000 0.000000 0.000000 0.042598 0.000000
# 6 0.000000 0.000000 0.000000 0.000000 0.000000 0.060565
#
#
# Mechanical properties :
#
#
# Convention : Reuss Voigt Hill
#
# Bulk Modulus (GPa) = 47.65395 64.36548 56.00972
# Shear Modulus (GPa) = 19.10074 22.73538 20.91806
#
# Velocity S-wave (km/s) = 3.17909 3.46840 3.32689
# Velocity P-wave (km/s) = 6.22014 7.07791 6.66285
#
# Compressibility (1/GPa) = 0.02098462
#
# Stress axis : x y z
#
# Youngs Moduli (GPa) = 110.72372 69.05603 42.71445
#
# Poissons Ratio (x) = 0.33788 0.14622
# Poissons Ratio (y) = 0.54176 0.19878
# Poissons Ratio (z) = 0.37902 0.32136
#
# Static dielectric constant tensor:
#      x y z
#    x 3.724670 0.000000 0.000000 
#    y 0.000000 3.469270 0.000000 
#    z 0.000000 0.000000 3.188220 
# 
# 
# High freq. dielectric constant tensor:
#      x y z
#    x 1.749170 0.000000 0.000000 
#    y 0.000000 1.721330 0.000000 
#    z 0.000000 0.000000 1.714490 
# 
# From -- ./inp_files/8079.got.cif
#   From: 2010.03.12/outbox.cif.g09.slc.cpg/sg55_5_cif.got.tgz:8079.got - 2010.04.16 15:19:21.
