data_PCOD8225983
_publ_section_title
;
Structure prediction by ZEFSAII (Michael W. Deem and Ramdas Pophale) SiO2 
 PCOD8225983
Probable space group: P B A M
;
_chemical_formula_sum "Si O2"
_cell_formula_units_Z 64
_cell_length_a 18.661834
_cell_length_b 20.141424
_cell_length_c 9.266319
_cell_angle_alpha 90.000000
_cell_angle_beta 90.000000
_cell_angle_gamma 90.000000
_cell_volume 3482.986098
_symmetry_space_group_name_H-M "P B A M"
_symmetry_group_IT_number 55
_symmetry_cell_setting 'orthorhombic'
loop_
_space_group_symop_operation_xyz
x,y,z
-x,-y,z
1/2+x,1/2-y,-z
1/2-x,1/2+y,-z
-x,-y,-z
x,y,-z
1/2-x,1/2+y,z
1/2+x,1/2-y,z
loop_
_atom_site_type_symbol
_atom_site_label
_atom_site_fract_x
_atom_site_fract_y
_atom_site_fract_z
Si Si1 0.957386 0.933438 0.330233
Si Si2 0.948816 0.170570 0.830491
Si Si3 0.800710 0.559860 0.330942
Si Si4 0.305507 0.174895 0.332054
Si Si5 0.805654 0.174132 0.332998
Si Si6 0.052847 0.676974 0.833276
Si Si7 0.796048 0.940026 0.329289
Si Si8 0.449336 0.939514 0.831457
O O1 0.959992 0.917158 0.500000
O O2 0.876872 0.942741 0.270568
O O3 0.989773 0.871986 0.244040
O O4 0.000000 0.000000 0.293319
O O5 0.872310 0.150792 0.763321
O O6 0.967211 0.247260 0.796234
O O7 0.946628 0.155944 0.000000
O O8 0.814610 0.550776 0.500000
O O9 0.763244 0.629977 0.296013
O O10 0.749234 0.502075 0.269412
O O11 0.875848 0.555836 0.252883
O O12 0.319922 0.164201 0.500000
O O13 0.284064 0.250437 0.296134
O O14 0.377885 0.153097 0.253547
O O15 0.240866 0.128403 0.277818
O O16 0.828432 0.165537 0.500000
O O17 0.986651 0.630172 0.790391
O O18 0.072639 0.668554 0.000000
O O19 0.799197 0.945001 0.500000
O O20 0.500000 0.000000 0.783117
O O21 0.432050 0.943870 0.000000
#
# Coordination Sequence:
#
# PCOD8225983 Si02
#       8
#     8   8   8   8   8   8   8   8
#     4  10  20  35  55  76 102 137 171 205 252 306
#     4  10  20  34  53  77 104 134 169 209 250 296
#     4  10  20  34  53  76 101 129 166 211 254 299
#     4   9  17  31  52  75  98 127 167 210 248 295
#     4   9  18  33  52  74 100 131 166 205 252 303
#     4   9  19  35  52  73 104 137 167 204 253 304
#     4   9  18  32  50  73 100 129 163 207 255 298
#     4  10  21  36  53  74 103 138 173 210 254 304
#
# _framework density 18.375036999999999
#
# number of rings (size 3 to 8) (size 9 to 14) (size 15 to 20)
#    0.000    2.500    0.000    1.875    0.000    5.000 
#    0.000    2.500    0.000    0.000    0.000    0.000 
#    0.000    0.000    0.000    0.000    0.000    0.000 
#
# Total GULP energy -793734.197924 kJ/mol
# GULP energy per Si atom -12402.096843 kJ/mol
# Density = 1.833321 g / cm^3
# Si number density = 18.375037 Si / 1000 Ang^3
#
#
#
# Elastic Constant Matrix: (Units=GPa)
#
#
# Indices 1 2 3 4 5 6 
#
# 1 181.0605 92.1096 59.2511 0.0000 0.0000 0.0000
# 2 92.1096 115.7341 43.7073 0.0000 0.0000 0.0000
# 3 59.2511 43.7073 50.6068 0.0000 0.0000 0.0000
# 4 0.0000 0.0000 0.0000 18.3355 0.0000 0.0000
# 5 0.0000 0.0000 0.0000 0.0000 10.5265 0.0000
# 6 0.0000 0.0000 0.0000 0.0000 0.0000 36.3263
#
#
#
# Elastic Compliance Matrix: (Units=1/GPa)
#
#
# Indices 1 2 3 4 5 6 
#
# 1 0.011086 -0.005820 -0.007954 0.000000 0.000000 0.000000
# 2 -0.005820 0.015878 -0.006899 0.000000 0.000000 0.000000
# 3 -0.007954 -0.006899 0.035032 0.000000 0.000000 0.000000
# 4 0.000000 0.000000 0.000000 0.054539 0.000000 0.000000
# 5 0.000000 0.000000 0.000000 0.000000 0.094998 0.000000
# 6 0.000000 0.000000 0.000000 0.000000 0.000000 0.027528
#
#
# Mechanical properties :
#
#
# Convention : Reuss Voigt Hill
#
# Bulk Modulus (GPa) = 48.42650 81.94859 65.18755
# Shear Modulus (GPa) = 17.40395 23.19321 20.29858
#
# Velocity S-wave (km/s) = 3.08092 3.55662 3.32728
# Velocity P-wave (km/s) = 6.25043 7.84606 7.09325
#
# Compressibility (1/GPa) = 0.02064985
#
# Stress axis : x y z
#
# Youngs Moduli (GPa) = 90.20004 62.98143 28.54557
#
# Poissons Ratio (x) = 0.36652 0.22705
# Poissons Ratio (y) = 0.52492 0.19695
# Poissons Ratio (z) = 0.71746 0.43454
#
# Static dielectric constant tensor:
#      x y z
#    x 3.404490 0.000000 0.000000 
#    y 0.000000 3.621200 0.000000 
#    z 0.000000 0.000000 3.211290 
# 
# 
# High freq. dielectric constant tensor:
#      x y z
#    x 1.712470 0.000000 0.000000 
#    y 0.000000 1.727040 0.000000 
#    z 0.000000 0.000000 1.693200 
# 
# From -- ./inp_files/8036.got.cif
#   From: 2010.03.12/outbox.cif.g09.slc.cpg/sg55_5_cif.got.tgz:8036.got - 2010.04.16 15:19:21.
