data_PCOD8225552
_publ_section_title
;
Structure prediction by ZEFSAII (Michael W. Deem and Ramdas Pophale) SiO2 
 PCOD8225552
Probable space group: P B A M
;
_chemical_formula_sum "Si O2"
_cell_formula_units_Z 64
_cell_length_a 24.724218
_cell_length_b 15.111962
_cell_length_c 8.784053
_cell_angle_alpha 90.000000
_cell_angle_beta 90.000000
_cell_angle_gamma 90.000000
_cell_volume 3281.998397
_symmetry_space_group_name_H-M "P B A M"
_symmetry_group_IT_number 55
_symmetry_cell_setting 'orthorhombic'
loop_
_space_group_symop_operation_xyz
x,y,z
-x,-y,z
1/2+x,1/2-y,-z
1/2-x,1/2+y,-z
-x,-y,-z
x,y,-z
1/2-x,1/2+y,z
1/2+x,1/2-y,z
loop_
_atom_site_type_symbol
_atom_site_label
_atom_site_fract_x
_atom_site_fract_y
_atom_site_fract_z
Si Si1 0.059917 0.674485 0.675222
Si Si2 0.660669 0.512512 0.320424
Si Si3 0.356565 0.302717 0.819954
Si Si4 0.726234 0.030721 0.825790
Si Si5 0.739669 0.233208 0.825915
Si Si6 0.565071 0.188163 0.321411
Si Si7 0.617698 0.005005 0.323481
Si Si8 0.362319 0.665160 0.818802
O O1 0.071111 0.699057 0.500000
O O2 0.094146 0.739632 0.780656
O O3 0.075442 0.573179 0.708225
O O4 0.997911 0.686222 0.719242
O O5 0.655729 0.515248 0.500000
O O6 0.634360 0.601311 0.253318
O O7 0.722849 0.499580 0.272069
O O8 0.626463 0.430147 0.255166
O O9 0.300065 0.261073 0.754097
O O10 0.351492 0.316751 0.000000
O O11 0.672337 0.982347 0.768018
O O12 0.716536 0.134827 0.806248
O O13 0.737477 0.003973 0.000000
O O14 0.695423 0.298648 0.751929
O O15 0.744807 0.260515 0.000000
O O16 0.574775 0.202046 0.500000
O O17 0.590147 0.269180 0.229474
O O18 0.590991 0.095938 0.265603
O O19 0.632810 0.012165 0.500000
O O20 0.361712 0.658047 0.000000
#
# Coordination Sequence:
#
# PCOD8225552 Si02
#       8
#     8   8   8   8   8   8   8   8
#     4  10  22  39  59  85 119 160 201 245 295 347
#     4  11  23  39  59  87 120 155 194 241 297 359
#     4  10  21  40  61  86 117 154 198 246 298 349
#     4  10  19  35  56  84 120 156 191 236 290 344
#     4   8  17  33  54  80 113 150 185 231 289 343
#     4  10  21  39  60  85 121 160 200 245 292 346
#     4  10  20  35  57  87 120 159 200 238 287 350
#     4  11  21  37  60  88 119 155 198 244 295 350
#
# _framework density 19.500313999999999
#
# number of rings (size 3 to 8) (size 9 to 14) (size 15 to 20)
#    0.000    2.000    1.250    3.375    1.750    2.500 
#    0.000    1.875    0.000    6.000    0.000    0.000 
#    0.000    0.000    0.000    0.000    0.000    0.000 
#
# Total GULP energy -793668.992313 kJ/mol
# GULP energy per Si atom -12401.078005 kJ/mol
# Density = 1.945593 g / cm^3
# Si number density = 19.500314 Si / 1000 Ang^3
#
#
#
# Elastic Constant Matrix: (Units=GPa)
#
#
# Indices 1 2 3 4 5 6 
#
# 1 95.6578 50.5599 37.0328 0.0000 0.0000 0.0000
# 2 50.5599 88.5372 35.5043 0.0000 0.0000 0.0000
# 3 37.0328 35.5043 81.3908 0.0000 0.0000 0.0000
# 4 0.0000 0.0000 0.0000 28.7807 0.0000 0.0000
# 5 0.0000 0.0000 0.0000 0.0000 29.0740 0.0000
# 6 0.0000 0.0000 0.0000 0.0000 0.0000 27.1548
#
#
#
# Elastic Compliance Matrix: (Units=1/GPa)
#
#
# Indices 1 2 3 4 5 6 
#
# 1 0.015974 -0.007523 -0.003986 0.000000 0.000000 0.000000
# 2 -0.007523 0.017233 -0.004094 0.000000 0.000000 0.000000
# 3 -0.003986 -0.004094 0.015886 0.000000 0.000000 0.000000
# 4 0.000000 0.000000 0.000000 0.034745 0.000000 0.000000
# 5 0.000000 0.000000 0.000000 0.000000 0.034395 0.000000
# 6 0.000000 0.000000 0.000000 0.000000 0.000000 0.036826
#
#
# Mechanical properties :
#
#
# Convention : Reuss Voigt Hill
#
# Bulk Modulus (GPa) = 55.91249 56.86442 56.38845
# Shear Modulus (GPa) = 26.01082 26.50117 26.25600
#
# Velocity S-wave (km/s) = 3.65618 3.69048 3.67337
# Velocity P-wave (km/s) = 6.82337 6.88357 6.85354
#
# Compressibility (1/GPa) = 0.01788509
#
# Stress axis : x y z
#
# Youngs Moduli (GPa) = 62.60335 58.02899 62.94833
#
# Poissons Ratio (x) = 0.43657 0.25092
# Poissons Ratio (y) = 0.47099 0.25772
# Poissons Ratio (z) = 0.24955 0.23758
#
# Static dielectric constant tensor:
#      x y z
#    x 3.498190 0.000000 0.000000 
#    y 0.000000 3.588390 0.000000 
#    z 0.000000 0.000000 3.398860 
# 
# 
# High freq. dielectric constant tensor:
#      x y z
#    x 1.752290 0.000000 0.000000 
#    y 0.000000 1.764550 0.000000 
#    z 0.000000 0.000000 1.747170 
# 
# From -- ./inp_files/9738.got.cif
#   From: 2010.03.12/outbox.cif.g09.slc.cpg/sg55_5_cif.got.tgz:9738.got - 2010.04.16 15:19:21.
