data_PCOD8225119
_publ_section_title
;
Structure prediction by ZEFSAII (Michael W. Deem and Ramdas Pophale) SiO2 
 PCOD8225119
Probable space group: P B A M
;
_chemical_formula_sum "Si O2"
_cell_formula_units_Z 56
_cell_length_a 14.373344
_cell_length_b 22.697477
_cell_length_c 8.713561
_cell_angle_alpha 90.000000
_cell_angle_beta 90.000000
_cell_angle_gamma 90.000000
_cell_volume 2842.700332
_symmetry_space_group_name_H-M "P B A M"
_symmetry_group_IT_number 55
_symmetry_cell_setting 'orthorhombic'
loop_
_space_group_symop_operation_xyz
x,y,z
-x,-y,z
1/2+x,1/2-y,-z
1/2-x,1/2+y,-z
-x,-y,-z
x,y,-z
1/2-x,1/2+y,z
1/2+x,1/2-y,z
loop_
_atom_site_type_symbol
_atom_site_label
_atom_site_fract_x
_atom_site_fract_y
_atom_site_fract_z
Si Si1 0.102103 0.349892 0.677887
Si Si2 0.407412 0.715368 0.320348
Si Si3 0.212902 0.116673 0.180723
Si Si4 0.599969 0.720951 0.819339
Si Si5 0.781636 0.110187 0.819511
Si Si6 0.605190 0.499367 0.817389
Si Si7 0.392494 0.152787 0.319586
O O1 0.117581 0.361312 0.500000
O O2 0.121201 0.281959 0.720672
O O3 0.174389 0.391379 0.767025
O O4 0.996903 0.366927 0.726160
O O5 0.430115 0.709318 0.500000
O O6 0.323769 0.673616 0.270542
O O7 0.497689 0.697108 0.222543
O O8 0.321240 0.110653 0.228050
O O9 0.156926 0.059654 0.237930
O O10 0.202823 0.126131 0.000000
O O11 0.671734 0.670937 0.764941
O O12 0.624135 0.779448 0.725905
O O13 0.606675 0.733720 0.000000
O O14 0.838325 0.054999 0.748970
O O15 0.785281 0.104562 0.000000
O O16 0.500000 0.500000 0.751929
O O17 0.602884 0.502102 0.000000
O O18 0.375875 0.146588 0.500000
#
# Coordination Sequence:
#
# PCOD8225119 Si02
#       7
#     8   8   8   8   8   8   8
#     4   9  20  36  53  75 105 142 176 212 263 322
#     4  10  20  34  53  79 113 148 178 215 271 327
#     4  11  21  34  56  81 105 140 185 227 267 317
#     4  10  19  32  54  84 112 140 180 223 266 321
#     4  10  20  34  55  80 105 138 177 221 271 317
#     4   9  19  37  57  78 107 139 172 217 272 321
#     4  10  21  37  54  76 111 147 177 217 274 328
#
# _framework density 19.699580000000001
#
# number of rings (size 3 to 8) (size 9 to 14) (size 15 to 20)
#    0.000    2.143    0.000    4.286    0.000    9.143 
#    0.000    2.143    0.000    7.286    0.000    0.000 
#    0.000    0.000    0.000    0.000    0.000    0.000 
#
# Total GULP energy -694504.368201 kJ/mol
# GULP energy per Si atom -12401.863718 kJ/mol
# Density = 1.965474 g / cm^3
# Si number density = 19.699580 Si / 1000 Ang^3
#
#
#
# Elastic Constant Matrix: (Units=GPa)
#
#
# Indices 1 2 3 4 5 6 
#
# 1 151.2721 71.9475 16.6572 0.0000 0.0000 0.0000
# 2 71.9475 77.9177 21.7699 0.0000 0.0000 0.0000
# 3 16.6572 21.7699 25.4245 0.0000 0.0000 0.0000
# 4 0.0000 0.0000 0.0000 11.0381 0.0000 0.0000
# 5 0.0000 0.0000 0.0000 0.0000 33.8401 0.0000
# 6 0.0000 0.0000 0.0000 0.0000 0.0000 34.7848
#
#
#
# Elastic Compliance Matrix: (Units=1/GPa)
#
#
# Indices 1 2 3 4 5 6 
#
# 1 0.011873 -0.011554 0.002114 0.000000 0.000000 0.000000
# 2 -0.011554 0.028114 -0.016503 0.000000 0.000000 0.000000
# 3 0.002114 -0.016503 0.052077 0.000000 0.000000 0.000000
# 4 0.000000 0.000000 0.000000 0.090595 0.000000 0.000000
# 5 0.000000 0.000000 0.000000 0.000000 0.029551 0.000000
# 6 0.000000 0.000000 0.000000 0.000000 0.000000 0.028748
#
#
# Mechanical properties :
#
#
# Convention : Reuss Voigt Hill
#
# Bulk Modulus (GPa) = 24.88835 52.81820 38.85327
# Shear Modulus (GPa) = 16.32727 25.54857 20.93792
#
# Velocity S-wave (km/s) = 2.88203 3.60517 3.26369
# Velocity P-wave (km/s) = 4.87198 6.64829 5.82820
#
# Compressibility (1/GPa) = 0.04017944
#
# Stress axis : x y z
#
# Youngs Moduli (GPa) = 84.22385 35.56984 19.20220
#
# Poissons Ratio (x) = 0.41098 -0.04060
# Poissons Ratio (y) = 0.97314 0.31689
# Poissons Ratio (z) = -0.17809 0.58700
#
# Static dielectric constant tensor:
#      x y z
#    x 3.837180 0.000000 0.000000 
#    y 0.000000 3.476780 0.000000 
#    z 0.000000 0.000000 3.335250 
# 
# 
# High freq. dielectric constant tensor:
#      x y z
#    x 1.784300 0.000000 0.000000 
#    y 0.000000 1.746430 0.000000 
#    z 0.000000 0.000000 1.752850 
# 
# From -- ./inp_files/6091.got.cif
#   From: 2010.03.12/outbox.cif.g09.slc.cpg/sg55_4_cif.got.tgz:6091.got - 2010.04.16 15:19:21.
