data_PCOD8225987
_publ_section_title
;
Structure prediction by ZEFSAII (Michael W. Deem and Ramdas Pophale) SiO2 
 PCOD8225987
Probable space group: P B A M
;
_chemical_formula_sum "Si O2"
_cell_formula_units_Z 56
_cell_length_a 17.395814
_cell_length_b 19.013572
_cell_length_c 9.687913
_cell_angle_alpha 90.000000
_cell_angle_beta 90.000000
_cell_angle_gamma 90.000000
_cell_volume 3204.340797
_symmetry_space_group_name_H-M "P B A M"
_symmetry_group_IT_number 55
_symmetry_cell_setting 'orthorhombic'
loop_
_space_group_symop_operation_xyz
x,y,z
-x,-y,z
1/2+x,1/2-y,-z
1/2-x,1/2+y,-z
-x,-y,-z
x,y,-z
1/2-x,1/2+y,z
1/2+x,1/2-y,z
loop_
_atom_site_type_symbol
_atom_site_label
_atom_site_fract_x
_atom_site_fract_y
_atom_site_fract_z
Si Si1 0.536518 0.429050 0.836677
Si Si2 0.724461 0.621395 0.157219
Si Si3 0.635416 0.108804 0.659679
Si Si4 0.153067 0.552100 0.341182
Si Si5 0.028929 0.668453 0.339659
Si Si6 0.932271 0.197563 0.161727
Si Si7 0.706066 0.458979 0.158999
O O1 0.500000 0.500000 0.771568
O O2 0.491885 0.360745 0.781081
O O3 0.626073 0.422887 0.796165
O O4 0.526022 0.433132 0.000000
O O5 0.795665 0.643142 0.253274
O O6 0.654003 0.672252 0.191199
O O7 0.697252 0.541995 0.185854
O O8 0.751662 0.630129 0.000000
O O9 0.655320 0.119441 0.500000
O O10 0.557469 0.147897 0.700737
O O11 0.626189 0.026581 0.695837
O O12 0.177818 0.558334 0.500000
O O13 0.082376 0.602167 0.305348
O O14 0.226489 0.574461 0.250471
O O15 0.035223 0.689462 0.500000
O O16 0.055356 0.732151 0.246096
O O17 0.945464 0.212119 0.000000
O O18 0.725325 0.443152 0.000000
#
# Coordination Sequence:
#
# PCOD8225987 Si02
#       7
#     8   8   8   8   8   8   8
#     4   9  15  29  54  77  99 132 171 208 247 297
#     4   9  17  31  52  78 103 129 164 209 256 301
#     4   9  18  34  57  78  97 130 176 216 253 302
#     4   9  18  34  55  76 100 132 171 215 258 302
#     4  10  21  37  53  73 103 139 174 210 257 309
#     4  10  20  34  53  76 104 138 173 208 251 307
#     4   9  16  29  53  81 103 125 164 211 254 299
#
# _framework density 17.476292000000001
#
# number of rings (size 3 to 8) (size 9 to 14) (size 15 to 20)
#    0.000    2.714    1.429    0.429    0.000    3.429 
#    2.571    0.714    0.000    5.143    0.000    0.000 
#    0.000    0.000    0.000    0.000    0.000    0.000 
#
# Total GULP energy -694444.129005 kJ/mol
# GULP energy per Si atom -12400.788018 kJ/mol
# Density = 1.743652 g / cm^3
# Si number density = 17.476292 Si / 1000 Ang^3
#
#
#
# Elastic Constant Matrix: (Units=GPa)
#
#
# Indices 1 2 3 4 5 6 
#
# 1 139.1144 58.5479 69.5917 0.0000 0.0000 0.0000
# 2 58.5479 77.0399 46.1033 0.0000 0.0000 0.0000
# 3 69.5917 46.1033 64.9925 0.0000 0.0000 0.0000
# 4 0.0000 0.0000 0.0000 26.7062 0.0000 0.0000
# 5 0.0000 0.0000 0.0000 0.0000 28.0651 0.0000
# 6 0.0000 0.0000 0.0000 0.0000 0.0000 21.7311
#
#
#
# Elastic Compliance Matrix: (Units=1/GPa)
#
#
# Indices 1 2 3 4 5 6 
#
# 1 0.015950 -0.003303 -0.014735 0.000000 0.000000 0.000000
# 2 -0.003303 0.023239 -0.012948 0.000000 0.000000 0.000000
# 3 -0.014735 -0.012948 0.040349 0.000000 0.000000 0.000000
# 4 0.000000 0.000000 0.000000 0.037444 0.000000 0.000000
# 5 0.000000 0.000000 0.000000 0.000000 0.035632 0.000000
# 6 0.000000 0.000000 0.000000 0.000000 0.000000 0.046017
#
#
# Mechanical properties :
#
#
# Convention : Reuss Voigt Hill
#
# Bulk Modulus (GPa) = 56.93092 69.95919 63.44506
# Shear Modulus (GPa) = 18.76457 22.42740 20.59598
#
# Velocity S-wave (km/s) = 3.28031 3.58621 3.43667
# Velocity P-wave (km/s) = 6.85522 7.56741 7.22010
#
# Compressibility (1/GPa) = 0.01756515
#
# Stress axis : x y z
#
# Youngs Moduli (GPa) = 62.69642 43.03079 24.78357
#
# Poissons Ratio (x) = 0.14214 0.36519
# Poissons Ratio (y) = 0.20710 0.32090
# Poissons Ratio (z) = 0.92385 0.55716
#
# Static dielectric constant tensor:
#      x y z
#    x 3.401920 0.000000 0.000000 
#    y 0.000000 3.109740 0.000000 
#    z 0.000000 0.000000 3.115330 
# 
# 
# High freq. dielectric constant tensor:
#      x y z
#    x 1.687280 0.000000 0.000000 
#    y 0.000000 1.660480 0.000000 
#    z 0.000000 0.000000 1.656160 
# 
# From -- ./inp_files/14214.got.cif
#   From: 2010.03.12/outbox.cif.g09.slc.cpg/sg55_8_cif.got.tgz:14214.got - 2010.04.16 15:19:21.
