data_PCOD8225212
_publ_section_title
;
Structure prediction by ZEFSAII (Michael W. Deem and Ramdas Pophale) SiO2 
 PCOD8225212
Probable space group: P B A M
;
_chemical_formula_sum "Si O2"
_cell_formula_units_Z 64
_cell_length_a 19.735800
_cell_length_b 19.692036
_cell_length_c 9.134545
_cell_angle_alpha 90.000000
_cell_angle_beta 90.000000
_cell_angle_gamma 90.000000
_cell_volume 3550.032068
_symmetry_space_group_name_H-M "P B A M"
_symmetry_group_IT_number 55
_symmetry_cell_setting 'orthorhombic'
loop_
_space_group_symop_operation_xyz
x,y,z
-x,-y,z
1/2+x,1/2-y,-z
1/2-x,1/2+y,-z
-x,-y,-z
x,y,-z
1/2-x,1/2+y,z
1/2+x,1/2-y,z
loop_
_atom_site_type_symbol
_atom_site_label
_atom_site_fract_x
_atom_site_fract_y
_atom_site_fract_z
Si Si1 0.933928 0.463754 0.171928
Si Si2 0.967128 0.932248 0.173412
Si Si3 0.711216 0.016279 0.173328
Si Si4 0.782228 0.138358 0.329170
Si Si5 0.418797 0.331875 0.830485
Si Si6 0.318727 0.598382 0.827523
Si Si7 0.109571 0.681324 0.831440
Si Si8 0.744436 0.791753 0.669442
O O1 0.863791 0.496267 0.230578
O O2 0.937424 0.383180 0.208677
O O3 0.000000 0.500000 0.243805
O O4 0.935533 0.475830 0.000000
O O5 0.891248 0.925639 0.234362
O O6 0.012210 0.867739 0.221132
O O7 0.964170 0.938336 0.000000
O O8 0.000000 0.000000 0.241388
O O9 0.732971 0.084949 0.252882
O O10 0.762643 0.956585 0.218576
O O11 0.713003 0.028375 0.000000
O O12 0.788827 0.121753 0.500000
O O13 0.857025 0.136863 0.260569
O O14 0.748890 0.211730 0.301227
O O15 0.430333 0.251548 0.803569
O O16 0.402682 0.347344 0.000000
O O17 0.305041 0.670769 0.752667
O O18 0.320126 0.609927 0.000000
O O19 0.174653 0.678440 0.730077
O O20 0.134123 0.675672 0.000000
O O21 0.747968 0.809532 0.500000
#
# Coordination Sequence:
#
# PCOD8225212 Si02
#       8
#     8   8   8   8   8   8   8   8
#     4   9  17  31  51  77 106 131 163 216 270 310
#     4   9  17  30  49  76 108 136 167 211 259 307
#     4  10  19  33  54  79 103 135 173 212 263 313
#     4  10  21  35  52  76 106 139 174 215 257 303
#     4   9  17  31  53  78 101 134 176 214 256 306
#     4  10  19  33  55  80 106 136 173 215 258 309
#     4   9  16  31  54  75  99 130 170 214 256 306
#     4  10  20  34  52  74 102 136 174 212 255 304
#
# _framework density 18.028006000000001
#
# number of rings (size 3 to 8) (size 9 to 14) (size 15 to 20)
#    0.000    2.500    1.250    1.500    0.000    4.000 
#    2.250    0.625    0.000    3.000    0.000    0.000 
#    0.000    0.000    0.000    0.000    0.000    0.000 
#
# Total GULP energy -793517.456118 kJ/mol
# GULP energy per Si atom -12398.710252 kJ/mol
# Density = 1.798697 g / cm^3
# Si number density = 18.028006 Si / 1000 Ang^3
#
#
#
# Elastic Constant Matrix: (Units=GPa)
#
#
# Indices 1 2 3 4 5 6 
#
# 1 154.1624 86.4409 34.2870 0.0000 0.0000 0.0000
# 2 86.4409 132.8843 39.9546 0.0000 0.0000 0.0000
# 3 34.2870 39.9546 41.3947 0.0000 0.0000 0.0000
# 4 0.0000 0.0000 0.0000 21.5092 0.0000 0.0000
# 5 0.0000 0.0000 0.0000 0.0000 6.6695 0.0000
# 6 0.0000 0.0000 0.0000 0.0000 0.0000 33.5998
#
#
#
# Elastic Compliance Matrix: (Units=1/GPa)
#
#
# Indices 1 2 3 4 5 6 
#
# 1 0.010461 -0.005917 -0.002954 0.000000 0.000000 0.000000
# 2 -0.005917 0.013949 -0.008563 0.000000 0.000000 0.000000
# 3 -0.002954 -0.008563 0.034869 0.000000 0.000000 0.000000
# 4 0.000000 0.000000 0.000000 0.046492 0.000000 0.000000
# 5 0.000000 0.000000 0.000000 0.000000 0.149937 0.000000
# 6 0.000000 0.000000 0.000000 0.000000 0.000000 0.029762
#
#
# Mechanical properties :
#
#
# Convention : Reuss Voigt Hill
#
# Bulk Modulus (GPa) = 40.96291 72.20070 56.58180
# Shear Modulus (GPa) = 15.22189 23.53963 19.38076
#
# Velocity S-wave (km/s) = 2.90892 3.61740 3.28233
# Velocity P-wave (km/s) = 5.83554 7.58839 6.76894
#
# Compressibility (1/GPa) = 0.02441233
#
# Stress axis : x y z
#
# Youngs Moduli (GPa) = 95.59008 71.69084 28.67856
#
# Poissons Ratio (x) = 0.42419 0.08472
# Poissons Ratio (y) = 0.56559 0.24556
# Poissons Ratio (z) = 0.28238 0.61386
#
# Static dielectric constant tensor:
#      x y z
#    x 3.443410 0.000000 0.000000 
#    y 0.000000 3.542460 0.000000 
#    z 0.000000 0.000000 3.075470 
# 
# 
# High freq. dielectric constant tensor:
#      x y z
#    x 1.688670 0.000000 0.000000 
#    y 0.000000 1.711520 0.000000 
#    z 0.000000 0.000000 1.666420 
# 
# From -- ./inp_files/7957.got.cif
#   From: 2010.03.12/outbox.cif.g09.slc.cpg/sg55_4_cif.got.tgz:7957.got - 2010.04.16 15:19:21.
