data_PCOD8225660
_publ_section_title
;
Structure prediction by ZEFSAII (Michael W. Deem and Ramdas Pophale) SiO2 
 PCOD8225660
Probable space group: P B A M
;
_chemical_formula_sum "Si O2"
_cell_formula_units_Z 44
_cell_length_a 5.044225
_cell_length_b 15.985652
_cell_length_c 27.864963
_cell_angle_alpha 90.000000
_cell_angle_beta 90.000000
_cell_angle_gamma 90.000000
_cell_volume 2246.897574
_symmetry_space_group_name_H-M "P B A M"
_symmetry_group_IT_number 55
_symmetry_cell_setting 'orthorhombic'
loop_
_space_group_symop_operation_xyz
x,y,z
-x,-y,z
1/2+x,1/2-y,-z
1/2-x,1/2+y,-z
-x,-y,-z
x,y,-z
1/2-x,1/2+y,z
1/2+x,1/2-y,z
loop_
_atom_site_type_symbol
_atom_site_label
_atom_site_fract_x
_atom_site_fract_y
_atom_site_fract_z
Si Si1 0.227618 0.192193 0.103395
Si Si2 0.370780 0.697967 0.000000
Si Si3 0.760336 0.305741 0.737067
Si Si4 0.692480 0.802064 0.371618
Si Si5 0.750091 0.442467 0.815539
Si Si6 0.241869 0.555320 0.553958
O O1 0.512599 0.234578 0.111281
O O2 0.184816 0.116865 0.139764
O O3 0.199992 0.150935 0.049855
O O4 0.683142 0.719057 0.000000
O O5 0.475943 0.265594 0.748544
O O6 0.772513 0.337298 0.682156
O O7 0.812111 0.386809 0.769043
O O8 0.387395 0.776811 0.379321
O O9 0.781833 0.868748 0.410376
O O10 0.500000 0.500000 0.804257
O O11 0.000000 0.500000 0.827819
O O12 0.500000 0.500000 0.554762
O O13 0.185878 0.588961 0.500000
O O14 0.000000 0.500000 0.572833
#
# Coordination Sequence:
#
# PCOD8225660 Si02
#       6
#     8   4   8   8   8   8
#     4  10  19  36  58  78 104 141 179 216 258 310
#     4   8  16  30  54  80  98 130 182 218 246 304
#     4  10  21  39  58  77 104 141 179 216 263 316
#     4  10  21  36  57  82 105 134 178 225 264 305
#     4  12  24  36  53  82 111 138 175 218 265 314
#     4  10  21  36  54  78 110 145 176 209 259 319
#
# _framework density 19.582559
#
# number of rings (size 3 to 8) (size 9 to 14) (size 15 to 20)
#    0.000    1.818    0.000    4.364    0.000    2.182 
#    0.000    0.909    0.000    0.000    0.000    0.000 
#    0.000    0.000    0.000    0.000    0.000    0.000 
#
# Total GULP energy -545631.593740 kJ/mol
# GULP energy per Si atom -12400.718040 kJ/mol
# Density = 1.953799 g / cm^3
# Si number density = 19.582559 Si / 1000 Ang^3
#
#
#
# Elastic Constant Matrix: (Units=GPa)
#
#
# Indices 1 2 3 4 5 6 
#
# 1 88.7416 6.7726 10.3389 0.0000 0.0000 0.0000
# 2 6.7726 68.9259 58.2864 0.0000 0.0000 0.0000
# 3 10.3389 58.2864 123.0341 0.0000 0.0000 0.0000
# 4 0.0000 0.0000 0.0000 -24.0751 0.0000 0.0000
# 5 0.0000 0.0000 0.0000 0.0000 26.0746 0.0000
# 6 0.0000 0.0000 0.0000 0.0000 0.0000 18.8656
#
#
#
# Elastic Compliance Matrix: (Units=1/GPa)
#
#
# Indices 1 2 3 4 5 6 
#
# 1 0.011391 -0.000517 -0.000712 0.000000 0.000000 0.000000
# 2 -0.000517 0.024229 -0.011435 0.000000 0.000000 0.000000
# 3 -0.000712 -0.011435 0.013605 0.000000 0.000000 0.000000
# 4 0.000000 0.000000 0.000000 -0.041537 0.000000 0.000000
# 5 0.000000 0.000000 0.000000 0.000000 0.038352 0.000000
# 6 0.000000 0.000000 0.000000 0.000000 0.000000 0.053007
#
#
# Mechanical properties :
#
#
# Convention : Reuss Voigt Hill
#
# Bulk Modulus (GPa) = 41.84674 47.94416 44.89545
# Shear Modulus (GPa) = 37.78154 17.85992 27.82073
#
# Velocity S-wave (km/s) = 4.39720 3.02326 3.77329
# Velocity P-wave (km/s) = 6.86995 6.05996 6.47763
#
# Compressibility (1/GPa) = 0.02389672
#
# Stress axis : x y z
#
# Youngs Moduli (GPa) = 87.78778 41.27323 73.50341
#
# Poissons Ratio (x) = 0.02133 0.05236
# Poissons Ratio (y) = 0.04538 0.84049
# Poissons Ratio (z) = 0.06254 0.47195
#
# Static dielectric constant tensor:
#      x y z
#    x 3.808530 0.000000 0.000000 
#    y 0.000000 3.181630 0.000000 
#    z 0.000000 0.000000 3.895980 
# 
# 
# High freq. dielectric constant tensor:
#      x y z
#    x 1.786630 0.000000 0.000000 
#    y 0.000000 1.727430 0.000000 
#    z 0.000000 0.000000 1.780860 
# 
# From -- ./inp_files/23783.got.cif
#   From: 2010.03.12/outbox.cif.g09.slc.cpg/sg55_12_cif.got.tgz:23783.got - 2010.04.16 15:19:21.
