data_PCOD8225176
_publ_section_title
;
Structure prediction by ZEFSAII (Michael W. Deem and Ramdas Pophale) SiO2 
 PCOD8225176
Probable space group: P B A M
;
_chemical_formula_sum "Si O2"
_cell_formula_units_Z 40
_cell_length_a 18.545516
_cell_length_b 13.579245
_cell_length_c 8.899347
_cell_angle_alpha 90.000000
_cell_angle_beta 90.000000
_cell_angle_gamma 90.000000
_cell_volume 2241.159091
_symmetry_space_group_name_H-M "P B A M"
_symmetry_group_IT_number 55
_symmetry_cell_setting 'orthorhombic'
loop_
_space_group_symop_operation_xyz
x,y,z
-x,-y,z
1/2+x,1/2-y,-z
1/2-x,1/2+y,-z
-x,-y,-z
x,y,-z
1/2-x,1/2+y,z
1/2+x,1/2-y,z
loop_
_atom_site_type_symbol
_atom_site_label
_atom_site_fract_x
_atom_site_fract_y
_atom_site_fract_z
Si Si1 0.494119 0.615771 0.825103
Si Si2 0.854059 0.797785 0.677220
Si Si3 0.210297 0.383724 0.822953
Si Si4 0.358722 0.296844 0.174871
Si Si5 0.780616 0.395255 0.825344
O O1 0.500000 0.500000 0.800560
O O2 0.428751 0.657269 0.730082
O O3 0.566099 0.666584 0.755145
O O4 0.482402 0.641913 0.000000
O O5 0.852261 0.792224 0.500000
O O6 0.846661 0.687275 0.742117
O O7 0.789978 0.868155 0.732230
O O8 0.290770 0.358917 0.762382
O O9 0.191755 0.496248 0.781297
O O10 0.205171 0.363248 0.000000
O O11 0.345509 0.181024 0.208857
O O12 0.364377 0.319160 0.000000
O O13 0.758212 0.390744 0.000000
#
# Coordination Sequence:
#
# PCOD8225176 Si02
#       5
#     8   8   8   8   8
#     4  10  19  33  53  74  99 133 171 211 255 301
#     4  11  22  33  48  75 109 138 165 201 250 310
#     4   9  17  33  56  76  96 127 169 213 252 295
#     4   8  15  28  49  76  97 118 161 214 255 292
#     4   9  17  33  56  77  97 127 171 218 256 293
#
# _framework density 17.847908
#
# number of rings (size 3 to 8) (size 9 to 14) (size 15 to 20)
#    0.000    2.600    0.000    4.200    0.000    4.400 
#    0.000    5.000    0.000    6.000    0.000    0.000 
#    0.000    0.000    0.000    0.000    0.000    0.000 
#
# Total GULP energy -495920.878276 kJ/mol
# GULP energy per Si atom -12398.021957 kJ/mol
# Density = 1.780729 g / cm^3
# Si number density = 17.847908 Si / 1000 Ang^3
#
#
#
# Elastic Constant Matrix: (Units=GPa)
#
#
# Indices 1 2 3 4 5 6 
#
# 1 98.2182 49.8066 40.7003 0.0000 0.0000 0.0000
# 2 49.8066 142.6791 49.9961 0.0000 0.0000 0.0000
# 3 40.7003 49.9961 69.9672 0.0000 0.0000 0.0000
# 4 0.0000 0.0000 0.0000 7.7789 0.0000 0.0000
# 5 0.0000 0.0000 0.0000 0.0000 10.6929 0.0000
# 6 0.0000 0.0000 0.0000 0.0000 0.0000 24.1695
#
#
#
# Elastic Compliance Matrix: (Units=1/GPa)
#
#
# Indices 1 2 3 4 5 6 
#
# 1 0.014179 -0.002747 -0.006285 0.000000 0.000000 0.000000
# 2 -0.002747 0.009882 -0.005463 0.000000 0.000000 0.000000
# 3 -0.006285 -0.005463 0.021852 0.000000 0.000000 0.000000
# 4 0.000000 0.000000 0.000000 0.128553 0.000000 0.000000
# 5 0.000000 0.000000 0.000000 0.000000 0.093520 0.000000
# 6 0.000000 0.000000 0.000000 0.000000 0.000000 0.041374
#
#
# Mechanical properties :
#
#
# Convention : Reuss Voigt Hill
#
# Bulk Modulus (GPa) = 59.09329 65.76339 62.42834
# Shear Modulus (GPa) = 14.53520 19.88569 17.21044
#
# Velocity S-wave (km/s) = 2.85685 3.34155 3.10866
# Velocity P-wave (km/s) = 6.63802 7.19823 6.92379
#
# Compressibility (1/GPa) = 0.01692240
#
# Stress axis : x y z
#
# Youngs Moduli (GPa) = 70.52713 101.19228 45.76193
#
# Poissons Ratio (x) = 0.27801 0.28761
# Poissons Ratio (y) = 0.19376 0.25001
# Poissons Ratio (z) = 0.44325 0.55285
#
# Static dielectric constant tensor:
#      x y z
#    x 3.339550 0.000000 0.000000 
#    y 0.000000 3.551470 0.000000 
#    z 0.000000 0.000000 3.003810 
# 
# 
# High freq. dielectric constant tensor:
#      x y z
#    x 1.679640 0.000000 0.000000 
#    y 0.000000 1.702480 0.000000 
#    z 0.000000 0.000000 1.659100 
# 
# From -- ./inp_files/5179.got.cif
#   From: 2010.03.12/outbox.cif.g09.slc.cpg/sg55_3_cif.got.tgz:5179.got - 2010.04.16 15:19:21.
