data_PCOD8225622
_publ_section_title
;
Structure prediction by ZEFSAII (Michael W. Deem and Ramdas Pophale) SiO2 
 PCOD8225622
Probable space group: P B A M
;
_chemical_formula_sum "Si O2"
_cell_formula_units_Z 64
_cell_length_a 12.049290
_cell_length_b 29.054371
_cell_length_c 8.778410
_cell_angle_alpha 90.000000
_cell_angle_beta 90.000000
_cell_angle_gamma 90.000000
_cell_volume 3073.185644
_symmetry_space_group_name_H-M "P B A M"
_symmetry_group_IT_number 55
_symmetry_cell_setting 'orthorhombic'
loop_
_space_group_symop_operation_xyz
x,y,z
-x,-y,z
1/2+x,1/2-y,-z
1/2-x,1/2+y,-z
-x,-y,-z
x,y,-z
1/2-x,1/2+y,z
1/2+x,1/2-y,z
loop_
_atom_site_type_symbol
_atom_site_label
_atom_site_fract_x
_atom_site_fract_y
_atom_site_fract_z
Si Si1 0.759337 0.835032 0.319767
Si Si2 0.800236 0.938392 0.676959
Si Si3 0.857360 0.158695 0.328558
Si Si4 0.736284 0.026672 0.823282
Si Si5 0.533698 0.272399 0.318470
Si Si6 0.472612 0.179864 0.179815
Si Si7 0.447711 0.438209 0.670396
Si Si8 0.637182 0.112962 0.681673
O O1 0.740648 0.833857 0.500000
O O2 0.780306 0.886998 0.261050
O O3 0.860750 0.802645 0.270758
O O4 0.652394 0.814705 0.236564
O O5 0.770938 0.940421 0.500000
O O6 0.927574 0.954121 0.706609
O O7 0.720690 0.974203 0.765187
O O8 0.827308 0.172446 0.500000
O O9 0.741207 0.143229 0.251353
O O10 0.921314 0.202294 0.255551
O O11 0.945830 0.117120 0.324957
O O12 0.651339 0.060343 0.735819
O O13 0.863197 0.041413 0.792707
O O14 0.708973 0.029256 0.000000
O O15 0.528950 0.266198 0.500000
O O16 0.543887 0.223273 0.238083
O O17 0.524390 0.133485 0.251183
O O18 0.477956 0.176713 0.000000
O O19 0.411634 0.454646 0.500000
O O20 0.634733 0.113334 0.500000
#
# Coordination Sequence:
#
# PCOD8225622 Si02
#       8
#     8   8   8   8   8   8   8   8
#     4  10  22  42  68  93 119 157 209 258 300 354
#     4  10  19  35  60  88 118 158 210 263 302 350
#     4   8  15  31  59  90 114 144 193 252 299 336
#     4  11  22  34  53  87 128 166 200 245 312 380
#     4  10  20  39  66  93 118 153 205 255 299 357
#     4  12  27  43  60  88 128 164 197 247 312 374
#     4   9  16  31  54  83 119 159 203 252 298 345
#     4  10  21  41  66  88 115 158 213 262 298 349
#
# _framework density 20.825296000000002
#
# number of rings (size 3 to 8) (size 9 to 14) (size 15 to 20)
#    0.000    2.000    1.250    3.750    1.750    3.000 
#    0.000    3.125    0.000    3.750    0.000    0.000 
#    0.000    0.000    0.000    0.000    0.000    0.000 
#
# Total GULP energy -793515.817053 kJ/mol
# GULP energy per Si atom -12398.684641 kJ/mol
# Density = 2.077790 g / cm^3
# Si number density = 20.825296 Si / 1000 Ang^3
#
#
#
# Elastic Constant Matrix: (Units=GPa)
#
#
# Indices 1 2 3 4 5 6 
#
# 1 62.9761 25.6245 31.0040 0.0000 0.0000 0.0000
# 2 25.6245 109.7666 37.4672 0.0000 0.0000 0.0000
# 3 31.0040 37.4672 79.9361 0.0000 0.0000 0.0000
# 4 0.0000 0.0000 0.0000 15.4600 0.0000 0.0000
# 5 0.0000 0.0000 0.0000 0.0000 16.5092 0.0000
# 6 0.0000 0.0000 0.0000 0.0000 0.0000 22.0110
#
#
#
# Elastic Compliance Matrix: (Units=1/GPa)
#
#
# Indices 1 2 3 4 5 6 
#
# 1 0.020155 -0.002425 -0.006681 0.000000 0.000000 0.000000
# 2 -0.002425 0.011137 -0.004280 0.000000 0.000000 0.000000
# 3 -0.006681 -0.004280 0.017107 0.000000 0.000000 0.000000
# 4 0.000000 0.000000 0.000000 0.064683 0.000000 0.000000
# 5 0.000000 0.000000 0.000000 0.000000 0.060572 0.000000
# 6 0.000000 0.000000 0.000000 0.000000 0.000000 0.045432
#
#
# Mechanical properties :
#
#
# Convention : Reuss Voigt Hill
#
# Bulk Modulus (GPa) = 46.23478 48.98559 47.61018
# Shear Modulus (GPa) = 19.75769 21.36822 20.56296
#
# Velocity S-wave (km/s) = 3.08350 3.20671 3.14571
# Velocity P-wave (km/s) = 5.90988 6.10605 6.00877
#
# Compressibility (1/GPa) = 0.02162874
#
# Stress axis : x y z
#
# Youngs Moduli (GPa) = 49.61641 89.79024 58.45517
#
# Poissons Ratio (x) = 0.21771 0.39052
# Poissons Ratio (y) = 0.12030 0.25017
# Poissons Ratio (z) = 0.33147 0.38427
#
# Static dielectric constant tensor:
#      x y z
#    x 3.648170 0.000000 0.000000 
#    y 0.000000 3.964210 0.000000 
#    z 0.000000 0.000000 3.360320 
# 
# 
# High freq. dielectric constant tensor:
#      x y z
#    x 1.800560 0.000000 0.000000 
#    y 0.000000 1.829700 0.000000 
#    z 0.000000 0.000000 1.778580 
# 
# From -- ./inp_files/4573.got.cif
#   From: 2010.03.12/outbox.cif.g09.slc.cpg/sg55_3_cif.got.tgz:4573.got - 2010.04.16 15:19:21.
