data_PCOD8225079
_publ_section_title
;
Structure prediction by ZEFSAII (Michael W. Deem and Ramdas Pophale) SiO2 
 PCOD8225079
Probable space group: P B A M
;
_chemical_formula_sum "Si O2"
_cell_formula_units_Z 48
_cell_length_a 14.711419
_cell_length_b 19.913515
_cell_length_c 9.088919
_cell_angle_alpha 90.000000
_cell_angle_beta 90.000000
_cell_angle_gamma 90.000000
_cell_volume 2662.653927
_symmetry_space_group_name_H-M "P B A M"
_symmetry_group_IT_number 55
_symmetry_cell_setting 'orthorhombic'
loop_
_space_group_symop_operation_xyz
x,y,z
-x,-y,z
1/2+x,1/2-y,-z
1/2-x,1/2+y,-z
-x,-y,-z
x,y,-z
1/2-x,1/2+y,z
1/2+x,1/2-y,z
loop_
_atom_site_type_symbol
_atom_site_label
_atom_site_fract_x
_atom_site_fract_y
_atom_site_fract_z
Si Si1 0.377994 0.317047 0.327622
Si Si2 0.281335 0.983649 0.832034
Si Si3 0.306739 0.830780 0.173921
Si Si4 0.930619 0.443745 0.673470
Si Si5 0.512856 0.196207 0.671859
Si Si6 0.080118 0.951254 0.829565
O O1 0.358296 0.324163 0.500000
O O2 0.283958 0.299995 0.245707
O O3 0.447588 0.257751 0.292595
O O4 0.423765 0.384903 0.268663
O O5 0.331130 0.040236 0.736725
O O6 0.313057 0.909281 0.783777
O O7 0.173942 0.991130 0.804876
O O8 0.307255 0.996629 0.000000
O O9 0.393961 0.792864 0.239167
O O10 0.300911 0.819917 0.000000
O O11 0.922863 0.445963 0.500000
O O12 0.000000 0.500000 0.733255
O O13 0.963119 0.371136 0.728352
O O14 0.536726 0.190840 0.500000
O O15 0.070358 0.929777 0.000000
O O16 0.000000 0.000000 0.777933
#
# Coordination Sequence:
#
# PCOD8225079 Si02
#       6
#     8   8   8   8   8   8
#     4  10  21  37  57  80 111 145 182 228 274 327
#     4   9  18  32  52  79 106 137 175 220 268 315
#     4  10  20  35  57  80 105 142 184 222 270 329
#     4  10  19  32  53  79 107 142 177 215 266 320
#     4  10  21  37  55  79 111 145 182 225 272 320
#     4   9  19  38  60  80 109 143 181 227 273 325
#
# _framework density 18.027127
#
# number of rings (size 3 to 8) (size 9 to 14) (size 15 to 20)
#    0.000    2.333    1.667    2.000    0.000    5.333 
#    3.000    0.000    0.000    0.000    0.000    0.000 
#    0.000    0.000    0.000    0.000    0.000    0.000 
#
# Total GULP energy -595338.049174 kJ/mol
# GULP energy per Si atom -12402.876024 kJ/mol
# Density = 1.798610 g / cm^3
# Si number density = 18.027127 Si / 1000 Ang^3
#
#
#
# Elastic Constant Matrix: (Units=GPa)
#
#
# Indices 1 2 3 4 5 6 
#
# 1 144.8598 72.0584 63.8726 0.0000 0.0000 0.0000
# 2 72.0584 89.8854 46.1287 0.0000 0.0000 0.0000
# 3 63.8726 46.1287 70.6222 0.0000 0.0000 0.0000
# 4 0.0000 0.0000 0.0000 22.4196 0.0000 0.0000
# 5 0.0000 0.0000 0.0000 0.0000 34.0569 0.0000
# 6 0.0000 0.0000 0.0000 0.0000 0.0000 30.8334
#
#
#
# Elastic Compliance Matrix: (Units=1/GPa)
#
#
# Indices 1 2 3 4 5 6 
#
# 1 0.013949 -0.007082 -0.007990 0.000000 0.000000 0.000000
# 2 -0.007082 0.020331 -0.006874 0.000000 0.000000 0.000000
# 3 -0.007990 -0.006874 0.025876 0.000000 0.000000 0.000000
# 4 0.000000 0.000000 0.000000 0.044604 0.000000 0.000000
# 5 0.000000 0.000000 0.000000 0.000000 0.029363 0.000000
# 6 0.000000 0.000000 0.000000 0.000000 0.000000 0.032432
#
#
# Mechanical properties :
#
#
# Convention : Reuss Voigt Hill
#
# Bulk Modulus (GPa) = 61.48822 74.38743 67.93783
# Shear Modulus (GPa) = 23.16219 25.68249 24.42234
#
# Velocity S-wave (km/s) = 3.58837 3.77856 3.68469
# Velocity P-wave (km/s) = 7.16598 7.77113 7.47468
#
# Compressibility (1/GPa) = 0.01626328
#
# Stress axis : x y z
#
# Youngs Moduli (GPa) = 71.68861 49.18693 38.64525
#
# Poissons Ratio (x) = 0.34835 0.30878
# Poissons Ratio (y) = 0.50771 0.26565
# Poissons Ratio (z) = 0.57280 0.33812
#
# Static dielectric constant tensor:
#      x y z
#    x 3.391170 0.000000 0.000000 
#    y 0.000000 3.189950 0.000000 
#    z 0.000000 0.000000 3.262120 
# 
# 
# High freq. dielectric constant tensor:
#      x y z
#    x 1.706560 0.000000 0.000000 
#    y 0.000000 1.680040 0.000000 
#    z 0.000000 0.000000 1.698590 
# 
# From -- ./inp_files/5676.got.cif
#   From: 2010.03.12/outbox.cif.g09.slc.cpg/sg55_3_cif.got.tgz:5676.got - 2010.04.16 15:19:21.
