data_PCOD8225809
_publ_section_title
;
Structure prediction by ZEFSAII (Michael W. Deem and Ramdas Pophale) SiO2 
 PCOD8225809
Probable space group: P B A M
;
_chemical_formula_sum "Si O2"
_cell_formula_units_Z 40
_cell_length_a 19.413017
_cell_length_b 9.232615
_cell_length_c 11.885639
_cell_angle_alpha 90.000000
_cell_angle_beta 90.000000
_cell_angle_gamma 90.000000
_cell_volume 2130.297688
_symmetry_space_group_name_H-M "P B A M"
_symmetry_group_IT_number 55
_symmetry_cell_setting 'orthorhombic'
loop_
_space_group_symop_operation_xyz
x,y,z
-x,-y,z
1/2+x,1/2-y,-z
1/2-x,1/2+y,-z
-x,-y,-z
x,y,-z
1/2-x,1/2+y,z
1/2+x,1/2-y,z
loop_
_atom_site_type_symbol
_atom_site_label
_atom_site_fract_x
_atom_site_fract_y
_atom_site_fract_z
Si Si1 0.065025 0.401008 0.131852
Si Si2 0.002532 0.172629 0.500000
Si Si3 0.673040 0.043853 0.689439
Si Si4 0.695063 0.371749 0.367361
Si Si5 0.444923 0.625880 0.728258
Si Si6 0.424030 0.065837 0.500000
O O1 0.136519 0.452344 0.188693
O O2 0.049974 0.235055 0.167652
O O3 0.000000 0.500000 0.166675
O O4 0.077835 0.406385 0.000000
O O5 0.929839 0.257397 0.500000
O O6 0.041938 0.219472 0.386264
O O7 0.000000 0.000000 0.500000
O O8 0.737590 0.937268 0.690522
O O9 0.615194 0.981164 0.609581
O O10 0.698462 0.199671 0.647647
O O11 0.690240 0.412488 0.500000
O O12 0.631332 0.438623 0.294805
O O13 0.500000 0.500000 0.748821
O O14 0.500000 0.000000 0.500000
#
# Coordination Sequence:
#
# PCOD8225809 Si02
#       6
#     8   4   8   8   8   4
#     4  10  22  41  62  83 112 153 205 251 291 345
#     4  10  20  31  51  86 119 146 183 236 290 355
#     4  11  23  37  57  85 119 157 194 240 297 355
#     4  11  20  37  54  85 124 155 190 235 298 364
#     4  10  21  37  59  88 122 152 192 245 300 356
#     4  12  20  33  57  82 116 156 192 236 296 359
#
# _framework density 18.776717999999999
#
# number of rings (size 3 to 8) (size 9 to 14) (size 15 to 20)
#    0.000    1.400    3.000    4.200    0.000    5.200 
#    0.000    4.000    0.000    0.000    0.000    0.000 
#    0.000    0.000    0.000    0.000    0.000    0.000 
#
# Total GULP energy -495809.864203 kJ/mol
# GULP energy per Si atom -12395.246605 kJ/mol
# Density = 1.873398 g / cm^3
# Si number density = 18.776718 Si / 1000 Ang^3
#
#
#
# Elastic Constant Matrix: (Units=GPa)
#
#
# Indices 1 2 3 4 5 6 
#
# 1 165.6781 80.3888 54.0380 0.0000 0.0000 0.0000
# 2 80.3888 113.9356 36.5247 0.0000 0.0000 0.0000
# 3 54.0380 36.5247 92.7114 0.0000 0.0000 0.0000
# 4 0.0000 0.0000 0.0000 -15.0486 0.0000 0.0000
# 5 0.0000 0.0000 0.0000 0.0000 17.4639 0.0000
# 6 0.0000 0.0000 0.0000 0.0000 0.0000 48.8468
#
#
#
# Elastic Compliance Matrix: (Units=1/GPa)
#
#
# Indices 1 2 3 4 5 6 
#
# 1 0.010091 -0.005991 -0.003522 0.000000 0.000000 0.000000
# 2 -0.005991 0.013603 -0.001867 0.000000 0.000000 0.000000
# 3 -0.003522 -0.001867 0.013574 0.000000 0.000000 0.000000
# 4 0.000000 0.000000 0.000000 -0.066451 0.000000 0.000000
# 5 0.000000 0.000000 0.000000 0.000000 0.057261 0.000000
# 6 0.000000 0.000000 0.000000 0.000000 0.000000 0.020472
#
#
# Mechanical properties :
#
#
# Convention : Reuss Voigt Hill
#
# Bulk Modulus (GPa) = 68.92321 79.35869 74.14095
# Shear Modulus (GPa) = 65.66377 23.67732 44.67054
#
# Velocity S-wave (km/s) = 5.92003 3.55490 4.88283
# Velocity P-wave (km/s) = 9.13868 7.69454 8.44752
#
# Compressibility (1/GPa) = 0.01450890
#
# Stress axis : x y z
#
# Youngs Moduli (GPa) = 99.09415 73.51587 73.66901
#
# Poissons Ratio (x) = 0.44045 0.25943
# Poissons Ratio (y) = 0.59369 0.13753
# Poissons Ratio (z) = 0.34897 0.13724
#
# Static dielectric constant tensor:
#      x y z
#    x 3.668340 0.000000 0.000000 
#    y 0.000000 3.500920 0.000000 
#    z 0.000000 0.000000 3.410930 
# 
# 
# High freq. dielectric constant tensor:
#      x y z
#    x 1.738460 0.000000 0.000000 
#    y 0.000000 1.732820 0.000000 
#    z 0.000000 0.000000 1.710440 
# 
# From -- ./inp_files/15231.got.cif
#   From: 2010.03.12/outbox.cif.g09.slc.cpg/sg55_8_cif.got.tgz:15231.got - 2010.04.16 15:19:21.
