data_PCOD8225806
_publ_section_title
;
Structure prediction by ZEFSAII (Michael W. Deem and Ramdas Pophale) SiO2 
 PCOD8225806
Probable space group: P B A M
;
_chemical_formula_sum "Si O2"
_cell_formula_units_Z 56
_cell_length_a 18.637402
_cell_length_b 7.604074
_cell_length_c 20.064849
_cell_angle_alpha 90.000000
_cell_angle_beta 90.000000
_cell_angle_gamma 90.000000
_cell_volume 2843.594092
_symmetry_space_group_name_H-M "P B A M"
_symmetry_group_IT_number 55
_symmetry_cell_setting 'orthorhombic'
loop_
_space_group_symop_operation_xyz
x,y,z
-x,-y,z
1/2+x,1/2-y,-z
1/2-x,1/2+y,-z
-x,-y,-z
x,y,-z
1/2-x,1/2+y,z
1/2+x,1/2-y,z
loop_
_atom_site_type_symbol
_atom_site_label
_atom_site_fract_x
_atom_site_fract_y
_atom_site_fract_z
Si Si1 0.915865 0.297474 0.326151
Si Si2 0.080834 0.709229 0.926561
Si Si3 0.332728 0.205492 0.803078
Si Si4 0.915198 0.999996 0.573896
Si Si5 0.167283 0.294560 0.196923
Si Si6 0.080847 0.290801 0.926561
Si Si7 0.584140 0.202515 0.673849
O O1 0.873856 0.223478 0.261845
O O2 0.896410 0.499993 0.342917
O O3 0.000003 0.276531 0.311334
O O4 0.890684 0.176814 0.387843
O O5 0.133491 0.790183 0.870279
O O6 0.083516 0.500016 0.925730
O O7 0.999992 0.773074 0.911326
O O8 0.104896 0.777162 0.000000
O O9 0.250007 0.250045 0.797935
O O10 0.345605 0.000024 0.806093
O O11 0.880408 0.999993 0.500000
O O12 0.890680 0.823182 0.612159
O O13 0.000000 0.000000 0.567659
O O14 0.133508 0.209862 0.129720
O O15 0.126156 0.223510 0.261844
O O16 0.104914 0.222878 0.000000
#
# Coordination Sequence:
#
# PCOD8225806 Si02
#       7
#     8   8   8   8   8   8   8
#     4   9  18  33  53  77 104 136 173 214 256 305
#     4   8  14  27  48  71  96 129 171 216 257 303
#     4  10  20  31  47  73 100 134 172 212 258 305
#     4   9  18  32  54  84 109 131 164 209 263 313
#     4  10  20  31  47  73 100 134 172 212 258 305
#     4   8  14  27  48  71  96 129 171 216 257 303
#     4   9  18  33  53  77 104 136 173 214 256 305
#
# _framework density 19.693387999999999
#
# number of rings (size 3 to 8) (size 9 to 14) (size 15 to 20)
#    0.000    3.000    0.000    1.714    2.000    4.571 
#    0.000    2.857    0.000    0.857    0.000    2.000 
#    0.000    0.000    0.000    0.000    0.000    0.000 
#
# Total GULP energy -694103.674743 kJ/mol
# GULP energy per Si atom -12394.708478 kJ/mol
# Density = 1.964857 g / cm^3
# Si number density = 19.693388 Si / 1000 Ang^3
#
#
#
# Elastic Constant Matrix: (Units=GPa)
#
#
# Indices 1 2 3 4 5 6 
#
# 1 89.5843 20.6173 79.0685 0.0000 0.0000 0.0000
# 2 20.6173 60.1658 55.0831 0.0000 0.0000 0.0000
# 3 79.0685 55.0831 213.3153 0.0000 0.0000 0.0000
# 4 0.0000 0.0000 0.0000 -0.9266 0.0000 0.0000
# 5 0.0000 0.0000 0.0000 0.0000 13.6035 0.0000
# 6 0.0000 0.0000 0.0000 0.0000 0.0000 17.8329
#
#
#
# Elastic Compliance Matrix: (Units=1/GPa)
#
#
# Indices 1 2 3 4 5 6 
#
# 1 0.016590 -0.000072 -0.006131 0.000000 0.000000 0.000000
# 2 -0.000072 0.021767 -0.005594 0.000000 0.000000 0.000000
# 3 -0.006131 -0.005594 0.008405 0.000000 0.000000 0.000000
# 4 0.000000 0.000000 0.000000 -1.079224 0.000000 0.000000
# 5 0.000000 0.000000 0.000000 0.000000 0.073511 0.000000
# 6 0.000000 0.000000 0.000000 0.000000 0.000000 0.056076
#
#
# Mechanical properties :
#
#
# Convention : Reuss Voigt Hill
#
# Bulk Modulus (GPa) = 43.16258 74.73369 58.94814
# Shear Modulus (GPa) = -5.73685 19.98839 7.12577
#
# Velocity S-wave (km/s) = -1.70863 3.18933 1.90426
# Velocity P-wave (km/s) = 4.25116 7.18286 5.90194
#
# Compressibility (1/GPa) = 0.02316821
#
# Stress axis : x y z
#
# Youngs Moduli (GPa) = 60.27550 45.94131 118.97827
#
# Poissons Ratio (x) = 0.00332 0.72944
# Poissons Ratio (y) = 0.00435 0.66556
# Poissons Ratio (z) = 0.36954 0.25699
#
# Static dielectric constant tensor:
#      x y z
#    x 3.252540 0.000000 0.000000 
#    y 0.000000 3.428220 0.000000 
#    z 0.000000 0.000000 4.085850 
# 
# 
# High freq. dielectric constant tensor:
#      x y z
#    x 1.738460 0.000000 0.000000 
#    y 0.000000 1.751930 0.000000 
#    z 0.000000 0.000000 1.774290 
# 
# From -- ./inp_files/21893.got.cif
#   From: 2010.03.12/outbox.cif.g09.slc.cpg/sg55_11_cif.got.tgz:21893.got - 2010.04.16 15:19:21.
