data_PCOD8225592
_publ_section_title
;
Structure prediction by ZEFSAII (Michael W. Deem and Ramdas Pophale) SiO2 
 PCOD8225592
Probable space group: P B A M
;
_chemical_formula_sum "Si O2"
_cell_formula_units_Z 64
_cell_length_a 15.221408
_cell_length_b 24.925737
_cell_length_c 8.568285
_cell_angle_alpha 90.000000
_cell_angle_beta 90.000000
_cell_angle_gamma 90.000000
_cell_volume 3250.848565
_symmetry_space_group_name_H-M "P B A M"
_symmetry_group_IT_number 55
_symmetry_cell_setting 'orthorhombic'
loop_
_space_group_symop_operation_xyz
x,y,z
-x,-y,z
1/2+x,1/2-y,-z
1/2-x,1/2+y,-z
-x,-y,-z
x,y,-z
1/2-x,1/2+y,z
1/2+x,1/2-y,z
loop_
_atom_site_type_symbol
_atom_site_label
_atom_site_fract_x
_atom_site_fract_y
_atom_site_fract_z
Si Si1 0.114428 0.464516 0.680469
Si Si2 0.110249 0.684608 0.317665
Si Si3 0.050762 0.894690 0.317901
Si Si4 0.441913 0.072987 0.181350
Si Si5 0.010921 0.221078 0.316544
Si Si6 0.692559 0.321820 0.681231
Si Si7 0.125774 0.072243 0.817983
Si Si8 0.294718 0.459272 0.180657
O O1 0.092673 0.456317 0.500000
O O2 0.109445 0.527306 0.723408
O O3 0.210470 0.442229 0.718886
O O4 0.045024 0.429710 0.778931
O O5 0.092319 0.674280 0.500000
O O6 0.096713 0.630270 0.224485
O O7 0.042969 0.728687 0.245385
O O8 0.211384 0.704171 0.291540
O O9 0.073285 0.899103 0.500000
O O10 0.035298 0.833693 0.262080
O O11 0.129991 0.916726 0.216022
O O12 0.963293 0.928286 0.281805
O O13 0.426440 0.061922 0.000000
O O14 0.002843 0.226449 0.500000
O O15 0.114416 0.219395 0.266047
O O16 0.677293 0.336579 0.500000
O O17 0.686437 0.376804 0.778218
O O18 0.177214 0.018915 0.769488
O O19 0.101497 0.072214 0.000000
O O20 0.269811 0.457109 0.000000
#
# Coordination Sequence:
#
# PCOD8225592 Si02
#       8
#     8   8   8   8   8   8   8   8
#     4  11  22  38  59  83 111 146 188 226 272 332
#     4  10  19  35  59  83 108 144 192 236 278 334
#     4  10  20  35  54  78 110 147 190 235 279 328
#     4  11  22  38  58  82 115 146 177 226 286 334
#     4   8  17  35  54  78 110 142 186 239 284 324
#     4   9  18  33  55  80 106 141 183 234 285 330
#     4  10  20  33  52  77 108 146 184 227 280 335
#     4  11  22  35  52  80 116 150 184 224 281 341
#
# _framework density 19.687166999999999
#
# number of rings (size 3 to 8) (size 9 to 14) (size 15 to 20)
#    0.000    2.000    0.000    6.000    0.000    6.000 
#    2.250    3.125    0.000    0.000    0.000    0.000 
#    0.000    0.000    0.000    0.000    0.000    0.000 
#
# Total GULP energy -793655.774769 kJ/mol
# GULP energy per Si atom -12400.871481 kJ/mol
# Density = 1.964236 g / cm^3
# Si number density = 19.687167 Si / 1000 Ang^3
#
#
#
# Elastic Constant Matrix: (Units=GPa)
#
#
# Indices 1 2 3 4 5 6 
#
# 1 121.7752 45.3672 12.3377 0.0000 0.0000 0.0000
# 2 45.3672 56.6772 12.7353 0.0000 0.0000 0.0000
# 3 12.3377 12.7353 48.2472 0.0000 0.0000 0.0000
# 4 0.0000 0.0000 0.0000 16.4831 0.0000 0.0000
# 5 0.0000 0.0000 0.0000 0.0000 28.0213 0.0000
# 6 0.0000 0.0000 0.0000 0.0000 0.0000 25.5901
#
#
#
# Elastic Compliance Matrix: (Units=1/GPa)
#
#
# Indices 1 2 3 4 5 6 
#
# 1 0.011715 -0.009253 -0.000553 0.000000 0.000000 0.000000
# 2 -0.009253 0.026065 -0.004514 0.000000 0.000000 0.000000
# 3 -0.000553 -0.004514 0.022060 0.000000 0.000000 0.000000
# 4 0.000000 0.000000 0.000000 0.060668 0.000000 0.000000
# 5 0.000000 0.000000 0.000000 0.000000 0.035687 0.000000
# 6 0.000000 0.000000 0.000000 0.000000 0.000000 0.039078
#
#
# Mechanical properties :
#
#
# Convention : Reuss Voigt Hill
#
# Bulk Modulus (GPa) = 32.05244 40.84224 36.44734
# Shear Modulus (GPa) = 21.33905 24.43620 22.88763
#
# Velocity S-wave (km/s) = 3.29585 3.52692 3.41334
# Velocity P-wave (km/s) = 5.54975 6.11361 5.83849
#
# Compressibility (1/GPa) = 0.03119887
#
# Stress axis : x y z
#
# Youngs Moduli (GPa) = 85.35981 38.36623 45.33184
#
# Poissons Ratio (x) = 0.35500 0.02508
# Poissons Ratio (y) = 0.78984 0.20462
# Poissons Ratio (z) = 0.04723 0.17318
#
# Static dielectric constant tensor:
#      x y z
#    x 3.798580 0.000000 0.000000 
#    y 0.000000 3.506000 0.000000 
#    z 0.000000 0.000000 3.480520 
# 
# 
# High freq. dielectric constant tensor:
#      x y z
#    x 1.780330 0.000000 0.000000 
#    y 0.000000 1.745720 0.000000 
#    z 0.000000 0.000000 1.757550 
# 
# From -- ./inp_files/6679.got.cif
#   From: 2010.03.12/outbox.cif.g09.slc.cpg/sg55_4_cif.got.tgz:6679.got - 2010.04.16 15:19:21.
