data_PCOD8225605
_publ_section_title
;
Structure prediction by ZEFSAII (Michael W. Deem and Ramdas Pophale) SiO2 
 PCOD8225605
Probable space group: P B A M
;
_chemical_formula_sum "Si O2"
_cell_formula_units_Z 40
_cell_length_a 25.437840
_cell_length_b 8.935504
_cell_length_c 8.673944
_cell_angle_alpha 90.000000
_cell_angle_beta 90.000000
_cell_angle_gamma 90.000000
_cell_volume 1971.586787
_symmetry_space_group_name_H-M "P B A M"
_symmetry_group_IT_number 55
_symmetry_cell_setting 'orthorhombic'
loop_
_space_group_symop_operation_xyz
x,y,z
-x,-y,z
1/2+x,1/2-y,-z
1/2-x,1/2+y,-z
-x,-y,-z
x,y,-z
1/2-x,1/2+y,z
1/2+x,1/2-y,z
loop_
_atom_site_type_symbol
_atom_site_label
_atom_site_fract_x
_atom_site_fract_y
_atom_site_fract_z
Si Si1 0.906838 0.710933 0.177822
Si Si2 0.511442 0.825223 0.326928
Si Si3 0.383594 0.127169 0.179461
Si Si4 0.801980 0.875709 0.820900
Si Si5 0.709882 0.695277 0.320761
O O1 0.959339 0.760486 0.268699
O O2 0.886564 0.546784 0.226127
O O3 0.861952 0.830960 0.215705
O O4 0.922517 0.708431 0.000000
O O5 0.524000 0.773235 0.500000
O O6 0.561872 0.788635 0.220982
O O7 0.500000 0.000000 0.316486
O O8 0.337030 0.192704 0.281247
O O9 0.371013 0.150774 0.000000
O O10 0.764708 0.774470 0.716443
O O11 0.794961 0.048373 0.782272
O O12 0.788360 0.848218 0.000000
O O13 0.708191 0.652337 0.500000
#
# Coordination Sequence:
#
# PCOD8225605 Si02
#       5
#     8   8   8   8   8
#     4   9  19  35  58  85 112 147 191 234 276 332
#     4   9  17  30  52  83 117 150 185 229 281 334
#     4  10  19  35  59  85 115 152 193 234 279 337
#     4  11  23  41  62  84 113 151 193 234 284 346
#     4  12  25  40  59  86 117 148 188 239 292 340
#
# _framework density 20.288228
#
# number of rings (size 3 to 8) (size 9 to 14) (size 15 to 20)
#    0.000    1.800    0.000    4.800    0.000    6.400 
#    0.000    1.000    0.000    6.000    0.000    0.000 
#    0.000    0.000    0.000    0.000    0.000    0.000 
#
# Total GULP energy -496163.925812 kJ/mol
# GULP energy per Si atom -12404.098145 kJ/mol
# Density = 2.024205 g / cm^3
# Si number density = 20.288228 Si / 1000 Ang^3
#
#
#
# Elastic Constant Matrix: (Units=GPa)
#
#
# Indices 1 2 3 4 5 6 
#
# 1 46.6816 -12.8162 29.3465 0.0000 0.0000 0.0000
# 2 -12.8162 34.3754 6.4283 0.0000 0.0000 0.0000
# 3 29.3465 6.4283 71.1434 0.0000 0.0000 0.0000
# 4 0.0000 0.0000 0.0000 23.1438 0.0000 0.0000
# 5 0.0000 0.0000 0.0000 0.0000 36.4082 0.0000
# 6 0.0000 0.0000 0.0000 0.0000 0.0000 20.8000
#
#
#
# Elastic Compliance Matrix: (Units=1/GPa)
#
#
# Indices 1 2 3 4 5 6 
#
# 1 0.036368 0.016646 -0.016506 0.000000 0.000000 0.000000
# 2 0.016646 0.037209 -0.010228 0.000000 0.000000 0.000000
# 3 -0.016506 -0.010228 0.021789 0.000000 0.000000 0.000000
# 4 0.000000 0.000000 0.000000 0.043208 0.000000 0.000000
# 5 0.000000 0.000000 0.000000 0.000000 0.027466 0.000000
# 6 0.000000 0.000000 0.000000 0.000000 0.000000 0.048077
#
#
# Mechanical properties :
#
#
# Convention : Reuss Voigt Hill
#
# Bulk Modulus (GPa) = 13.29975 22.01306 17.65641
# Shear Modulus (GPa) = 19.27840 24.68655 21.98247
#
# Velocity S-wave (km/s) = 3.08592 3.49204 3.29524
# Velocity P-wave (km/s) = 4.38940 5.20892 4.81662
#
# Compressibility (1/GPa) = 0.07518937
#
# Stress axis : x y z
#
# Youngs Moduli (GPa) = 27.49661 26.87499 45.89488
#
# Poissons Ratio (x) = -0.44735 0.75753
# Poissons Ratio (y) = -0.45770 0.46943
# Poissons Ratio (z) = 0.45385 0.27489
#
# Static dielectric constant tensor:
#      x y z
#    x 3.886460 0.000000 0.000000 
#    y 0.000000 3.403930 0.000000 
#    z 0.000000 0.000000 3.736570 
# 
# 
# High freq. dielectric constant tensor:
#      x y z
#    x 1.808960 0.000000 0.000000 
#    y 0.000000 1.763910 0.000000 
#    z 0.000000 0.000000 1.797920 
# 
# From -- ./inp_files/2285.got.cif
#   From: 2010.03.12/outbox.cif.g09.slc.cpg/sg55_2_cif.got.tgz:2285.got - 2010.04.16 15:19:21.
