data_PCOD8225188
_publ_section_title
;
Structure prediction by ZEFSAII (Michael W. Deem and Ramdas Pophale) SiO2 
 PCOD8225188
Probable space group: P B A M
;
_chemical_formula_sum "Si O2"
_cell_formula_units_Z 48
_cell_length_a 16.547879
_cell_length_b 17.713361
_cell_length_c 9.310210
_cell_angle_alpha 90.000000
_cell_angle_beta 90.000000
_cell_angle_gamma 90.000000
_cell_volume 2728.995297
_symmetry_space_group_name_H-M "P B A M"
_symmetry_group_IT_number 55
_symmetry_cell_setting 'orthorhombic'
loop_
_space_group_symop_operation_xyz
x,y,z
-x,-y,z
1/2+x,1/2-y,-z
1/2-x,1/2+y,-z
-x,-y,-z
x,y,-z
1/2-x,1/2+y,z
1/2+x,1/2-y,z
loop_
_atom_site_type_symbol
_atom_site_label
_atom_site_fract_x
_atom_site_fract_y
_atom_site_fract_z
Si Si1 0.325851 0.831451 0.168095
Si Si2 0.813058 0.100284 0.663839
Si Si3 0.267724 0.056623 0.335386
Si Si4 0.909094 0.512286 0.832291
Si Si5 0.005627 0.917315 0.667915
Si Si6 0.141112 0.181174 0.669942
O O1 0.236740 0.847591 0.228271
O O2 0.383751 0.902111 0.203458
O O3 0.361371 0.759605 0.247688
O O4 0.319774 0.815379 0.000000
O O5 0.791308 0.122337 0.500000
O O6 0.906339 0.117378 0.697308
O O7 0.794576 0.012065 0.690336
O O8 0.295122 0.059881 0.500000
O O9 0.221551 0.133353 0.291386
O O10 0.348963 0.046946 0.243202
O O11 0.000000 0.500000 0.774820
O O12 0.903545 0.494944 0.000000
O O13 0.987852 0.926559 0.500000
O O14 0.937279 0.862571 0.730885
O O15 0.000000 0.000000 0.740617
O O16 0.135991 0.195864 0.500000
#
# Coordination Sequence:
#
# PCOD8225188 Si02
#       6
#     8   8   8   8   8   8
#     4  10  21  36  52  72 103 140 175 212 259 306
#     4   9  16  31  55  78 101 131 168 207 250 302
#     4   9  17  30  53  80 102 128 165 210 254 303
#     4   9  19  37  57  73  96 136 180 217 256 303
#     4   9  15  28  54  83 106 132 166 206 254 308
#     4  10  19  33  53  79 109 136 167 209 259 310
#
# _framework density 17.588891
#
# number of rings (size 3 to 8) (size 9 to 14) (size 15 to 20)
#    0.000    2.667    1.667    0.500    0.000    1.667 
#    3.000    0.833    0.000    1.000    0.000    0.000 
#    0.000    0.000    0.000    0.000    0.000    0.000 
#
# Total GULP energy -595179.967105 kJ/mol
# GULP energy per Si atom -12399.582648 kJ/mol
# Density = 1.754886 g / cm^3
# Si number density = 17.588891 Si / 1000 Ang^3
#
#
#
# Elastic Constant Matrix: (Units=GPa)
#
#
# Indices 1 2 3 4 5 6 
#
# 1 129.7735 55.7000 49.8174 0.0000 0.0000 0.0000
# 2 55.7000 95.4256 42.8705 0.0000 0.0000 0.0000
# 3 49.8174 42.8705 56.5847 0.0000 0.0000 0.0000
# 4 0.0000 0.0000 0.0000 22.5005 0.0000 0.0000
# 5 0.0000 0.0000 0.0000 0.0000 17.4545 0.0000
# 6 0.0000 0.0000 0.0000 0.0000 0.0000 21.4234
#
#
#
# Elastic Compliance Matrix: (Units=1/GPa)
#
#
# Indices 1 2 3 4 5 6 
#
# 1 0.012378 -0.003531 -0.008222 0.000000 0.000000 0.000000
# 2 -0.003531 0.016894 -0.009691 0.000000 0.000000 0.000000
# 3 -0.008222 -0.009691 0.032253 0.000000 0.000000 0.000000
# 4 0.000000 0.000000 0.000000 0.044443 0.000000 0.000000
# 5 0.000000 0.000000 0.000000 0.000000 0.057292 0.000000
# 6 0.000000 0.000000 0.000000 0.000000 0.000000 0.046678
#
#
# Mechanical properties :
#
#
# Convention : Reuss Voigt Hill
#
# Bulk Modulus (GPa) = 53.65575 64.28439 58.97007
# Shear Modulus (GPa) = 19.30216 21.16874 20.23545
#
# Velocity S-wave (km/s) = 3.31631 3.47296 3.39553
# Velocity P-wave (km/s) = 6.72574 7.26013 6.99804
#
# Compressibility (1/GPa) = 0.01863733
#
# Stress axis : x y z
#
# Youngs Moduli (GPa) = 80.79156 59.19238 31.00445
#
# Poissons Ratio (x) = 0.20901 0.25492
# Poissons Ratio (y) = 0.28527 0.30046
# Poissons Ratio (z) = 0.66427 0.57362
#
# Static dielectric constant tensor:
#      x y z
#    x 3.349050 0.000000 0.000000 
#    y 0.000000 3.183900 0.000000 
#    z 0.000000 0.000000 3.055430 
# 
# 
# High freq. dielectric constant tensor:
#      x y z
#    x 1.685260 0.000000 0.000000 
#    y 0.000000 1.670740 0.000000 
#    z 0.000000 0.000000 1.656640 
# 
# From -- ./inp_files/7536.got.cif
#   From: 2010.03.12/outbox.cif.g09.slc.cpg/sg55_4_cif.got.tgz:7536.got - 2010.04.16 15:19:21.
