data_PCOD8225306
_publ_section_title
;
Structure prediction by ZEFSAII (Michael W. Deem and Ramdas Pophale) SiO2 
 PCOD8225306
Probable space group: P B A M
;
_chemical_formula_sum "Si O2"
_cell_formula_units_Z 64
_cell_length_a 28.463862
_cell_length_b 12.627261
_cell_length_c 9.068947
_cell_angle_alpha 90.000000
_cell_angle_beta 90.000000
_cell_angle_gamma 90.000000
_cell_volume 3259.566504
_symmetry_space_group_name_H-M "P B A M"
_symmetry_group_IT_number 55
_symmetry_cell_setting 'orthorhombic'
loop_
_space_group_symop_operation_xyz
x,y,z
-x,-y,z
1/2+x,1/2-y,-z
1/2-x,1/2+y,-z
-x,-y,-z
x,y,-z
1/2-x,1/2+y,z
1/2+x,1/2-y,z
loop_
_atom_site_type_symbol
_atom_site_label
_atom_site_fract_x
_atom_site_fract_y
_atom_site_fract_z
Si Si1 0.702789 0.423166 0.828186
Si Si2 0.513965 0.883526 0.825188
Si Si3 0.194228 0.496412 0.829136
Si Si4 0.669057 0.212033 0.671322
Si Si5 0.449285 0.536208 0.168253
Si Si6 0.862548 0.106416 0.831679
Si Si7 0.436145 0.746280 0.329460
Si Si8 0.881462 0.335526 0.176043
O O1 0.757724 0.440737 0.804180
O O2 0.687892 0.317703 0.746015
O O3 0.674308 0.523745 0.759540
O O4 0.689649 0.409167 0.000000
O O5 0.477376 0.800938 0.760350
O O6 0.566036 0.857829 0.765424
O O7 0.500000 0.000000 0.770311
O O8 0.511515 0.874405 0.000000
O O9 0.195783 0.387960 0.739257
O O10 0.152483 0.571018 0.768814
O O11 0.186616 0.468046 0.000000
O O12 0.681105 0.219554 0.500000
O O13 0.613444 0.195789 0.698123
O O14 0.500000 0.500000 0.224423
O O15 0.415459 0.435776 0.181794
O O16 0.429716 0.627053 0.273336
O O17 0.451555 0.578094 0.000000
O O18 0.862399 0.223442 0.758339
O O19 0.846764 0.119549 0.000000
O O20 0.449910 0.745859 0.500000
O O21 0.881911 0.330025 0.000000
#
# Coordination Sequence:
#
# PCOD8225306 Si02
#       8
#     8   8   8   8   8   8   8   8
#     4  10  21  37  62  91 114 147 196 251 302 346
#     4  10  20  35  58  84 113 153 199 245 296 352
#     4  10  22  38  64  93 117 148 195 252 301 350
#     4  11  24  41  60  84 122 162 197 239 294 359
#     4  10  19  33  56  84 113 150 192 238 293 348
#     4   9  17  31  53  83 117 146 181 237 294 347
#     4  11  23  37  55  82 117 157 197 242 290 345
#     4   9  18  34  56  87 121 149 186 242 303 357
#
# _framework density 19.634512000000001
#
# number of rings (size 3 to 8) (size 9 to 14) (size 15 to 20)
#    0.000    2.000    1.250    2.250    1.750    5.500 
#    0.000    0.625    0.000    0.750    0.000    0.000 
#    0.000    0.000    0.000    0.000    0.000    0.000 
#
# Total GULP energy -793702.273208 kJ/mol
# GULP energy per Si atom -12401.598019 kJ/mol
# Density = 1.958982 g / cm^3
# Si number density = 19.634512 Si / 1000 Ang^3
#
#
#
# Elastic Constant Matrix: (Units=GPa)
#
#
# Indices 1 2 3 4 5 6 
#
# 1 104.1203 50.5636 36.6424 0.0000 0.0000 0.0000
# 2 50.5636 150.8135 39.8748 0.0000 0.0000 0.0000
# 3 36.6424 39.8748 43.9095 0.0000 0.0000 0.0000
# 4 0.0000 0.0000 0.0000 2.9056 0.0000 0.0000
# 5 0.0000 0.0000 0.0000 0.0000 13.6558 0.0000
# 6 0.0000 0.0000 0.0000 0.0000 0.0000 33.2831
#
#
#
# Elastic Compliance Matrix: (Units=1/GPa)
#
#
# Indices 1 2 3 4 5 6 
#
# 1 0.014098 -0.002127 -0.009833 0.000000 0.000000 0.000000
# 2 -0.002127 0.009047 -0.006441 0.000000 0.000000 0.000000
# 3 -0.009833 -0.006441 0.036829 0.000000 0.000000 0.000000
# 4 0.000000 0.000000 0.000000 0.344166 0.000000 0.000000
# 5 0.000000 0.000000 0.000000 0.000000 0.073229 0.000000
# 6 0.000000 0.000000 0.000000 0.000000 0.000000 0.030045
#
#
# Mechanical properties :
#
#
# Convention : Reuss Voigt Hill
#
# Bulk Modulus (GPa) = 43.15559 61.44499 52.30029
# Shear Modulus (GPa) = 9.05898 21.41972 15.23935
#
# Velocity S-wave (km/s) = 2.15031 3.30649 2.78897
# Velocity P-wave (km/s) = 5.30964 6.77787 6.08818
#
# Compressibility (1/GPa) = 0.02317197
#
# Stress axis : x y z
#
# Youngs Moduli (GPa) = 70.93421 110.53857 27.15268
#
# Poissons Ratio (x) = 0.23508 0.26700
# Poissons Ratio (y) = 0.15085 0.17488
# Poissons Ratio (z) = 0.69751 0.71194
#
# Static dielectric constant tensor:
#      x y z
#    x 3.731070 0.000000 0.000000 
#    y 0.000000 3.710310 0.000000 
#    z 0.000000 0.000000 3.232650 
# 
# 
# High freq. dielectric constant tensor:
#      x y z
#    x 1.777950 0.000000 0.000000 
#    y 0.000000 1.777770 0.000000 
#    z 0.000000 0.000000 1.723100 
# 
# From -- ./inp_files/4648.got.cif
#   From: 2010.03.12/outbox.cif.g09.slc.cpg/sg55_3_cif.got.tgz:4648.got - 2010.04.16 15:19:21.
