data_PCOD8225858
_publ_section_title
;
Structure prediction by ZEFSAII (Michael W. Deem and Ramdas Pophale) SiO2 
 PCOD8225858
Probable space group: P B A M
;
_chemical_formula_sum "Si O2"
_cell_formula_units_Z 48
_cell_length_a 9.522952
_cell_length_b 30.983441
_cell_length_c 9.244846
_cell_angle_alpha 90.000000
_cell_angle_beta 90.000000
_cell_angle_gamma 90.000000
_cell_volume 2727.727141
_symmetry_space_group_name_H-M "P B A M"
_symmetry_group_IT_number 55
_symmetry_cell_setting 'orthorhombic'
loop_
_space_group_symop_operation_xyz
x,y,z
-x,-y,z
1/2+x,1/2-y,-z
1/2-x,1/2+y,-z
-x,-y,-z
x,y,-z
1/2-x,1/2+y,z
1/2+x,1/2-y,z
loop_
_atom_site_type_symbol
_atom_site_label
_atom_site_fract_x
_atom_site_fract_y
_atom_site_fract_z
Si Si1 0.431953 0.123203 0.837003
Si Si2 0.114103 0.211619 0.668116
Si Si3 0.598756 0.369851 0.159390
Si Si4 0.560947 0.793224 0.330090
Si Si5 0.387585 0.535797 0.829905
Si Si6 0.601827 0.959820 0.333296
O O1 0.265766 0.127294 0.840287
O O2 0.494688 0.164894 0.755392
O O3 0.472004 0.080188 0.748804
O O4 0.493311 0.120642 0.000000
O O5 0.088347 0.206429 0.500000
O O6 0.047424 0.168350 0.736743
O O7 0.277349 0.217089 0.707123
O O8 0.031322 0.253211 0.726444
O O9 0.545246 0.417225 0.209209
O O10 0.541762 0.358813 0.000000
O O11 0.540300 0.801696 0.500000
O O12 0.500000 0.500000 0.786140
O O13 0.248565 0.526861 0.738512
O O14 0.348735 0.534387 0.000000
O O15 0.627757 0.946816 0.500000
O O16 0.500000 0.000000 0.319143
#
# Coordination Sequence:
#
# PCOD8225858 Si02
#       6
#     8   8   8   8   8   8
#     4   9  17  30  49  70  91 121 159 194 232 280
#     4   9  17  29  46  66  89 119 151 185 227 273
#     4   8  15  28  46  67  90 118 153 190 226 271
#     4   9  17  30  47  67  91 119 152 189 230 277
#     4   9  18  33  52  73  98 128 162 200 241 286
#     4  10  20  33  50  73  99 127 161 200 240 284
#
# _framework density 17.597068
#
# number of rings (size 3 to 8) (size 9 to 14) (size 15 to 20)
#    0.000    3.000    0.000    2.000    0.000    6.333 
#    0.000    1.667    0.000    6.000    0.000    0.000 
#    0.000    0.000    0.000    0.000    0.000    0.000 
#
# Total GULP energy -595058.127829 kJ/mol
# GULP energy per Si atom -12397.044330 kJ/mol
# Density = 1.755702 g / cm^3
# Si number density = 17.597068 Si / 1000 Ang^3
#
#
#
# Elastic Constant Matrix: (Units=GPa)
#
#
# Indices 1 2 3 4 5 6 
#
# 1 41.2786 46.5342 36.0569 0.0000 0.0000 0.0000
# 2 46.5342 159.9984 73.3641 0.0000 0.0000 0.0000
# 3 36.0569 73.3641 91.4872 0.0000 0.0000 0.0000
# 4 0.0000 0.0000 0.0000 35.5862 0.0000 0.0000
# 5 0.0000 0.0000 0.0000 0.0000 17.4349 0.0000
# 6 0.0000 0.0000 0.0000 0.0000 0.0000 28.4762
#
#
#
# Elastic Compliance Matrix: (Units=1/GPa)
#
#
# Indices 1 2 3 4 5 6 
#
# 1 0.041668 -0.007257 -0.010603 0.000000 0.000000 0.000000
# 2 -0.007257 0.011149 -0.006080 0.000000 0.000000 0.000000
# 3 -0.010603 -0.006080 0.019985 0.000000 0.000000 0.000000
# 4 0.000000 0.000000 0.000000 0.028101 0.000000 0.000000
# 5 0.000000 0.000000 0.000000 0.000000 0.057356 0.000000
# 6 0.000000 0.000000 0.000000 0.000000 0.000000 0.035117
#
#
# Mechanical properties :
#
#
# Convention : Reuss Voigt Hill
#
# Bulk Modulus (GPa) = 40.12521 67.18607 53.65564
# Shear Modulus (GPa) = 20.03504 25.42004 22.72754
#
# Velocity S-wave (km/s) = 3.37789 3.80486 3.59772
# Velocity P-wave (km/s) = 6.16971 7.58721 6.91488
#
# Compressibility (1/GPa) = 0.02492199
#
# Stress axis : x y z
#
# Youngs Moduli (GPa) = 23.99907 89.69751 50.03815
#
# Poissons Ratio (x) = 0.65095 0.53054
# Poissons Ratio (y) = 0.17417 0.30423
# Poissons Ratio (z) = 0.25446 0.54535
#
# Static dielectric constant tensor:
#      x y z
#    x 3.872100 0.000000 0.000000 
#    y 0.000000 3.672660 0.000000 
#    z 0.000000 0.000000 3.402030 
# 
# 
# High freq. dielectric constant tensor:
#      x y z
#    x 1.633730 0.000000 0.000000 
#    y 0.000000 1.697860 0.000000 
#    z 0.000000 0.000000 1.682810 
# 
# From -- ./inp_files/4047.got.cif
#   From: 2010.03.12/outbox.cif.g09.slc.cpg/sg55_3_cif.got.tgz:4047.got - 2010.04.16 15:19:21.
