data_PCOD8225240
_publ_section_title
;
Structure prediction by ZEFSAII (Michael W. Deem and Ramdas Pophale) SiO2 
 PCOD8225240
Probable space group: P B A M
;
_chemical_formula_sum "Si O2"
_cell_formula_units_Z 64
_cell_length_a 16.704088
_cell_length_b 21.652724
_cell_length_c 8.942670
_cell_angle_alpha 90.000000
_cell_angle_beta 90.000000
_cell_angle_gamma 90.000000
_cell_volume 3234.465433
_symmetry_space_group_name_H-M "P B A M"
_symmetry_group_IT_number 55
_symmetry_cell_setting 'orthorhombic'
loop_
_space_group_symop_operation_xyz
x,y,z
-x,-y,z
1/2+x,1/2-y,-z
1/2-x,1/2+y,-z
-x,-y,-z
x,y,-z
1/2-x,1/2+y,z
1/2+x,1/2-y,z
loop_
_atom_site_type_symbol
_atom_site_label
_atom_site_fract_x
_atom_site_fract_y
_atom_site_fract_z
Si Si1 0.194039 0.620083 0.321032
Si Si2 0.086757 0.810682 0.823491
Si Si3 0.677151 0.476899 0.678061
Si Si4 0.785744 0.111965 0.673677
Si Si5 0.118779 0.338997 0.325395
Si Si6 0.544630 0.828057 0.823137
Si Si7 0.045880 0.113988 0.666358
Si Si8 0.817952 0.785565 0.665103
O O1 0.185332 0.620530 0.500000
O O2 0.243948 0.560195 0.266146
O O3 0.108308 0.623369 0.243047
O O4 0.241949 0.680725 0.260778
O O5 0.173112 0.830219 0.757721
O O6 0.060743 0.742381 0.765534
O O7 0.025104 0.864084 0.773212
O O8 0.091703 0.810391 0.000000
O O9 0.677815 0.473870 0.500000
O O10 0.681351 0.546882 0.737651
O O11 0.593289 0.445900 0.732789
O O12 0.806497 0.119093 0.500000
O O13 0.689458 0.111194 0.697713
O O14 0.095485 0.331767 0.500000
O O15 0.153016 0.275683 0.250761
O O16 0.039523 0.355307 0.233996
O O17 0.547147 0.830696 0.000000
O O18 0.010852 0.099858 0.500000
O O19 0.109596 0.167711 0.653743
O O20 0.791525 0.763750 0.500000
#
# Coordination Sequence:
#
# PCOD8225240 Si02
#       8
#     8   8   8   8   8   8   8   8
#     4   9  17  33  58  81 104 136 176 223 268 317
#     4  11  23  36  51  79 116 146 176 217 269 324
#     4   8  17  35  58  84 109 136 180 230 270 309
#     4  10  21  37  58  82 107 140 181 225 270 319
#     4  10  19  33  55  79 103 135 178 222 268 322
#     4  11  23  36  51  78 113 142 174 220 271 322
#     4   9  16  31  56  79 106 141 175 218 264 314
#     4   8  14  27  50  78 100 126 170 216 260 309
#
# _framework density 19.786885000000002
#
# number of rings (size 3 to 8) (size 9 to 14) (size 15 to 20)
#    0.000    2.500    1.250    3.000    0.000    3.500 
#    0.000    7.500    0.000    3.750    0.000    0.000 
#    0.000    0.000    0.000    0.000    0.000    0.000 
#
# Total GULP energy -793150.499966 kJ/mol
# GULP energy per Si atom -12392.976562 kJ/mol
# Density = 1.974185 g / cm^3
# Si number density = 19.786885 Si / 1000 Ang^3
#
#
#
# Elastic Constant Matrix: (Units=GPa)
#
#
# Indices 1 2 3 4 5 6 
#
# 1 95.1514 3.4845 25.5489 0.0000 0.0000 0.0000
# 2 3.4845 43.9872 11.1127 0.0000 0.0000 0.0000
# 3 25.5489 11.1127 47.1189 0.0000 0.0000 0.0000
# 4 0.0000 0.0000 0.0000 14.0868 0.0000 0.0000
# 5 0.0000 0.0000 0.0000 0.0000 5.5338 0.0000
# 6 0.0000 0.0000 0.0000 0.0000 0.0000 18.4182
#
#
#
# Elastic Compliance Matrix: (Units=1/GPa)
#
#
# Indices 1 2 3 4 5 6 
#
# 1 0.012324 0.000757 -0.006861 0.000000 0.000000 0.000000
# 2 0.000757 0.024221 -0.006123 0.000000 0.000000 0.000000
# 3 -0.006861 -0.006123 0.026387 0.000000 0.000000 0.000000
# 4 0.000000 0.000000 0.000000 0.070988 0.000000 0.000000
# 5 0.000000 0.000000 0.000000 0.000000 0.180709 0.000000
# 6 0.000000 0.000000 0.000000 0.000000 0.000000 0.054294
#
#
# Mechanical properties :
#
#
# Convention : Reuss Voigt Hill
#
# Bulk Modulus (GPa) = 25.98852 29.61662 27.80257
# Shear Modulus (GPa) = 12.30912 17.34850 14.82881
#
# Velocity S-wave (km/s) = 2.49687 2.96424 2.74054
# Velocity P-wave (km/s) = 4.63413 5.16874 4.90872
#
# Compressibility (1/GPa) = 0.03847853
#
# Stress axis : x y z
#
# Youngs Moduli (GPa) = 81.14213 41.28686 37.89737
#
# Poissons Ratio (x) = -0.03126 0.26001
# Poissons Ratio (y) = -0.06143 0.23204
# Poissons Ratio (z) = 0.55671 0.25279
#
# Static dielectric constant tensor:
#      x y z
#    x 3.721090 0.000000 0.000000 
#    y 0.000000 3.720380 0.000000 
#    z 0.000000 0.000000 3.161580 
# 
# 
# High freq. dielectric constant tensor:
#      x y z
#    x 1.780270 0.000000 0.000000 
#    y 0.000000 1.760140 0.000000 
#    z 0.000000 0.000000 1.724220 
# 
# From -- ./inp_files/6502.got.cif
#   From: 2010.03.12/outbox.cif.g09.slc.cpg/sg55_4_cif.got.tgz:6502.got - 2010.04.16 15:19:21.
