data_PCOD8225905
_publ_section_title
;
Structure prediction by ZEFSAII (Michael W. Deem and Ramdas Pophale) SiO2 
 PCOD8225905
Probable space group: P B A M
;
_chemical_formula_sum "Si O2"
_cell_formula_units_Z 40
_cell_length_a 10.641670
_cell_length_b 13.381149
_cell_length_c 12.994393
_cell_angle_alpha 90.000000
_cell_angle_beta 90.000000
_cell_angle_gamma 90.000000
_cell_volume 1850.372610
_symmetry_space_group_name_H-M "P B A M"
_symmetry_group_IT_number 55
_symmetry_cell_setting 'orthorhombic'
loop_
_space_group_symop_operation_xyz
x,y,z
-x,-y,z
1/2+x,1/2-y,-z
1/2-x,1/2+y,-z
-x,-y,-z
x,y,-z
1/2-x,1/2+y,z
1/2+x,1/2-y,z
loop_
_atom_site_type_symbol
_atom_site_label
_atom_site_fract_x
_atom_site_fract_y
_atom_site_fract_z
Si Si1 0.861806 0.072424 0.615402
Si Si2 0.888023 0.422261 0.120069
Si Si3 0.614706 0.441213 0.197821
Si Si4 0.018510 0.757646 0.250773
Si Si5 0.426671 0.908746 0.387865
O O1 0.923943 0.075101 0.500000
O O2 0.889608 0.170273 0.684570
O O3 0.715486 0.062753 0.599877
O O4 0.895624 0.971650 0.680027
O O5 0.751999 0.468151 0.152736
O O6 0.904598 0.315705 0.175876
O O7 0.000000 0.500000 0.146513
O O8 0.885444 0.399591 0.000000
O O9 0.500000 0.500000 0.139578
O O10 0.582694 0.323768 0.187140
O O11 0.936511 0.693383 0.327756
O O12 0.489707 0.893425 0.500000
O O13 0.500000 0.000000 0.330772
#
# Coordination Sequence:
#
# PCOD8225905 Si02
#       5
#     8   8   8   8   8
#     4  10  21  37  59  90 127 166 205 246 301 371
#     4  11  25  45  68  92 122 164 213 267 324 375
#     4  10  23  41  64  94 128 164 205 258 312 371
#     4  11  21  37  61  88 122 160 204 256 308 370
#     4  10  20  33  53  82 118 160 203 249 301 362
#
# _framework density 21.617266999999998
#
# number of rings (size 3 to 8) (size 9 to 14) (size 15 to 20)
#    0.000    1.600    0.000    4.800    0.000    7.200 
#    0.000   12.000    0.000    0.000    0.000    0.000 
#    0.000    0.000    0.000    0.000    0.000    0.000 
#
# Total GULP energy -495647.399204 kJ/mol
# GULP energy per Si atom -12391.184980 kJ/mol
# Density = 2.156807 g / cm^3
# Si number density = 21.617267 Si / 1000 Ang^3
#
#
#
# Elastic Constant Matrix: (Units=GPa)
#
#
# Indices 1 2 3 4 5 6 
#
# 1 150.5302 51.4160 33.1410 0.0000 0.0000 0.0000
# 2 51.4160 139.4149 36.7016 0.0000 0.0000 0.0000
# 3 33.1410 36.7016 105.4860 0.0000 0.0000 0.0000
# 4 0.0000 0.0000 0.0000 -94.1174 0.0000 0.0000
# 5 0.0000 0.0000 0.0000 0.0000 23.4142 0.0000
# 6 0.0000 0.0000 0.0000 0.0000 0.0000 37.3646
#
#
#
# Elastic Compliance Matrix: (Units=1/GPa)
#
#
# Indices 1 2 3 4 5 6 
#
# 1 0.007840 -0.002469 -0.001604 0.000000 0.000000 0.000000
# 2 -0.002469 0.008674 -0.002242 0.000000 0.000000 0.000000
# 3 -0.001604 -0.002242 0.010764 0.000000 0.000000 0.000000
# 4 0.000000 0.000000 0.000000 -0.010625 0.000000 0.000000
# 5 0.000000 0.000000 0.000000 0.000000 0.042709 0.000000
# 6 0.000000 0.000000 0.000000 0.000000 0.000000 0.026763
#
#
# Mechanical properties :
#
#
# Convention : Reuss Voigt Hill
#
# Bulk Modulus (GPa) = 68.27306 70.88314 69.57810
# Shear Modulus (GPa) = 48.24526 11.61046 29.92786
#
# Velocity S-wave (km/s) = 4.72931 2.32004 3.72485
# Velocity P-wave (km/s) = 7.84048 6.32756 7.12429
#
# Compressibility (1/GPa) = 0.01464706
#
# Stress axis : x y z
#
# Youngs Moduli (GPa) = 127.55681 115.29186 92.90264
#
# Poissons Ratio (x) = 0.28465 0.14901
# Poissons Ratio (y) = 0.31494 0.20830
# Poissons Ratio (z) = 0.20460 0.25850
#
# Static dielectric constant tensor:
#      x y z
#    x 4.064170 0.000000 0.000000 
#    y 0.000000 3.847770 0.000000 
#    z 0.000000 0.000000 4.014210 
# 
# 
# High freq. dielectric constant tensor:
#      x y z
#    x 1.863950 0.000000 0.000000 
#    y 0.000000 1.845880 0.000000 
#    z 0.000000 0.000000 1.841600 
# 
# From -- ./inp_files/18144.got.cif
#   From: 2010.03.12/outbox.cif.g09.slc.cpg/sg55_10_cif.got.tgz:18144.got - 2010.04.16 15:19:21.
