data_PCOD8225001
_publ_section_title
;
Structure prediction by ZEFSAII (Michael W. Deem and Ramdas Pophale) SiO2 
 PCOD8225001
Probable space group: P B A M
;
_chemical_formula_sum "Si O2"
_cell_formula_units_Z 52
_cell_length_a 4.881046
_cell_length_b 31.691296
_cell_length_c 17.941818
_cell_angle_alpha 90.000000
_cell_angle_beta 90.000000
_cell_angle_gamma 90.000000
_cell_volume 2775.360144
_symmetry_space_group_name_H-M "P B A M"
_symmetry_group_IT_number 55
_symmetry_cell_setting 'orthorhombic'
loop_
_space_group_symop_operation_xyz
x,y,z
-x,-y,z
1/2+x,1/2-y,-z
1/2-x,1/2+y,-z
-x,-y,-z
x,y,-z
1/2-x,1/2+y,z
1/2+x,1/2-y,z
loop_
_atom_site_type_symbol
_atom_site_label
_atom_site_fract_x
_atom_site_fract_y
_atom_site_fract_z
Si Si1 0.778199 0.925694 0.344753
Si Si2 0.896906 0.863040 0.227622
Si Si3 0.772513 0.821846 0.000000
Si Si4 0.110838 0.404901 0.158100
Si Si5 0.725819 0.278174 0.842910
Si Si6 0.706395 0.037372 0.278868
Si Si7 0.774722 0.621170 0.000000
Si Si8 0.755869 0.967762 0.500000
O O1 0.890182 0.880359 0.313976
O O2 0.459587 0.924962 0.320011
O O3 0.778842 0.934651 0.432292
O O4 0.975911 0.962713 0.306520
O O5 0.701095 0.892417 0.176337
O O6 0.820356 0.814003 0.220056
O O7 0.200082 0.868621 0.194640
O O8 0.829839 0.795006 0.926123
O O9 0.458214 0.836519 0.000000
O O10 0.961901 0.863446 0.000000
O O11 0.194070 0.451159 0.191092
O O12 0.157070 0.407941 0.070370
O O13 0.532094 0.238034 0.830681
O O14 0.500000 0.000000 0.302097
O O15 0.500000 0.000000 0.500000
O O16 0.000000 0.000000 0.500000
#
# Coordination Sequence:
#
# PCOD8225001 Si02
#       8
#     8   8   4   8   8   8   4   4
#     4  10  21  34  55  76 107 140 168 197 251 317
#     4  10  20  37  50  71  98 139 176 205 247 318
#     4  12  22  33  50  70 107 129 168 217 283 324
#     4  10  19  32  51  68  94 134 178 213 251 307
#     4  12  22  34  50  75 103 132 171 220 269 312
#     4  10  19  33  51  74 101 135 173 211 250 298
#     4  12  18  33  51  68  94 137 174 213 262 308
#     4  12  22  34  56  90 120 136 160 206 260 304
#
# _framework density 18.736308000000001
#
# number of rings (size 3 to 8) (size 9 to 14) (size 15 to 20)
#    0.000    1.231    3.077    5.077    0.000    0.000 
#    0.000    0.385    0.000    0.000    0.000    8.615 
#    0.000    0.000    0.000    0.000    0.000    0.000 
#
# Total GULP energy -644235.269190 kJ/mol
# GULP energy per Si atom -12389.139792 kJ/mol
# Density = 1.869366 g / cm^3
# Si number density = 18.736308 Si / 1000 Ang^3
#
#
#
# Elastic Constant Matrix: (Units=GPa)
#
#
# Indices 1 2 3 4 5 6 
#
# 1 81.6556 -9.3031 12.8170 0.0000 0.0000 0.0000
# 2 -9.3031 28.6854 43.6407 0.0000 0.0000 0.0000
# 3 12.8170 43.6407 129.6869 0.0000 0.0000 0.0000
# 4 0.0000 0.0000 0.0000 24.5303 0.0000 0.0000
# 5 0.0000 0.0000 0.0000 0.0000 18.3846 0.0000
# 6 0.0000 0.0000 0.0000 0.0000 0.0000 19.6417
#
#
#
# Elastic Compliance Matrix: (Units=1/GPa)
#
#
# Indices 1 2 3 4 5 6 
#
# 1 0.014893 0.014485 -0.006346 0.000000 0.000000 0.000000
# 2 0.014485 0.085516 -0.030208 0.000000 0.000000 0.000000
# 3 -0.006346 -0.030208 0.018503 0.000000 0.000000 0.000000
# 4 0.000000 0.000000 0.000000 0.040766 0.000000 0.000000
# 5 0.000000 0.000000 0.000000 0.000000 0.054393 0.000000
# 6 0.000000 0.000000 0.000000 0.000000 0.000000 0.050912
#
#
# Mechanical properties :
#
#
# Convention : Reuss Voigt Hill
#
# Bulk Modulus (GPa) = 13.37386 37.14857 25.26121
# Shear Modulus (GPa) = 14.96792 25.36955 20.16874
#
# Velocity S-wave (km/s) = 2.82950 3.68371 3.28449
# Velocity P-wave (km/s) = 4.22234 6.16142 5.28163
#
# Compressibility (1/GPa) = 0.07477275
#
# Stress axis : x y z
#
# Youngs Moduli (GPa) = 67.14609 11.69370 54.04406
#
# Poissons Ratio (x) = -0.16938 0.34297
# Poissons Ratio (y) = -0.97258 1.63258
# Poissons Ratio (z) = 0.42611 0.35325
#
# Static dielectric constant tensor:
#      x y z
#    x 3.737930 0.000000 0.000000 
#    y 0.000000 3.302010 0.000000 
#    z 0.000000 0.000000 3.738030 
# 
# 
# High freq. dielectric constant tensor:
#      x y z
#    x 1.760720 0.000000 0.000000 
#    y 0.000000 1.694190 0.000000 
#    z 0.000000 0.000000 1.698390 
# 
# From -- ./inp_files/20537.got.cif
#   From: 2010.03.12/outbox.cif.g09.slc.cpg/sg55_11_cif.got.tgz:20537.got - 2010.04.16 15:19:21.
