data_PCOD8225407
_publ_section_title
;
Structure prediction by ZEFSAII (Michael W. Deem and Ramdas Pophale) SiO2 
 PCOD8225407
Probable space group: P B A M
;
_chemical_formula_sum "Si O2"
_cell_formula_units_Z 48
_cell_length_a 16.497172
_cell_length_b 17.803490
_cell_length_c 9.178226
_cell_angle_alpha 90.000000
_cell_angle_beta 90.000000
_cell_angle_gamma 90.000000
_cell_volume 2695.711397
_symmetry_space_group_name_H-M "P B A M"
_symmetry_group_IT_number 55
_symmetry_cell_setting 'orthorhombic'
loop_
_space_group_symop_operation_xyz
x,y,z
-x,-y,z
1/2+x,1/2-y,-z
1/2-x,1/2+y,-z
-x,-y,-z
x,y,-z
1/2-x,1/2+y,z
1/2+x,1/2-y,z
loop_
_atom_site_type_symbol
_atom_site_label
_atom_site_fract_x
_atom_site_fract_y
_atom_site_fract_z
Si Si1 0.356174 0.823802 0.330310
Si Si2 0.908094 0.983857 0.828801
Si Si3 0.668298 0.328122 0.165165
Si Si4 0.738918 0.546345 0.671867
Si Si5 0.986657 0.412929 0.330145
Si Si6 0.327957 0.085872 0.831632
O O1 0.364311 0.810878 0.500000
O O2 0.353627 0.742678 0.260451
O O3 0.275228 0.871349 0.294276
O O4 0.434941 0.868257 0.273885
O O5 0.885904 0.898942 0.783631
O O6 0.850382 0.041535 0.742090
O O7 0.892719 0.996410 0.000000
O O8 0.000000 0.000000 0.783341
O O9 0.762780 0.347639 0.183481
O O10 0.647121 0.307738 0.000000
O O11 0.734514 0.530699 0.500000
O O12 0.799412 0.486331 0.741888
O O13 0.969036 0.398924 0.500000
O O14 0.000000 0.500000 0.297184
O O15 0.911025 0.383142 0.236244
O O16 0.339179 0.062758 0.000000
#
# Coordination Sequence:
#
# PCOD8225407 Si02
#       6
#     8   8   8   8   8   8
#     4  10  21  36  54  79 111 145 179 220 273 324
#     4   9  19  38  60  81 107 141 183 229 275 322
#     4   9  20  37  55  77 108 142 178 222 271 321
#     4  10  19  34  56  80 107 140 179 222 267 320
#     4  10  19  35  56  80 112 144 177 221 270 317
#     4  10  20  35  55  81 107 140 183 218 263 323
#
# _framework density 17.806059999999999
#
# number of rings (size 3 to 8) (size 9 to 14) (size 15 to 20)
#    0.000    2.333    1.667    2.000    0.000    6.000 
#    3.000    0.000    0.000    0.000    0.000    0.000 
#    0.000    0.000    0.000    0.000    0.000    0.000 
#
# Total GULP energy -595255.545922 kJ/mol
# GULP energy per Si atom -12401.157207 kJ/mol
# Density = 1.776553 g / cm^3
# Si number density = 17.806060 Si / 1000 Ang^3
#
#
#
# Elastic Constant Matrix: (Units=GPa)
#
#
# Indices 1 2 3 4 5 6 
#
# 1 154.1836 65.7488 62.5971 0.0000 0.0000 0.0000
# 2 65.7488 100.3793 41.1624 0.0000 0.0000 0.0000
# 3 62.5971 41.1624 65.6428 0.0000 0.0000 0.0000
# 4 0.0000 0.0000 0.0000 27.6159 0.0000 0.0000
# 5 0.0000 0.0000 0.0000 0.0000 34.7728 0.0000
# 6 0.0000 0.0000 0.0000 0.0000 0.0000 20.2830
#
#
#
# Elastic Compliance Matrix: (Units=1/GPa)
#
#
# Indices 1 2 3 4 5 6 
#
# 1 0.011754 -0.004177 -0.008590 0.000000 0.000000 0.000000
# 2 -0.004177 0.014895 -0.005357 0.000000 0.000000 0.000000
# 3 -0.008590 -0.005357 0.026785 0.000000 0.000000 0.000000
# 4 0.000000 0.000000 0.000000 0.036211 0.000000 0.000000
# 5 0.000000 0.000000 0.000000 0.000000 0.028758 0.000000
# 6 0.000000 0.000000 0.000000 0.000000 0.000000 0.049302
#
#
# Mechanical properties :
#
#
# Convention : Reuss Voigt Hill
#
# Bulk Modulus (GPa) = 58.18594 73.24691 65.71643
# Shear Modulus (GPa) = 23.84577 26.58083 25.21330
#
# Velocity S-wave (km/s) = 3.66347 3.86786 3.76705
# Velocity P-wave (km/s) = 7.11641 7.82128 7.47715
#
# Compressibility (1/GPa) = 0.01718628
#
# Stress axis : x y z
#
# Youngs Moduli (GPa) = 85.07586 67.13789 37.33502
#
# Poissons Ratio (x) = 0.28041 0.32070
# Poissons Ratio (y) = 0.35533 0.20001
# Poissons Ratio (z) = 0.73079 0.35967
#
# Static dielectric constant tensor:
#      x y z
#    x 3.527990 0.000000 0.000000 
#    y 0.000000 3.099120 0.000000 
#    z 0.000000 0.000000 3.285960 
# 
# 
# High freq. dielectric constant tensor:
#      x y z
#    x 1.696570 0.000000 0.000000 
#    y 0.000000 1.671820 0.000000 
#    z 0.000000 0.000000 1.691130 
# 
# From -- ./inp_files/5633.got.cif
#   From: 2010.03.12/outbox.cif.g09.slc.cpg/sg55_3_cif.got.tgz:5633.got - 2010.04.16 15:19:21.
