data_PCOD8225981
_publ_section_title
;
Structure prediction by ZEFSAII (Michael W. Deem and Ramdas Pophale) SiO2 
 PCOD8225981
Probable space group: P B A M
;
_chemical_formula_sum "Si O2"
_cell_formula_units_Z 64
_cell_length_a 10.996995
_cell_length_b 32.729464
_cell_length_c 9.444455
_cell_angle_alpha 90.000000
_cell_angle_beta 90.000000
_cell_angle_gamma 90.000000
_cell_volume 3399.302568
_symmetry_space_group_name_H-M "P B A M"
_symmetry_group_IT_number 55
_symmetry_cell_setting 'orthorhombic'
loop_
_space_group_symop_operation_xyz
x,y,z
-x,-y,z
1/2+x,1/2-y,-z
1/2-x,1/2+y,-z
-x,-y,-z
x,y,-z
1/2-x,1/2+y,z
1/2+x,1/2-y,z
loop_
_atom_site_type_symbol
_atom_site_label
_atom_site_fract_x
_atom_site_fract_y
_atom_site_fract_z
Si Si1 0.279853 0.772111 0.163960
Si Si2 0.606722 0.873820 0.839393
Si Si3 0.241301 0.864434 0.840703
Si Si4 0.920991 0.584460 0.337243
Si Si5 0.556872 0.782522 0.830783
Si Si6 0.705070 0.436253 0.838650
Si Si7 0.430561 0.435262 0.161303
Si Si8 0.248044 0.488821 0.335684
O O1 0.224919 0.816852 0.190888
O O2 0.173123 0.743156 0.230590
O O3 0.420626 0.768300 0.224376
O O4 0.289585 0.761217 0.000000
O O5 0.543044 0.909648 0.750262
O O6 0.583199 0.828731 0.777305
O O7 0.745840 0.889447 0.828797
O O8 0.558852 0.874727 0.000000
O O9 0.329596 0.881979 0.723284
O O10 0.114440 0.888410 0.826877
O O11 0.295400 0.870202 0.000000
O O12 0.944384 0.594636 0.500000
O O13 0.872605 0.538532 0.316774
O O14 0.556758 0.780397 0.000000
O O15 0.567597 0.434988 0.785608
O O16 0.777147 0.467856 0.738084
O O17 0.716089 0.451931 0.000000
O O18 0.360347 0.466259 0.261789
O O19 0.417479 0.451016 0.000000
O O20 0.279158 0.495162 0.500000
#
# Coordination Sequence:
#
# PCOD8225981 Si02
#       8
#     8   8   8   8   8   8   8   8
#     4   9  16  27  48  78 107 133 165 209 257 304
#     4  10  20  35  53  73 103 139 173 211 259 313
#     4   9  16  30  53  77 101 134 171 204 249 307
#     4  10  20  34  53  75  99 131 174 218 257 300
#     4   9  17  29  48  77 108 134 166 211 258 307
#     4  10  21  34  49  73 104 137 171 213 263 310
#     4   9  18  32  51  75 104 136 171 211 255 310
#     4  10  21  35  52  75 101 133 174 220 264 307
#
# _framework density 18.827392
#
# number of rings (size 3 to 8) (size 9 to 14) (size 15 to 20)
#    0.000    2.500    1.250    1.125    0.000    5.500 
#    0.000    7.500    0.000    0.750    0.000    0.000 
#    0.000    0.000    0.000    0.000    0.000    0.000 
#
# Total GULP energy -792918.159602 kJ/mol
# GULP energy per Si atom -12389.346244 kJ/mol
# Density = 1.878454 g / cm^3
# Si number density = 18.827392 Si / 1000 Ang^3
#
#
#
# Elastic Constant Matrix: (Units=GPa)
#
#
# Indices 1 2 3 4 5 6 
#
# 1 90.6160 62.6046 21.6226 0.0000 0.0000 0.0000
# 2 62.6046 104.3033 26.4151 0.0000 0.0000 0.0000
# 3 21.6226 26.4151 50.7709 0.0000 0.0000 0.0000
# 4 0.0000 0.0000 0.0000 9.5141 0.0000 0.0000
# 5 0.0000 0.0000 0.0000 0.0000 -4.4881 0.0000
# 6 0.0000 0.0000 0.0000 0.0000 0.0000 25.6341
#
#
#
# Elastic Compliance Matrix: (Units=1/GPa)
#
#
# Indices 1 2 3 4 5 6 
#
# 1 0.019126 -0.010846 -0.002503 0.000000 0.000000 0.000000
# 2 -0.010846 0.017193 -0.004326 0.000000 0.000000 0.000000
# 3 -0.002503 -0.004326 0.023013 0.000000 0.000000 0.000000
# 4 0.000000 0.000000 0.000000 0.105108 0.000000 0.000000
# 5 0.000000 0.000000 0.000000 0.000000 -0.222813 0.000000
# 6 0.000000 0.000000 0.000000 0.000000 0.000000 0.039011
#
#
# Mechanical properties :
#
#
# Convention : Reuss Voigt Hill
#
# Bulk Modulus (GPa) = 41.69663 51.88610 46.79137
# Shear Modulus (GPa) = 208.50661 15.13521 111.82091
#
# Velocity S-wave (km/s) = 10.53503 2.83838 7.71502
# Velocity P-wave (km/s) = 13.04520 6.19359 10.21121
#
# Compressibility (1/GPa) = 0.02398275
#
# Stress axis : x y z
#
# Youngs Moduli (GPa) = 52.28491 58.16346 43.45399
#
# Poissons Ratio (x) = 0.63084 0.10875
# Poissons Ratio (y) = 0.56708 0.18798
# Poissons Ratio (z) = 0.13084 0.25161
#
# Static dielectric constant tensor:
#      x y z
#    x 3.695100 0.000000 0.000000 
#    y 0.000000 3.516810 0.000000 
#    z 0.000000 0.000000 3.229520 
# 
# 
# High freq. dielectric constant tensor:
#      x y z
#    x 1.735330 0.000000 0.000000 
#    y 0.000000 1.729630 0.000000 
#    z 0.000000 0.000000 1.692480 
# 
# From -- ./inp_files/4548.got.cif
#   From: 2010.03.12/outbox.cif.g09.slc.cpg/sg55_3_cif.got.tgz:4548.got - 2010.04.16 15:19:21.
