data_PCOD8225178
_publ_section_title
;
Structure prediction by ZEFSAII (Michael W. Deem and Ramdas Pophale) SiO2 
 PCOD8225178
Probable space group: P B A M
;
_chemical_formula_sum "Si O2"
_cell_formula_units_Z 48
_cell_length_a 30.277705
_cell_length_b 9.526350
_cell_length_c 9.120657
_cell_angle_alpha 90.000000
_cell_angle_beta 90.000000
_cell_angle_gamma 90.000000
_cell_volume 2630.725960
_symmetry_space_group_name_H-M "P B A M"
_symmetry_group_IT_number 55
_symmetry_cell_setting 'orthorhombic'
loop_
_space_group_symop_operation_xyz
x,y,z
-x,-y,z
1/2+x,1/2-y,-z
1/2-x,1/2+y,-z
-x,-y,-z
x,y,-z
1/2-x,1/2+y,z
1/2+x,1/2-y,z
loop_
_atom_site_type_symbol
_atom_site_label
_atom_site_fract_x
_atom_site_fract_y
_atom_site_fract_z
Si Si1 0.035923 0.604995 0.672306
Si Si2 0.211708 0.407601 0.326706
Si Si3 0.863947 0.097095 0.829428
Si Si4 0.705217 0.411747 0.674946
Si Si5 0.535105 0.615745 0.832906
Si Si6 0.364666 0.112150 0.673315
O O1 0.031141 0.606192 0.500000
O O2 0.023639 0.757019 0.728487
O O3 0.085917 0.563854 0.717841
O O4 0.000000 0.500000 0.742587
O O5 0.213221 0.404843 0.500000
O O6 0.212250 0.247908 0.268166
O O7 0.253999 0.493527 0.268925
O O8 0.167581 0.487861 0.273827
O O9 0.915370 0.060803 0.806447
O O10 0.851327 0.245254 0.755655
O O11 0.838604 0.971229 0.749795
O O12 0.851095 0.104176 0.000000
O O13 0.699891 0.416501 0.500000
O O14 0.500000 0.500000 0.787789
O O15 0.529106 0.664675 0.000000
O O16 0.360286 0.141463 0.500000
#
# Coordination Sequence:
#
# PCOD8225178 Si02
#       6
#     8   8   8   8   8   8
#     4   9  18  31  49  76 106 131 159 202 251 292
#     4   9  18  32  53  77  98 127 167 203 236 288
#     4  10  20  34  51  73 100 129 164 205 248 291
#     4  10  19  33  53  75  98 127 164 202 242 289
#     4   9  19  35  52  70  96 132 170 204 240 289
#     4   9  17  33  54  74 100 133 166 201 243 291
#
# _framework density 18.245913999999999
#
# number of rings (size 3 to 8) (size 9 to 14) (size 15 to 20)
#    0.000    2.667    0.000    1.500    0.000    5.333 
#    0.000    5.833    0.000    0.000    0.000    0.000 
#    0.000    0.000    0.000    0.000    0.000    0.000 
#
# Total GULP energy -595168.114900 kJ/mol
# GULP energy per Si atom -12399.335727 kJ/mol
# Density = 1.820439 g / cm^3
# Si number density = 18.245914 Si / 1000 Ang^3
#
#
#
# Elastic Constant Matrix: (Units=GPa)
#
#
# Indices 1 2 3 4 5 6 
#
# 1 116.2079 84.9421 22.1548 0.0000 0.0000 0.0000
# 2 84.9421 140.6522 23.2244 0.0000 0.0000 0.0000
# 3 22.1548 23.2244 16.1443 0.0000 0.0000 0.0000
# 4 0.0000 0.0000 0.0000 76.7416 0.0000 0.0000
# 5 0.0000 0.0000 0.0000 0.0000 20.8767 0.0000
# 6 0.0000 0.0000 0.0000 0.0000 0.0000 41.6445
#
#
#
# Elastic Compliance Matrix: (Units=1/GPa)
#
#
# Indices 1 2 3 4 5 6 
#
# 1 0.016795 -0.008311 -0.011091 0.000000 0.000000 0.000000
# 2 -0.008311 0.013438 -0.007925 0.000000 0.000000 0.000000
# 3 -0.011091 -0.007925 0.088563 0.000000 0.000000 0.000000
# 4 0.000000 0.000000 0.000000 0.013031 0.000000 0.000000
# 5 0.000000 0.000000 0.000000 0.000000 0.047900 0.000000
# 6 0.000000 0.000000 0.000000 0.000000 0.000000 0.024013
#
#
# Mechanical properties :
#
#
# Convention : Reuss Voigt Hill
#
# Bulk Modulus (GPa) = 15.59098 59.29411 37.44254
# Shear Modulus (GPa) = 17.87151 37.36478 27.61815
#
# Velocity S-wave (km/s) = 3.13306 4.53022 3.89480
# Velocity P-wave (km/s) = 4.65312 7.74155 6.38683
#
# Compressibility (1/GPa) = 0.06413964
#
# Stress axis : x y z
#
# Youngs Moduli (GPa) = 59.54160 74.41761 11.29142
#
# Poissons Ratio (x) = 0.61851 0.12524
# Poissons Ratio (y) = 0.49487 0.08949
# Poissons Ratio (z) = 0.66040 0.58977
#
# Static dielectric constant tensor:
#      x y z
#    x 3.601360 0.000000 0.000000 
#    y 0.000000 3.460840 0.000000 
#    z 0.000000 0.000000 3.135750 
# 
# 
# High freq. dielectric constant tensor:
#      x y z
#    x 1.719670 0.000000 0.000000 
#    y 0.000000 1.706020 0.000000 
#    z 0.000000 0.000000 1.683190 
# 
# From -- ./inp_files/2805.got.cif
#   From: 2010.03.12/outbox.cif.g09.slc.cpg/sg55_2_cif.got.tgz:2805.got - 2010.04.16 15:19:21.
