data_PCOD8225763
_publ_section_title
;
Structure prediction by ZEFSAII (Michael W. Deem and Ramdas Pophale) SiO2 
 PCOD8225763
Probable space group: P B A M
;
_chemical_formula_sum "Si O2"
_cell_formula_units_Z 52
_cell_length_a 15.524088
_cell_length_b 5.250274
_cell_length_c 29.957905
_cell_angle_alpha 90.000000
_cell_angle_beta 90.000000
_cell_angle_gamma 90.000000
_cell_volume 2441.740485
_symmetry_space_group_name_H-M "P B A M"
_symmetry_group_IT_number 55
_symmetry_cell_setting 'orthorhombic'
loop_
_space_group_symop_operation_xyz
x,y,z
-x,-y,z
1/2+x,1/2-y,-z
1/2-x,1/2+y,-z
-x,-y,-z
x,y,-z
1/2-x,1/2+y,z
1/2+x,1/2-y,z
loop_
_atom_site_type_symbol
_atom_site_label
_atom_site_fract_x
_atom_site_fract_y
_atom_site_fract_z
Si Si1 0.838956 0.274921 0.369386
Si Si2 0.647714 0.269981 0.407048
Si Si3 0.399167 0.024102 0.184385
Si Si4 0.059215 0.246142 0.500000
Si Si5 0.693966 0.447037 0.950227
Si Si6 0.100842 0.021643 0.861807
Si Si7 0.199537 0.679125 0.733759
O O1 0.749929 0.248942 0.397254
O O2 0.890541 0.014474 0.380228
O O3 0.824984 0.330132 0.317731
O O4 0.894783 0.512174 0.387354
O O5 0.624648 0.274381 0.458801
O O6 0.358952 0.756020 0.167260
O O7 0.380838 0.092705 0.235985
O O8 0.500000 0.000000 0.177444
O O9 0.358464 0.254180 0.154836
O O10 0.000000 0.500000 0.500000
O O11 0.000000 0.000000 0.500000
O O12 0.756184 0.209336 0.943013
O O13 0.618122 0.432929 0.914075
O O14 0.653200 0.437581 0.000000
O O15 0.000000 0.000000 0.853799
O O16 0.227272 0.968168 0.744569
#
# Coordination Sequence:
#
# PCOD8225763 Si02
#       7
#     8   8   8   4   8   8   8
#     4  10  19  37  63  88 109 143 190 248 284 335
#     4  10  20  38  62  84 118 146 188 236 286 330
#     4  10  23  39  56  84 122 159 192 246 305 358
#     4  12  26  42  58  88 126 160 194 232 282 358
#     4  10  21  36  57  85 119 150 193 252 307 359
#     4  10  21  39  58  80 116 159 204 240 291 365
#     4  12  21  37  62  92 119 147 202 253 292 349
#
# _framework density 21.296284
#
# number of rings (size 3 to 8) (size 9 to 14) (size 15 to 20)
#    0.000    1.538    3.077    2.769    0.000    6.462 
#    0.000    2.308    0.000    5.538    0.000    0.000 
#    0.000    0.000    0.000    0.000    0.000    0.000 
#
# Total GULP energy -644366.609634 kJ/mol
# GULP energy per Si atom -12391.665570 kJ/mol
# Density = 2.124781 g / cm^3
# Si number density = 21.296284 Si / 1000 Ang^3
#
#
#
# Elastic Constant Matrix: (Units=GPa)
#
#
# Indices 1 2 3 4 5 6 
#
# 1 13.2403 12.7978 33.7155 0.0000 0.0000 0.0000
# 2 12.7978 194.5566 27.5035 0.0000 0.0000 0.0000
# 3 33.7155 27.5035 133.3052 0.0000 0.0000 0.0000
# 4 0.0000 0.0000 0.0000 38.0318 0.0000 0.0000
# 5 0.0000 0.0000 0.0000 0.0000 17.0592 0.0000
# 6 0.0000 0.0000 0.0000 0.0000 0.0000 13.1024
#
#
#
# Elastic Compliance Matrix: (Units=1/GPa)
#
#
# Indices 1 2 3 4 5 6 
#
# 1 0.220637 -0.006824 -0.054396 0.000000 0.000000 0.000000
# 2 -0.006824 0.005505 0.000590 0.000000 0.000000 0.000000
# 3 -0.054396 0.000590 0.021138 0.000000 0.000000 0.000000
# 4 0.000000 0.000000 0.000000 0.026294 0.000000 0.000000
# 5 0.000000 0.000000 0.000000 0.000000 0.058619 0.000000
# 6 0.000000 0.000000 0.000000 0.000000 0.000000 0.076322
#
#
# Mechanical properties :
#
#
# Convention : Reuss Voigt Hill
#
# Bulk Modulus (GPa) = 7.93518 54.34844 31.14181
# Shear Modulus (GPa) = 8.74461 31.44435 20.09448
#
# Velocity S-wave (km/s) = 2.02857 3.84672 3.07509
# Velocity P-wave (km/s) = 3.03660 6.73091 5.22141
#
# Compressibility (1/GPa) = 0.12602108
#
# Stress axis : x y z
#
# Youngs Moduli (GPa) = 4.53234 181.64155 47.30913
#
# Poissons Ratio (x) = 1.23947 2.57341
# Poissons Ratio (y) = 0.03093 -0.02791
# Poissons Ratio (z) = 0.24654 -0.10717
#
# Static dielectric constant tensor:
#      x y z
#    x 3.287550 0.000000 0.000000 
#    y 0.000000 5.303500 0.000000 
#    z 0.000000 0.000000 3.901850 
# 
# 
# High freq. dielectric constant tensor:
#      x y z
#    x 1.783470 0.000000 0.000000 
#    y 0.000000 1.878230 0.000000 
#    z 0.000000 0.000000 1.843260 
# 
# From -- ./inp_files/23999.got.cif
#   From: 2010.03.12/outbox.cif.g09.slc.cpg/sg55_12_cif.got.tgz:23999.got - 2010.04.16 15:19:21.
