data_PCOD8225487
_publ_section_title
;
Structure prediction by ZEFSAII (Michael W. Deem and Ramdas Pophale) SiO2 
 PCOD8225487
Probable space group: P B A M
;
_chemical_formula_sum "Si O2"
_cell_formula_units_Z 64
_cell_length_a 18.572546
_cell_length_b 19.861308
_cell_length_c 8.712295
_cell_angle_alpha 90.000000
_cell_angle_beta 90.000000
_cell_angle_gamma 90.000000
_cell_volume 3213.748310
_symmetry_space_group_name_H-M "P B A M"
_symmetry_group_IT_number 55
_symmetry_cell_setting 'orthorhombic'
loop_
_space_group_symop_operation_xyz
x,y,z
-x,-y,z
1/2+x,1/2-y,-z
1/2-x,1/2+y,-z
-x,-y,-z
x,y,-z
1/2-x,1/2+y,z
1/2+x,1/2-y,z
loop_
_atom_site_type_symbol
_atom_site_label
_atom_site_fract_x
_atom_site_fract_y
_atom_site_fract_z
Si Si1 0.332017 0.371350 0.682613
Si Si2 0.444420 0.944495 0.317098
Si Si3 0.286078 0.976233 0.682235
Si Si4 0.604852 0.325791 0.320509
Si Si5 0.515300 0.574402 0.683091
Si Si6 0.257856 0.127351 0.317587
Si Si7 0.988452 0.702344 0.320059
Si Si8 0.638669 0.767208 0.180755
O O1 0.330270 0.366127 0.500000
O O2 0.269174 0.420226 0.744862
O O3 0.407448 0.400982 0.743291
O O4 0.319905 0.297247 0.750648
O O5 0.442977 0.945181 0.500000
O O6 0.365372 0.960707 0.251021
O O7 0.469867 0.871656 0.257701
O O8 0.500000 0.000000 0.253509
O O9 0.287799 0.973320 0.500000
O O10 0.260546 0.049840 0.736089
O O11 0.608886 0.340628 0.500000
O O12 0.546203 0.376762 0.248965
O O13 0.683926 0.340156 0.252294
O O14 0.580983 0.249222 0.286945
O O15 0.500000 0.500000 0.746509
O O16 0.515100 0.575393 0.500000
O O17 0.264698 0.133790 0.500000
O O18 0.324940 0.165180 0.243090
O O19 0.007467 0.702104 0.500000
O O20 0.055837 0.733346 0.231681
O O21 0.643957 0.764938 0.000000
#
# Coordination Sequence:
#
# PCOD8225487 Si02
#       8
#     8   8   8   8   8   8   8   8
#     4  10  19  34  58  85 114 147 185 235 288 338
#     4   9  17  29  51  83 115 141 175 230 287 334
#     4   9  18  32  56  91 117 142 186 238 294 350
#     4   9  17  29  51  85 111 137 177 224 279 336
#     4   9  15  26  49  82 114 137 166 217 275 326
#     4  10  20  36  60  87 115 145 185 237 291 347
#     4  10  19  35  58  82 108 143 188 237 286 334
#     4  12  25  39  55  79 114 157 199 234 280 342
#
# _framework density 19.914439000000002
#
# number of rings (size 3 to 8) (size 9 to 14) (size 15 to 20)
#    0.000    2.250    1.250    2.625    1.750    5.000 
#    0.000    1.250    0.000    3.750    0.000    0.000 
#    0.000    0.000    0.000    0.000    0.000    0.000 
#
# Total GULP energy -793662.593785 kJ/mol
# GULP energy per Si atom -12400.978028 kJ/mol
# Density = 1.986911 g / cm^3
# Si number density = 19.914439 Si / 1000 Ang^3
#
#
#
# Elastic Constant Matrix: (Units=GPa)
#
#
# Indices 1 2 3 4 5 6 
#
# 1 126.0049 51.5554 18.9139 0.0000 0.0000 0.0000
# 2 51.5554 153.2342 23.8645 0.0000 0.0000 0.0000
# 3 18.9139 23.8645 31.2633 0.0000 0.0000 0.0000
# 4 0.0000 0.0000 0.0000 3.1128 0.0000 0.0000
# 5 0.0000 0.0000 0.0000 0.0000 4.6546 0.0000
# 6 0.0000 0.0000 0.0000 0.0000 0.0000 43.7062
#
#
#
# Elastic Compliance Matrix: (Units=1/GPa)
#
#
# Indices 1 2 3 4 5 6 
#
# 1 0.009582 -0.002634 -0.003786 0.000000 0.000000 0.000000
# 2 -0.002634 0.008131 -0.004613 0.000000 0.000000 0.000000
# 3 -0.003786 -0.004613 0.037798 0.000000 0.000000 0.000000
# 4 0.000000 0.000000 0.000000 0.321256 0.000000 0.000000
# 5 0.000000 0.000000 0.000000 0.000000 0.214840 0.000000
# 6 0.000000 0.000000 0.000000 0.000000 0.000000 0.022880
#
#
# Mechanical properties :
#
#
# Convention : Reuss Voigt Hill
#
# Bulk Modulus (GPa) = 29.90032 55.46332 42.68182
# Shear Modulus (GPa) = 7.71959 24.70595 16.21277
#
# Velocity S-wave (km/s) = 1.97099 3.52604 2.85638
# Velocity P-wave (km/s) = 4.49741 6.66998 5.68838
#
# Compressibility (1/GPa) = 0.03344446
#
# Stress axis : x y z
#
# Youngs Moduli (GPa) = 104.35814 122.99155 26.45627
#
# Poissons Ratio (x) = 0.32400 0.10017
# Poissons Ratio (y) = 0.27491 0.12204
# Poissons Ratio (z) = 0.39514 0.56733
#
# Static dielectric constant tensor:
#      x y z
#    x 3.833690 0.000000 0.000000 
#    y 0.000000 3.832900 0.000000 
#    z 0.000000 0.000000 2.909020 
# 
# 
# High freq. dielectric constant tensor:
#      x y z
#    x 1.789440 0.000000 0.000000 
#    y 0.000000 1.795580 0.000000 
#    z 0.000000 0.000000 1.702180 
# 
# From -- ./inp_files/7977.got.cif
#   From: 2010.03.12/outbox.cif.g09.slc.cpg/sg55_4_cif.got.tgz:7977.got - 2010.04.16 15:19:21.
