data_PCOD8225379
_publ_section_title
;
Structure prediction by ZEFSAII (Michael W. Deem and Ramdas Pophale) SiO2 
 PCOD8225379
Probable space group: P B A M
;
_chemical_formula_sum "Si O2"
_cell_formula_units_Z 48
_cell_length_a 20.152683
_cell_length_b 14.930159
_cell_length_c 8.636884
_cell_angle_alpha 90.000000
_cell_angle_beta 90.000000
_cell_angle_gamma 90.000000
_cell_volume 2598.689508
_symmetry_space_group_name_H-M "P B A M"
_symmetry_group_IT_number 55
_symmetry_cell_setting 'orthorhombic'
loop_
_space_group_symop_operation_xyz
x,y,z
-x,-y,z
1/2+x,1/2-y,-z
1/2-x,1/2+y,-z
-x,-y,-z
x,y,-z
1/2-x,1/2+y,z
1/2+x,1/2-y,z
loop_
_atom_site_type_symbol
_atom_site_label
_atom_site_fract_x
_atom_site_fract_y
_atom_site_fract_z
Si Si1 0.182640 0.108822 0.184342
Si Si2 0.012596 0.272114 0.182686
Si Si3 0.693431 0.003943 0.816200
Si Si4 0.058006 0.566368 0.317983
Si Si5 0.540891 0.411692 0.680798
Si Si6 0.160602 0.304474 0.817202
O O1 0.243207 0.049582 0.249202
O O2 0.115399 0.072772 0.259496
O O3 0.195976 0.212316 0.236222
O O4 0.175055 0.102391 0.000000
O O5 0.003922 0.168842 0.230305
O O6 0.084766 0.304788 0.240989
O O7 0.958492 0.332182 0.269738
O O8 0.003072 0.282265 0.000000
O O9 0.626516 0.957804 0.762161
O O10 0.697129 0.106631 0.752530
O O11 0.694724 0.001713 0.000000
O O12 0.067080 0.558643 0.500000
O O13 0.000000 0.500000 0.258110
O O14 0.500000 0.500000 0.719691
O O15 0.542170 0.389600 0.500000
O O16 0.159956 0.308728 0.000000
#
# Coordination Sequence:
#
# PCOD8225379 Si02
#       6
#     8   8   8   8   8   8
#     4   9  19  35  55  80 108 142 187 230 272 327
#     4  10  19  34  58  82 107 141 186 232 272 323
#     4  10  19  34  55  77 108 145 184 231 275 323
#     4  11  22  34  52  82 117 147 181 224 276 337
#     4  10  21  38  59  81 112 148 182 226 280 334
#     4   8  15  30  52  75 101 136 176 222 272 316
#
# _framework density 18.470848
#
# number of rings (size 3 to 8) (size 9 to 14) (size 15 to 20)
#    0.000    2.333    1.667    2.500    0.000    2.667 
#    3.000    0.000    0.000    0.000    0.000    0.000 
#    0.000    0.000    0.000    0.000    0.000    0.000 
#
# Total GULP energy -595118.252678 kJ/mol
# GULP energy per Si atom -12398.296931 kJ/mol
# Density = 1.842881 g / cm^3
# Si number density = 18.470848 Si / 1000 Ang^3
#
#
#
# Elastic Constant Matrix: (Units=GPa)
#
#
# Indices 1 2 3 4 5 6 
#
# 1 101.0610 76.7249 8.1359 0.0000 0.0000 0.0000
# 2 76.7249 147.8879 12.8505 0.0000 0.0000 0.0000
# 3 8.1359 12.8505 11.6037 0.0000 0.0000 0.0000
# 4 0.0000 0.0000 0.0000 21.8215 0.0000 0.0000
# 5 0.0000 0.0000 0.0000 0.0000 17.3430 0.0000
# 6 0.0000 0.0000 0.0000 0.0000 0.0000 33.9751
#
#
#
# Elastic Compliance Matrix: (Units=1/GPa)
#
#
# Indices 1 2 3 4 5 6 
#
# 1 0.016380 -0.008299 -0.002294 0.000000 0.000000 0.000000
# 2 -0.008299 0.011686 -0.007123 0.000000 0.000000 0.000000
# 3 -0.002294 -0.007123 0.095677 0.000000 0.000000 0.000000
# 4 0.000000 0.000000 0.000000 0.045826 0.000000 0.000000
# 5 0.000000 0.000000 0.000000 0.000000 0.057660 0.000000
# 6 0.000000 0.000000 0.000000 0.000000 0.000000 0.029433
#
#
# Mechanical properties :
#
#
# Convention : Reuss Voigt Hill
#
# Bulk Modulus (GPa) = 11.32368 50.66391 30.99380
# Shear Modulus (GPa) = 15.55050 25.48401 20.51725
#
# Velocity S-wave (km/s) = 2.90469 3.71845 3.33647
# Velocity P-wave (km/s) = 4.17055 6.77676 5.62663
#
# Compressibility (1/GPa) = 0.08831053
#
# Stress axis : x y z
#
# Youngs Moduli (GPa) = 61.04997 85.57076 10.45181
#
# Poissons Ratio (x) = 0.71012 0.02398
# Poissons Ratio (y) = 0.50663 0.07445
# Poissons Ratio (z) = 0.14008 0.60955
#
# Static dielectric constant tensor:
#      x y z
#    x 3.303050 0.000000 0.000000 
#    y 0.000000 3.852670 0.000000 
#    z 0.000000 0.000000 3.202190 
# 
# 
# High freq. dielectric constant tensor:
#      x y z
#    x 1.698700 0.000000 0.000000 
#    y 0.000000 1.731290 0.000000 
#    z 0.000000 0.000000 1.702030 
# 
# From -- ./inp_files/5824.got.cif
#   From: 2010.03.12/outbox.cif.g09.slc.cpg/sg55_3_cif.got.tgz:5824.got - 2010.04.16 15:19:21.
