data_PCOD8225016
_publ_section_title
;
Structure prediction by ZEFSAII (Michael W. Deem and Ramdas Pophale) SiO2 
 PCOD8225016
Probable space group: P B A M
;
_chemical_formula_sum "Si O2"
_cell_formula_units_Z 40
_cell_length_a 13.389690
_cell_length_b 13.093843
_cell_length_c 13.152878
_cell_angle_alpha 90.000000
_cell_angle_beta 90.000000
_cell_angle_gamma 90.000000
_cell_volume 2305.995436
_symmetry_space_group_name_H-M "P B A M"
_symmetry_group_IT_number 55
_symmetry_cell_setting 'orthorhombic'
loop_
_space_group_symop_operation_xyz
x,y,z
-x,-y,z
1/2+x,1/2-y,-z
1/2-x,1/2+y,-z
-x,-y,-z
x,y,-z
1/2-x,1/2+y,z
1/2+x,1/2-y,z
loop_
_atom_site_type_symbol
_atom_site_label
_atom_site_fract_x
_atom_site_fract_y
_atom_site_fract_z
Si Si1 0.708777 0.917112 0.884765
Si Si2 0.571875 0.730736 0.118072
Si Si3 0.866682 0.798043 0.230504
Si Si4 0.734187 0.607243 0.766854
Si Si5 0.884400 0.975517 0.615873
O O1 0.613728 0.844784 0.865449
O O2 0.809208 0.854507 0.860529
O O3 0.699876 0.017289 0.815958
O O4 0.713700 0.953953 0.000000
O O5 0.476690 0.723431 0.190078
O O6 0.652606 0.646360 0.151846
O O7 0.545433 0.711111 0.000000
O O8 0.811530 0.694800 0.264352
O O9 0.865686 0.867823 0.330145
O O10 0.678430 0.566862 0.666661
O O11 0.848739 0.965867 0.500000
O O12 0.000000 0.000000 0.624551
#
# Coordination Sequence:
#
# PCOD8225016 Si02
#       5
#     8   8   8   8   8
#     4   9  19  32  49  77 108 142 180 214 250 306
#     4  10  19  32  51  77 110 146 178 211 257 306
#     4  10  20  34  53  78 107 138 172 215 263 310
#     4  10  20  35  53  78 107 139 176 217 258 309
#     4  10  20  37  59  79  99 130 175 220 266 314
#
# _framework density 17.346087000000001
#
# number of rings (size 3 to 8) (size 9 to 14) (size 15 to 20)
#    0.000    2.200    2.000    1.200    0.000    4.000 
#    0.000    5.000    0.000    0.000    0.000    5.600 
#    0.000    0.000    0.000    0.000    0.000    0.000 
#
# Total GULP energy -496049.042398 kJ/mol
# GULP energy per Si atom -12401.226060 kJ/mol
# Density = 1.730661 g / cm^3
# Si number density = 17.346087 Si / 1000 Ang^3
#
#
#
# Elastic Constant Matrix: (Units=GPa)
#
#
# Indices 1 2 3 4 5 6 
#
# 1 54.9877 35.1743 23.2068 0.0000 0.0000 0.0000
# 2 35.1743 113.3955 48.2574 0.0000 0.0000 0.0000
# 3 23.2068 48.2574 101.4741 0.0000 0.0000 0.0000
# 4 0.0000 0.0000 0.0000 19.9613 0.0000 0.0000
# 5 0.0000 0.0000 0.0000 0.0000 22.0840 0.0000
# 6 0.0000 0.0000 0.0000 0.0000 0.0000 25.4952
#
#
#
# Elastic Compliance Matrix: (Units=1/GPa)
#
#
# Indices 1 2 3 4 5 6 
#
# 1 0.023128 -0.006172 -0.002354 0.000000 0.000000 0.000000
# 2 -0.006172 0.012704 -0.004630 0.000000 0.000000 0.000000
# 3 -0.002354 -0.004630 0.012595 0.000000 0.000000 0.000000
# 4 0.000000 0.000000 0.000000 0.050097 0.000000 0.000000
# 5 0.000000 0.000000 0.000000 0.000000 0.045282 0.000000
# 6 0.000000 0.000000 0.000000 0.000000 0.000000 0.039223
#
#
# Mechanical properties :
#
#
# Convention : Reuss Voigt Hill
#
# Bulk Modulus (GPa) = 45.22004 53.68159 49.45082
# Shear Modulus (GPa) = 23.07222 24.38935 23.73078
#
# Velocity S-wave (km/s) = 3.65103 3.75379 3.70277
# Velocity P-wave (km/s) = 6.62565 7.05709 6.84477
#
# Compressibility (1/GPa) = 0.02211409
#
# Stress axis : x y z
#
# Youngs Moduli (GPa) = 43.23852 78.71816 79.39770
#
# Poissons Ratio (x) = 0.48587 0.18689
# Poissons Ratio (y) = 0.26688 0.36759
# Poissons Ratio (z) = 0.10178 0.36445
#
# Static dielectric constant tensor:
#      x y z
#    x 3.183930 0.000000 0.000000 
#    y 0.000000 3.360560 0.000000 
#    z 0.000000 0.000000 3.169490 
# 
# 
# High freq. dielectric constant tensor:
#      x y z
#    x 1.667790 0.000000 0.000000 
#    y 0.000000 1.680090 0.000000 
#    z 0.000000 0.000000 1.659790 
# 
# From -- ./inp_files/12987.got.cif
#   From: 2010.03.12/outbox.cif.g09.slc.cpg/sg55_7_cif.got.tgz:12987.got - 2010.04.16 15:19:21.
