data_PCOD8225959
_publ_section_title
;
Structure prediction by ZEFSAII (Michael W. Deem and Ramdas Pophale) SiO2 
 PCOD8225959
Probable space group: P B A M
;
_chemical_formula_sum "Si O2"
_cell_formula_units_Z 64
_cell_length_a 17.871616
_cell_length_b 9.777387
_cell_length_c 19.575802
_cell_angle_alpha 90.000000
_cell_angle_beta 90.000000
_cell_angle_gamma 90.000000
_cell_volume 3420.630734
_symmetry_space_group_name_H-M "P B A M"
_symmetry_group_IT_number 55
_symmetry_cell_setting 'orthorhombic'
loop_
_space_group_symop_operation_xyz
x,y,z
-x,-y,z
1/2+x,1/2-y,-z
1/2-x,1/2+y,-z
-x,-y,-z
x,y,-z
1/2-x,1/2+y,z
1/2+x,1/2-y,z
loop_
_atom_site_type_symbol
_atom_site_label
_atom_site_fract_x
_atom_site_fract_y
_atom_site_fract_z
Si Si1 0.727053 0.574408 0.075005
Si Si2 0.438848 0.388127 0.074460
Si Si3 0.590213 0.732265 0.784915
Si Si4 0.236601 0.669556 0.162712
Si Si5 0.548192 0.634464 0.420930
Si Si6 0.521159 0.154602 0.677218
Si Si7 0.826470 0.066492 0.679502
Si Si8 0.685513 0.255926 0.291795
O O1 0.640219 0.534300 0.071379
O O2 0.762810 0.482994 0.133828
O O3 0.734590 0.731459 0.097432
O O4 0.764518 0.556245 0.000000
O O5 0.500000 0.500000 0.088735
O O6 0.441293 0.287213 0.138654
O O7 0.452392 0.314799 0.000000
O O8 0.662333 0.830056 0.790496
O O9 0.524401 0.802352 0.744015
O O10 0.620419 0.594707 0.746406
O O11 0.306194 0.711056 0.210895
O O12 0.500000 0.500000 0.407802
O O13 0.560594 0.666158 0.500000
O O14 0.502722 0.759471 0.388611
O O15 0.629545 0.617410 0.387268
O O16 0.608310 0.178452 0.692856
O O17 0.500000 0.000000 0.659743
O O18 0.750217 0.153626 0.682405
O O19 0.810039 0.904810 0.671740
#
# Coordination Sequence:
#
# PCOD8225959 Si02
#       8
#     8   8   8   8   8   8   8   8
#     4  10  20  34  52  75 105 148 196 243 301 365
#     4   9  18  31  50  78 107 141 193 253 300 353
#     4   9  21  35  57  80 116 150 203 240 308 355
#     4  10  20  34  54  79 110 148 189 251 302 355
#     4  10  21  44  69  92 123 161 203 237 288 356
#     4  11  25  38  63  93 123 161 201 254 301 359
#     4  10  22  38  61  93 120 159 196 248 295 358
#     4  11  22  37  61  89 124 154 202 248 303 354
#
# _framework density 18.710000999999998
#
# number of rings (size 3 to 8) (size 9 to 14) (size 15 to 20)
#    0.000    2.000    1.250    2.625   10.500    0.750 
#    0.000    1.250    0.000    0.375    0.000    0.000 
#    0.000    0.000    0.000    0.000    0.000    0.000 
#
# Total GULP energy -793255.032277 kJ/mol
# GULP energy per Si atom -12394.609879 kJ/mol
# Density = 1.866742 g / cm^3
# Si number density = 18.710001 Si / 1000 Ang^3
#
#
#
# Elastic Constant Matrix: (Units=GPa)
#
#
# Indices 1 2 3 4 5 6 
#
# 1 99.2413 44.3490 50.1597 0.0000 0.0000 0.0000
# 2 44.3490 90.4043 37.4610 0.0000 0.0000 0.0000
# 3 50.1597 37.4610 126.2712 0.0000 0.0000 0.0000
# 4 0.0000 0.0000 0.0000 21.1930 0.0000 0.0000
# 5 0.0000 0.0000 0.0000 0.0000 19.0884 0.0000
# 6 0.0000 0.0000 0.0000 0.0000 0.0000 25.3293
#
#
#
# Elastic Compliance Matrix: (Units=1/GPa)
#
#
# Indices 1 2 3 4 5 6 
#
# 1 0.014628 -0.005436 -0.004198 0.000000 0.000000 0.000000
# 2 -0.005436 0.014632 -0.002181 0.000000 0.000000 0.000000
# 3 -0.004198 -0.002181 0.010234 0.000000 0.000000 0.000000
# 4 0.000000 0.000000 0.000000 0.047185 0.000000 0.000000
# 5 0.000000 0.000000 0.000000 0.000000 0.052388 0.000000
# 6 0.000000 0.000000 0.000000 0.000000 0.000000 0.039480
#
#
# Mechanical properties :
#
#
# Convention : Reuss Voigt Hill
#
# Bulk Modulus (GPa) = 63.04058 64.42845 63.73452
# Shear Modulus (GPa) = 24.10035 25.38527 24.74281
#
# Velocity S-wave (km/s) = 3.59290 3.68744 3.64048
# Velocity P-wave (km/s) = 7.13993 7.25532 7.19786
#
# Compressibility (1/GPa) = 0.01586280
#
# Stress axis : x y z
#
# Youngs Moduli (GPa) = 68.36429 68.34251 97.71184
#
# Poissons Ratio (x) = 0.37153 0.41018
# Poissons Ratio (y) = 0.37165 0.21315
# Poissons Ratio (z) = 0.28698 0.14909
#
# Static dielectric constant tensor:
#      x y z
#    x 3.514800 0.000000 0.000000 
#    y 0.000000 3.140480 0.000000 
#    z 0.000000 0.000000 3.501770 
# 
# 
# High freq. dielectric constant tensor:
#      x y z
#    x 1.727250 0.000000 0.000000 
#    y 0.000000 1.714710 0.000000 
#    z 0.000000 0.000000 1.727050 
# 
# From -- ./inp_files/22722.got.cif
#   From: 2010.03.12/outbox.cif.g09.slc.cpg/sg55_12_cif.got.tgz:22722.got - 2010.04.16 15:19:21.
