data_PCOD8225772
_publ_section_title
;
Structure prediction by ZEFSAII (Michael W. Deem and Ramdas Pophale) SiO2 
 PCOD8225772
Probable space group: P B A M
;
_chemical_formula_sum "Si O2"
_cell_formula_units_Z 64
_cell_length_a 12.794246
_cell_length_b 29.161996
_cell_length_c 8.513449
_cell_angle_alpha 90.000000
_cell_angle_beta 90.000000
_cell_angle_gamma 90.000000
_cell_volume 3176.416780
_symmetry_space_group_name_H-M "P B A M"
_symmetry_group_IT_number 55
_symmetry_cell_setting 'orthorhombic'
loop_
_space_group_symop_operation_xyz
x,y,z
-x,-y,z
1/2+x,1/2-y,-z
1/2-x,1/2+y,-z
-x,-y,-z
x,y,-z
1/2-x,1/2+y,z
1/2+x,1/2-y,z
loop_
_atom_site_type_symbol
_atom_site_label
_atom_site_fract_x
_atom_site_fract_y
_atom_site_fract_z
Si Si1 0.438483 0.799246 0.811962
Si Si2 0.874971 0.799574 0.186835
Si Si3 0.879432 0.607072 0.683343
Si Si4 0.675576 0.561763 0.183173
Si Si5 0.843140 0.326034 0.175762
Si Si6 0.907378 0.427741 0.176207
Si Si7 0.207753 0.034286 0.683109
Si Si8 0.044242 0.104347 0.814847
O O1 0.406804 0.749750 0.744298
O O2 0.367900 0.841260 0.751111
O O3 0.554095 0.806586 0.739951
O O4 0.436493 0.801539 0.000000
O O5 0.761433 0.809664 0.262586
O O6 0.951431 0.841586 0.232739
O O7 0.869191 0.796640 0.000000
O O8 0.898699 0.609860 0.500000
O O9 0.772082 0.581392 0.718846
O O10 0.976474 0.578394 0.754825
O O11 0.662017 0.508170 0.218787
O O12 0.569074 0.586542 0.237872
O O13 0.696409 0.570096 0.000000
O O14 0.845119 0.380461 0.172813
O O15 0.841750 0.306042 0.000000
O O16 0.831629 0.460531 0.277092
O O17 0.919095 0.447599 0.000000
O O18 0.197926 0.023835 0.500000
O O19 0.137468 0.078078 0.726586
O O20 0.062545 0.097496 0.000000
#
# Coordination Sequence:
#
# PCOD8225772 Si02
#       8
#     8   8   8   8   8   8   8   8
#     4   9  18  32  55  85 114 152 198 240 293 355
#     4   9  16  30  56  87 114 145 198 253 292 336
#     4  11  23  40  59  84 122 158 194 243 309 367
#     4  11  24  41  62  86 117 159 207 251 297 353
#     4   8  14  27  51  80 110 143 183 242 295 330
#     4  10  19  37  64  87 113 149 200 248 289 342
#     4  12  24  38  60  91 124 158 195 240 305 368
#     4  10  21  39  62  88 117 155 207 258 295 342
#
# _framework density 20.148489000000001
#
# number of rings (size 3 to 8) (size 9 to 14) (size 15 to 20)
#    0.000    2.000    1.250    4.125    0.000    4.000 
#    0.000    6.875    0.000    3.000    0.000    0.000 
#    0.000    0.000    0.000    0.000    0.000    0.000 
#
# Total GULP energy -793341.848899 kJ/mol
# GULP energy per Si atom -12395.966389 kJ/mol
# Density = 2.010263 g / cm^3
# Si number density = 20.148489 Si / 1000 Ang^3
#
#
#
# Elastic Constant Matrix: (Units=GPa)
#
#
# Indices 1 2 3 4 5 6 
#
# 1 101.9395 29.0765 22.3747 0.0000 0.0000 0.0000
# 2 29.0765 77.9071 12.4088 0.0000 0.0000 0.0000
# 3 22.3747 12.4088 58.7269 0.0000 0.0000 0.0000
# 4 0.0000 0.0000 0.0000 11.9719 0.0000 0.0000
# 5 0.0000 0.0000 0.0000 0.0000 19.6824 0.0000
# 6 0.0000 0.0000 0.0000 0.0000 0.0000 31.1521
#
#
#
# Elastic Compliance Matrix: (Units=1/GPa)
#
#
# Indices 1 2 3 4 5 6 
#
# 1 0.011690 -0.003781 -0.003655 0.000000 0.000000 0.000000
# 2 -0.003781 0.014506 -0.001624 0.000000 0.000000 0.000000
# 3 -0.003655 -0.001624 0.018764 0.000000 0.000000 0.000000
# 4 0.000000 0.000000 0.000000 0.083529 0.000000 0.000000
# 5 0.000000 0.000000 0.000000 0.000000 0.050807 0.000000
# 6 0.000000 0.000000 0.000000 0.000000 0.000000 0.032101
#
#
# Mechanical properties :
#
#
# Convention : Reuss Voigt Hill
#
# Bulk Modulus (GPa) = 37.25941 40.69928 38.97935
# Shear Modulus (GPa) = 20.96756 24.20885 22.58820
#
# Velocity S-wave (km/s) = 3.22941 3.47006 3.35190
# Velocity P-wave (km/s) = 5.69544 6.02483 5.86245
#
# Compressibility (1/GPa) = 0.02683886
#
# Stress axis : x y z
#
# Youngs Moduli (GPa) = 85.53986 68.93863 53.29414
#
# Poissons Ratio (x) = 0.26065 0.19480
# Poissons Ratio (y) = 0.32342 0.08657
# Poissons Ratio (z) = 0.31266 0.11199
#
# Static dielectric constant tensor:
#      x y z
#    x 3.807060 0.000000 0.000000 
#    y 0.000000 3.764720 0.000000 
#    z 0.000000 0.000000 3.339520 
# 
# 
# High freq. dielectric constant tensor:
#      x y z
#    x 1.794830 0.000000 0.000000 
#    y 0.000000 1.787190 0.000000 
#    z 0.000000 0.000000 1.755370 
# 
# From -- ./inp_files/4511.got.cif
#   From: 2010.03.12/outbox.cif.g09.slc.cpg/sg55_3_cif.got.tgz:4511.got - 2010.04.16 15:19:21.
