data_PCOD8225705
_publ_section_title
;
Structure prediction by ZEFSAII (Michael W. Deem and Ramdas Pophale) SiO2 
 PCOD8225705
Probable space group: P B A M
;
_chemical_formula_sum "Si O2"
_cell_formula_units_Z 48
_cell_length_a 28.624763
_cell_length_b 10.255279
_cell_length_c 8.863023
_cell_angle_alpha 90.000000
_cell_angle_beta 90.000000
_cell_angle_gamma 90.000000
_cell_volume 2601.784104
_symmetry_space_group_name_H-M "P B A M"
_symmetry_group_IT_number 55
_symmetry_cell_setting 'orthorhombic'
loop_
_space_group_symop_operation_xyz
x,y,z
-x,-y,z
1/2+x,1/2-y,-z
1/2-x,1/2+y,-z
-x,-y,-z
x,y,-z
1/2-x,1/2+y,z
1/2+x,1/2-y,z
loop_
_atom_site_type_symbol
_atom_site_label
_atom_site_fract_x
_atom_site_fract_y
_atom_site_fract_z
Si Si1 0.219233 0.275970 0.321162
Si Si2 0.023268 0.369529 0.177381
Si Si3 0.217961 0.998078 0.821969
Si Si4 0.122547 0.984464 0.328926
Si Si5 0.387534 0.780200 0.671297
Si Si6 0.025423 0.871131 0.674826
O O1 0.228242 0.277361 0.500000
O O2 0.249603 0.383377 0.238159
O O3 0.165629 0.308686 0.280950
O O4 0.232155 0.132734 0.259326
O O5 0.077175 0.363459 0.228022
O O6 0.000000 0.500000 0.243730
O O7 0.992340 0.250626 0.233190
O O8 0.022387 0.370008 0.000000
O O9 0.164658 0.957846 0.785686
O O10 0.224271 0.014237 0.000000
O O11 0.142201 0.973664 0.500000
O O12 0.081233 0.881748 0.299974
O O13 0.100958 0.127917 0.305347
O O14 0.396011 0.822557 0.500000
O O15 0.012753 0.850750 0.500000
O O16 0.000000 0.000000 0.736752
#
# Coordination Sequence:
#
# PCOD8225705 Si02
#       6
#     8   8   8   8   8   8
#     4  10  21  40  63  85 113 152 194 235 283 344
#     4  11  24  38  52  79 119 155 184 227 285 340
#     4  11  22  37  59  89 120 149 186 237 292 342
#     4   9  18  35  59  85 112 144 186 236 283 336
#     4   9  18  36  61  83 106 145 192 232 273 332
#     4  10  19  36  61  85 108 141 190 238 274 325
#
# _framework density 18.448879000000002
#
# number of rings (size 3 to 8) (size 9 to 14) (size 15 to 20)
#    0.000    2.000    1.667    3.500    0.000    5.667 
#    3.000    0.000    0.000    0.000    0.000    0.000 
#    0.000    0.000    0.000    0.000    0.000    0.000 
#
# Total GULP energy -595281.967840 kJ/mol
# GULP energy per Si atom -12401.707663 kJ/mol
# Density = 1.840689 g / cm^3
# Si number density = 18.448879 Si / 1000 Ang^3
#
#
#
# Elastic Constant Matrix: (Units=GPa)
#
#
# Indices 1 2 3 4 5 6 
#
# 1 90.4060 53.4817 35.9480 0.0000 0.0000 0.0000
# 2 53.4817 89.2468 32.5484 0.0000 0.0000 0.0000
# 3 35.9480 32.5484 78.2413 0.0000 0.0000 0.0000
# 4 0.0000 0.0000 0.0000 30.8473 0.0000 0.0000
# 5 0.0000 0.0000 0.0000 0.0000 30.6163 0.0000
# 6 0.0000 0.0000 0.0000 0.0000 0.0000 26.9152
#
#
#
# Elastic Compliance Matrix: (Units=1/GPa)
#
#
# Indices 1 2 3 4 5 6 
#
# 1 0.018422 -0.009375 -0.004564 0.000000 0.000000 0.000000
# 2 -0.009375 0.017980 -0.003172 0.000000 0.000000 0.000000
# 3 -0.004564 -0.003172 0.016198 0.000000 0.000000 0.000000
# 4 0.000000 0.000000 0.000000 0.032418 0.000000 0.000000
# 5 0.000000 0.000000 0.000000 0.000000 0.032662 0.000000
# 6 0.000000 0.000000 0.000000 0.000000 0.000000 0.037154
#
#
# Mechanical properties :
#
#
# Convention : Reuss Voigt Hill
#
# Bulk Modulus (GPa) = 54.41624 55.76118 55.08871
# Shear Modulus (GPa) = 25.61721 26.73683 26.17702
#
# Velocity S-wave (km/s) = 3.73037 3.81102 3.77091
# Velocity P-wave (km/s) = 6.93642 7.04666 6.99176
#
# Compressibility (1/GPa) = 0.01837687
#
# Stress axis : x y z
#
# Youngs Moduli (GPa) = 54.28302 55.61782 61.73770
#
# Poissons Ratio (x) = 0.52142 0.28177
# Poissons Ratio (y) = 0.50890 0.19585
# Poissons Ratio (z) = 0.24775 0.17644
#
# Static dielectric constant tensor:
#      x y z
#    x 3.494660 0.000000 0.000000 
#    y 0.000000 3.373000 0.000000 
#    z 0.000000 0.000000 3.334020 
# 
# 
# High freq. dielectric constant tensor:
#      x y z
#    x 1.724700 0.000000 0.000000 
#    y 0.000000 1.703670 0.000000 
#    z 0.000000 0.000000 1.713880 
# 
# From -- ./inp_files/2863.got.cif
#   From: 2010.03.12/outbox.cif.g09.slc.cpg/sg55_2_cif.got.tgz:2863.got - 2010.04.16 15:19:21.
