data_PCOD8225505
_publ_section_title
;
Structure prediction by ZEFSAII (Michael W. Deem and Ramdas Pophale) SiO2 
 PCOD8225505
Probable space group: P B A M
;
_chemical_formula_sum "Si O2"
_cell_formula_units_Z 48
_cell_length_a 20.316120
_cell_length_b 13.857671
_cell_length_c 9.322847
_cell_angle_alpha 90.000000
_cell_angle_beta 90.000000
_cell_angle_gamma 90.000000
_cell_volume 2624.699404
_symmetry_space_group_name_H-M "P B A M"
_symmetry_group_IT_number 55
_symmetry_cell_setting 'orthorhombic'
loop_
_space_group_symop_operation_xyz
x,y,z
-x,-y,z
1/2+x,1/2-y,-z
1/2-x,1/2+y,-z
-x,-y,-z
x,y,-z
1/2-x,1/2+y,z
1/2+x,1/2-y,z
loop_
_atom_site_type_symbol
_atom_site_label
_atom_site_fract_x
_atom_site_fract_y
_atom_site_fract_z
Si Si1 0.064539 0.056109 0.666402
Si Si2 0.934068 0.547602 0.170021
Si Si3 0.695473 0.941818 0.163344
Si Si4 0.609094 0.258049 0.830916
Si Si5 0.240167 0.766956 0.162453
Si Si6 0.697406 0.552577 0.333400
O O1 0.059114 0.084322 0.500000
O O2 0.072193 0.154959 0.753205
O O3 0.124053 0.983326 0.695648
O O4 0.000000 0.000000 0.720341
O O5 0.872417 0.484550 0.224751
O O6 0.925634 0.658474 0.218962
O O7 0.000000 0.500000 0.236878
O O8 0.937285 0.542257 0.000000
O O9 0.693985 0.826577 0.170787
O O10 0.754323 0.976685 0.261626
O O11 0.707400 0.977257 0.000000
O O12 0.685665 0.255128 0.785014
O O13 0.602552 0.274585 0.000000
O O14 0.205590 0.842880 0.264919
O O15 0.243145 0.807347 0.000000
O O16 0.714203 0.559482 0.500000
#
# Coordination Sequence:
#
# PCOD8225505 Si02
#       6
#     8   8   8   8   8   8
#     4  10  23  41  57  78 114 155 188 230 287 337
#     4   9  18  33  54  81 112 142 175 220 277 334
#     4  10  19  35  57  80 109 143 181 229 277 323
#     4  10  19  34  59  86 109 142 186 231 278 334
#     4  10  20  34  57  86 113 144 184 232 284 329
#     4  11  22  35  56  83 110 145 189 231 275 333
#
# _framework density 18.287808999999999
#
# number of rings (size 3 to 8) (size 9 to 14) (size 15 to 20)
#    0.000    2.000    3.333    0.500    0.000    3.667 
#    0.000    1.667    0.000    2.000    0.000    0.000 
#    0.000    0.000    0.000    0.000    0.000    0.000 
#
# Total GULP energy -595279.796443 kJ/mol
# GULP energy per Si atom -12401.662426 kJ/mol
# Density = 1.824619 g / cm^3
# Si number density = 18.287809 Si / 1000 Ang^3
#
#
#
# Elastic Constant Matrix: (Units=GPa)
#
#
# Indices 1 2 3 4 5 6 
#
# 1 123.7440 62.3147 48.6834 0.0000 0.0000 0.0000
# 2 62.3147 136.6349 52.5272 0.0000 0.0000 0.0000
# 3 48.6834 52.5272 65.2421 0.0000 0.0000 0.0000
# 4 0.0000 0.0000 0.0000 -8.8331 0.0000 0.0000
# 5 0.0000 0.0000 0.0000 0.0000 18.9795 0.0000
# 6 0.0000 0.0000 0.0000 0.0000 0.0000 33.6446
#
#
#
# Elastic Compliance Matrix: (Units=1/GPa)
#
#
# Indices 1 2 3 4 5 6 
#
# 1 0.012232 -0.002998 -0.006714 0.000000 0.000000 0.000000
# 2 -0.002998 0.011334 -0.006888 0.000000 0.000000 0.000000
# 3 -0.006714 -0.006888 0.025884 0.000000 0.000000 0.000000
# 4 0.000000 0.000000 0.000000 -0.113211 0.000000 0.000000
# 5 0.000000 0.000000 0.000000 0.000000 0.052688 0.000000
# 6 0.000000 0.000000 0.000000 0.000000 0.000000 0.029722
#
#
# Mechanical properties :
#
#
# Convention : Reuss Voigt Hill
#
# Bulk Modulus (GPa) = 61.54063 72.51906 67.02984
# Shear Modulus (GPa) = 87.31031 19.56458 53.43745
#
# Velocity S-wave (km/s) = 6.91708 3.27435 5.41144
# Velocity P-wave (km/s) = 9.87517 7.35089 8.70501
#
# Compressibility (1/GPa) = 0.01624943
#
# Stress axis : x y z
#
# Youngs Moduli (GPa) = 81.75130 88.23033 38.63444
#
# Poissons Ratio (x) = 0.26447 0.25940
# Poissons Ratio (y) = 0.24505 0.26613
# Poissons Ratio (z) = 0.54890 0.60776
#
# Static dielectric constant tensor:
#      x y z
#    x 3.521490 0.000000 0.000000 
#    y 0.000000 3.431940 0.000000 
#    z 0.000000 0.000000 3.172430 
# 
# 
# High freq. dielectric constant tensor:
#      x y z
#    x 1.709210 0.000000 0.000000 
#    y 0.000000 1.722130 0.000000 
#    z 0.000000 0.000000 1.685210 
# 
# From -- ./inp_files/5548.got.cif
#   From: 2010.03.12/outbox.cif.g09.slc.cpg/sg55_3_cif.got.tgz:5548.got - 2010.04.16 15:19:21.
