data_PCOD8225209
_publ_section_title
;
Structure prediction by ZEFSAII (Michael W. Deem and Ramdas Pophale) SiO2 
 PCOD8225209
Probable space group: P B A M
;
_chemical_formula_sum "Si O2"
_cell_formula_units_Z 64
_cell_length_a 17.137405
_cell_length_b 22.166470
_cell_length_c 8.775378
_cell_angle_alpha 90.000000
_cell_angle_beta 90.000000
_cell_angle_gamma 90.000000
_cell_volume 3333.553508
_symmetry_space_group_name_H-M "P B A M"
_symmetry_group_IT_number 55
_symmetry_cell_setting 'orthorhombic'
loop_
_space_group_symop_operation_xyz
x,y,z
-x,-y,z
1/2+x,1/2-y,-z
1/2-x,1/2+y,-z
-x,-y,-z
x,y,-z
1/2-x,1/2+y,z
1/2+x,1/2-y,z
loop_
_atom_site_type_symbol
_atom_site_label
_atom_site_fract_x
_atom_site_fract_y
_atom_site_fract_z
Si Si1 0.928090 0.570996 0.680137
Si Si2 0.341034 0.467511 0.321030
Si Si3 0.160694 0.783000 0.820794
Si Si4 0.131291 0.103470 0.319430
Si Si5 0.216929 0.654152 0.179476
Si Si6 0.780338 0.614932 0.178841
Si Si7 0.911863 0.442234 0.819711
Si Si8 0.461152 0.364786 0.678474
O O1 0.940139 0.572417 0.500000
O O2 0.862308 0.618447 0.732045
O O3 0.900433 0.504873 0.732639
O O4 0.008459 0.589226 0.763027
O O5 0.321764 0.464885 0.500000
O O6 0.359208 0.534705 0.263699
O O7 0.265877 0.445108 0.228297
O O8 0.415144 0.426015 0.279989
O O9 0.179709 0.716378 0.759041
O O10 0.231535 0.826494 0.771197
O O11 0.079547 0.806282 0.751129
O O12 0.149783 0.783357 0.000000
O O13 0.133150 0.105562 0.500000
O O14 0.199227 0.145357 0.254876
O O15 0.048893 0.128815 0.257401
O O16 0.159950 0.600027 0.226673
O O17 0.228896 0.657700 0.000000
O O18 0.796715 0.612502 0.000000
O O19 0.916245 0.453558 0.000000
O O20 0.462259 0.354313 0.500000
#
# Coordination Sequence:
#
# PCOD8225209 Si02
#       8
#     8   8   8   8   8   8   8   8
#     4  11  21  34  54  82 112 138 174 218 268 325
#     4   9  17  31  53  80 112 145 173 209 262 318
#     4   9  20  39  57  74 101 140 183 222 263 309
#     4  10  20  33  53  82 112 140 172 212 262 320
#     4  10  22  39  56  76 104 141 182 222 266 314
#     4  10  19  33  54  78 106 140 180 222 262 309
#     4  10  20  36  57  79 107 140 176 220 271 320
#     4   9  18  34  55  80 109 141 176 214 260 313
#
# _framework density 19.198732
#
# number of rings (size 3 to 8) (size 9 to 14) (size 15 to 20)
#    0.000    2.250    0.000    3.750    0.000    6.500 
#    2.250    0.000    0.000    3.750    0.000    0.000 
#    0.000    0.000    0.000    0.000    0.000    0.000 
#
# Total GULP energy -793752.191071 kJ/mol
# GULP energy per Si atom -12402.377985 kJ/mol
# Density = 1.915503 g / cm^3
# Si number density = 19.198732 Si / 1000 Ang^3
#
#
#
# Elastic Constant Matrix: (Units=GPa)
#
#
# Indices 1 2 3 4 5 6 
#
# 1 108.1807 26.0489 17.3455 0.0000 0.0000 0.0000
# 2 26.0489 73.5245 12.1231 0.0000 0.0000 0.0000
# 3 17.3455 12.1231 34.7447 0.0000 0.0000 0.0000
# 4 0.0000 0.0000 0.0000 22.6527 0.0000 0.0000
# 5 0.0000 0.0000 0.0000 0.0000 32.8034 0.0000
# 6 0.0000 0.0000 0.0000 0.0000 0.0000 19.1573
#
#
#
# Elastic Compliance Matrix: (Units=1/GPa)
#
#
# Indices 1 2 3 4 5 6 
#
# 1 0.010667 -0.003078 -0.004251 0.000000 0.000000 0.000000
# 2 -0.003078 0.015319 -0.003809 0.000000 0.000000 0.000000
# 3 -0.004251 -0.003809 0.032232 0.000000 0.000000 0.000000
# 4 0.000000 0.000000 0.000000 0.044145 0.000000 0.000000
# 5 0.000000 0.000000 0.000000 0.000000 0.030485 0.000000
# 6 0.000000 0.000000 0.000000 0.000000 0.000000 0.052199
#
#
# Mechanical properties :
#
#
# Convention : Reuss Voigt Hill
#
# Bulk Modulus (GPa) = 27.82181 36.38722 32.10451
# Shear Modulus (GPa) = 22.79942 25.65150 24.22546
#
# Velocity S-wave (km/s) = 3.44982 3.65924 3.55607
# Velocity P-wave (km/s) = 5.51283 6.07021 5.79822
#
# Compressibility (1/GPa) = 0.03594303
#
# Stress axis : x y z
#
# Youngs Moduli (GPa) = 93.75073 65.27657 31.02463
#
# Poissons Ratio (x) = 0.20093 0.13189
# Poissons Ratio (y) = 0.28858 0.11816
# Poissons Ratio (z) = 0.39854 0.24861
#
# Static dielectric constant tensor:
#      x y z
#    x 3.744760 0.000000 0.000000 
#    y 0.000000 3.497630 0.000000 
#    z 0.000000 0.000000 3.384430 
# 
# 
# High freq. dielectric constant tensor:
#      x y z
#    x 1.758250 0.000000 0.000000 
#    y 0.000000 1.732350 0.000000 
#    z 0.000000 0.000000 1.740120 
# 
# From -- ./inp_files/8076.got.cif
#   From: 2010.03.12/outbox.cif.g09.slc.cpg/sg55_5_cif.got.tgz:8076.got - 2010.04.16 15:19:21.
