data_PCOD8225834
_publ_section_title
;
Structure prediction by ZEFSAII (Michael W. Deem and Ramdas Pophale) SiO2 
 PCOD8225834
Probable space group: P B A M
;
_chemical_formula_sum "Si O2"
_cell_formula_units_Z 48
_cell_length_a 20.470602
_cell_length_b 9.481843
_cell_length_c 13.131258
_cell_angle_alpha 90.000000
_cell_angle_beta 90.000000
_cell_angle_gamma 90.000000
_cell_volume 2548.764497
_symmetry_space_group_name_H-M "P B A M"
_symmetry_group_IT_number 55
_symmetry_cell_setting 'orthorhombic'
loop_
_space_group_symop_operation_xyz
x,y,z
-x,-y,z
1/2+x,1/2-y,-z
1/2-x,1/2+y,-z
-x,-y,-z
x,y,-z
1/2-x,1/2+y,z
1/2+x,1/2-y,z
loop_
_atom_site_type_symbol
_atom_site_label
_atom_site_fract_x
_atom_site_fract_y
_atom_site_fract_z
Si Si1 0.374352 0.247928 0.753486
Si Si2 0.695477 0.524730 0.115792
Si Si3 0.000234 0.667259 0.881881
Si Si4 0.625001 0.288627 0.229267
Si Si5 0.706703 0.019979 0.268602
Si Si6 0.345340 0.486765 0.619398
O O1 0.325216 0.334871 0.824388
O O2 0.438859 0.227306 0.819949
O O3 0.346029 0.101389 0.710724
O O4 0.382747 0.342656 0.651572
O O5 0.653472 0.385533 0.138891
O O6 0.769367 0.494343 0.152219
O O7 0.692926 0.564119 0.000000
O O8 0.000000 0.500000 0.881399
O O9 0.938537 0.719496 0.818457
O O10 0.000652 0.721303 0.000000
O O11 0.613149 0.388083 0.327211
O O12 0.673813 0.172055 0.274229
O O13 0.769153 0.010355 0.344307
O O14 0.348126 0.507468 0.500000
#
# Coordination Sequence:
#
# PCOD8225834 Si02
#       6
#     8   8   8   8   8   8
#     4  10  21  38  56  84 118 148 193 245 277 335
#     4  10  20  32  51  80 115 153 188 233 294 343
#     4  11  22  37  61  86 116 160 195 225 279 345
#     4  10  21  38  56  84 118 148 193 245 277 335
#     4  10  20  35  57  84 117 146 187 245 287 337
#     4  10  22  40  64  87 110 151 193 240 305 350
#
# _framework density 18.832654999999999
#
# number of rings (size 3 to 8) (size 9 to 14) (size 15 to 20)
#    0.000    2.167    1.667    5.000    0.000    9.333 
#    0.000    5.833    0.000    1.000    0.000    0.000 
#    0.000    0.000    0.000    0.000    0.000    0.000 
#
# Total GULP energy -594716.520315 kJ/mol
# GULP energy per Si atom -12389.927507 kJ/mol
# Density = 1.878979 g / cm^3
# Si number density = 18.832655 Si / 1000 Ang^3
#
#
#
# Elastic Constant Matrix: (Units=GPa)
#
#
# Indices 1 2 3 4 5 6 
#
# 1 73.8188 17.6716 29.6869 0.0000 0.0000 0.0000
# 2 17.6716 79.4395 23.7749 0.0000 0.0000 0.0000
# 3 29.6869 23.7749 127.0694 0.0000 0.0000 0.0000
# 4 0.0000 0.0000 0.0000 17.8408 0.0000 0.0000
# 5 0.0000 0.0000 0.0000 0.0000 16.9070 0.0000
# 6 0.0000 0.0000 0.0000 0.0000 0.0000 25.3936
#
#
#
# Elastic Compliance Matrix: (Units=1/GPa)
#
#
# Indices 1 2 3 4 5 6 
#
# 1 0.015402 -0.002489 -0.003133 0.000000 0.000000 0.000000
# 2 -0.002489 0.013737 -0.001989 0.000000 0.000000 0.000000
# 3 -0.003133 -0.001989 0.008974 0.000000 0.000000 0.000000
# 4 0.000000 0.000000 0.000000 0.056051 0.000000 0.000000
# 5 0.000000 0.000000 0.000000 0.000000 0.059147 0.000000
# 6 0.000000 0.000000 0.000000 0.000000 0.000000 0.039380
#
#
# Mechanical properties :
#
#
# Convention : Reuss Voigt Hill
#
# Bulk Modulus (GPa) = 43.68237 46.95495 45.31866
# Shear Modulus (GPa) = 23.19722 25.97455 24.58588
#
# Velocity S-wave (km/s) = 3.51344 3.71783 3.61708
# Velocity P-wave (km/s) = 6.30114 6.58912 6.44674
#
# Compressibility (1/GPa) = 0.02289253
#
# Stress axis : x y z
#
# Youngs Moduli (GPa) = 64.92520 72.79594 111.43648
#
# Poissons Ratio (x) = 0.18117 0.34910
# Poissons Ratio (y) = 0.16158 0.22162
# Poissons Ratio (z) = 0.20340 0.14478
#
# Static dielectric constant tensor:
#      x y z
#    x 3.429740 0.000000 0.000000 
#    y 0.000000 3.683900 0.000000 
#    z 0.000000 0.000000 3.446010 
# 
# 
# High freq. dielectric constant tensor:
#      x y z
#    x 1.717490 0.000000 0.000000 
#    y 0.000000 1.752720 0.000000 
#    z 0.000000 0.000000 1.716050 
# 
# From -- ./inp_files/19652.got.cif
#   From: 2010.03.12/outbox.cif.g09.slc.cpg/sg55_10_cif.got.tgz:19652.got - 2010.04.16 15:19:21.
