data_PCOD8225382
_publ_section_title
;
Structure prediction by ZEFSAII (Michael W. Deem and Ramdas Pophale) SiO2 
 PCOD8225382
Probable space group: P B A M
;
_chemical_formula_sum "Si O2"
_cell_formula_units_Z 64
_cell_length_a 9.013329
_cell_length_b 24.270778
_cell_length_c 14.990208
_cell_angle_alpha 90.000000
_cell_angle_beta 90.000000
_cell_angle_gamma 90.000000
_cell_volume 3279.265505
_symmetry_space_group_name_H-M "P B A M"
_symmetry_group_IT_number 55
_symmetry_cell_setting 'orthorhombic'
loop_
_space_group_symop_operation_xyz
x,y,z
-x,-y,z
1/2+x,1/2-y,-z
1/2-x,1/2+y,-z
-x,-y,-z
x,y,-z
1/2-x,1/2+y,z
1/2+x,1/2-y,z
loop_
_atom_site_type_symbol
_atom_site_label
_atom_site_fract_x
_atom_site_fract_y
_atom_site_fract_z
Si Si1 0.935080 0.058880 0.395969
Si Si2 0.576975 0.557397 0.103569
Si Si3 0.288456 0.779868 0.404461
Si Si4 0.969428 0.247750 0.289468
Si Si5 0.376356 0.902293 0.598097
Si Si6 0.071421 0.631387 0.241198
Si Si7 0.076878 0.131638 0.754511
Si Si8 0.420872 0.944052 0.895632
O O1 0.967794 0.071831 0.500000
O O2 0.757027 0.055467 0.377477
O O3 0.012274 0.106229 0.336759
O O4 0.000000 0.000000 0.366959
O O5 0.500000 0.500000 0.126729
O O6 0.495528 0.604218 0.159162
O O7 0.748711 0.553591 0.131747
O O8 0.558986 0.572478 0.000000
O O9 0.233871 0.756141 0.500000
O O10 0.199319 0.761552 0.317293
O O11 0.450436 0.755220 0.385124
O O12 0.289049 0.845203 0.408485
O O13 0.978329 0.304737 0.234672
O O14 0.035318 0.196111 0.235813
O O15 0.445593 0.916602 0.500000
O O16 0.505138 0.900407 0.671988
O O17 0.247037 0.623890 0.244132
O O18 0.002924 0.605918 0.152449
O O19 0.500000 0.000000 0.864869
O O20 0.441159 0.934047 0.000000
#
# Coordination Sequence:
#
# PCOD8225382 Si02
#       8
#     8   8   8   8   8   8   8   8
#     4  10  21  37  57  82 114 157 206 250 297 356
#     4  10  22  41  67  95 119 148 194 247 297 357
#     4  10  19  34  55  79 112 155 205 254 296 340
#     4  11  22  37  53  86 119 159 202 250 299 356
#     4   9  19  36  56  80 116 160 201 247 297 348
#     4  11  24  38  58  89 122 158 198 249 301 356
#     4  12  23  37  60  87 120 162 199 247 303 356
#     4  10  22  42  69  95 120 152 193 244 300 360
#
# _framework density 19.516565
#
# number of rings (size 3 to 8) (size 9 to 14) (size 15 to 20)
#    0.000    1.625    2.500    2.250    1.750    4.000 
#    0.000    0.625    0.000    2.625    0.000    0.000 
#    0.000    0.000    0.000    0.000    0.000    0.000 
#
# Total GULP energy -793420.195658 kJ/mol
# GULP energy per Si atom -12397.190557 kJ/mol
# Density = 1.947214 g / cm^3
# Si number density = 19.516565 Si / 1000 Ang^3
#
#
#
# Elastic Constant Matrix: (Units=GPa)
#
#
# Indices 1 2 3 4 5 6 
#
# 1 137.0576 52.3119 54.0763 0.0000 0.0000 0.0000
# 2 52.3119 103.8450 52.9654 0.0000 0.0000 0.0000
# 3 54.0763 52.9654 84.9060 0.0000 0.0000 0.0000
# 4 0.0000 0.0000 0.0000 20.2190 0.0000 0.0000
# 5 0.0000 0.0000 0.0000 0.0000 31.8633 0.0000
# 6 0.0000 0.0000 0.0000 0.0000 0.0000 26.9156
#
#
#
# Elastic Compliance Matrix: (Units=1/GPa)
#
#
# Indices 1 2 3 4 5 6 
#
# 1 0.010231 -0.002685 -0.004841 0.000000 0.000000 0.000000
# 2 -0.002685 0.014828 -0.007540 0.000000 0.000000 0.000000
# 3 -0.004841 -0.007540 0.019565 0.000000 0.000000 0.000000
# 4 0.000000 0.000000 0.000000 0.049458 0.000000 0.000000
# 5 0.000000 0.000000 0.000000 0.000000 0.031384 0.000000
# 6 0.000000 0.000000 0.000000 0.000000 0.000000 0.037153
#
#
# Mechanical properties :
#
#
# Convention : Reuss Voigt Hill
#
# Bulk Modulus (GPa) = 69.00532 71.61286 70.30909
# Shear Modulus (GPa) = 25.30599 26.89659 26.10129
#
# Velocity S-wave (km/s) = 3.60480 3.71636 3.66100
# Velocity P-wave (km/s) = 7.26362 7.42887 7.34671
#
# Compressibility (1/GPa) = 0.01449164
#
# Stress axis : x y z
#
# Youngs Moduli (GPa) = 97.74181 67.44102 51.11232
#
# Poissons Ratio (x) = 0.18105 0.24746
# Poissons Ratio (y) = 0.26239 0.38539
# Poissons Ratio (z) = 0.47321 0.50850
#
# Static dielectric constant tensor:
#      x y z
#    x 3.675380 0.000000 0.000000 
#    y 0.000000 3.580960 0.000000 
#    z 0.000000 0.000000 3.470060 
# 
# 
# High freq. dielectric constant tensor:
#      x y z
#    x 1.773750 0.000000 0.000000 
#    y 0.000000 1.756000 0.000000 
#    z 0.000000 0.000000 1.749800 
# 
# From -- ./inp_files/17812.got.cif
#   From: 2010.03.12/outbox.cif.g09.slc.cpg/sg55_9_cif.got.tgz:17812.got - 2010.04.16 15:19:21.
