data_PCOD8225484
_publ_section_title
;
Structure prediction by ZEFSAII (Michael W. Deem and Ramdas Pophale) SiO2 
 PCOD8225484
Probable space group: P B A M
;
_chemical_formula_sum "Si O2"
_cell_formula_units_Z 48
_cell_length_a 10.180161
_cell_length_b 29.273488
_cell_length_c 8.457752
_cell_angle_alpha 90.000000
_cell_angle_beta 90.000000
_cell_angle_gamma 90.000000
_cell_volume 2520.484701
_symmetry_space_group_name_H-M "P B A M"
_symmetry_group_IT_number 55
_symmetry_cell_setting 'orthorhombic'
loop_
_space_group_symop_operation_xyz
x,y,z
-x,-y,z
1/2+x,1/2-y,-z
1/2-x,1/2+y,-z
-x,-y,-z
x,y,-z
1/2-x,1/2+y,z
1/2+x,1/2-y,z
loop_
_atom_site_type_symbol
_atom_site_label
_atom_site_fract_x
_atom_site_fract_y
_atom_site_fract_z
Si Si1 0.507415 0.715730 0.312988
Si Si2 0.871430 0.473930 0.683537
Si Si3 0.261808 0.113854 0.183638
Si Si4 0.288272 0.210257 0.311522
Si Si5 0.132195 0.973823 0.817260
Si Si6 0.021297 0.886346 0.315370
O O1 0.511342 0.718417 0.500000
O O2 0.607656 0.753116 0.242782
O O3 0.358131 0.725031 0.255441
O O4 0.553255 0.665287 0.258916
O O5 0.882963 0.461555 0.500000
O O6 0.863056 0.426875 0.781513
O O7 0.747732 0.506625 0.710791
O O8 0.000000 0.500000 0.744944
O O9 0.326339 0.161487 0.237701
O O10 0.130903 0.103037 0.282412
O O11 0.225503 0.115409 0.000000
O O12 0.294710 0.206263 0.500000
O O13 0.115013 0.920096 0.782101
O O14 0.166936 0.981683 0.000000
O O15 0.000000 0.000000 0.769021
O O16 0.048572 0.893114 0.500000
#
# Coordination Sequence:
#
# PCOD8225484 Si02
#       6
#     8   8   8   8   8   8
#     4   8  16  31  54  79 105 135 179 228 272 314
#     4  11  24  41  60  83 110 146 192 236 279 330
#     4  11  21  35  56  82 112 148 184 223 280 341
#     4   9  17  34  56  79 105 141 181 226 273 323
#     4  11  22  36  58  87 116 148 183 225 282 337
#     4  10  19  34  58  85 111 144 190 236 272 319
#
# _framework density 19.043955
#
# number of rings (size 3 to 8) (size 9 to 14) (size 15 to 20)
#    0.000    2.000    1.667    4.000    0.000    2.000 
#    3.000    4.167    0.000    0.000    0.000    0.000 
#    0.000    0.000    0.000    0.000    0.000    0.000 
#
# Total GULP energy -595288.535486 kJ/mol
# GULP energy per Si atom -12401.844489 kJ/mol
# Density = 1.900061 g / cm^3
# Si number density = 19.043955 Si / 1000 Ang^3
#
#
#
# Elastic Constant Matrix: (Units=GPa)
#
#
# Indices 1 2 3 4 5 6 
#
# 1 93.5639 74.6313 14.6020 0.0000 0.0000 0.0000
# 2 74.6313 160.6538 19.4154 0.0000 0.0000 0.0000
# 3 14.6020 19.4154 36.6979 0.0000 0.0000 0.0000
# 4 0.0000 0.0000 0.0000 14.1676 0.0000 0.0000
# 5 0.0000 0.0000 0.0000 0.0000 13.1813 0.0000
# 6 0.0000 0.0000 0.0000 0.0000 0.0000 37.1695
#
#
#
# Elastic Compliance Matrix: (Units=1/GPa)
#
#
# Indices 1 2 3 4 5 6 
#
# 1 0.017245 -0.007673 -0.002803 0.000000 0.000000 0.000000
# 2 -0.007673 0.010063 -0.002271 0.000000 0.000000 0.000000
# 3 -0.002803 -0.002271 0.029566 0.000000 0.000000 0.000000
# 4 0.000000 0.000000 0.000000 0.070584 0.000000 0.000000
# 5 0.000000 0.000000 0.000000 0.000000 0.075865 0.000000
# 6 0.000000 0.000000 0.000000 0.000000 0.000000 0.026904
#
#
# Mechanical properties :
#
#
# Convention : Reuss Voigt Hill
#
# Bulk Modulus (GPa) = 31.86526 56.46812 44.16669
# Shear Modulus (GPa) = 18.78421 25.05480 21.91950
#
# Velocity S-wave (km/s) = 3.14405 3.63110 3.39631
# Velocity P-wave (km/s) = 5.47255 6.87718 6.21468
#
# Compressibility (1/GPa) = 0.03138214
#
# Stress axis : x y z
#
# Youngs Moduli (GPa) = 57.98686 99.37086 33.82227
#
# Poissons Ratio (x) = 0.76243 0.09479
# Poissons Ratio (y) = 0.44491 0.07682
# Poissons Ratio (z) = 0.16252 0.22569
#
# Static dielectric constant tensor:
#      x y z
#    x 3.477280 0.000000 0.000000 
#    y 0.000000 3.778160 0.000000 
#    z 0.000000 0.000000 3.249500 
# 
# 
# High freq. dielectric constant tensor:
#      x y z
#    x 1.719530 0.000000 0.000000 
#    y 0.000000 1.752950 0.000000 
#    z 0.000000 0.000000 1.727890 
# 
# From -- ./inp_files/2842.got.cif
#   From: 2010.03.12/outbox.cif.g09.slc.cpg/sg55_2_cif.got.tgz:2842.got - 2010.04.16 15:19:21.
