data_PCOD8225151
_publ_section_title
;
Structure prediction by ZEFSAII (Michael W. Deem and Ramdas Pophale) SiO2 
 PCOD8225151
Probable space group: P B A M
;
_chemical_formula_sum "Si O2"
_cell_formula_units_Z 64
_cell_length_a 14.593956
_cell_length_b 27.884284
_cell_length_c 8.542321
_cell_angle_alpha 90.000000
_cell_angle_beta 90.000000
_cell_angle_gamma 90.000000
_cell_volume 3476.229310
_symmetry_space_group_name_H-M "P B A M"
_symmetry_group_IT_number 55
_symmetry_cell_setting 'orthorhombic'
loop_
_space_group_symop_operation_xyz
x,y,z
-x,-y,z
1/2+x,1/2-y,-z
1/2-x,1/2+y,-z
-x,-y,-z
x,y,-z
1/2-x,1/2+y,z
1/2+x,1/2-y,z
loop_
_atom_site_type_symbol
_atom_site_label
_atom_site_fract_x
_atom_site_fract_y
_atom_site_fract_z
Si Si1 0.601827 0.826774 0.684287
Si Si2 0.406408 0.827321 0.817478
Si Si3 0.891480 0.053149 0.814417
Si Si4 0.271547 0.364471 0.684473
Si Si5 0.097580 0.054386 0.814984
Si Si6 0.401487 0.281385 0.315508
Si Si7 0.105397 0.225259 0.316527
Si Si8 0.279914 0.640865 0.815932
O O1 0.615769 0.831756 0.500000
O O2 0.498848 0.841898 0.726963
O O3 0.621088 0.772295 0.743551
O O4 0.672500 0.861959 0.773185
O O5 0.327072 0.864222 0.767456
O O6 0.372378 0.774220 0.773229
O O7 0.425966 0.831230 0.000000
O O8 0.819794 0.085542 0.722346
O O9 0.994492 0.067351 0.760470
O O10 0.872783 0.998533 0.758900
O O11 0.878682 0.059565 0.000000
O O12 0.258313 0.358945 0.500000
O O13 0.332866 0.320804 0.756109
O O14 0.169206 0.093525 0.749923
O O15 0.097999 0.053906 0.000000
O O16 0.392156 0.282722 0.500000
O O17 0.505481 0.294462 0.266056
O O18 0.109208 0.237067 0.500000
O O19 0.181096 0.186790 0.273193
O O20 0.295315 0.646293 0.000000
#
# Coordination Sequence:
#
# PCOD8225151 Si02
#       8
#     8   8   8   8   8   8   8   8
#     4  10  20  36  53  71  99 138 173 210 258 307
#     4  11  22  36  52  73 100 135 176 218 255 300
#     4   9  17  34  55  76 103 139 173 205 248 302
#     4  11  20  32  51  77 105 135 170 212 257 307
#     4   8  17  33  54  77 106 137 168 206 252 301
#     4   8  17  31  48  69  99 135 169 200 243 298
#     4  10  19  33  50  73 106 142 173 208 252 301
#     4  11  20  31  50  78 104 133 173 215 254 302
#
# _framework density 18.410753
#
# number of rings (size 3 to 8) (size 9 to 14) (size 15 to 20)
#    0.000    2.250    0.000    5.625    0.000    1.000 
#    0.000    9.375    0.000    0.750    0.000    5.250 
#    0.000    0.000    0.000    0.000    0.000    0.000 
#
# Total GULP energy -793608.090280 kJ/mol
# GULP energy per Si atom -12400.126411 kJ/mol
# Density = 1.836885 g / cm^3
# Si number density = 18.410753 Si / 1000 Ang^3
#
#
#
# Elastic Constant Matrix: (Units=GPa)
#
#
# Indices 1 2 3 4 5 6 
#
# 1 116.2424 62.4681 12.2617 0.0000 0.0000 0.0000
# 2 62.4681 81.0341 12.6830 0.0000 0.0000 0.0000
# 3 12.2617 12.6830 46.5855 0.0000 0.0000 0.0000
# 4 0.0000 0.0000 0.0000 20.8644 0.0000 0.0000
# 5 0.0000 0.0000 0.0000 0.0000 29.0916 0.0000
# 6 0.0000 0.0000 0.0000 0.0000 0.0000 31.1658
#
#
#
# Elastic Compliance Matrix: (Units=1/GPa)
#
#
# Indices 1 2 3 4 5 6 
#
# 1 0.014717 -0.011217 -0.000820 0.000000 0.000000 0.000000
# 2 -0.011217 0.021439 -0.002884 0.000000 0.000000 0.000000
# 3 -0.000820 -0.002884 0.022467 0.000000 0.000000 0.000000
# 4 0.000000 0.000000 0.000000 0.047929 0.000000 0.000000
# 5 0.000000 0.000000 0.000000 0.000000 0.034374 0.000000
# 6 0.000000 0.000000 0.000000 0.000000 0.000000 0.032086
#
#
# Mechanical properties :
#
#
# Convention : Reuss Voigt Hill
#
# Bulk Modulus (GPa) = 34.74551 46.52084 40.63318
# Shear Modulus (GPa) = 23.53517 26.65430 25.09474
#
# Velocity S-wave (km/s) = 3.57926 3.80907 3.69595
# Velocity P-wave (km/s) = 5.99957 6.68345 6.35072
#
# Compressibility (1/GPa) = 0.02878069
#
# Stress axis : x y z
#
# Youngs Moduli (GPa) = 67.94819 46.64424 44.50978
#
# Poissons Ratio (x) = 0.52320 0.03649
# Poissons Ratio (y) = 0.76217 0.12838
# Poissons Ratio (z) = 0.05571 0.13454
#
# Static dielectric constant tensor:
#      x y z
#    x 3.587380 0.000000 0.000000 
#    y 0.000000 3.449060 0.000000 
#    z 0.000000 0.000000 3.148690 
# 
# 
# High freq. dielectric constant tensor:
#      x y z
#    x 1.720220 0.000000 0.000000 
#    y 0.000000 1.689890 0.000000 
#    z 0.000000 0.000000 1.700160 
# 
# From -- ./inp_files/6923.got.cif
#   From: 2010.03.12/outbox.cif.g09.slc.cpg/sg55_4_cif.got.tgz:6923.got - 2010.04.16 15:19:21.
