data_PCOD8225202
_publ_section_title
;
Structure prediction by ZEFSAII (Michael W. Deem and Ramdas Pophale) SiO2 
 PCOD8225202
Probable space group: P B A M
;
_chemical_formula_sum "Si O2"
_cell_formula_units_Z 64
_cell_length_a 22.304033
_cell_length_b 16.305012
_cell_length_c 9.429978
_cell_angle_alpha 90.000000
_cell_angle_beta 90.000000
_cell_angle_gamma 90.000000
_cell_volume 3429.376767
_symmetry_space_group_name_H-M "P B A M"
_symmetry_group_IT_number 55
_symmetry_cell_setting 'orthorhombic'
loop_
_space_group_symop_operation_xyz
x,y,z
-x,-y,z
1/2+x,1/2-y,-z
1/2-x,1/2+y,-z
-x,-y,-z
x,y,-z
1/2-x,1/2+y,z
1/2+x,1/2-y,z
loop_
_atom_site_type_symbol
_atom_site_label
_atom_site_fract_x
_atom_site_fract_y
_atom_site_fract_z
Si Si1 0.156599 0.739932 0.342731
Si Si2 0.830529 0.528406 0.336564
Si Si3 0.466671 0.584744 0.668110
Si Si4 0.203180 0.918937 0.654821
Si Si5 0.538840 0.077707 0.668348
Si Si6 0.221014 0.619134 0.837625
Si Si7 0.150302 0.054832 0.162755
Si Si8 0.021944 0.743198 0.667899
O O1 0.163292 0.699934 0.500000
O O2 0.169802 0.834585 0.354616
O O3 0.203520 0.705323 0.230225
O O4 0.089794 0.727673 0.282932
O O5 0.838790 0.502503 0.500000
O O6 0.774620 0.590787 0.314876
O O7 0.892139 0.568945 0.281375
O O8 0.816763 0.447896 0.247154
O O9 0.500000 0.500000 0.713492
O O10 0.456668 0.585233 0.500000
O O11 0.402971 0.590888 0.744452
O O12 0.501003 0.666709 0.721885
O O13 0.195826 0.963267 0.500000
O O14 0.170093 0.966847 0.779086
O O15 0.533443 0.079803 0.500000
O O16 0.515957 0.165731 0.729140
O O17 0.500000 0.000000 0.726257
O O18 0.292453 0.613770 0.821325
O O19 0.201190 0.613795 0.000000
O O20 0.130040 0.045386 0.000000
O O21 0.017676 0.744993 0.500000
#
# Coordination Sequence:
#
# PCOD8225202 Si02
#       8
#     8   8   8   8   8   8   8   8
#     4  10  19  33  54  78 103 132 170 215 263 312
#     4   9  17  31  51  73  96 126 168 213 258 307
#     4  10  20  35  56  80 108 141 176 219 267 314
#     4   9  18  32  52  77 101 128 169 220 265 309
#     4   9  16  27  47  74 101 129 164 210 261 312
#     4  10  21  35  51  74 104 137 173 213 258 310
#     4  10  21  36  53  75 105 141 178 213 258 316
#     4   9  18  31  50  78 106 133 170 215 264 319
#
# _framework density 18.662282999999999
#
# number of rings (size 3 to 8) (size 9 to 14) (size 15 to 20)
#    0.000    2.500    0.000    2.250    0.000    7.250 
#    0.000    3.125    0.000    4.125    0.000    0.000 
#    0.000    0.000    0.000    0.000    0.000    0.000 
#
# Total GULP energy -793257.373890 kJ/mol
# GULP energy per Si atom -12394.646467 kJ/mol
# Density = 1.861981 g / cm^3
# Si number density = 18.662283 Si / 1000 Ang^3
#
#
#
# Elastic Constant Matrix: (Units=GPa)
#
#
# Indices 1 2 3 4 5 6 
#
# 1 99.5526 34.7089 41.3437 0.0000 0.0000 0.0000
# 2 34.7089 84.8743 22.5725 0.0000 0.0000 0.0000
# 3 41.3437 22.5725 61.6592 0.0000 0.0000 0.0000
# 4 0.0000 0.0000 0.0000 10.0571 0.0000 0.0000
# 5 0.0000 0.0000 0.0000 0.0000 21.3563 0.0000
# 6 0.0000 0.0000 0.0000 0.0000 0.0000 27.6280
#
#
#
# Elastic Compliance Matrix: (Units=1/GPa)
#
#
# Indices 1 2 3 4 5 6 
#
# 1 0.014963 -0.003823 -0.008634 0.000000 0.000000 0.000000
# 2 -0.003823 0.014030 -0.002573 0.000000 0.000000 0.000000
# 3 -0.008634 -0.002573 0.022949 0.000000 0.000000 0.000000
# 4 0.000000 0.000000 0.000000 0.099432 0.000000 0.000000
# 5 0.000000 0.000000 0.000000 0.000000 0.046825 0.000000
# 6 0.000000 0.000000 0.000000 0.000000 0.000000 0.036195
#
#
# Mechanical properties :
#
#
# Convention : Reuss Voigt Hill
#
# Bulk Modulus (GPa) = 45.69672 49.25959 47.47815
# Shear Modulus (GPa) = 18.39943 21.63900 20.01921
#
# Velocity S-wave (km/s) = 3.14334 3.40884 3.27878
# Velocity P-wave (km/s) = 6.14112 6.47659 6.31108
#
# Compressibility (1/GPa) = 0.02188341
#
# Stress axis : x y z
#
# Youngs Moduli (GPa) = 66.82993 71.27718 43.57482
#
# Poissons Ratio (x) = 0.27250 0.37621
# Poissons Ratio (y) = 0.25549 0.11210
# Poissons Ratio (z) = 0.57699 0.18337
#
# Static dielectric constant tensor:
#      x y z
#    x 3.618120 0.000000 0.000000 
#    y 0.000000 3.423980 0.000000 
#    z 0.000000 0.000000 3.392720 
# 
# 
# High freq. dielectric constant tensor:
#      x y z
#    x 1.737150 0.000000 0.000000 
#    y 0.000000 1.717800 0.000000 
#    z 0.000000 0.000000 1.690920 
# 
# From -- ./inp_files/8954.got.cif
#   From: 2010.03.12/outbox.cif.g09.slc.cpg/sg55_5_cif.got.tgz:8954.got - 2010.04.16 15:19:21.
