data_PCOD8225427
_publ_section_title
;
Structure prediction by ZEFSAII (Michael W. Deem and Ramdas Pophale) SiO2 
 PCOD8225427
Probable space group: P B A M
;
_chemical_formula_sum "Si O2"
_cell_formula_units_Z 64
_cell_length_a 14.632934
_cell_length_b 24.639660
_cell_length_c 8.612582
_cell_angle_alpha 90.000000
_cell_angle_beta 90.000000
_cell_angle_gamma 90.000000
_cell_volume 3105.270906
_symmetry_space_group_name_H-M "P B A M"
_symmetry_group_IT_number 55
_symmetry_cell_setting 'orthorhombic'
loop_
_space_group_symop_operation_xyz
x,y,z
-x,-y,z
1/2+x,1/2-y,-z
1/2-x,1/2+y,-z
-x,-y,-z
x,y,-z
1/2-x,1/2+y,z
1/2+x,1/2-y,z
loop_
_atom_site_type_symbol
_atom_site_label
_atom_site_fract_x
_atom_site_fract_y
_atom_site_fract_z
Si Si1 0.434655 0.548938 0.317649
Si Si2 0.055126 0.553279 0.317424
Si Si3 0.738514 0.583553 0.320897
Si Si4 0.135557 0.757425 0.818818
Si Si5 0.012692 0.664015 0.179174
Si Si6 0.186753 0.312774 0.823183
Si Si7 0.739650 0.975107 0.180175
Si Si8 0.063002 0.872009 0.816837
O O1 0.500000 0.500000 0.258071
O O2 0.444463 0.556495 0.500000
O O3 0.329552 0.539959 0.276094
O O4 0.464311 0.605347 0.233510
O O5 0.070247 0.549002 0.500000
O O6 0.001015 0.608471 0.275414
O O7 0.152813 0.560082 0.233195
O O8 0.000000 0.500000 0.258156
O O9 0.743770 0.566716 0.500000
O O10 0.792330 0.638742 0.293365
O O11 0.786795 0.537128 0.218971
O O12 0.633713 0.588128 0.269110
O O13 0.093034 0.702081 0.747614
O O14 0.244587 0.762672 0.781151
O O15 0.081277 0.810626 0.757295
O O16 0.116408 0.752591 0.000000
O O17 0.920080 0.700701 0.194149
O O18 0.030293 0.648410 0.000000
O O19 0.210421 0.330877 0.000000
O O20 0.758703 0.965716 0.000000
O O21 0.077655 0.875875 0.000000
#
# Coordination Sequence:
#
# PCOD8225427 Si02
#       8
#     8   8   8   8   8   8   8   8
#     4  11  22  36  56  85 125 165 200 246 306 364
#     4  11  25  44  64  88 122 159 197 251 315 375
#     4  11  20  32  53  82 116 152 194 244 297 350
#     4   8  17  35  57  86 118 149 195 251 298 345
#     4  10  20  38  63  89 118 155 201 250 301 361
#     4   9  18  34  58  84 112 151 196 245 295 350
#     4  12  24  38  59  86 117 157 202 246 297 362
#     4  10  19  34  56  83 116 156 206 249 289 347
#
# _framework density 20.610119000000001
#
# number of rings (size 3 to 8) (size 9 to 14) (size 15 to 20)
#    0.000    1.750    1.250    4.875    0.000    4.000 
#    2.250    3.125    0.000    0.000    0.000    0.000 
#    0.000    0.000    0.000    0.000    0.000    0.000 
#
# Total GULP energy -793409.026797 kJ/mol
# GULP energy per Si atom -12397.016044 kJ/mol
# Density = 2.056321 g / cm^3
# Si number density = 20.610119 Si / 1000 Ang^3
#
#
#
# Elastic Constant Matrix: (Units=GPa)
#
#
# Indices 1 2 3 4 5 6 
#
# 1 115.2870 44.0885 15.1796 0.0000 0.0000 0.0000
# 2 44.0885 96.6209 18.4643 0.0000 0.0000 0.0000
# 3 15.1796 18.4643 59.3143 0.0000 0.0000 0.0000
# 4 0.0000 0.0000 0.0000 17.7534 0.0000 0.0000
# 5 0.0000 0.0000 0.0000 0.0000 26.7676 0.0000
# 6 0.0000 0.0000 0.0000 0.0000 0.0000 33.8126
#
#
#
# Elastic Compliance Matrix: (Units=1/GPa)
#
#
# Indices 1 2 3 4 5 6 
#
# 1 0.010599 -0.004591 -0.001283 0.000000 0.000000 0.000000
# 2 -0.004591 0.012993 -0.002870 0.000000 0.000000 0.000000
# 3 -0.001283 -0.002870 0.018081 0.000000 0.000000 0.000000
# 4 0.000000 0.000000 0.000000 0.056327 0.000000 0.000000
# 5 0.000000 0.000000 0.000000 0.000000 0.037359 0.000000
# 6 0.000000 0.000000 0.000000 0.000000 0.000000 0.029575
#
#
# Mechanical properties :
#
#
# Convention : Reuss Voigt Hill
#
# Bulk Modulus (GPa) = 41.34826 47.40969 44.37897
# Shear Modulus (GPa) = 26.24908 28.56605 27.40756
#
# Velocity S-wave (km/s) = 3.57263 3.72697 3.65061
# Velocity P-wave (km/s) = 6.09294 6.44775 6.27285
#
# Compressibility (1/GPa) = 0.02418481
#
# Stress axis : x y z
#
# Youngs Moduli (GPa) = 94.35148 76.96440 55.30641
#
# Poissons Ratio (x) = 0.35334 0.07097
# Poissons Ratio (y) = 0.43317 0.15872
# Poissons Ratio (z) = 0.12108 0.22087
#
# Static dielectric constant tensor:
#      x y z
#    x 3.863630 0.000000 0.000000 
#    y 0.000000 3.706140 0.000000 
#    z 0.000000 0.000000 3.478520 
# 
# 
# High freq. dielectric constant tensor:
#      x y z
#    x 1.811440 0.000000 0.000000 
#    y 0.000000 1.788390 0.000000 
#    z 0.000000 0.000000 1.789900 
# 
# From -- ./inp_files/6714.got.cif
#   From: 2010.03.12/outbox.cif.g09.slc.cpg/sg55_4_cif.got.tgz:6714.got - 2010.04.16 15:19:21.
