data_PCOD8225213
_publ_section_title
;
Structure prediction by ZEFSAII (Michael W. Deem and Ramdas Pophale) SiO2 
 PCOD8225213
Probable space group: P B A M
;
_chemical_formula_sum "Si O2"
_cell_formula_units_Z 48
_cell_length_a 17.822616
_cell_length_b 8.850861
_cell_length_c 15.508334
_cell_angle_alpha 90.000000
_cell_angle_beta 90.000000
_cell_angle_gamma 90.000000
_cell_volume 2446.369852
_symmetry_space_group_name_H-M "P B A M"
_symmetry_group_IT_number 55
_symmetry_cell_setting 'orthorhombic'
loop_
_space_group_symop_operation_xyz
x,y,z
-x,-y,z
1/2+x,1/2-y,-z
1/2-x,1/2+y,-z
-x,-y,-z
x,y,-z
1/2-x,1/2+y,z
1/2+x,1/2-y,z
loop_
_atom_site_type_symbol
_atom_site_label
_atom_site_fract_x
_atom_site_fract_y
_atom_site_fract_z
Si Si1 0.805284 0.297595 0.813041
Si Si2 0.807056 0.092249 0.500000
Si Si3 0.850614 0.637727 0.812110
Si Si4 0.847834 0.746099 0.500000
Si Si5 0.395676 0.368423 0.331233
Si Si6 0.652740 0.155508 0.000000
Si Si7 0.790816 0.335108 0.000000
Si Si8 0.937172 0.786865 0.666951
O O1 0.817745 0.472937 0.789466
O O2 0.717652 0.256474 0.801623
O O3 0.856106 0.193546 0.753667
O O4 0.829463 0.268995 0.913169
O O5 0.719270 0.126946 0.500000
O O6 0.845393 0.163278 0.584663
O O7 0.814141 0.913063 0.500000
O O8 0.916538 0.680435 0.747058
O O9 0.890474 0.646326 0.908006
O O10 0.899121 0.716805 0.582700
O O11 0.408278 0.544821 0.316168
O O12 0.473826 0.282618 0.345973
O O13 0.710136 0.015452 0.000000
O O14 0.702173 0.305428 0.000000
#
# Coordination Sequence:
#
# PCOD8225213 Si02
#       8
#     8   4   8   4   8   4   4   8
#     4  10  19  33  54  79 106 137 175 217 260 307
#     4  10  21  37  57  79 103 134 171 212 258 308
#     4  10  19  33  54  79 106 137 175 217 260 307
#     4  10  21  37  57  79 103 134 171 212 258 308
#     4  10  21  37  55  76 105 140 175 212 257 308
#     4   8  16  30  49  74 103 135 171 213 259 304
#     4   8  16  30  49  74 103 135 171 213 259 304
#     4  10  21  37  55  76 105 140 175 212 257 308
#
# _framework density 19.620908
#
# number of rings (size 3 to 8) (size 9 to 14) (size 15 to 20)
#    0.000    2.333    0.000    2.500    0.000    8.000 
#    0.000    0.833    0.000    8.000    0.000    0.000 
#    0.000    0.000    0.000    0.000    0.000    0.000 
#
# Total GULP energy -594976.536764 kJ/mol
# GULP energy per Si atom -12395.344516 kJ/mol
# Density = 1.957625 g / cm^3
# Si number density = 19.620908 Si / 1000 Ang^3
#
#
#
# Elastic Constant Matrix: (Units=GPa)
#
#
# Indices 1 2 3 4 5 6 
#
# 1 52.6228 -7.0459 23.0683 0.0000 0.0000 0.0000
# 2 -7.0459 21.4590 17.5270 0.0000 0.0000 0.0000
# 3 23.0683 17.5270 122.0652 0.0000 0.0000 0.0000
# 4 0.0000 0.0000 0.0000 32.3690 0.0000 0.0000
# 5 0.0000 0.0000 0.0000 0.0000 8.8637 0.0000
# 6 0.0000 0.0000 0.0000 0.0000 0.0000 27.6500
#
#
#
# Elastic Compliance Matrix: (Units=1/GPa)
#
#
# Indices 1 2 3 4 5 6 
#
# 1 0.023475 0.012837 -0.006279 0.000000 0.000000 0.000000
# 2 0.012837 0.059811 -0.011014 0.000000 0.000000 0.000000
# 3 -0.006279 -0.011014 0.010961 0.000000 0.000000 0.000000
# 4 0.000000 0.000000 0.000000 0.030894 0.000000 0.000000
# 5 0.000000 0.000000 0.000000 0.000000 0.112819 0.000000
# 6 0.000000 0.000000 0.000000 0.000000 0.000000 0.036166
#
#
# Mechanical properties :
#
#
# Convention : Reuss Voigt Hill
#
# Bulk Modulus (GPa) = 11.71889 29.24952 20.48420
# Shear Modulus (GPa) = 16.05221 24.61640 20.33431
#
# Velocity S-wave (km/s) = 2.86338 3.54588 3.22275
# Velocity P-wave (km/s) = 4.11309 5.63063 4.93060
#
# Compressibility (1/GPa) = 0.08533235
#
# Stress axis : x y z
#
# Youngs Moduli (GPa) = 42.59918 16.71933 91.23660
#
# Poissons Ratio (x) = -0.21462 0.57292
# Poissons Ratio (y) = -0.54683 1.00488
# Poissons Ratio (z) = 0.26750 0.18415
#
# Static dielectric constant tensor:
#      x y z
#    x 3.274000 0.000000 0.000000 
#    y 0.000000 3.485920 0.000000 
#    z 0.000000 0.000000 3.938110 
# 
# 
# High freq. dielectric constant tensor:
#      x y z
#    x 1.732500 0.000000 0.000000 
#    y 0.000000 1.760940 0.000000 
#    z 0.000000 0.000000 1.787470 
# 
# From -- ./inp_files/17457.got.cif
#   From: 2010.03.12/outbox.cif.g09.slc.cpg/sg55_9_cif.got.tgz:17457.got - 2010.04.16 15:19:21.
