data_PCOD8225873
_publ_section_title
;
Structure prediction by ZEFSAII (Michael W. Deem and Ramdas Pophale) SiO2 
 PCOD8225873
Probable space group: P B A M
;
_chemical_formula_sum "Si O2"
_cell_formula_units_Z 64
_cell_length_a 22.125541
_cell_length_b 16.042253
_cell_length_c 9.704145
_cell_angle_alpha 90.000000
_cell_angle_beta 90.000000
_cell_angle_gamma 90.000000
_cell_volume 3444.423448
_symmetry_space_group_name_H-M "P B A M"
_symmetry_group_IT_number 55
_symmetry_cell_setting 'orthorhombic'
loop_
_space_group_symop_operation_xyz
x,y,z
-x,-y,z
1/2+x,1/2-y,-z
1/2-x,1/2+y,-z
-x,-y,-z
x,y,-z
1/2-x,1/2+y,z
1/2+x,1/2-y,z
loop_
_atom_site_type_symbol
_atom_site_label
_atom_site_fract_x
_atom_site_fract_y
_atom_site_fract_z
Si Si1 0.299942 0.923935 0.349996
Si Si2 0.829377 0.024777 0.339863
Si Si3 0.020557 0.593850 0.839506
Si Si4 0.216928 0.122673 0.840618
Si Si5 0.519241 0.250022 0.659890
Si Si6 0.654147 0.942512 0.844906
Si Si7 0.157493 0.240609 0.350064
Si Si8 0.961216 0.078846 0.662666
O O1 0.302931 0.967647 0.500000
O O2 0.228677 0.915989 0.310085
O O3 0.333339 0.837927 0.354886
O O4 0.339804 0.976274 0.246283
O O5 0.834217 0.998362 0.500000
O O6 0.890987 0.070119 0.294171
O O7 0.821138 0.943760 0.246351
O O8 0.092156 0.604836 0.811853
O O9 0.000000 0.500000 0.795445
O O10 0.990387 0.666060 0.748420
O O11 0.004097 0.608466 0.000000
O O12 0.288890 0.117506 0.819081
O O13 0.198244 0.210364 0.776498
O O14 0.198570 0.115866 0.000000
O O15 0.503346 0.230274 0.500000
O O16 0.587896 0.279292 0.676603
O O17 0.482089 0.330140 0.718249
O O18 0.653344 0.976232 0.000000
O O19 0.176740 0.202766 0.500000
O O20 0.970362 0.079807 0.500000
O O21 0.000000 0.000000 0.722716
#
# Coordination Sequence:
#
# PCOD8225873 Si02
#       8
#     8   8   8   8   8   8   8   8
#     4   9  18  31  50  75  98 125 164 210 256 303
#     4   9  17  32  52  72  97 129 166 208 256 308
#     4  10  21  37  56  77 106 145 180 213 262 319
#     4  10  20  33  51  75 101 132 171 212 256 309
#     4  10  21  35  54  81 107 136 178 222 262 312
#     4   9  19  35  52  73 102 134 170 210 255 309
#     4  10  20  34  51  74 104 133 167 213 262 309
#     4   9  17  31  52  75 101 135 170 206 255 312
#
# _framework density 18.580757999999999
#
# number of rings (size 3 to 8) (size 9 to 14) (size 15 to 20)
#    0.000    2.500    0.000    1.875    0.000    5.250 
#    0.000    1.875    0.000    1.500    0.000    0.000 
#    0.000    0.000    0.000    0.000    0.000    0.000 
#
# Total GULP energy -793209.299415 kJ/mol
# GULP energy per Si atom -12393.895303 kJ/mol
# Density = 1.853847 g / cm^3
# Si number density = 18.580758 Si / 1000 Ang^3
#
#
#
# Elastic Constant Matrix: (Units=GPa)
#
#
# Indices 1 2 3 4 5 6 
#
# 1 64.5761 17.0774 34.0704 0.0000 0.0000 0.0000
# 2 17.0774 71.9671 35.5466 0.0000 0.0000 0.0000
# 3 34.0704 35.5466 76.0267 0.0000 0.0000 0.0000
# 4 0.0000 0.0000 0.0000 68.3008 0.0000 0.0000
# 5 0.0000 0.0000 0.0000 0.0000 23.6765 0.0000
# 6 0.0000 0.0000 0.0000 0.0000 0.0000 25.7487
#
#
#
# Elastic Compliance Matrix: (Units=1/GPa)
#
#
# Indices 1 2 3 4 5 6 
#
# 1 0.020291 -0.000421 -0.008896 0.000000 0.000000 0.000000
# 2 -0.000421 0.018076 -0.008263 0.000000 0.000000 0.000000
# 3 -0.008896 -0.008263 0.021004 0.000000 0.000000 0.000000
# 4 0.000000 0.000000 0.000000 0.014641 0.000000 0.000000
# 5 0.000000 0.000000 0.000000 0.000000 0.042236 0.000000
# 6 0.000000 0.000000 0.000000 0.000000 0.000000 0.038837
#
#
# Mechanical properties :
#
#
# Convention : Reuss Voigt Hill
#
# Bulk Modulus (GPa) = 41.30486 42.88428 42.09457
# Shear Modulus (GPa) = 25.21242 31.93690 28.57466
#
# Velocity S-wave (km/s) = 3.68762 4.15036 3.92581
# Velocity P-wave (km/s) = 6.35685 6.78950 6.57674
#
# Compressibility (1/GPa) = 0.02421023
#
# Stress axis : x y z
#
# Youngs Moduli (GPa) = 49.28402 55.32050 47.61107
#
# Poissons Ratio (x) = 0.02327 0.42356
# Poissons Ratio (y) = 0.02073 0.39342
# Poissons Ratio (z) = 0.43844 0.45712
#
# Static dielectric constant tensor:
#      x y z
#    x 3.603860 0.000000 0.000000 
#    y 0.000000 3.280230 0.000000 
#    z 0.000000 0.000000 3.490760 
# 
# 
# High freq. dielectric constant tensor:
#      x y z
#    x 1.733640 0.000000 0.000000 
#    y 0.000000 1.708140 0.000000 
#    z 0.000000 0.000000 1.706790 
# 
# From -- ./inp_files/9011.got.cif
#   From: 2010.03.12/outbox.cif.g09.slc.cpg/sg55_5_cif.got.tgz:9011.got - 2010.04.16 15:19:21.
