data_PCOD8225657
_publ_section_title
;
Structure prediction by ZEFSAII (Michael W. Deem and Ramdas Pophale) SiO2 
 PCOD8225657
Probable space group: P B A M
;
_chemical_formula_sum "Si O2"
_cell_formula_units_Z 40
_cell_length_a 26.469906
_cell_length_b 10.231161
_cell_length_c 7.665737
_cell_angle_alpha 90.000000
_cell_angle_beta 90.000000
_cell_angle_gamma 90.000000
_cell_volume 2076.018566
_symmetry_space_group_name_H-M "P B A M"
_symmetry_group_IT_number 55
_symmetry_cell_setting 'orthorhombic'
loop_
_space_group_symop_operation_xyz
x,y,z
-x,-y,z
1/2+x,1/2-y,-z
1/2-x,1/2+y,-z
-x,-y,-z
x,y,-z
1/2-x,1/2+y,z
1/2+x,1/2-y,z
loop_
_atom_site_type_symbol
_atom_site_label
_atom_site_fract_x
_atom_site_fract_y
_atom_site_fract_z
Si Si1 0.055333 0.338074 0.500000
Si Si2 0.558755 0.851927 0.500000
Si Si3 0.704325 0.010288 0.803436
Si Si4 0.369784 0.766941 0.209666
Si Si5 0.351544 0.238347 0.692399
Si Si6 0.814648 0.991047 0.800587
O O1 0.058609 0.493086 0.500000
O O2 0.079112 0.282563 0.679148
O O3 0.997069 0.292111 0.500000
O O4 0.589235 0.801711 0.672666
O O5 0.678732 0.868257 0.802780
O O6 0.759380 0.006895 0.709396
O O7 0.667593 0.118713 0.720473
O O8 0.712910 0.056971 0.000000
O O9 0.345644 0.630795 0.275154
O O10 0.381010 0.773329 0.000000
O O11 0.326400 0.245077 0.500000
O O12 0.347800 0.378514 0.783445
O O13 0.804606 0.955948 0.000000
#
# Coordination Sequence:
#
# PCOD8225657 Si02
#       6
#     4   4   8   8   8   8
#     4  11  20  43  64  80 117 142 187 259 290 326
#     4   9  22  39  60  84 107 144 189 243 300 334
#     4  10  19  36  57  80 116 155 189 228 274 333
#     4  10  21  37  59  88 113 151 197 228 285 343
#     4  10  20  36  53  85 111 144 192 227 281 337
#     4  10  21  36  55  82 121 156 183 227 282 341
#
# _framework density 19.267651999999998
#
# number of rings (size 3 to 8) (size 9 to 14) (size 15 to 20)
#    0.600    1.400    2.000    1.800    1.400    4.000 
#    3.600    6.000    0.000    2.400    0.000    0.000 
#    0.000    0.000    0.000    0.000    0.000    0.000 
#
# Total GULP energy -495718.627927 kJ/mol
# GULP energy per Si atom -12392.965698 kJ/mol
# Density = 1.922380 g / cm^3
# Si number density = 19.267652 Si / 1000 Ang^3
#
#
#
# Elastic Constant Matrix: (Units=GPa)
#
#
# Indices 1 2 3 4 5 6 
#
# 1 160.9230 56.5950 31.2638 0.0000 0.0000 0.0000
# 2 56.5950 138.2784 6.0028 0.0000 0.0000 0.0000
# 3 31.2638 6.0028 49.9032 0.0000 0.0000 0.0000
# 4 0.0000 0.0000 0.0000 23.5635 0.0000 0.0000
# 5 0.0000 0.0000 0.0000 0.0000 12.8874 0.0000
# 6 0.0000 0.0000 0.0000 0.0000 0.0000 19.0483
#
#
#
# Elastic Compliance Matrix: (Units=1/GPa)
#
#
# Indices 1 2 3 4 5 6 
#
# 1 0.008262 -0.003173 -0.004794 0.000000 0.000000 0.000000
# 2 -0.003173 0.008489 0.000967 0.000000 0.000000 0.000000
# 3 -0.004794 0.000967 0.022926 0.000000 0.000000 0.000000
# 4 0.000000 0.000000 0.000000 0.042439 0.000000 0.000000
# 5 0.000000 0.000000 0.000000 0.000000 0.077595 0.000000
# 6 0.000000 0.000000 0.000000 0.000000 0.000000 0.052498
#
#
# Mechanical properties :
#
#
# Convention : Reuss Voigt Hill
#
# Bulk Modulus (GPa) = 38.94799 59.64754 49.29776
# Shear Modulus (GPa) = 21.29774 28.11605 24.70690
#
# Velocity S-wave (km/s) = 3.32831 3.82414 3.58481
# Velocity P-wave (km/s) = 5.91847 7.10797 6.54032
#
# Compressibility (1/GPa) = 0.02567527
#
# Stress axis : x y z
#
# Youngs Moduli (GPa) = 121.04333 117.80593 43.61878
#
# Poissons Ratio (x) = 0.37382 0.20911
# Poissons Ratio (y) = 0.38409 -0.04217
# Poissons Ratio (z) = 0.58029 -0.11390
#
# Static dielectric constant tensor:
#      x y z
#    x 3.585610 0.000000 0.000000 
#    y 0.000000 3.470140 0.000000 
#    z 0.000000 0.000000 3.309920 
# 
# 
# High freq. dielectric constant tensor:
#      x y z
#    x 1.734680 0.000000 0.000000 
#    y 0.000000 1.757240 0.000000 
#    z 0.000000 0.000000 1.732820 
# 
# From -- ./inp_files/10003.got.cif
#   From: 2010.03.12/outbox.cif.g09.slc.cpg/sg55_6_cif.got.tgz:10003.got - 2010.04.16 15:19:21.
