data_PCOD8225168
_publ_section_title
;
Structure prediction by ZEFSAII (Michael W. Deem and Ramdas Pophale) SiO2 
 PCOD8225168
Probable space group: P B A M
;
_chemical_formula_sum "Si O2"
_cell_formula_units_Z 64
_cell_length_a 19.533246
_cell_length_b 20.576334
_cell_length_c 9.016272
_cell_angle_alpha 90.000000
_cell_angle_beta 90.000000
_cell_angle_gamma 90.000000
_cell_volume 3623.843429
_symmetry_space_group_name_H-M "P B A M"
_symmetry_group_IT_number 55
_symmetry_cell_setting 'orthorhombic'
loop_
_space_group_symop_operation_xyz
x,y,z
-x,-y,z
1/2+x,1/2-y,-z
1/2-x,1/2+y,-z
-x,-y,-z
x,y,-z
1/2-x,1/2+y,z
1/2+x,1/2-y,z
loop_
_atom_site_type_symbol
_atom_site_label
_atom_site_fract_x
_atom_site_fract_y
_atom_site_fract_z
Si Si1 0.438226 0.235330 0.328286
Si Si2 0.793753 0.321128 0.671045
Si Si3 0.923993 0.727055 0.829005
Si Si4 0.568715 0.631876 0.171836
Si Si5 0.212582 0.920695 0.170027
Si Si6 0.578487 0.379696 0.169362
Si Si7 0.717231 0.433118 0.824728
Si Si8 0.211839 0.305550 0.675519
O O1 0.457076 0.244174 0.500000
O O2 0.374869 0.186756 0.305988
O O3 0.503820 0.206358 0.243283
O O4 0.413766 0.304216 0.264559
O O5 0.775044 0.330691 0.500000
O O6 0.774111 0.385956 0.758124
O O7 0.752584 0.258231 0.732635
O O8 0.911824 0.803197 0.807538
O O9 0.862913 0.689769 0.747472
O O10 0.924701 0.706224 0.000000
O O11 0.630111 0.581018 0.189718
O O12 0.496963 0.600539 0.231568
O O13 0.558051 0.653169 0.000000
O O14 0.247633 0.869808 0.277947
O O15 0.236509 0.992889 0.214822
O O16 0.231936 0.904287 0.000000
O O17 0.642496 0.415818 0.247008
O O18 0.581096 0.400927 0.000000
O O19 0.716017 0.421963 0.000000
O O20 0.204866 0.304971 0.500000
#
# Coordination Sequence:
#
# PCOD8225168 Si02
#       8
#     8   8   8   8   8   8   8   8
#     4  10  19  33  52  78 108 138 175 219 264 316
#     4  10  21  35  53  78 106 140 180 219 263 314
#     4  10  19  33  54  82 108 135 173 220 271 317
#     4   9  17  30  48  73 106 143 181 217 258 307
#     4  10  21  34  51  77 108 144 183 224 268 315
#     4   8  15  28  47  73 103 137 173 211 254 304
#     4  10  20  34  52  76 107 143 182 223 269 315
#     4  11  21  35  55  79 106 142 181 220 267 316
#
# _framework density 17.660806999999998
#
# number of rings (size 3 to 8) (size 9 to 14) (size 15 to 20)
#    0.000    2.250    2.500    1.875    0.000    2.500 
#    0.000    2.500    0.000    0.750    0.000    8.750 
#    0.000    0.000    0.000    0.000    0.000    0.000 
#
# Total GULP energy -793451.358389 kJ/mol
# GULP energy per Si atom -12397.677475 kJ/mol
# Density = 1.762061 g / cm^3
# Si number density = 17.660807 Si / 1000 Ang^3
#
#
#
# Elastic Constant Matrix: (Units=GPa)
#
#
# Indices 1 2 3 4 5 6 
#
# 1 101.9708 41.4702 43.3764 0.0000 0.0000 0.0000
# 2 41.4702 72.5703 34.0615 0.0000 0.0000 0.0000
# 3 43.3764 34.0615 69.8019 0.0000 0.0000 0.0000
# 4 0.0000 0.0000 0.0000 20.8442 0.0000 0.0000
# 5 0.0000 0.0000 0.0000 0.0000 27.6413 0.0000
# 6 0.0000 0.0000 0.0000 0.0000 0.0000 21.7110
#
#
#
# Elastic Compliance Matrix: (Units=1/GPa)
#
#
# Indices 1 2 3 4 5 6 
#
# 1 0.014782 -0.005364 -0.006568 0.000000 0.000000 0.000000
# 2 -0.005364 0.019820 -0.006338 0.000000 0.000000 0.000000
# 3 -0.006568 -0.006338 0.021501 0.000000 0.000000 0.000000
# 4 0.000000 0.000000 0.000000 0.047975 0.000000 0.000000
# 5 0.000000 0.000000 0.000000 0.000000 0.036178 0.000000
# 6 0.000000 0.000000 0.000000 0.000000 0.000000 0.046060
#
#
# Mechanical properties :
#
#
# Convention : Reuss Voigt Hill
#
# Bulk Modulus (GPa) = 51.12100 53.57325 52.34712
# Shear Modulus (GPa) = 21.79807 22.40163 22.09985
#
# Velocity S-wave (km/s) = 3.51702 3.56538 3.54128
# Velocity P-wave (km/s) = 6.74547 6.88111 6.81363
#
# Compressibility (1/GPa) = 0.01956143
#
# Stress axis : x y z
#
# Youngs Moduli (GPa) = 67.64767 50.45386 46.50977
#
# Poissons Ratio (x) = 0.27066 0.30550
# Poissons Ratio (y) = 0.36289 0.29478
# Poissons Ratio (z) = 0.44434 0.31978
#
# Static dielectric constant tensor:
#      x y z
#    x 3.424080 0.000000 0.000000 
#    y 0.000000 2.985500 0.000000 
#    z 0.000000 0.000000 3.163650 
# 
# 
# High freq. dielectric constant tensor:
#      x y z
#    x 1.693360 0.000000 0.000000 
#    y 0.000000 1.651370 0.000000 
#    z 0.000000 0.000000 1.671520 
# 
# From -- ./inp_files/7968.got.cif
#   From: 2010.03.12/outbox.cif.g09.slc.cpg/sg55_4_cif.got.tgz:7968.got - 2010.04.16 15:19:21.
