data_PCOD8225851
_publ_section_title
;
Structure prediction by ZEFSAII (Michael W. Deem and Ramdas Pophale) SiO2 
 PCOD8225851
Probable space group: P B A M
;
_chemical_formula_sum "Si O2"
_cell_formula_units_Z 64
_cell_length_a 14.223816
_cell_length_b 30.462844
_cell_length_c 8.694904
_cell_angle_alpha 90.000000
_cell_angle_beta 90.000000
_cell_angle_gamma 90.000000
_cell_volume 3767.483539
_symmetry_space_group_name_H-M "P B A M"
_symmetry_group_IT_number 55
_symmetry_cell_setting 'orthorhombic'
loop_
_space_group_symop_operation_xyz
x,y,z
-x,-y,z
1/2+x,1/2-y,-z
1/2-x,1/2+y,-z
-x,-y,-z
x,y,-z
1/2-x,1/2+y,z
1/2+x,1/2-y,z
loop_
_atom_site_type_symbol
_atom_site_label
_atom_site_fract_x
_atom_site_fract_y
_atom_site_fract_z
Si Si1 0.395281 0.049514 0.681257
Si Si2 0.163575 0.633308 0.173057
Si Si3 0.297258 0.866281 0.679700
Si Si4 0.219447 0.215706 0.817030
Si Si5 0.660713 0.698854 0.819845
Si Si6 0.519773 0.268416 0.319114
Si Si7 0.968590 0.677607 0.825802
Si Si8 0.106619 0.452715 0.317651
O O1 0.397167 0.052599 0.500000
O O2 0.323723 0.086820 0.741246
O O3 0.501321 0.055931 0.746859
O O4 0.358370 0.001214 0.733490
O O5 0.223955 0.673078 0.244868
O O6 0.053897 0.644151 0.182454
O O7 0.197523 0.626328 0.000000
O O8 0.272236 0.865535 0.500000
O O9 0.211110 0.846823 0.776415
O O10 0.388537 0.836438 0.707579
O O11 0.320795 0.915501 0.741605
O O12 0.274173 0.260013 0.768563
O O13 0.119889 0.213055 0.733412
O O14 0.206482 0.214657 0.000000
O O15 0.562966 0.698088 0.726671
O O16 0.639286 0.700477 0.000000
O O17 0.520378 0.259757 0.500000
O O18 0.493921 0.224728 0.225487
O O19 0.928078 0.680500 0.000000
O O20 0.101029 0.449626 0.500000
#
# Coordination Sequence:
#
# PCOD8225851 Si02
#       8
#     8   8   8   8   8   8   8   8
#     4   9  16  30  49  71 100 136 169 203 250 301
#     4  10  20  33  49  72 100 135 174 208 245 297
#     4  11  20  32  50  76 102 134 177 216 247 291
#     4  10  21  37  53  70 100 138 171 204 252 308
#     4  11  22  37  54  72 101 140 171 204 254 308
#     4  12  24  36  52  75 101 130 174 222 251 288
#     4  11  20  32  48  70 104 141 172 205 254 303
#     4   8  16  29  47  71 103 136 166 203 253 301
#
# _framework density 16.987465
#
# number of rings (size 3 to 8) (size 9 to 14) (size 15 to 20)
#    0.000    1.750    3.750    3.000    0.000    1.500 
#    0.000    2.500    0.000    0.000    0.000    0.875 
#    0.000    7.000    0.000    0.000    0.000    0.000 
#
# Total GULP energy -793444.850054 kJ/mol
# GULP energy per Si atom -12397.575782 kJ/mol
# Density = 1.694880 g / cm^3
# Si number density = 16.987465 Si / 1000 Ang^3
#
#
#
# Elastic Constant Matrix: (Units=GPa)
#
#
# Indices 1 2 3 4 5 6 
#
# 1 68.8543 31.0369 24.3511 0.0000 0.0000 0.0000
# 2 31.0369 119.1004 28.0343 0.0000 0.0000 0.0000
# 3 24.3511 28.0343 46.5860 0.0000 0.0000 0.0000
# 4 0.0000 0.0000 0.0000 24.1365 0.0000 0.0000
# 5 0.0000 0.0000 0.0000 0.0000 22.9334 0.0000
# 6 0.0000 0.0000 0.0000 0.0000 0.0000 26.0554
#
#
#
# Elastic Compliance Matrix: (Units=1/GPa)
#
#
# Indices 1 2 3 4 5 6 
#
# 1 0.018692 -0.002995 -0.007968 0.000000 0.000000 0.000000
# 2 -0.002995 0.010262 -0.004610 0.000000 0.000000 0.000000
# 3 -0.007968 -0.004610 0.028404 0.000000 0.000000 0.000000
# 4 0.000000 0.000000 0.000000 0.041431 0.000000 0.000000
# 5 0.000000 0.000000 0.000000 0.000000 0.043605 0.000000
# 6 0.000000 0.000000 0.000000 0.000000 0.000000 0.038380
#
#
# Mechanical properties :
#
#
# Convention : Reuss Voigt Hill
#
# Bulk Modulus (GPa) = 38.14992 44.59835 41.37413
# Shear Modulus (GPa) = 22.65969 24.69962 23.67966
#
# Velocity S-wave (km/s) = 3.65623 3.81726 3.73761
# Velocity P-wave (km/s) = 6.35063 6.76308 6.56010
#
# Compressibility (1/GPa) = 0.02621238
#
# Stress axis : x y z
#
# Youngs Moduli (GPa) = 53.50022 97.44790 35.20574
#
# Poissons Ratio (x) = 0.29190 0.28051
# Poissons Ratio (y) = 0.16026 0.16228
# Poissons Ratio (z) = 0.42627 0.44920
#
# Static dielectric constant tensor:
#      x y z
#    x 2.997150 0.000000 0.000000 
#    y 0.000000 3.413920 0.000000 
#    z 0.000000 0.000000 3.041310 
# 
# 
# High freq. dielectric constant tensor:
#      x y z
#    x 1.624650 0.000000 0.000000 
#    y 0.000000 1.652070 0.000000 
#    z 0.000000 0.000000 1.647980 
# 
# From -- ./inp_files/6928.got.cif
#   From: 2010.03.12/outbox.cif.g09.slc.cpg/sg55_4_cif.got.tgz:6928.got - 2010.04.16 15:19:21.
