data_PCOD8225059
_publ_section_title
;
Structure prediction by ZEFSAII (Michael W. Deem and Ramdas Pophale) SiO2 
 PCOD8225059
Probable space group: P B A M
;
_chemical_formula_sum "Si O2"
_cell_formula_units_Z 64
_cell_length_a 14.503226
_cell_length_b 25.340874
_cell_length_c 8.808563
_cell_angle_alpha 90.000000
_cell_angle_beta 90.000000
_cell_angle_gamma 90.000000
_cell_volume 3237.362031
_symmetry_space_group_name_H-M "P B A M"
_symmetry_group_IT_number 55
_symmetry_cell_setting 'orthorhombic'
loop_
_space_group_symop_operation_xyz
x,y,z
-x,-y,z
1/2+x,1/2-y,-z
1/2-x,1/2+y,-z
-x,-y,-z
x,y,-z
1/2-x,1/2+y,z
1/2+x,1/2-y,z
loop_
_atom_site_type_symbol
_atom_site_label
_atom_site_fract_x
_atom_site_fract_y
_atom_site_fract_z
Si Si1 0.658717 0.916307 0.828224
Si Si2 0.312712 0.383499 0.666720
Si Si3 0.115635 0.222628 0.822081
Si Si4 0.047961 0.424495 0.172223
Si Si5 0.296179 0.190915 0.679502
Si Si6 0.094535 0.789112 0.177950
Si Si7 0.118127 0.330075 0.332115
Si Si8 0.287871 0.983585 0.320806
O O1 0.557701 0.943709 0.825997
O O2 0.654767 0.862339 0.733537
O O3 0.728877 0.959244 0.756263
O O4 0.689535 0.903574 0.000000
O O5 0.360930 0.382776 0.500000
O O6 0.369340 0.347739 0.783374
O O7 0.210581 0.362273 0.646953
O O8 0.296715 0.443932 0.725292
O O9 0.190522 0.186448 0.737148
O O10 0.140419 0.281683 0.776164
O O11 0.011675 0.210630 0.768897
O O12 0.128030 0.214365 0.000000
O O13 0.044172 0.366115 0.245940
O O14 0.112739 0.462340 0.268956
O O15 0.085925 0.421627 0.000000
O O16 0.296955 0.194995 0.500000
O O17 0.349081 0.242823 0.739925
O O18 0.103833 0.778880 0.000000
O O19 0.081303 0.313006 0.500000
O O20 0.290521 0.991072 0.500000
#
# Coordination Sequence:
#
# PCOD8225059 Si02
#       8
#     8   8   8   8   8   8   8   8
#     4  11  23  38  55  79 114 153 195 238 289 350
#     4   9  19  35  55  81 112 145 186 233 280 336
#     4  11  23  38  57  83 116 153 193 238 291 349
#     4  10  20  33  52  80 114 153 193 235 284 342
#     4  12  25  40  60  86 119 158 196 239 292 348
#     4  11  23  38  60  88 117 152 193 239 292 347
#     4  10  19  32  52  80 111 147 188 231 281 337
#     4  10  21  36  56  82 113 150 194 242 290 343
#
# _framework density 19.769182000000001
#
# number of rings (size 3 to 8) (size 9 to 14) (size 15 to 20)
#    0.000    1.500    1.250    5.250    0.000   11.000 
#    0.000    0.000    0.000    0.750    0.000    5.250 
#    0.000    0.000    0.000    0.000    0.000    0.000 
#
# Total GULP energy -793385.466172 kJ/mol
# GULP energy per Si atom -12396.647909 kJ/mol
# Density = 1.972419 g / cm^3
# Si number density = 19.769182 Si / 1000 Ang^3
#
#
#
# Elastic Constant Matrix: (Units=GPa)
#
#
# Indices 1 2 3 4 5 6 
#
# 1 67.3081 13.2048 37.8949 0.0000 0.0000 0.0000
# 2 13.2048 53.1334 17.0848 0.0000 0.0000 0.0000
# 3 37.8949 17.0848 104.5571 0.0000 0.0000 0.0000
# 4 0.0000 0.0000 0.0000 30.3705 0.0000 0.0000
# 5 0.0000 0.0000 0.0000 0.0000 13.3914 0.0000
# 6 0.0000 0.0000 0.0000 0.0000 0.0000 18.5386
#
#
#
# Elastic Compliance Matrix: (Units=1/GPa)
#
#
# Indices 1 2 3 4 5 6 
#
# 1 0.019013 -0.002648 -0.006458 0.000000 0.000000 0.000000
# 2 -0.002648 0.020233 -0.002346 0.000000 0.000000 0.000000
# 3 -0.006458 -0.002346 0.012288 0.000000 0.000000 0.000000
# 4 0.000000 0.000000 0.000000 0.032927 0.000000 0.000000
# 5 0.000000 0.000000 0.000000 0.000000 0.074675 0.000000
# 6 0.000000 0.000000 0.000000 0.000000 0.000000 0.053941
#
#
# Mechanical properties :
#
#
# Convention : Reuss Voigt Hill
#
# Bulk Modulus (GPa) = 34.93036 40.15196 37.54116
# Shear Modulus (GPa) = 20.36454 22.91437 21.63946
#
# Velocity S-wave (km/s) = 3.21302 3.40824 3.31207
# Velocity P-wave (km/s) = 5.61000 5.98687 5.80150
#
# Compressibility (1/GPa) = 0.02862839
#
# Stress axis : x y z
#
# Youngs Moduli (GPa) = 52.59687 49.42375 81.37937
#
# Poissons Ratio (x) = 0.13090 0.52555
# Poissons Ratio (y) = 0.13930 0.19094
# Poissons Ratio (z) = 0.33967 0.11596
#
# Static dielectric constant tensor:
#      x y z
#    x 3.501900 0.000000 0.000000 
#    y 0.000000 3.780660 0.000000 
#    z 0.000000 0.000000 3.750730 
# 
# 
# High freq. dielectric constant tensor:
#      x y z
#    x 1.739200 0.000000 0.000000 
#    y 0.000000 1.769630 0.000000 
#    z 0.000000 0.000000 1.783690 
# 
# From -- ./inp_files/6619.got.cif
#   From: 2010.03.12/outbox.cif.g09.slc.cpg/sg55_4_cif.got.tgz:6619.got - 2010.04.16 15:19:21.
