data_PCOD8225904
_publ_section_title
;
Structure prediction by ZEFSAII (Michael W. Deem and Ramdas Pophale) SiO2 
 PCOD8225904
Probable space group: P B A M
;
_chemical_formula_sum "Si O2"
_cell_formula_units_Z 64
_cell_length_a 16.175793
_cell_length_b 22.297008
_cell_length_c 9.185492
_cell_angle_alpha 90.000000
_cell_angle_beta 90.000000
_cell_angle_gamma 90.000000
_cell_volume 3312.947804
_symmetry_space_group_name_H-M "P B A M"
_symmetry_group_IT_number 55
_symmetry_cell_setting 'orthorhombic'
loop_
_space_group_symop_operation_xyz
x,y,z
-x,-y,z
1/2+x,1/2-y,-z
1/2-x,1/2+y,-z
-x,-y,-z
x,y,-z
1/2-x,1/2+y,z
1/2+x,1/2-y,z
loop_
_atom_site_type_symbol
_atom_site_label
_atom_site_fract_x
_atom_site_fract_y
_atom_site_fract_z
Si Si1 0.074103 0.366772 0.661243
Si Si2 0.414438 0.468235 0.673649
Si Si3 0.384436 0.335363 0.329052
Si Si4 0.764942 0.964518 0.168871
Si Si5 0.239711 0.670768 0.168553
Si Si6 0.281869 0.776716 0.661145
Si Si7 0.091007 0.481325 0.171368
Si Si8 0.575721 0.793232 0.326805
O O1 0.056729 0.393854 0.500000
O O2 0.135553 0.312480 0.646220
O O3 0.111621 0.416283 0.766388
O O4 0.993916 0.337236 0.735529
O O5 0.500000 0.500000 0.724525
O O6 0.406053 0.471365 0.500000
O O7 0.415425 0.399352 0.735090
O O8 0.333456 0.500473 0.738662
O O9 0.388813 0.343824 0.500000
O O10 0.290601 0.320526 0.279320
O O11 0.438265 0.276926 0.279824
O O12 0.779943 0.894076 0.194914
O O13 0.669443 0.977730 0.218228
O O14 0.776082 0.982188 0.000000
O O15 0.301384 0.721871 0.228716
O O16 0.158468 0.679549 0.263260
O O17 0.218923 0.680737 0.000000
O O18 0.255532 0.752359 0.500000
O O19 0.000000 0.500000 0.234863
O O20 0.084413 0.478190 0.000000
O O21 0.576841 0.796883 0.500000
#
# Coordination Sequence:
#
# PCOD8225904 Si02
#       8
#     8   8   8   8   8   8   8   8
#     4  10  20  33  53  82 110 137 173 218 268 321
#     4  10  21  36  57  83 106 136 182 228 267 314
#     4   8  15  31  51  71 100 134 168 209 258 310
#     4  10  22  38  55  77 109 148 181 217 271 323
#     4  10  20  35  54  76 103 136 178 220 260 314
#     4   9  18  33  53  76 104 136 168 213 272 322
#     4  10  21  37  56  79 112 152 187 222 268 323
#     4   9  18  33  53  76 105 139 171 211 265 318
#
# _framework density 19.318142999999999
#
# number of rings (size 3 to 8) (size 9 to 14) (size 15 to 20)
#    0.000    2.500    0.000    2.625    0.000    6.000 
#    0.000    6.250    0.000    1.500    0.000    0.000 
#    0.000    0.000    0.000    0.000    0.000    0.000 
#
# Total GULP energy -792963.496666 kJ/mol
# GULP energy per Si atom -12390.054635 kJ/mol
# Density = 1.927417 g / cm^3
# Si number density = 19.318143 Si / 1000 Ang^3
#
#
#
# Elastic Constant Matrix: (Units=GPa)
#
#
# Indices 1 2 3 4 5 6 
#
# 1 68.2965 22.2282 23.9871 0.0000 0.0000 0.0000
# 2 22.2282 103.3342 32.5250 0.0000 0.0000 0.0000
# 3 23.9871 32.5250 23.5874 0.0000 0.0000 0.0000
# 4 0.0000 0.0000 0.0000 27.1940 0.0000 0.0000
# 5 0.0000 0.0000 0.0000 0.0000 21.1016 0.0000
# 6 0.0000 0.0000 0.0000 0.0000 0.0000 26.7316
#
#
#
# Elastic Compliance Matrix: (Units=1/GPa)
#
#
# Indices 1 2 3 4 5 6 
#
# 1 0.023872 0.004428 -0.030382 0.000000 0.000000 0.000000
# 2 0.004428 0.017920 -0.029213 0.000000 0.000000 0.000000
# 3 -0.030382 -0.029213 0.113574 0.000000 0.000000 0.000000
# 4 0.000000 0.000000 0.000000 0.036773 0.000000 0.000000
# 5 0.000000 0.000000 0.000000 0.000000 0.047390 0.000000
# 6 0.000000 0.000000 0.000000 0.000000 0.000000 0.037409
#
#
# Mechanical properties :
#
#
# Convention : Reuss Voigt Hill
#
# Bulk Modulus (GPa) = 22.20632 39.18875 30.69753
# Shear Modulus (GPa) = 12.42912 22.77061 17.59986
#
# Velocity S-wave (km/s) = 2.53927 3.43697 3.02164
# Velocity P-wave (km/s) = 4.48522 6.00669 5.30083
#
# Compressibility (1/GPa) = 0.04503222
#
# Stress axis : x y z
#
# Youngs Moduli (GPa) = 41.89071 55.80439 8.80482
#
# Poissons Ratio (x) = -0.24709 0.26751
# Poissons Ratio (y) = -0.18548 0.25721
# Poissons Ratio (z) = 1.27271 1.63020
#
# Static dielectric constant tensor:
#      x y z
#    x 3.592490 0.000000 0.000000 
#    y 0.000000 3.867450 0.000000 
#    z 0.000000 0.000000 3.393150 
# 
# 
# High freq. dielectric constant tensor:
#      x y z
#    x 1.747240 0.000000 0.000000 
#    y 0.000000 1.762810 0.000000 
#    z 0.000000 0.000000 1.726660 
# 
# From -- ./inp_files/8053.got.cif
#   From: 2010.03.12/outbox.cif.g09.slc.cpg/sg55_5_cif.got.tgz:8053.got - 2010.04.16 15:19:21.
