data_PCOD8225493
_publ_section_title
;
Structure prediction by ZEFSAII (Michael W. Deem and Ramdas Pophale) SiO2 
 PCOD8225493
Probable space group: P B A M
;
_chemical_formula_sum "Si O2"
_cell_formula_units_Z 56
_cell_length_a 10.988328
_cell_length_b 25.416902
_cell_length_c 10.514250
_cell_angle_alpha 90.000000
_cell_angle_beta 90.000000
_cell_angle_gamma 90.000000
_cell_volume 2936.517059
_symmetry_space_group_name_H-M "P B A M"
_symmetry_group_IT_number 55
_symmetry_cell_setting 'orthorhombic'
loop_
_space_group_symop_operation_xyz
x,y,z
-x,-y,z
1/2+x,1/2-y,-z
1/2-x,1/2+y,-z
-x,-y,-z
x,y,-z
1/2-x,1/2+y,z
1/2+x,1/2-y,z
loop_
_atom_site_type_symbol
_atom_site_label
_atom_site_fract_x
_atom_site_fract_y
_atom_site_fract_z
Si Si1 0.259947 0.940646 0.144899
Si Si2 0.255879 0.245188 0.714780
Si Si3 0.762545 0.444556 0.851535
Si Si4 0.863591 0.160723 0.150236
Si Si5 0.993679 0.381394 0.852849
Si Si6 0.489717 0.794034 0.361507
Si Si7 0.632129 0.344110 0.852099
O O1 0.178190 0.895229 0.211231
O O2 0.398836 0.923257 0.153455
O O3 0.243839 0.997920 0.213030
O O4 0.216305 0.946571 0.000000
O O5 0.271815 0.293388 0.811975
O O6 0.383400 0.239530 0.638876
O O7 0.237137 0.189884 0.786372
O O8 0.131719 0.257051 0.637164
O O9 0.878969 0.413376 0.798758
O O10 0.647683 0.406536 0.824031
O O11 0.785417 0.453941 0.000000
O O12 0.999760 0.173560 0.197176
O O13 0.856761 0.155189 0.000000
O O14 0.017484 0.332542 0.759140
O O15 0.976669 0.361198 0.000000
O O16 0.488094 0.822973 0.500000
O O17 0.646508 0.332894 0.000000
#
# Coordination Sequence:
#
# PCOD8225493 Si02
#       7
#     8   8   8   8   8   8   8
#     4   9  17  30  51  81 115 150 188 234 287 342
#     4  12  22  40  58  80 113 154 197 238 293 350
#     4   9  17  30  51  81 115 150 188 234 287 342
#     4  10  20  32  52  85 118 151 193 242 290 340
#     4  10  19  34  58  86 114 147 189 235 288 345
#     4  12  26  41  61  87 117 153 198 242 290 348
#     4  10  20  32  52  85 118 151 193 242 290 340
#
# _framework density 19.070211
#
# number of rings (size 3 to 8) (size 9 to 14) (size 15 to 20)
#    0.000    1.714    4.286    1.286    0.000    3.429 
#    0.000    2.857    0.000    1.714    0.000    0.000 
#    0.000    3.429    0.000    0.000    0.000    0.000 
#
# Total GULP energy -693773.413501 kJ/mol
# GULP energy per Si atom -12388.810955 kJ/mol
# Density = 1.902681 g / cm^3
# Si number density = 19.070211 Si / 1000 Ang^3
#
#
#
# Elastic Constant Matrix: (Units=GPa)
#
#
# Indices 1 2 3 4 5 6 
#
# 1 103.3872 32.3035 22.4535 0.0000 0.0000 0.0000
# 2 32.3035 122.9889 33.0128 0.0000 0.0000 0.0000
# 3 22.4535 33.0128 56.2609 0.0000 0.0000 0.0000
# 4 0.0000 0.0000 0.0000 5.5136 0.0000 0.0000
# 5 0.0000 0.0000 0.0000 0.0000 2.6354 0.0000
# 6 0.0000 0.0000 0.0000 0.0000 0.0000 27.8490
#
#
#
# Elastic Compliance Matrix: (Units=1/GPa)
#
#
# Indices 1 2 3 4 5 6 
#
# 1 0.011002 -0.002031 -0.003199 0.000000 0.000000 0.000000
# 2 -0.002031 0.010026 -0.005072 0.000000 0.000000 0.000000
# 3 -0.003199 -0.005072 0.022027 0.000000 0.000000 0.000000
# 4 0.000000 0.000000 0.000000 0.181370 0.000000 0.000000
# 5 0.000000 0.000000 0.000000 0.000000 0.379442 0.000000
# 6 0.000000 0.000000 0.000000 0.000000 0.000000 0.035908
#
#
# Mechanical properties :
#
#
# Convention : Reuss Voigt Hill
#
# Bulk Modulus (GPa) = 44.54305 50.90853 47.72579
# Shear Modulus (GPa) = 7.48656 20.19075 13.83866
#
# Velocity S-wave (km/s) = 1.98351 3.25739 2.69675
# Velocity P-wave (km/s) = 5.35293 6.39537 5.89723
#
# Compressibility (1/GPa) = 0.02245019
#
# Stress axis : x y z
#
# Youngs Moduli (GPa) = 90.89490 99.74274 45.39795
#
# Poissons Ratio (x) = 0.20257 0.14523
# Poissons Ratio (y) = 0.18460 0.23028
# Poissons Ratio (z) = 0.29077 0.50593
#
# Static dielectric constant tensor:
#      x y z
#    x 3.770640 0.000000 0.000000 
#    y 0.000000 3.667480 0.000000 
#    z 0.000000 0.000000 2.963740 
# 
# 
# High freq. dielectric constant tensor:
#      x y z
#    x 1.761700 0.000000 0.000000 
#    y 0.000000 1.746270 0.000000 
#    z 0.000000 0.000000 1.673790 
# 
# From -- ./inp_files/13512.got.cif
#   From: 2010.03.12/outbox.cif.g09.slc.cpg/sg55_7_cif.got.tgz:13512.got - 2010.04.16 15:19:21.
