data_PCOD8225462
_publ_section_title
;
Structure prediction by ZEFSAII (Michael W. Deem and Ramdas Pophale) SiO2 
 PCOD8225462
Probable space group: P B A M
;
_chemical_formula_sum "Si O2"
_cell_formula_units_Z 56
_cell_length_a 22.416802
_cell_length_b 14.494860
_cell_length_c 8.557872
_cell_angle_alpha 90.000000
_cell_angle_beta 90.000000
_cell_angle_gamma 90.000000
_cell_volume 2780.695713
_symmetry_space_group_name_H-M "P B A M"
_symmetry_group_IT_number 55
_symmetry_cell_setting 'orthorhombic'
loop_
_space_group_symop_operation_xyz
x,y,z
-x,-y,z
1/2+x,1/2-y,-z
1/2-x,1/2+y,-z
-x,-y,-z
x,y,-z
1/2-x,1/2+y,z
1/2+x,1/2-y,z
loop_
_atom_site_type_symbol
_atom_site_label
_atom_site_fract_x
_atom_site_fract_y
_atom_site_fract_z
Si Si1 0.114719 0.286873 0.318171
Si Si2 0.214585 0.408141 0.182879
Si Si3 0.383534 0.208163 0.817332
Si Si4 0.151832 0.902715 0.816908
Si Si5 0.722472 0.901213 0.681235
Si Si6 0.495576 0.106778 0.682798
Si Si7 0.851067 0.895596 0.183379
O O1 0.127099 0.299375 0.500000
O O2 0.170751 0.325000 0.222794
O O3 0.108536 0.179086 0.274163
O O4 0.055852 0.341810 0.267620
O O5 0.280875 0.380419 0.239686
O O6 0.194418 0.499413 0.276043
O O7 0.211887 0.430019 0.000000
O O8 0.390933 0.317062 0.771206
O O9 0.327992 0.172958 0.718026
O O10 0.443134 0.153754 0.778985
O O11 0.368811 0.197732 0.000000
O O12 0.129913 0.002353 0.751481
O O13 0.154091 0.916598 0.000000
O O14 0.739707 0.896272 0.500000
O O15 0.780975 0.880554 0.783389
O O16 0.481817 0.117448 0.500000
O O17 0.500000 0.000000 0.731240
O O18 0.862797 0.883998 0.000000
#
# Coordination Sequence:
#
# PCOD8225462 Si02
#       7
#     8   8   8   8   8   8   8
#     4  11  22  36  56  83 114 148 188 234 286 337
#     4  10  19  34  57  84 115 150 187 227 278 338
#     4  11  21  36  59  84 109 142 190 237 281 335
#     4   8  18  35  55  81 111 142 178 228 278 324
#     4  11  21  34  54  84 120 151 183 227 283 339
#     4  10  23  42  59  78 110 148 184 227 281 339
#     4  10  20  37  58  81 113 150 189 230 277 334
#
# _framework density 20.138845
#
# number of rings (size 3 to 8) (size 9 to 14) (size 15 to 20)
#    0.000    1.857    0.000    5.571    0.000    3.714 
#    0.000    8.571    0.000    4.286    0.000    0.000 
#    0.000    0.000    0.000    0.000    0.000    0.000 
#
# Total GULP energy -694404.208698 kJ/mol
# GULP energy per Si atom -12400.075155 kJ/mol
# Density = 2.009301 g / cm^3
# Si number density = 20.138845 Si / 1000 Ang^3
#
#
#
# Elastic Constant Matrix: (Units=GPa)
#
#
# Indices 1 2 3 4 5 6 
#
# 1 64.3228 60.4613 16.4766 0.0000 0.0000 0.0000
# 2 60.4613 162.2992 23.3841 0.0000 0.0000 0.0000
# 3 16.4766 23.3841 55.8586 0.0000 0.0000 0.0000
# 4 0.0000 0.0000 0.0000 27.0271 0.0000 0.0000
# 5 0.0000 0.0000 0.0000 0.0000 25.6182 0.0000
# 6 0.0000 0.0000 0.0000 0.0000 0.0000 35.3115
#
#
#
# Elastic Compliance Matrix: (Units=1/GPa)
#
#
# Indices 1 2 3 4 5 6 
#
# 1 0.024600 -0.008640 -0.003639 0.000000 0.000000 0.000000
# 2 -0.008640 0.009591 -0.001467 0.000000 0.000000 0.000000
# 3 -0.003639 -0.001467 0.019590 0.000000 0.000000 0.000000
# 4 0.000000 0.000000 0.000000 0.037000 0.000000 0.000000
# 5 0.000000 0.000000 0.000000 0.000000 0.039035 0.000000
# 6 0.000000 0.000000 0.000000 0.000000 0.000000 0.028319
#
#
# Mechanical properties :
#
#
# Convention : Reuss Voigt Hill
#
# Bulk Modulus (GPa) = 38.03821 53.68049 45.85935
# Shear Modulus (GPa) = 25.72145 29.73529 27.72837
#
# Velocity S-wave (km/s) = 3.57768 3.84671 3.71463
# Velocity P-wave (km/s) = 5.99961 6.81488 6.42020
#
# Compressibility (1/GPa) = 0.02628935
#
# Stress axis : x y z
#
# Youngs Moduli (GPa) = 40.65039 104.26005 51.04676
#
# Poissons Ratio (x) = 0.90079 0.18578
# Poissons Ratio (y) = 0.35121 0.07487
# Poissons Ratio (z) = 0.14794 0.15292
#
# Static dielectric constant tensor:
#      x y z
#    x 3.406570 0.000000 0.000000 
#    y 0.000000 4.073680 0.000000 
#    z 0.000000 0.000000 3.488140 
# 
# 
# High freq. dielectric constant tensor:
#      x y z
#    x 1.757370 0.000000 0.000000 
#    y 0.000000 1.807370 0.000000 
#    z 0.000000 0.000000 1.777760 
# 
# From -- ./inp_files/8746.got.cif
#   From: 2010.03.12/outbox.cif.g09.slc.cpg/sg55_5_cif.got.tgz:8746.got - 2010.04.16 15:19:21.
