data_PCOD8225395
_publ_section_title
;
Structure prediction by ZEFSAII (Michael W. Deem and Ramdas Pophale) SiO2 
 PCOD8225395
Probable space group: P B A M
;
_chemical_formula_sum "Si O2"
_cell_formula_units_Z 48
_cell_length_a 13.770181
_cell_length_b 21.582913
_cell_length_c 8.076970
_cell_angle_alpha 90.000000
_cell_angle_beta 90.000000
_cell_angle_gamma 90.000000
_cell_volume 2400.480480
_symmetry_space_group_name_H-M "P B A M"
_symmetry_group_IT_number 55
_symmetry_cell_setting 'orthorhombic'
loop_
_space_group_symop_operation_xyz
x,y,z
-x,-y,z
1/2+x,1/2-y,-z
1/2-x,1/2+y,-z
-x,-y,-z
x,y,-z
1/2-x,1/2+y,z
1/2+x,1/2-y,z
loop_
_atom_site_type_symbol
_atom_site_label
_atom_site_fract_x
_atom_site_fract_y
_atom_site_fract_z
Si Si1 0.631612 0.559678 0.500000
Si Si2 0.624923 0.845589 0.687360
Si Si3 0.239037 0.406958 0.192709
Si Si4 0.595092 0.416914 0.500000
Si Si5 0.824585 0.808423 0.683387
Si Si6 0.601407 0.977384 0.188116
Si Si7 0.581454 0.192626 0.813002
O O1 0.676232 0.588725 0.330229
O O2 0.643187 0.485075 0.500000
O O3 0.520334 0.578972 0.500000
O O4 0.648823 0.831912 0.500000
O O5 0.718306 0.812638 0.773941
O O6 0.634605 0.918373 0.711318
O O7 0.520618 0.818004 0.725377
O O8 0.181863 0.470742 0.203488
O O9 0.167978 0.351445 0.252009
O O10 0.275867 0.397056 0.000000
O O11 0.629543 0.377974 0.336502
O O12 0.820575 0.777160 0.500000
O O13 0.891109 0.764594 0.796309
O O14 0.500000 0.000000 0.265863
O O15 0.583338 0.956324 0.000000
O O16 0.561933 0.173937 0.000000
#
# Coordination Sequence:
#
# PCOD8225395 Si02
#       7
#     4   8   8   4   8   8   8
#     4  11  22  41  72  87 124 173 200 273 334 366
#     4  11  22  36  61  90 118 158 202 253 308 376
#     4  10  23  38  60  99 132 161 211 257 313 391
#     4   9  22  45  63  92 117 157 224 261 313 384
#     4   9  22  42  60  82 121 155 211 262 292 366
#     4  10  19  34  55  84 126 159 189 251 308 362
#     4  11  23  40  59  89 129 166 203 251 313 377
#
# _framework density 19.995996000000002
#
# number of rings (size 3 to 8) (size 9 to 14) (size 15 to 20)
#    0.500    1.333    1.667    2.000    3.500    3.000 
#    0.000    5.000    0.000    0.000    0.000    0.000 
#    0.000    0.000    0.000    0.000    0.000    0.000 
#
# Total GULP energy -594754.055090 kJ/mol
# GULP energy per Si atom -12390.709481 kJ/mol
# Density = 1.995048 g / cm^3
# Si number density = 19.995996 Si / 1000 Ang^3
#
#
#
# Elastic Constant Matrix: (Units=GPa)
#
#
# Indices 1 2 3 4 5 6 
#
# 1 96.6686 42.7121 34.3644 0.0000 0.0000 0.0000
# 2 42.7121 102.2443 15.1959 0.0000 0.0000 0.0000
# 3 34.3644 15.1959 58.2657 0.0000 0.0000 0.0000
# 4 0.0000 0.0000 0.0000 76.3835 0.0000 0.0000
# 5 0.0000 0.0000 0.0000 0.0000 26.9624 0.0000
# 6 0.0000 0.0000 0.0000 0.0000 0.0000 26.6051
#
#
#
# Elastic Compliance Matrix: (Units=1/GPa)
#
#
# Indices 1 2 3 4 5 6 
#
# 1 0.015429 -0.005298 -0.007718 0.000000 0.000000 0.000000
# 2 -0.005298 0.011994 -0.000003 0.000000 0.000000 0.000000
# 3 -0.007718 -0.000003 0.021716 0.000000 0.000000 0.000000
# 4 0.000000 0.000000 0.000000 0.013092 0.000000 0.000000
# 5 0.000000 0.000000 0.000000 0.000000 0.037089 0.000000
# 6 0.000000 0.000000 0.000000 0.000000 0.000000 0.037587
#
#
# Mechanical properties :
#
#
# Convention : Reuss Voigt Hill
#
# Bulk Modulus (GPa) = 43.29056 49.08037 46.18547
# Shear Modulus (GPa) = 29.30035 36.98397 33.14216
#
# Velocity S-wave (km/s) = 3.83209 4.30533 4.07558
# Velocity P-wave (km/s) = 6.42468 7.02231 6.73013
#
# Compressibility (1/GPa) = 0.02309973
#
# Stress axis : x y z
#
# Youngs Moduli (GPa) = 64.81121 83.37238 46.04957
#
# Poissons Ratio (x) = 0.44175 0.35542
# Poissons Ratio (y) = 0.34340 0.00015
# Poissons Ratio (z) = 0.50023 0.00027
#
# Static dielectric constant tensor:
#      x y z
#    x 3.681880 0.000000 0.000000 
#    y 0.000000 3.609850 0.000000 
#    z 0.000000 0.000000 3.541350 
# 
# 
# High freq. dielectric constant tensor:
#      x y z
#    x 1.784900 0.000000 0.000000 
#    y 0.000000 1.781180 0.000000 
#    z 0.000000 0.000000 1.762930 
# 
# From -- ./inp_files/4124.got.cif
#   From: 2010.03.12/outbox.cif.g09.slc.cpg/sg55_3_cif.got.tgz:4124.got - 2010.04.16 15:19:21.
