data_PCOD8225400
_publ_section_title
;
Structure prediction by ZEFSAII (Michael W. Deem and Ramdas Pophale) SiO2 
 PCOD8225400
Probable space group: P B A M
;
_chemical_formula_sum "Si O2"
_cell_formula_units_Z 64
_cell_length_a 33.415373
_cell_length_b 11.549734
_cell_length_c 9.013296
_cell_angle_alpha 90.000000
_cell_angle_beta 90.000000
_cell_angle_gamma 90.000000
_cell_volume 3478.579467
_symmetry_space_group_name_H-M "P B A M"
_symmetry_group_IT_number 55
_symmetry_cell_setting 'orthorhombic'
loop_
_space_group_symop_operation_xyz
x,y,z
-x,-y,z
1/2+x,1/2-y,-z
1/2-x,1/2+y,-z
-x,-y,-z
x,y,-z
1/2-x,1/2+y,z
1/2+x,1/2-y,z
loop_
_atom_site_type_symbol
_atom_site_label
_atom_site_fract_x
_atom_site_fract_y
_atom_site_fract_z
Si Si1 0.784385 0.621591 0.674958
Si Si2 0.902613 0.705112 0.326207
Si Si3 0.944708 0.095289 0.173148
Si Si4 0.859007 0.477503 0.326946
Si Si5 0.328207 0.679970 0.175598
Si Si6 0.967534 0.839010 0.173639
Si Si7 0.373198 0.274780 0.328951
Si Si8 0.304378 0.451297 0.329584
O O1 0.789274 0.644556 0.500000
O O2 0.816743 0.527360 0.732896
O O3 0.792550 0.742154 0.758105
O O4 0.740663 0.578348 0.717498
O O5 0.899034 0.731271 0.500000
O O6 0.894247 0.569608 0.292973
O O7 0.870828 0.784073 0.241300
O O8 0.946591 0.736767 0.266612
O O9 0.907932 0.152748 0.254182
O O10 0.985485 0.163465 0.212517
O O11 0.948774 0.961910 0.222711
O O12 0.936410 0.101094 0.000000
O O13 0.853592 0.456038 0.500000
O O14 0.869635 0.353279 0.254505
O O15 0.320615 0.548085 0.219681
O O16 0.329535 0.692092 0.000000
O O17 0.960621 0.817882 0.000000
O O18 0.385052 0.265089 0.500000
O O19 0.330681 0.336645 0.307260
O O20 0.306210 0.494608 0.500000
#
# Coordination Sequence:
#
# PCOD8225400 Si02
#       8
#     8   8   8   8   8   8   8   8
#     4   9  19  36  58  78 101 135 182 230 268 313
#     4  10  19  34  56  79 103 137 182 222 263 314
#     4   9  19  35  53  77 109 143 172 210 269 327
#     4   8  17  34  53  74 104 138 171 217 269 315
#     4  11  22  35  52  76 111 142 172 217 268 324
#     4   9  18  34  56  79 106 138 175 217 267 322
#     4  10  20  34  53  79 106 136 177 220 265 318
#     4  10  21  34  56  82 103 135 181 228 269 316
#
# _framework density 18.398313999999999
#
# number of rings (size 3 to 8) (size 9 to 14) (size 15 to 20)
#    0.000    2.500    0.000    3.750    1.750    4.000 
#    0.000    5.000    0.000    3.750    0.000    0.000 
#    0.000    0.000    0.000    0.000    0.000    0.000 
#
# Total GULP energy -793598.861829 kJ/mol
# GULP energy per Si atom -12399.982216 kJ/mol
# Density = 1.835644 g / cm^3
# Si number density = 18.398314 Si / 1000 Ang^3
#
#
#
# Elastic Constant Matrix: (Units=GPa)
#
#
# Indices 1 2 3 4 5 6 
#
# 1 85.9650 27.9003 22.8390 0.0000 0.0000 0.0000
# 2 27.9003 78.4722 21.5053 0.0000 0.0000 0.0000
# 3 22.8390 21.5053 54.4806 0.0000 0.0000 0.0000
# 4 0.0000 0.0000 0.0000 17.9779 0.0000 0.0000
# 5 0.0000 0.0000 0.0000 0.0000 19.3837 0.0000
# 6 0.0000 0.0000 0.0000 0.0000 0.0000 24.4767
#
#
#
# Elastic Compliance Matrix: (Units=1/GPa)
#
#
# Indices 1 2 3 4 5 6 
#
# 1 0.014026 -0.003785 -0.004386 0.000000 0.000000 0.000000
# 2 -0.003785 0.015310 -0.004457 0.000000 0.000000 0.000000
# 3 -0.004386 -0.004457 0.021953 0.000000 0.000000 0.000000
# 4 0.000000 0.000000 0.000000 0.055624 0.000000 0.000000
# 5 0.000000 0.000000 0.000000 0.000000 0.051590 0.000000
# 6 0.000000 0.000000 0.000000 0.000000 0.000000 0.040855
#
#
# Mechanical properties :
#
#
# Convention : Reuss Voigt Hill
#
# Bulk Modulus (GPa) = 38.41087 40.37856 39.39472
# Shear Modulus (GPa) = 21.43236 22.14589 21.78913
#
# Velocity S-wave (km/s) = 3.41678 3.47319 3.44510
# Velocity P-wave (km/s) = 6.04057 6.17079 6.10603
#
# Compressibility (1/GPa) = 0.02603430
#
# Stress axis : x y z
#
# Youngs Moduli (GPa) = 71.29453 65.31470 45.55175
#
# Poissons Ratio (x) = 0.24722 0.19979
# Poissons Ratio (y) = 0.26985 0.20302
# Poissons Ratio (z) = 0.31269 0.29110
#
# Static dielectric constant tensor:
#      x y z
#    x 3.446530 0.000000 0.000000 
#    y 0.000000 3.537010 0.000000 
#    z 0.000000 0.000000 3.184620 
# 
# 
# High freq. dielectric constant tensor:
#      x y z
#    x 1.716340 0.000000 0.000000 
#    y 0.000000 1.712080 0.000000 
#    z 0.000000 0.000000 1.694480 
# 
# From -- ./inp_files/10849.got.cif
#   From: 2010.03.12/outbox.cif.g09.slc.cpg/sg55_6_cif.got.tgz:10849.got - 2010.04.16 15:19:21.
