data_PCOD8225069
_publ_section_title
;
Structure prediction by ZEFSAII (Michael W. Deem and Ramdas Pophale) SiO2 
 PCOD8225069
Probable space group: P B A M
;
_chemical_formula_sum "Si O2"
_cell_formula_units_Z 56
_cell_length_a 18.063545
_cell_length_b 18.793720
_cell_length_c 9.175974
_cell_angle_alpha 90.000000
_cell_angle_beta 90.000000
_cell_angle_gamma 90.000000
_cell_volume 3115.070728
_symmetry_space_group_name_H-M "P B A M"
_symmetry_group_IT_number 55
_symmetry_cell_setting 'orthorhombic'
loop_
_space_group_symop_operation_xyz
x,y,z
-x,-y,z
1/2+x,1/2-y,-z
1/2-x,1/2+y,-z
-x,-y,-z
x,y,-z
1/2-x,1/2+y,z
1/2+x,1/2-y,z
loop_
_atom_site_type_symbol
_atom_site_label
_atom_site_fract_x
_atom_site_fract_y
_atom_site_fract_z
Si Si1 0.026078 0.924504 0.331102
Si Si2 0.465057 0.863145 0.830475
Si Si3 0.828333 0.539322 0.829021
Si Si4 0.112858 0.594479 0.332921
Si Si5 0.000652 0.209541 0.832634
Si Si6 0.197232 0.892636 0.664000
Si Si7 0.638586 0.750867 0.336821
O O1 0.006704 0.921463 0.500000
O O2 0.977915 0.860956 0.257905
O O3 0.112936 0.914362 0.299982
O O4 0.000000 0.000000 0.264956
O O5 0.391905 0.905281 0.784194
O O6 0.531748 0.893453 0.734050
O O7 0.448296 0.779128 0.801337
O O8 0.485370 0.875652 0.000000
O O9 0.842177 0.464356 0.753398
O O10 0.749829 0.569272 0.778155
O O11 0.825439 0.526661 0.000000
O O12 0.102636 0.570782 0.500000
O O13 0.162548 0.666752 0.321931
O O14 0.918999 0.234964 0.790171
O O15 0.002668 0.187416 0.000000
O O16 0.218461 0.916441 0.500000
O O17 0.205194 0.806291 0.680284
O O18 0.603224 0.739057 0.500000
#
# Coordination Sequence:
#
# PCOD8225069 Si02
#       7
#     8   8   8   8   8   8   8
#     4   9  18  34  55  76  99 128 162 206 259 305
#     4   9  19  34  49  69 101 137 168 202 248 297
#     4  11  22  34  48  70 105 141 167 199 248 299
#     4  10  19  32  53  78 100 127 169 213 248 289
#     4   9  16  28  49  74  97 122 157 200 241 287
#     4   9  18  34  53  72  96 127 165 205 247 298
#     4   8  16  32  52  71  93 122 157 200 246 292
#
# _framework density 17.977118999999998
#
# number of rings (size 3 to 8) (size 9 to 14) (size 15 to 20)
#    0.000    2.714    0.000    2.571    0.000    6.571 
#    0.000    1.429    0.000    5.143    0.000    0.000 
#    0.000    0.000    0.000    0.000    0.000    0.000 
#
# Total GULP energy -694010.056070 kJ/mol
# GULP energy per Si atom -12393.036716 kJ/mol
# Density = 1.793620 g / cm^3
# Si number density = 17.977119 Si / 1000 Ang^3
#
#
#
# Elastic Constant Matrix: (Units=GPa)
#
#
# Indices 1 2 3 4 5 6 
#
# 1 48.6320 44.1127 30.4291 0.0000 0.0000 0.0000
# 2 44.1127 158.2727 58.2636 0.0000 0.0000 0.0000
# 3 30.4291 58.2636 74.7889 0.0000 0.0000 0.0000
# 4 0.0000 0.0000 0.0000 32.8597 0.0000 0.0000
# 5 0.0000 0.0000 0.0000 0.0000 20.3286 0.0000
# 6 0.0000 0.0000 0.0000 0.0000 0.0000 21.7080
#
#
#
# Elastic Compliance Matrix: (Units=1/GPa)
#
#
# Indices 1 2 3 4 5 6 
#
# 1 0.030710 -0.005552 -0.008170 0.000000 0.000000 0.000000
# 2 -0.005552 0.009862 -0.005424 0.000000 0.000000 0.000000
# 3 -0.008170 -0.005424 0.020921 0.000000 0.000000 0.000000
# 4 0.000000 0.000000 0.000000 0.030432 0.000000 0.000000
# 5 0.000000 0.000000 0.000000 0.000000 0.049192 0.000000
# 6 0.000000 0.000000 0.000000 0.000000 0.000000 0.046066
#
#
# Mechanical properties :
#
#
# Convention : Reuss Voigt Hill
#
# Bulk Modulus (GPa) = 43.10087 60.81162 51.95625
# Shear Modulus (GPa) = 21.43993 24.90516 23.17254
#
# Velocity S-wave (km/s) = 3.45718 3.72611 3.59416
# Velocity P-wave (km/s) = 6.32168 7.23965 6.79618
#
# Compressibility (1/GPa) = 0.02320139
#
# Stress axis : x y z
#
# Youngs Moduli (GPa) = 32.56218 101.39508 47.79932
#
# Poissons Ratio (x) = 0.56294 0.39052
# Poissons Ratio (y) = 0.18078 0.25928
# Poissons Ratio (z) = 0.26603 0.55000
#
# Static dielectric constant tensor:
#      x y z
#    x 2.891420 0.000000 0.000000 
#    y 0.000000 3.801420 0.000000 
#    z 0.000000 0.000000 3.356260 
# 
# 
# High freq. dielectric constant tensor:
#      x y z
#    x 1.643830 0.000000 0.000000 
#    y 0.000000 1.718070 0.000000 
#    z 0.000000 0.000000 1.702260 
# 
# From -- ./inp_files/8892.got.cif
#   From: 2010.03.12/outbox.cif.g09.slc.cpg/sg55_5_cif.got.tgz:8892.got - 2010.04.16 15:19:21.
