data_PCOD8225994
_publ_section_title
;
Structure prediction by ZEFSAII (Michael W. Deem and Ramdas Pophale) SiO2 
 PCOD8225994
Probable space group: P B A M
;
_chemical_formula_sum "Si O2"
_cell_formula_units_Z 48
_cell_length_a 14.673288
_cell_length_b 13.579869
_cell_length_c 12.748225
_cell_angle_alpha 90.000000
_cell_angle_beta 90.000000
_cell_angle_gamma 90.000000
_cell_volume 2540.228254
_symmetry_space_group_name_H-M "P B A M"
_symmetry_group_IT_number 55
_symmetry_cell_setting 'orthorhombic'
loop_
_space_group_symop_operation_xyz
x,y,z
-x,-y,z
1/2+x,1/2-y,-z
1/2-x,1/2+y,-z
-x,-y,-z
x,y,-z
1/2-x,1/2+y,z
1/2+x,1/2-y,z
loop_
_atom_site_type_symbol
_atom_site_label
_atom_site_fract_x
_atom_site_fract_y
_atom_site_fract_z
Si Si1 0.106494 0.638377 0.620985
Si Si2 0.716805 0.011048 0.258521
Si Si3 0.017987 0.195664 0.118611
Si Si4 0.156126 0.816663 0.248630
Si Si5 0.464703 0.900581 0.201460
Si Si6 0.722916 0.334974 0.875920
O O1 0.079645 0.635172 0.500000
O O2 0.185047 0.556743 0.643794
O O3 0.141050 0.747925 0.649939
O O4 0.017350 0.613828 0.688393
O O5 0.803248 0.078845 0.286996
O O6 0.641667 0.091240 0.225389
O O7 0.734786 0.938090 0.161226
O O8 0.013204 0.314168 0.120833
O O9 0.117420 0.165000 0.161737
O O10 0.938823 0.153120 0.192465
O O11 0.002319 0.158604 0.000000
O O12 0.221434 0.758008 0.168486
O O13 0.500000 0.000000 0.146464
O O14 0.728804 0.327456 0.000000
#
# Coordination Sequence:
#
# PCOD8225994 Si02
#       6
#     8   8   8   8   8   8
#     4   9  20  37  57  84 109 135 184 236 283 336
#     4  10  20  34  55  80 109 145 181 226 274 326
#     4  10  20  34  53  78 113 152 186 223 269 322
#     4  10  20  36  56  78 114 147 183 227 279 325
#     4   9  18  33  55  80 107 140 181 233 284 311
#     4  10  21  35  53  81 114 149 190 228 264 321
#
# _framework density 18.895938999999998
#
# number of rings (size 3 to 8) (size 9 to 14) (size 15 to 20)
#    0.000    2.333    1.667    1.500    0.000    6.667 
#    0.000    1.667    0.000    0.000    0.000    4.667 
#    0.000    0.000    0.000    0.000    0.000    0.000 
#
# Total GULP energy -595037.999000 kJ/mol
# GULP energy per Si atom -12396.624979 kJ/mol
# Density = 1.885293 g / cm^3
# Si number density = 18.895939 Si / 1000 Ang^3
#
#
#
# Elastic Constant Matrix: (Units=GPa)
#
#
# Indices 1 2 3 4 5 6 
#
# 1 105.7686 18.5471 40.1798 0.0000 0.0000 0.0000
# 2 18.5471 58.1810 23.7715 0.0000 0.0000 0.0000
# 3 40.1798 23.7715 48.2432 0.0000 0.0000 0.0000
# 4 0.0000 0.0000 0.0000 11.8301 0.0000 0.0000
# 5 0.0000 0.0000 0.0000 0.0000 17.7958 0.0000
# 6 0.0000 0.0000 0.0000 0.0000 0.0000 34.3543
#
#
#
# Elastic Compliance Matrix: (Units=1/GPa)
#
#
# Indices 1 2 3 4 5 6 
#
# 1 0.013837 0.000373 -0.011708 0.000000 0.000000 0.000000
# 2 0.000373 0.021530 -0.010919 0.000000 0.000000 0.000000
# 3 -0.011708 -0.010919 0.035860 0.000000 0.000000 0.000000
# 4 0.000000 0.000000 0.000000 0.084530 0.000000 0.000000
# 5 0.000000 0.000000 0.000000 0.000000 0.056193 0.000000
# 6 0.000000 0.000000 0.000000 0.000000 0.000000 0.029108
#
#
# Mechanical properties :
#
#
# Convention : Reuss Voigt Hill
#
# Bulk Modulus (GPa) = 37.42796 41.90996 39.66896
# Shear Modulus (GPa) = 16.97947 21.44233 19.21090
#
# Velocity S-wave (km/s) = 3.00088 3.37227 3.19198
# Velocity P-wave (km/s) = 5.64424 6.11477 5.88421
#
# Compressibility (1/GPa) = 0.02671799
#
# Stress axis : x y z
#
# Youngs Moduli (GPa) = 72.27086 46.44612 27.88658
#
# Poissons Ratio (x) = -0.01730 0.32649
# Poissons Ratio (y) = -0.02693 0.30450
# Poissons Ratio (z) = 0.84613 0.50716
#
# Static dielectric constant tensor:
#      x y z
#    x 3.741190 0.000000 0.000000 
#    y 0.000000 3.484060 0.000000 
#    z 0.000000 0.000000 3.008140 
# 
# 
# High freq. dielectric constant tensor:
#      x y z
#    x 1.747140 0.000000 0.000000 
#    y 0.000000 1.735260 0.000000 
#    z 0.000000 0.000000 1.696700 
# 
# From -- ./inp_files/14119.got.cif
#   From: 2010.03.12/outbox.cif.g09.slc.cpg/sg55_8_cif.got.tgz:14119.got - 2010.04.16 15:19:21.
