data_PCOD8225068
_publ_section_title
;
Structure prediction by ZEFSAII (Michael W. Deem and Ramdas Pophale) SiO2 
 PCOD8225068
Probable space group: P B A M
;
_chemical_formula_sum "Si O2"
_cell_formula_units_Z 48
_cell_length_a 12.342101
_cell_length_b 22.130968
_cell_length_c 9.266541
_cell_angle_alpha 90.000000
_cell_angle_beta 90.000000
_cell_angle_gamma 90.000000
_cell_volume 2531.087494
_symmetry_space_group_name_H-M "P B A M"
_symmetry_group_IT_number 55
_symmetry_cell_setting 'orthorhombic'
loop_
_space_group_symop_operation_xyz
x,y,z
-x,-y,z
1/2+x,1/2-y,-z
1/2-x,1/2+y,-z
-x,-y,-z
x,y,-z
1/2-x,1/2+y,z
1/2+x,1/2-y,z
loop_
_atom_site_type_symbol
_atom_site_label
_atom_site_fract_x
_atom_site_fract_y
_atom_site_fract_z
Si Si1 0.758131 0.907658 0.666534
Si Si2 0.131652 0.325546 0.667195
Si Si3 0.987718 0.432573 0.667787
Si Si4 0.876512 0.011517 0.830603
Si Si5 0.919841 0.804473 0.329684
Si Si6 0.364729 0.368496 0.666632
O O1 0.783886 0.924075 0.500000
O O2 0.630208 0.903772 0.693462
O O3 0.814469 0.844420 0.710056
O O4 0.803751 0.958499 0.769811
O O5 0.098740 0.325469 0.500000
O O6 0.091906 0.262496 0.739029
O O7 0.261003 0.325776 0.685496
O O8 0.072919 0.384504 0.737646
O O9 0.015147 0.439966 0.500000
O O10 0.000000 0.500000 0.738269
O O11 0.837729 0.072662 0.757661
O O12 0.858810 0.016183 0.000000
O O13 0.000000 0.000000 0.787808
O O14 0.930129 0.798047 0.500000
O O15 0.029353 0.835214 0.269076
O O16 0.383107 0.386797 0.500000
#
# Coordination Sequence:
#
# PCOD8225068 Si02
#       6
#     8   8   8   8   8   8
#     4  10  19  32  53  77 105 135 173 218 261 310
#     4   9  18  30  49  79 112 140 171 212 261 309
#     4   9  17  29  47  74 106 138 171 211 259 307
#     4  11  22  35  52  76 106 137 172 217 269 313
#     4   9  18  29  46  78 107 134 170 214 259 302
#     4  10  19  33  55  78 106 139 175 215 256 307
#
# _framework density 18.964179999999999
#
# number of rings (size 3 to 8) (size 9 to 14) (size 15 to 20)
#    0.000    2.333    1.667    1.500    2.333    3.333 
#    0.000    0.000    0.000    6.500    0.000    0.000 
#    0.000    0.000    0.000    0.000    0.000    0.000 
#
# Total GULP energy -595068.571748 kJ/mol
# GULP energy per Si atom -12397.261911 kJ/mol
# Density = 1.892102 g / cm^3
# Si number density = 18.964180 Si / 1000 Ang^3
#
#
#
# Elastic Constant Matrix: (Units=GPa)
#
#
# Indices 1 2 3 4 5 6 
#
# 1 108.4936 54.4447 13.1870 0.0000 0.0000 0.0000
# 2 54.4447 154.4353 14.3076 0.0000 0.0000 0.0000
# 3 13.1870 14.3076 24.7182 0.0000 0.0000 0.0000
# 4 0.0000 0.0000 0.0000 -2.1353 0.0000 0.0000
# 5 0.0000 0.0000 0.0000 0.0000 9.6286 0.0000
# 6 0.0000 0.0000 0.0000 0.0000 0.0000 27.6168
#
#
#
# Elastic Compliance Matrix: (Units=1/GPa)
#
#
# Indices 1 2 3 4 5 6 
#
# 1 0.011565 -0.003704 -0.004026 0.000000 0.000000 0.000000
# 2 -0.003704 0.008029 -0.002671 0.000000 0.000000 0.000000
# 3 -0.004026 -0.002671 0.044150 0.000000 0.000000 0.000000
# 4 0.000000 0.000000 0.000000 -0.468313 0.000000 0.000000
# 5 0.000000 0.000000 0.000000 0.000000 0.103857 0.000000
# 6 0.000000 0.000000 0.000000 0.000000 0.000000 0.036210
#
#
# Mechanical properties :
#
#
# Convention : Reuss Voigt Hill
#
# Bulk Modulus (GPa) = 23.28752 50.16953 36.72852
# Shear Modulus (GPa) = -21.79724 20.73588 -0.53068
#
# Velocity S-wave (km/s) = -3.39394 3.31028 -0.52957
# Velocity P-wave (km/s) = 1.74702 6.41272 4.36296
#
# Compressibility (1/GPa) = 0.04294145
#
# Stress axis : x y z
#
# Youngs Moduli (GPa) = 86.46509 124.55529 22.65017
#
# Poissons Ratio (x) = 0.46139 0.09119
# Poissons Ratio (y) = 0.32029 0.06050
# Poissons Ratio (z) = 0.34810 0.33268
#
# Static dielectric constant tensor:
#      x y z
#    x 1.544340 0.000000 0.000000 
#    y 0.000000 3.815570 0.000000 
#    z 0.000000 0.000000 2.869820 
# 
# 
# High freq. dielectric constant tensor:
#      x y z
#    x 1.750570 0.000000 0.000000 
#    y 0.000000 1.750110 0.000000 
#    z 0.000000 0.000000 1.663970 
# 
# From -- ./inp_files/4078.got.cif
#   From: 2010.03.12/outbox.cif.g09.slc.cpg/sg55_3_cif.got.tgz:4078.got - 2010.04.16 15:19:21.
