data_PCOD8225264
_publ_section_title
;
Structure prediction by ZEFSAII (Michael W. Deem and Ramdas Pophale) SiO2 
 PCOD8225264
Probable space group: P B A M
;
_chemical_formula_sum "Si O2"
_cell_formula_units_Z 56
_cell_length_a 14.601608
_cell_length_b 21.312361
_cell_length_c 9.281399
_cell_angle_alpha 90.000000
_cell_angle_beta 90.000000
_cell_angle_gamma 90.000000
_cell_volume 2888.322557
_symmetry_space_group_name_H-M "P B A M"
_symmetry_group_IT_number 55
_symmetry_cell_setting 'orthorhombic'
loop_
_space_group_symop_operation_xyz
x,y,z
-x,-y,z
1/2+x,1/2-y,-z
1/2-x,1/2+y,-z
-x,-y,-z
x,y,-z
1/2-x,1/2+y,z
1/2+x,1/2-y,z
loop_
_atom_site_type_symbol
_atom_site_label
_atom_site_fract_x
_atom_site_fract_y
_atom_site_fract_z
Si Si1 0.829702 0.273562 0.337713
Si Si2 0.503450 0.427596 0.332323
Si Si3 0.512816 0.870294 0.663901
Si Si4 0.857380 0.457776 0.835540
Si Si5 0.208892 0.109530 0.666414
Si Si6 0.651473 0.647959 0.831053
Si Si7 0.151997 0.396861 0.838157
O O1 0.815236 0.247770 0.500000
O O2 0.927316 0.307762 0.327042
O O3 0.746726 0.320902 0.296505
O O4 0.832528 0.218080 0.224205
O O5 0.500000 0.500000 0.280347
O O6 0.477886 0.423800 0.500000
O O7 0.601693 0.396316 0.301127
O O8 0.431970 0.386426 0.245190
O O9 0.500895 0.892567 0.500000
O O10 0.559771 0.925568 0.752792
O O11 0.413066 0.856710 0.732336
O O12 0.760257 0.441606 0.763217
O O13 0.875499 0.531067 0.826579
O O14 0.855982 0.434067 0.000000
O O15 0.231378 0.094261 0.500000
O O16 0.742702 0.609632 0.792643
O O17 0.630819 0.650153 0.000000
O O18 0.137777 0.371289 0.000000
#
# Coordination Sequence:
#
# PCOD8225264 Si02
#       7
#     8   8   8   8   8   8   8
#     4   9  20  39  57  77 108 143 183 230 280 332
#     4  10  21  38  61  88 117 150 189 235 287 339
#     4  10  21  36  57  83 109 142 183 225 269 324
#     4  10  19  33  55  82 114 147 176 216 271 326
#     4   9  19  36  58  83 111 145 186 230 274 329
#     4  11  24  39  56  80 111 146 187 234 278 329
#     4  10  22  37  52  78 114 146 178 220 271 325
#
# _framework density 19.388415999999999
#
# number of rings (size 3 to 8) (size 9 to 14) (size 15 to 20)
#    0.000    2.143    0.000    3.429    0.000    8.857 
#    0.000    4.286    0.000    0.000    0.000    0.000 
#    0.000    0.000    0.000    0.000    0.000    0.000 
#
# Total GULP energy -694516.085834 kJ/mol
# GULP energy per Si atom -12402.072961 kJ/mol
# Density = 1.934429 g / cm^3
# Si number density = 19.388416 Si / 1000 Ang^3
#
#
#
# Elastic Constant Matrix: (Units=GPa)
#
#
# Indices 1 2 3 4 5 6 
#
# 1 118.7808 33.0662 66.3256 0.0000 0.0000 0.0000
# 2 33.0662 73.0269 39.6925 0.0000 0.0000 0.0000
# 3 66.3256 39.6925 106.7917 0.0000 0.0000 0.0000
# 4 0.0000 0.0000 0.0000 29.8377 0.0000 0.0000
# 5 0.0000 0.0000 0.0000 0.0000 36.3611 0.0000
# 6 0.0000 0.0000 0.0000 0.0000 0.0000 20.2262
#
#
#
# Elastic Compliance Matrix: (Units=1/GPa)
#
#
# Indices 1 2 3 4 5 6 
#
# 1 0.013094 -0.001891 -0.007429 0.000000 0.000000 0.000000
# 2 -0.001891 0.017433 -0.005305 0.000000 0.000000 0.000000
# 3 -0.007429 -0.005305 0.015950 0.000000 0.000000 0.000000
# 4 0.000000 0.000000 0.000000 0.033515 0.000000 0.000000
# 5 0.000000 0.000000 0.000000 0.000000 0.027502 0.000000
# 6 0.000000 0.000000 0.000000 0.000000 0.000000 0.049441
#
#
# Mechanical properties :
#
#
# Convention : Reuss Voigt Hill
#
# Bulk Modulus (GPa) = 58.05105 64.08534 61.06819
# Shear Modulus (GPa) = 26.05148 27.91934 26.98541
#
# Velocity S-wave (km/s) = 3.66958 3.79885 3.73477
# Velocity P-wave (km/s) = 6.92535 7.23650 7.08263
#
# Compressibility (1/GPa) = 0.01722622
#
# Stress axis : x y z
#
# Youngs Moduli (GPa) = 76.37274 57.36146 62.69507
#
# Poissons Ratio (x) = 0.10845 0.46579
# Poissons Ratio (y) = 0.14439 0.33263
# Poissons Ratio (z) = 0.56741 0.30433
#
# Static dielectric constant tensor:
#      x y z
#    x 3.668090 0.000000 0.000000 
#    y 0.000000 3.389900 0.000000 
#    z 0.000000 0.000000 3.659350 
# 
# 
# High freq. dielectric constant tensor:
#      x y z
#    x 1.765380 0.000000 0.000000 
#    y 0.000000 1.743360 0.000000 
#    z 0.000000 0.000000 1.759770 
# 
# From -- ./inp_files/6123.got.cif
#   From: 2010.03.12/outbox.cif.g09.slc.cpg/sg55_4_cif.got.tgz:6123.got - 2010.04.16 15:19:21.
