data_PCOD8225105
_publ_section_title
;
Structure prediction by ZEFSAII (Michael W. Deem and Ramdas Pophale) SiO2 
 PCOD8225105
Probable space group: P B A M
;
_chemical_formula_sum "Si O2"
_cell_formula_units_Z 56
_cell_length_a 13.018173
_cell_length_b 13.521303
_cell_length_c 14.765681
_cell_angle_alpha 90.000000
_cell_angle_beta 90.000000
_cell_angle_gamma 90.000000
_cell_volume 2599.094471
_symmetry_space_group_name_H-M "P B A M"
_symmetry_group_IT_number 55
_symmetry_cell_setting 'orthorhombic'
loop_
_space_group_symop_operation_xyz
x,y,z
-x,-y,z
1/2+x,1/2-y,-z
1/2-x,1/2+y,-z
-x,-y,-z
x,y,-z
1/2-x,1/2+y,z
1/2+x,1/2-y,z
loop_
_atom_site_type_symbol
_atom_site_label
_atom_site_fract_x
_atom_site_fract_y
_atom_site_fract_z
Si Si1 0.091269 0.191946 0.098181
Si Si2 0.191162 0.612044 0.104996
Si Si3 0.117467 0.384870 0.659382
Si Si4 0.317322 0.295266 0.599409
Si Si5 0.389254 0.299263 0.201865
Si Si6 0.396371 0.094215 0.600274
Si Si7 0.184538 0.385018 0.854253
O O1 0.188647 0.125434 0.127509
O O2 0.127453 0.306189 0.082084
O O3 0.003547 0.171802 0.172273
O O4 0.049638 0.157410 0.000000
O O5 0.128179 0.683140 0.174293
O O6 0.159110 0.497598 0.119441
O O7 0.167663 0.640872 0.000000
O O8 0.202913 0.337847 0.594573
O O9 0.131006 0.503668 0.664707
O O10 0.137034 0.348182 0.759663
O O11 0.004216 0.353582 0.627617
O O12 0.368859 0.322534 0.500000
O O13 0.379615 0.325769 0.690357
O O14 0.307931 0.176080 0.605143
O O15 0.307262 0.366143 0.146997
O O16 0.407685 0.049049 0.500000
#
# Coordination Sequence:
#
# PCOD8225105 Si02
#       7
#     8   8   8   8   8   8   8
#     4  10  21  37  57  80 109 144 179 222 274 325
#     4  10  21  37  57  82 112 144 182 225 271 328
#     4  10  19  34  54  79 110 142 180 227 273 323
#     4  10  20  34  55  81 110 145 184 229 279 325
#     4  10  21  37  54  80 114 144 182 228 272 323
#     4  10  19  32  54  80 105 138 183 228 266 318
#     4  10  21  35  55  80 109 143 178 223 271 324
#
# _framework density 21.545966
#
# number of rings (size 3 to 8) (size 9 to 14) (size 15 to 20)
#    0.000    2.000    0.000    4.286    0.000    4.000 
#    0.000    2.857    0.000    2.571    0.000   12.000 
#    0.000    0.000    0.000    0.000    0.000    0.000 
#
# Total GULP energy -693869.125243 kJ/mol
# GULP energy per Si atom -12390.520094 kJ/mol
# Density = 2.149693 g / cm^3
# Si number density = 21.545966 Si / 1000 Ang^3
#
#
#
# Elastic Constant Matrix: (Units=GPa)
#
#
# Indices 1 2 3 4 5 6 
#
# 1 80.8584 12.5987 29.4751 0.0000 0.0000 0.0000
# 2 12.5987 50.5534 -8.1810 0.0000 0.0000 0.0000
# 3 29.4751 -8.1810 106.7984 0.0000 0.0000 0.0000
# 4 0.0000 0.0000 0.0000 33.5493 0.0000 0.0000
# 5 0.0000 0.0000 0.0000 0.0000 21.7038 0.0000
# 6 0.0000 0.0000 0.0000 0.0000 0.0000 27.5451
#
#
#
# Elastic Compliance Matrix: (Units=1/GPa)
#
#
# Indices 1 2 3 4 5 6 
#
# 1 0.014641 -0.004357 -0.004374 0.000000 0.000000 0.000000
# 2 -0.004357 0.021326 0.002836 0.000000 0.000000 0.000000
# 3 -0.004374 0.002836 0.010788 0.000000 0.000000 0.000000
# 4 0.000000 0.000000 0.000000 0.029807 0.000000 0.000000
# 5 0.000000 0.000000 0.000000 0.000000 0.046075 0.000000
# 6 0.000000 0.000000 0.000000 0.000000 0.000000 0.036304
#
#
# Mechanical properties :
#
#
# Convention : Reuss Voigt Hill
#
# Bulk Modulus (GPa) = 28.60054 33.99954 31.30004
# Shear Modulus (GPa) = 27.41454 30.18081 28.79768
#
# Velocity S-wave (km/s) = 3.57091 3.74674 3.65988
# Velocity P-wave (km/s) = 5.50498 5.87636 5.69370
#
# Compressibility (1/GPa) = 0.03496437
#
# Stress axis : x y z
#
# Youngs Moduli (GPa) = 68.30280 46.89166 92.69592
#
# Poissons Ratio (x) = 0.20429 0.40549
# Poissons Ratio (y) = 0.29757 -0.26288
# Poissons Ratio (z) = 0.29878 -0.13298
#
# Static dielectric constant tensor:
#      x y z
#    x 3.698810 0.000000 0.000000 
#    y 0.000000 3.668510 0.000000 
#    z 0.000000 0.000000 4.051470 
# 
# 
# High freq. dielectric constant tensor:
#      x y z
#    x 1.827260 0.000000 0.000000 
#    y 0.000000 1.825460 0.000000 
#    z 0.000000 0.000000 1.864090 
# 
# From -- ./inp_files/18371.got.cif
#   From: 2010.03.12/outbox.cif.g09.slc.cpg/sg55_10_cif.got.tgz:18371.got - 2010.04.16 15:19:21.
