data_PCOD8225557
_publ_section_title
;
Structure prediction by ZEFSAII (Michael W. Deem and Ramdas Pophale) SiO2 
 PCOD8225557
Probable space group: P B A M
;
_chemical_formula_sum "Si O2"
_cell_formula_units_Z 48
_cell_length_a 9.115302
_cell_length_b 30.663918
_cell_length_c 8.709280
_cell_angle_alpha 90.000000
_cell_angle_beta 90.000000
_cell_angle_gamma 90.000000
_cell_volume 2434.338457
_symmetry_space_group_name_H-M "P B A M"
_symmetry_group_IT_number 55
_symmetry_cell_setting 'orthorhombic'
loop_
_space_group_symop_operation_xyz
x,y,z
-x,-y,z
1/2+x,1/2-y,-z
1/2-x,1/2+y,-z
-x,-y,-z
x,y,-z
1/2-x,1/2+y,z
1/2+x,1/2-y,z
loop_
_atom_site_type_symbol
_atom_site_label
_atom_site_fract_x
_atom_site_fract_y
_atom_site_fract_z
Si Si1 0.850854 0.448049 0.818437
Si Si2 0.652705 0.622688 0.319455
Si Si3 0.154093 0.714663 0.181988
Si Si4 0.663792 0.367654 0.816989
Si Si5 0.323786 0.799340 0.182650
Si Si6 0.819233 0.545649 0.181798
O O1 0.745373 0.410654 0.750815
O O2 0.789768 0.495446 0.770431
O O3 0.017666 0.441074 0.761218
O O4 0.855155 0.445063 0.000000
O O5 0.637019 0.625133 0.500000
O O6 0.499474 0.635168 0.244205
O O7 0.775284 0.656051 0.260971
O O8 0.699365 0.574287 0.269263
O O9 0.249143 0.674386 0.245681
O O10 0.220912 0.760098 0.241832
O O11 0.987928 0.710764 0.239780
O O12 0.160198 0.714127 0.000000
O O13 0.659048 0.368369 0.000000
O O14 0.316597 0.805185 0.000000
O O15 0.801533 0.552448 0.000000
#
# Coordination Sequence:
#
# PCOD8225557 Si02
#       6
#     8   8   8   8   8   8
#     4   8  16  32  60  89 107 129 174 225 273 323
#     4  12  25  37  49  75 111 150 188 221 259 311
#     4   9  18  33  61  91 109 130 172 221 270 322
#     4  10  19  35  57  82 109 140 176 220 266 315
#     4  10  19  36  60  85 109 137 173 220 270 321
#     4   9  17  35  60  84 107 136 174 223 273 322
#
# _framework density 19.717880999999998
#
# number of rings (size 3 to 8) (size 9 to 14) (size 15 to 20)
#    0.000    2.333    0.000    4.500    0.000    6.000 
#    0.000   12.500    0.000    0.000    0.000    0.000 
#    0.000    0.000    0.000    0.000    0.000    0.000 
#
# Total GULP energy -595235.091135 kJ/mol
# GULP energy per Si atom -12400.731065 kJ/mol
# Density = 1.967300 g / cm^3
# Si number density = 19.717881 Si / 1000 Ang^3
#
#
#
# Elastic Constant Matrix: (Units=GPa)
#
#
# Indices 1 2 3 4 5 6 
#
# 1 90.7477 28.4342 7.7599 0.0000 0.0000 0.0000
# 2 28.4342 104.3620 15.4895 0.0000 0.0000 0.0000
# 3 7.7599 15.4895 25.5385 0.0000 0.0000 0.0000
# 4 0.0000 0.0000 0.0000 5.5874 0.0000 0.0000
# 5 0.0000 0.0000 0.0000 0.0000 -1.2848 0.0000
# 6 0.0000 0.0000 0.0000 0.0000 0.0000 44.6779
#
#
#
# Elastic Compliance Matrix: (Units=1/GPa)
#
#
# Indices 1 2 3 4 5 6 
#
# 1 0.012127 -0.003030 -0.001847 0.000000 0.000000 0.000000
# 2 -0.003030 0.011287 -0.005925 0.000000 0.000000 0.000000
# 3 -0.001847 -0.005925 0.043312 0.000000 0.000000 0.000000
# 4 0.000000 0.000000 0.000000 0.178974 0.000000 0.000000
# 5 0.000000 0.000000 0.000000 0.000000 -0.778357 0.000000
# 6 0.000000 0.000000 0.000000 0.000000 0.000000 0.022382
#
#
# Mechanical properties :
#
#
# Convention : Reuss Voigt Hill
#
# Bulk Modulus (GPa) = 22.16253 36.00169 29.08211
# Shear Modulus (GPa) = -10.55673 21.06043 5.25185
#
# Velocity S-wave (km/s) = -2.31636 3.27171 1.63379
# Velocity P-wave (km/s) = 2.02736 5.70702 4.28254
#
# Compressibility (1/GPa) = 0.04512121
#
# Stress axis : x y z
#
# Youngs Moduli (GPa) = 82.46150 88.59782 23.08855
#
# Poissons Ratio (x) = 0.26844 0.04265
# Poissons Ratio (y) = 0.24985 0.13680
# Poissons Ratio (z) = 0.15231 0.52495
#
# Static dielectric constant tensor:
#      x y z
#    x 3.743990 0.000000 0.000000 
#    y 0.000000 3.939400 0.000000 
#    z 0.000000 0.000000 3.053870 
# 
# 
# High freq. dielectric constant tensor:
#      x y z
#    x 1.777140 0.000000 0.000000 
#    y 0.000000 1.787240 0.000000 
#    z 0.000000 0.000000 1.713920 
# 
# From -- ./inp_files/2762.got.cif
#   From: 2010.03.12/outbox.cif.g09.slc.cpg/sg55_2_cif.got.tgz:2762.got - 2010.04.16 15:19:21.
