data_PCOD8225311
_publ_section_title
;
Structure prediction by ZEFSAII (Michael W. Deem and Ramdas Pophale) SiO2 
 PCOD8225311
Probable space group: P B A M
;
_chemical_formula_sum "Si O2"
_cell_formula_units_Z 56
_cell_length_a 21.898831
_cell_length_b 14.735932
_cell_length_c 8.624253
_cell_angle_alpha 90.000000
_cell_angle_beta 90.000000
_cell_angle_gamma 90.000000
_cell_volume 2783.043722
_symmetry_space_group_name_H-M "P B A M"
_symmetry_group_IT_number 55
_symmetry_cell_setting 'orthorhombic'
loop_
_space_group_symop_operation_xyz
x,y,z
-x,-y,z
1/2+x,1/2-y,-z
1/2-x,1/2+y,-z
-x,-y,-z
x,y,-z
1/2-x,1/2+y,z
1/2+x,1/2-y,z
loop_
_atom_site_type_symbol
_atom_site_label
_atom_site_fract_x
_atom_site_fract_y
_atom_site_fract_z
Si Si1 0.569353 0.009164 0.183622
Si Si2 0.962407 0.862487 0.821240
Si Si3 0.410766 0.343766 0.322325
Si Si4 0.619760 0.197300 0.818451
Si Si5 0.145310 0.653810 0.680361
Si Si6 0.276433 0.670415 0.180797
Si Si7 0.138615 0.030914 0.675946
O O1 0.603071 0.098959 0.254565
O O2 0.500000 0.000000 0.250013
O O3 0.610036 0.923102 0.225706
O O4 0.565648 0.018268 0.000000
O O5 0.936401 0.763276 0.778008
O O6 0.930269 0.937369 0.713899
O O7 0.033833 0.864364 0.791400
O O8 0.949143 0.885866 0.000000
O O9 0.433674 0.339969 0.500000
O O10 0.381918 0.249710 0.269107
O O11 0.359602 0.422105 0.302231
O O12 0.683354 0.242989 0.758130
O O13 0.627619 0.185952 0.000000
O O14 0.137008 0.633343 0.500000
O O15 0.216289 0.658645 0.719237
O O16 0.315255 0.578569 0.205232
O O17 0.260275 0.679558 0.000000
O O18 0.155617 0.057828 0.500000
#
# Coordination Sequence:
#
# PCOD8225311 Si02
#       7
#     8   8   8   8   8   8   8
#     4  10  20  37  61  87 115 149 188 232 285 340
#     4  10  19  33  56  86 115 143 180 224 268 320
#     4  10  22  37  53  77 112 150 182 218 270 327
#     4   8  17  34  56  82 111 143 181 226 275 330
#     4  11  24  40  56  79 112 147 187 234 282 333
#     4  10  21  39  59  81 109 143 188 235 279 330
#     4  10  20  36  57  81 112 148 182 220 271 328
#
# _framework density 20.121855
#
# number of rings (size 3 to 8) (size 9 to 14) (size 15 to 20)
#    0.000    2.143    0.000    3.857    0.000    6.571 
#    0.000    7.143    0.000    0.000    0.000    0.000 
#    0.000    0.000    0.000    0.000    0.000    0.000 
#
# Total GULP energy -694321.036679 kJ/mol
# GULP energy per Si atom -12398.589941 kJ/mol
# Density = 2.007606 g / cm^3
# Si number density = 20.121855 Si / 1000 Ang^3
#
#
#
# Elastic Constant Matrix: (Units=GPa)
#
#
# Indices 1 2 3 4 5 6 
#
# 1 87.4798 22.8642 -5.6991 0.0000 0.0000 0.0000
# 2 22.8642 124.0014 6.8811 0.0000 0.0000 0.0000
# 3 -5.6991 6.8811 24.2580 0.0000 0.0000 0.0000
# 4 0.0000 0.0000 0.0000 23.8301 0.0000 0.0000
# 5 0.0000 0.0000 0.0000 0.0000 26.2704 0.0000
# 6 0.0000 0.0000 0.0000 0.0000 0.0000 18.9958
#
#
#
# Elastic Compliance Matrix: (Units=1/GPa)
#
#
# Indices 1 2 3 4 5 6 
#
# 1 0.012311 -0.002469 0.003593 0.000000 0.000000 0.000000
# 2 -0.002469 0.008689 -0.003045 0.000000 0.000000 0.000000
# 3 0.003593 -0.003045 0.042931 0.000000 0.000000 0.000000
# 4 0.000000 0.000000 0.000000 0.041964 0.000000 0.000000
# 5 0.000000 0.000000 0.000000 0.000000 0.038066 0.000000
# 6 0.000000 0.000000 0.000000 0.000000 0.000000 0.052643
#
#
# Mechanical properties :
#
#
# Convention : Reuss Voigt Hill
#
# Bulk Modulus (GPa) = 16.64232 31.53684 24.08958
# Shear Modulus (GPa) = 22.67832 27.93216 25.30524
#
# Velocity S-wave (km/s) = 3.36080 3.72983 3.55011
# Velocity P-wave (km/s) = 4.83205 5.85285 5.36677
#
# Compressibility (1/GPa) = 0.06008778
#
# Stress axis : x y z
#
# Youngs Moduli (GPa) = 81.23044 115.09218 23.29308
#
# Poissons Ratio (x) = 0.28420 -0.08368
# Poissons Ratio (y) = 0.20058 0.07092
# Poissons Ratio (z) = -0.29183 0.35043
#
# Static dielectric constant tensor:
#      x y z
#    x 3.605150 0.000000 0.000000 
#    y 0.000000 3.931080 0.000000 
#    z 0.000000 0.000000 3.499990 
# 
# 
# High freq. dielectric constant tensor:
#      x y z
#    x 1.780070 0.000000 0.000000 
#    y 0.000000 1.795520 0.000000 
#    z 0.000000 0.000000 1.769520 
# 
# From -- ./inp_files/6072.got.cif
#   From: 2010.03.12/outbox.cif.g09.slc.cpg/sg55_4_cif.got.tgz:6072.got - 2010.04.16 15:19:21.
