data_PCOD8225390
_publ_section_title
;
Structure prediction by ZEFSAII (Michael W. Deem and Ramdas Pophale) SiO2 
 PCOD8225390
Probable space group: P B A M
;
_chemical_formula_sum "Si O2"
_cell_formula_units_Z 64
_cell_length_a 15.323497
_cell_length_b 23.850322
_cell_length_c 9.347396
_cell_angle_alpha 90.000000
_cell_angle_beta 90.000000
_cell_angle_gamma 90.000000
_cell_volume 3416.195972
_symmetry_space_group_name_H-M "P B A M"
_symmetry_group_IT_number 55
_symmetry_cell_setting 'orthorhombic'
loop_
_space_group_symop_operation_xyz
x,y,z
-x,-y,z
1/2+x,1/2-y,-z
1/2-x,1/2+y,-z
-x,-y,-z
x,y,-z
1/2-x,1/2+y,z
1/2+x,1/2-y,z
loop_
_atom_site_type_symbol
_atom_site_label
_atom_site_fract_x
_atom_site_fract_y
_atom_site_fract_z
Si Si1 0.840241 0.366564 0.166511
Si Si2 0.997662 0.937207 0.330128
Si Si3 0.168545 0.132369 0.333687
Si Si4 0.584679 0.250973 0.664088
Si Si5 0.649145 0.128737 0.662175
Si Si6 0.154557 0.859767 0.334281
Si Si7 0.493411 0.936046 0.168772
Si Si8 0.407283 0.256136 0.167592
O O1 0.754544 0.386321 0.249735
O O2 0.921281 0.403275 0.223638
O O3 0.859701 0.302089 0.199756
O O4 0.824377 0.377623 0.000000
O O5 0.997527 0.939456 0.500000
O O6 0.083366 0.904093 0.277246
O O7 0.911743 0.904984 0.275314
O O8 0.000000 0.000000 0.265750
O O9 0.184926 0.120683 0.500000
O O10 0.149260 0.197597 0.304056
O O11 0.551507 0.253857 0.500000
O O12 0.636778 0.194319 0.697156
O O13 0.503463 0.255241 0.768457
O O14 0.620330 0.116144 0.500000
O O15 0.750240 0.113147 0.686210
O O16 0.593087 0.090356 0.765470
O O17 0.137640 0.844037 0.500000
O O18 0.150124 0.803710 0.241444
O O19 0.500000 0.000000 0.218956
O O20 0.483961 0.930328 0.000000
O O21 0.414962 0.268042 0.000000
#
# Coordination Sequence:
#
# PCOD8225390 Si02
#       8
#     8   8   8   8   8   8   8   8
#     4  10  22  38  55  81 112 144 183 228 278 327
#     4   9  18  34  56  81 110 145 184 225 272 325
#     4  10  20  35  58  86 111 145 185 222 276 335
#     4  10  19  34  55  83 114 143 178 224 284 337
#     4  10  21  35  58  87 112 142 183 235 284 327
#     4  10  20  37  58  82 115 148 181 228 281 333
#     4  10  22  41  60  77 109 155 193 230 280 333
#     4  11  21  34  56  84 111 146 186 224 274 334
#
# _framework density 18.734287999999999
#
# number of rings (size 3 to 8) (size 9 to 14) (size 15 to 20)
#    0.000    2.000    2.500    1.125    0.000    4.750 
#    0.000    1.250    0.000    1.500    0.000    0.000 
#    0.000    0.000    0.000    0.000    0.000    0.000 
#
# Total GULP energy -793814.582787 kJ/mol
# GULP energy per Si atom -12403.352856 kJ/mol
# Density = 1.869165 g / cm^3
# Si number density = 18.734288 Si / 1000 Ang^3
#
#
#
# Elastic Constant Matrix: (Units=GPa)
#
#
# Indices 1 2 3 4 5 6 
#
# 1 141.1666 62.2852 46.6638 0.0000 0.0000 0.0000
# 2 62.2852 128.8843 42.0803 0.0000 0.0000 0.0000
# 3 46.6638 42.0803 49.5922 0.0000 0.0000 0.0000
# 4 0.0000 0.0000 0.0000 23.1191 0.0000 0.0000
# 5 0.0000 0.0000 0.0000 0.0000 23.0421 0.0000
# 6 0.0000 0.0000 0.0000 0.0000 0.0000 12.5588
#
#
#
# Elastic Compliance Matrix: (Units=1/GPa)
#
#
# Indices 1 2 3 4 5 6 
#
# 1 0.010901 -0.002655 -0.008005 0.000000 0.000000 0.000000
# 2 -0.002655 0.011379 -0.007157 0.000000 0.000000 0.000000
# 3 -0.008005 -0.007157 0.033770 0.000000 0.000000 0.000000
# 4 0.000000 0.000000 0.000000 0.043254 0.000000 0.000000
# 5 0.000000 0.000000 0.000000 0.000000 0.043399 0.000000
# 6 0.000000 0.000000 0.000000 0.000000 0.000000 0.079625
#
#
# Mechanical properties :
#
#
# Convention : Reuss Voigt Hill
#
# Bulk Modulus (GPa) = 48.98104 69.07799 59.02952
# Shear Modulus (GPa) = 18.88451 22.98491 20.93471
#
# Velocity S-wave (km/s) = 3.17838 3.50650 3.34646
# Velocity P-wave (km/s) = 6.29852 7.30387 6.81975
#
# Compressibility (1/GPa) = 0.02041606
#
# Stress axis : x y z
#
# Youngs Moduli (GPa) = 91.73308 87.88464 29.61215
#
# Poissons Ratio (x) = 0.23329 0.23705
# Poissons Ratio (y) = 0.24351 0.21194
# Poissons Ratio (z) = 0.73433 0.62901
#
# Static dielectric constant tensor:
#      x y z
#    x 3.335430 0.000000 0.000000 
#    y 0.000000 3.623110 0.000000 
#    z 0.000000 0.000000 3.249320 
# 
# 
# High freq. dielectric constant tensor:
#      x y z
#    x 1.736920 0.000000 0.000000 
#    y 0.000000 1.728200 0.000000 
#    z 0.000000 0.000000 1.706410 
# 
# From -- ./inp_files/6515.got.cif
#   From: 2010.03.12/outbox.cif.g09.slc.cpg/sg55_4_cif.got.tgz:6515.got - 2010.04.16 15:19:21.
