data_PCOD8225521
_publ_section_title
;
Structure prediction by ZEFSAII (Michael W. Deem and Ramdas Pophale) SiO2 
 PCOD8225521
Probable space group: P B A M
;
_chemical_formula_sum "Si O2"
_cell_formula_units_Z 48
_cell_length_a 15.021622
_cell_length_b 18.993305
_cell_length_c 9.167958
_cell_angle_alpha 90.000000
_cell_angle_beta 90.000000
_cell_angle_gamma 90.000000
_cell_volume 2615.712373
_symmetry_space_group_name_H-M "P B A M"
_symmetry_group_IT_number 55
_symmetry_cell_setting 'orthorhombic'
loop_
_space_group_symop_operation_xyz
x,y,z
-x,-y,z
1/2+x,1/2-y,-z
1/2-x,1/2+y,-z
-x,-y,-z
x,y,-z
1/2-x,1/2+y,z
1/2+x,1/2-y,z
loop_
_atom_site_type_symbol
_atom_site_label
_atom_site_fract_x
_atom_site_fract_y
_atom_site_fract_z
Si Si1 0.270683 0.921220 0.829084
Si Si2 0.526810 0.075188 0.171987
Si Si3 0.630515 0.673866 0.671988
Si Si4 0.375257 0.178455 0.171429
Si Si5 0.967488 0.924265 0.328764
Si Si6 0.287320 0.577180 0.830514
O O1 0.372586 0.905556 0.786931
O O2 0.213883 0.867195 0.736527
O O3 0.246940 0.000505 0.782524
O O4 0.253359 0.909033 0.000000
O O5 0.461152 0.135797 0.229515
O O6 0.500000 0.000000 0.242263
O O7 0.513770 0.068936 0.000000
O O8 0.642889 0.678868 0.500000
O O9 0.627699 0.750549 0.738993
O O10 0.540240 0.633599 0.714372
O O11 0.287671 0.133765 0.208039
O O12 0.381660 0.195246 0.000000
O O13 0.950991 0.928500 0.500000
O O14 0.875737 0.901544 0.255070
O O15 0.000000 0.000000 0.268903
O O16 0.310404 0.577976 0.000000
#
# Coordination Sequence:
#
# PCOD8225521 Si02
#       6
#     8   8   8   8   8   8
#     4  10  19  34  60  90 114 142 185 234 280 333
#     4   9  16  32  60  88 113 143 180 226 280 335
#     4  11  24  40  56  79 115 155 191 231 282 333
#     4  10  21  38  59  86 118 148 182 229 285 339
#     4  10  21  38  58  80 111 153 194 232 278 331
#     4  10  20  34  59  90 114 142 186 235 282 334
#
# _framework density 18.350641
#
# number of rings (size 3 to 8) (size 9 to 14) (size 15 to 20)
#    0.000    2.000    3.333    0.500    0.000    3.667 
#    0.000    5.833    0.000    1.000    0.000    0.000 
#    0.000    0.000    0.000    0.000    0.000    0.000 
#
# Total GULP energy -595326.779603 kJ/mol
# GULP energy per Si atom -12402.641242 kJ/mol
# Density = 1.830887 g / cm^3
# Si number density = 18.350641 Si / 1000 Ang^3
#
#
#
# Elastic Constant Matrix: (Units=GPa)
#
#
# Indices 1 2 3 4 5 6 
#
# 1 155.7340 90.1915 63.3462 0.0000 0.0000 0.0000
# 2 90.1915 165.8707 58.0709 0.0000 0.0000 0.0000
# 3 63.3462 58.0709 46.9372 0.0000 0.0000 0.0000
# 4 0.0000 0.0000 0.0000 22.1886 0.0000 0.0000
# 5 0.0000 0.0000 0.0000 0.0000 15.9648 0.0000
# 6 0.0000 0.0000 0.0000 0.0000 0.0000 26.4339
#
#
#
# Elastic Compliance Matrix: (Units=1/GPa)
#
#
# Indices 1 2 3 4 5 6 
#
# 1 0.014544 -0.001828 -0.017367 0.000000 0.000000 0.000000
# 2 -0.001828 0.010865 -0.010975 0.000000 0.000000 0.000000
# 3 -0.017367 -0.010975 0.058322 0.000000 0.000000 0.000000
# 4 0.000000 0.000000 0.000000 0.045068 0.000000 0.000000
# 5 0.000000 0.000000 0.000000 0.000000 0.062638 0.000000
# 6 0.000000 0.000000 0.000000 0.000000 0.000000 0.037830
#
#
# Mechanical properties :
#
#
# Convention : Reuss Voigt Hill
#
# Bulk Modulus (GPa) = 42.75191 87.97324 65.36258
# Shear Modulus (GPa) = 16.81210 23.37967 20.09589
#
# Velocity S-wave (km/s) = 3.03010 3.57326 3.31283
# Velocity P-wave (km/s) = 5.96572 8.06650 7.09430
#
# Compressibility (1/GPa) = 0.02339077
#
# Stress axis : x y z
#
# Youngs Moduli (GPa) = 68.75640 92.03631 17.14625
#
# Poissons Ratio (x) = 0.16826 0.29777
# Poissons Ratio (y) = 0.12570 0.18818
# Poissons Ratio (z) = 1.19408 1.01012
#
# Static dielectric constant tensor:
#      x y z
#    x 3.293880 0.000000 0.000000 
#    y 0.000000 3.625690 0.000000 
#    z 0.000000 0.000000 3.124540 
# 
# 
# High freq. dielectric constant tensor:
#      x y z
#    x 1.727880 0.000000 0.000000 
#    y 0.000000 1.716270 0.000000 
#    z 0.000000 0.000000 1.686680 
# 
# From -- ./inp_files/5673.got.cif
#   From: 2010.03.12/outbox.cif.g09.slc.cpg/sg55_3_cif.got.tgz:5673.got - 2010.04.16 15:19:21.
