data_PCOD8225979
_publ_section_title
;
Structure prediction by ZEFSAII (Michael W. Deem and Ramdas Pophale) SiO2 
 PCOD8225979
Probable space group: P B A M
;
_chemical_formula_sum "Si O2"
_cell_formula_units_Z 64
_cell_length_a 22.293486
_cell_length_b 15.968451
_cell_length_c 9.663247
_cell_angle_alpha 90.000000
_cell_angle_beta 90.000000
_cell_angle_gamma 90.000000
_cell_volume 3440.042866
_symmetry_space_group_name_H-M "P B A M"
_symmetry_group_IT_number 55
_symmetry_cell_setting 'orthorhombic'
loop_
_space_group_symop_operation_xyz
x,y,z
-x,-y,z
1/2+x,1/2-y,-z
1/2-x,1/2+y,-z
-x,-y,-z
x,y,-z
1/2-x,1/2+y,z
1/2+x,1/2-y,z
loop_
_atom_site_type_symbol
_atom_site_label
_atom_site_fract_x
_atom_site_fract_y
_atom_site_fract_z
Si Si1 0.661634 0.713375 0.847671
Si Si2 0.719508 0.580231 0.656023
Si Si3 0.979766 0.906852 0.663688
Si Si4 0.471855 0.253354 0.160795
Si Si5 0.344444 0.591320 0.651879
Si Si6 0.828690 0.605475 0.162281
Si Si7 0.034276 0.417355 0.163870
Si Si8 0.715197 0.288433 0.849436
O O1 0.678096 0.649364 0.727533
O O2 0.599225 0.760628 0.820293
O O3 0.713124 0.782980 0.850397
O O4 0.659971 0.668564 0.000000
O O5 0.737891 0.608221 0.500000
O O6 0.674448 0.504001 0.648225
O O7 0.779433 0.557353 0.744166
O O8 0.990278 0.892511 0.500000
O O9 0.911084 0.899712 0.709556
O O10 0.013275 0.835374 0.749919
O O11 0.000000 0.000000 0.706938
O O12 0.504493 0.169359 0.218691
O O13 0.489265 0.268824 0.000000
O O14 0.341401 0.631312 0.500000
O O15 0.297918 0.639174 0.744607
O O16 0.895767 0.579548 0.208315
O O17 0.818088 0.703107 0.194637
O O18 0.817251 0.586022 0.000000
O O19 0.000000 0.500000 0.223617
O O20 0.028557 0.417332 0.000000
O O21 0.691063 0.314521 0.000000
#
# Coordination Sequence:
#
# PCOD8225979 Si02
#       8
#     8   8   8   8   8   8   8   8
#     4   9  19  35  53  76 104 132 168 212 258 307
#     4  10  20  34  53  75 101 135 172 210 255 309
#     4  10  21  37  55  76 107 145 179 211 257 319
#     4  10  20  35  56  81 108 138 176 220 260 305
#     4  10  21  34  49  74 104 133 170 212 253 304
#     4   9  18  34  54  76 102 132 171 215 259 307
#     4   9  18  33  55  81 107 139 178 218 263 316
#     4   9  18  32  51  75 102 132 166 209 258 306
#
# _framework density 18.604420000000001
#
# number of rings (size 3 to 8) (size 9 to 14) (size 15 to 20)
#    0.000    2.500    0.000    2.625    0.000    7.250 
#    0.000    3.125    0.000    1.500    0.000    0.000 
#    0.000    0.000    0.000    0.000    0.000    0.000 
#
# Total GULP energy -793257.343445 kJ/mol
# GULP energy per Si atom -12394.645991 kJ/mol
# Density = 1.856208 g / cm^3
# Si number density = 18.604420 Si / 1000 Ang^3
#
#
#
# Elastic Constant Matrix: (Units=GPa)
#
#
# Indices 1 2 3 4 5 6 
#
# 1 106.2195 24.7702 33.5212 0.0000 0.0000 0.0000
# 2 24.7702 73.7234 32.1244 0.0000 0.0000 0.0000
# 3 33.5212 32.1244 70.8780 0.0000 0.0000 0.0000
# 4 0.0000 0.0000 0.0000 26.8063 0.0000 0.0000
# 5 0.0000 0.0000 0.0000 0.0000 16.9516 0.0000
# 6 0.0000 0.0000 0.0000 0.0000 0.0000 22.6674
#
#
#
# Elastic Compliance Matrix: (Units=1/GPa)
#
#
# Indices 1 2 3 4 5 6 
#
# 1 0.011259 -0.001823 -0.004499 0.000000 0.000000 0.000000
# 2 -0.001823 0.017197 -0.006932 0.000000 0.000000 0.000000
# 3 -0.004499 -0.006932 0.019379 0.000000 0.000000 0.000000
# 4 0.000000 0.000000 0.000000 0.037305 0.000000 0.000000
# 5 0.000000 0.000000 0.000000 0.000000 0.058991 0.000000
# 6 0.000000 0.000000 0.000000 0.000000 0.000000 0.044116
#
#
# Mechanical properties :
#
#
# Convention : Reuss Voigt Hill
#
# Bulk Modulus (GPa) = 46.88853 47.96138 47.42495
# Shear Modulus (GPa) = 22.53629 23.97874 23.25751
#
# Velocity S-wave (km/s) = 3.48421 3.59398 3.53952
# Velocity P-wave (km/s) = 6.43769 6.56185 6.50007
#
# Compressibility (1/GPa) = 0.02132718
#
# Stress axis : x y z
#
# Youngs Moduli (GPa) = 88.81555 58.14852 51.60356
#
# Poissons Ratio (x) = 0.10598 0.23216
# Poissons Ratio (y) = 0.16188 0.35774
# Poissons Ratio (z) = 0.39957 0.40311
#
# Static dielectric constant tensor:
#      x y z
#    x 3.610820 0.000000 0.000000 
#    y 0.000000 3.244930 0.000000 
#    z 0.000000 0.000000 3.491790 
# 
# 
# High freq. dielectric constant tensor:
#      x y z
#    x 1.736990 0.000000 0.000000 
#    y 0.000000 1.705120 0.000000 
#    z 0.000000 0.000000 1.708480 
# 
# From -- ./inp_files/8961.got.cif
#   From: 2010.03.12/outbox.cif.g09.slc.cpg/sg55_5_cif.got.tgz:8961.got - 2010.04.16 15:19:21.
