data_PCOD8225696
_publ_section_title
;
Structure prediction by ZEFSAII (Michael W. Deem and Ramdas Pophale) SiO2 
 PCOD8225696
Probable space group: P B A M
;
_chemical_formula_sum "Si O2"
_cell_formula_units_Z 56
_cell_length_a 16.783809
_cell_length_b 19.622380
_cell_length_c 8.481370
_cell_angle_alpha 90.000000
_cell_angle_beta 90.000000
_cell_angle_gamma 90.000000
_cell_volume 2793.239791
_symmetry_space_group_name_H-M "P B A M"
_symmetry_group_IT_number 55
_symmetry_cell_setting 'orthorhombic'
loop_
_space_group_symop_operation_xyz
x,y,z
-x,-y,z
1/2+x,1/2-y,-z
1/2-x,1/2+y,-z
-x,-y,-z
x,y,-z
1/2-x,1/2+y,z
1/2+x,1/2-y,z
loop_
_atom_site_type_symbol
_atom_site_label
_atom_site_fract_x
_atom_site_fract_y
_atom_site_fract_z
Si Si1 0.416851 0.803837 0.184622
Si Si2 0.062589 0.444355 0.313920
Si Si3 0.259931 0.751534 0.317579
Si Si4 0.849583 0.139503 0.815054
Si Si5 0.475817 0.660148 0.185433
Si Si6 0.758333 0.523429 0.316833
Si Si7 0.807989 0.888069 0.184666
O O1 0.461477 0.873068 0.232734
O O2 0.333635 0.801291 0.278514
O O3 0.470947 0.739628 0.236054
O O4 0.397441 0.802344 0.000000
O O5 0.055704 0.435897 0.500000
O O6 0.150996 0.466271 0.260874
O O7 0.000000 0.500000 0.251198
O O8 0.259932 0.731206 0.500000
O O9 0.181345 0.794101 0.276241
O O10 0.262947 0.683275 0.213367
O O11 0.800111 0.071812 0.780721
O O12 0.940879 0.128214 0.755898
O O13 0.847139 0.155197 0.000000
O O14 0.399062 0.618776 0.250086
O O15 0.469580 0.655340 0.000000
O O16 0.748832 0.540970 0.500000
O O17 0.735359 0.445732 0.284677
O O18 0.804554 0.906030 0.000000
#
# Coordination Sequence:
#
# PCOD8225696 Si02
#       7
#     8   8   8   8   8   8   8
#     4  10  19  36  60  84 111 147 194 242 290 345
#     4  10  22  39  58  82 118 159 195 240 299 355
#     4  11  21  36  58  85 116 152 193 243 298 353
#     4  11  21  37  61  87 117 156 200 241 293 352
#     4   8  19  37  58  86 115 148 194 248 289 339
#     4  11  23  39  58  86 122 156 197 244 297 355
#     4  10  21  40  62  85 116 156 201 244 293 350
#
# _framework density 20.048404000000001
#
# number of rings (size 3 to 8) (size 9 to 14) (size 15 to 20)
#    0.000    1.857    1.429    3.857    0.000    2.571 
#    0.000   14.286    0.000    0.000    0.000    0.000 
#    0.000    0.000    0.000    0.000    0.000    0.000 
#
# Total GULP energy -694497.285321 kJ/mol
# GULP energy per Si atom -12401.737238 kJ/mol
# Density = 2.000277 g / cm^3
# Si number density = 20.048404 Si / 1000 Ang^3
#
#
#
# Elastic Constant Matrix: (Units=GPa)
#
#
# Indices 1 2 3 4 5 6 
#
# 1 88.5278 46.8787 16.5686 0.0000 0.0000 0.0000
# 2 46.8787 95.0158 6.6385 0.0000 0.0000 0.0000
# 3 16.5686 6.6385 52.5011 0.0000 0.0000 0.0000
# 4 0.0000 0.0000 0.0000 34.0684 0.0000 0.0000
# 5 0.0000 0.0000 0.0000 0.0000 20.6363 0.0000
# 6 0.0000 0.0000 0.0000 0.0000 0.0000 30.6256
#
#
#
# Elastic Compliance Matrix: (Units=1/GPa)
#
#
# Indices 1 2 3 4 5 6 
#
# 1 0.016128 -0.007669 -0.004120 0.000000 0.000000 0.000000
# 2 -0.007669 0.014265 0.000617 0.000000 0.000000 0.000000
# 3 -0.004120 0.000617 0.020269 0.000000 0.000000 0.000000
# 4 0.000000 0.000000 0.000000 0.029353 0.000000 0.000000
# 5 0.000000 0.000000 0.000000 0.000000 0.048458 0.000000
# 6 0.000000 0.000000 0.000000 0.000000 0.000000 0.032652
#
#
# Mechanical properties :
#
#
# Convention : Reuss Voigt Hill
#
# Bulk Modulus (GPa) = 35.31418 41.80182 38.55800
# Shear Modulus (GPa) = 25.91860 28.12999 27.02430
#
# Velocity S-wave (km/s) = 3.59946 3.74987 3.67543
# Velocity P-wave (km/s) = 5.90995 6.29638 6.10622
#
# Compressibility (1/GPa) = 0.02831724
#
# Stress axis : x y z
#
# Youngs Moduli (GPa) = 62.00303 70.09949 49.33523
#
# Poissons Ratio (x) = 0.53763 0.20326
# Poissons Ratio (y) = 0.47553 -0.03042
# Poissons Ratio (z) = 0.25546 -0.04322
#
# Static dielectric constant tensor:
#      x y z
#    x 3.861930 0.000000 0.000000 
#    y 0.000000 3.613540 0.000000 
#    z 0.000000 0.000000 3.446940 
# 
# 
# High freq. dielectric constant tensor:
#      x y z
#    x 1.778180 0.000000 0.000000 
#    y 0.000000 1.786290 0.000000 
#    z 0.000000 0.000000 1.772740 
# 
# From -- ./inp_files/6120.got.cif
#   From: 2010.03.12/outbox.cif.g09.slc.cpg/sg55_4_cif.got.tgz:6120.got - 2010.04.16 15:19:21.
