data_PCOD8225152
_publ_section_title
;
Structure prediction by ZEFSAII (Michael W. Deem and Ramdas Pophale) SiO2 
 PCOD8225152
Probable space group: P B A M
;
_chemical_formula_sum "Si O2"
_cell_formula_units_Z 56
_cell_length_a 19.122034
_cell_length_b 18.818124
_cell_length_c 9.030046
_cell_angle_alpha 90.000000
_cell_angle_beta 90.000000
_cell_angle_gamma 90.000000
_cell_volume 3249.379039
_symmetry_space_group_name_H-M "P B A M"
_symmetry_group_IT_number 55
_symmetry_cell_setting 'orthorhombic'
loop_
_space_group_symop_operation_xyz
x,y,z
-x,-y,z
1/2+x,1/2-y,-z
1/2-x,1/2+y,-z
-x,-y,-z
x,y,-z
1/2-x,1/2+y,z
1/2+x,1/2-y,z
loop_
_atom_site_type_symbol
_atom_site_label
_atom_site_fract_x
_atom_site_fract_y
_atom_site_fract_z
Si Si1 0.557253 0.940543 0.829718
Si Si2 0.801812 0.479503 0.324564
Si Si3 0.224507 0.142087 0.174080
Si Si4 0.119654 0.239540 0.674687
Si Si5 0.829217 0.233268 0.828650
Si Si6 0.518233 0.782107 0.828037
Si Si7 0.725328 0.138810 0.673752
O O1 0.622185 0.953377 0.723550
O O2 0.522874 0.865320 0.790395
O O3 0.500000 0.000000 0.798447
O O4 0.583474 0.941191 0.000000
O O5 0.795159 0.472398 0.500000
O O6 0.741474 0.433396 0.247575
O O7 0.791323 0.560077 0.268947
O O8 0.153237 0.171460 0.245245
O O9 0.288456 0.194630 0.212864
O O10 0.213747 0.132349 0.000000
O O11 0.122289 0.227528 0.500000
O O12 0.161784 0.310190 0.723561
O O13 0.040347 0.246584 0.727067
O O14 0.909716 0.243322 0.785285
O O15 0.798140 0.166152 0.741724
O O16 0.819817 0.216541 0.000000
O O17 0.499752 0.770910 0.000000
O O18 0.734853 0.139825 0.500000
#
# Coordination Sequence:
#
# PCOD8225152 Si02
#       7
#     8   8   8   8   8   8   8
#     4  10  20  33  50  74 108 145 178 211 253 313
#     4  11  21  33  51  76 107 139 171 215 263 311
#     4  10  19  35  55  75 101 136 177 219 259 308
#     4  10  20  34  52  77 105 137 176 214 258 312
#     4   9  18  33  53  74  99 132 176 219 255 302
#     4  10  19  33  50  75 106 136 173 215 257 305
#     4   9  20  35  50  73 106 136 171 214 257 310
#
# _framework density 17.234062000000002
#
# number of rings (size 3 to 8) (size 9 to 14) (size 15 to 20)
#    0.000    2.143    1.429    2.143    0.000    3.714 
#    0.000    0.000    0.000    0.857    0.000    6.000 
#    0.000    0.000    0.000    0.000    0.000    0.000 
#
# Total GULP energy -694614.918790 kJ/mol
# GULP energy per Si atom -12403.837836 kJ/mol
# Density = 1.719484 g / cm^3
# Si number density = 17.234062 Si / 1000 Ang^3
#
#
#
# Elastic Constant Matrix: (Units=GPa)
#
#
# Indices 1 2 3 4 5 6 
#
# 1 94.2119 29.9030 31.5569 0.0000 0.0000 0.0000
# 2 29.9030 36.7649 20.9432 0.0000 0.0000 0.0000
# 3 31.5569 20.9432 53.4571 0.0000 0.0000 0.0000
# 4 0.0000 0.0000 0.0000 27.8702 0.0000 0.0000
# 5 0.0000 0.0000 0.0000 0.0000 33.8666 0.0000
# 6 0.0000 0.0000 0.0000 0.0000 0.0000 19.2432
#
#
#
# Elastic Compliance Matrix: (Units=1/GPa)
#
#
# Indices 1 2 3 4 5 6 
#
# 1 0.015429 -0.009476 -0.005396 0.000000 0.000000 0.000000
# 2 -0.009476 0.040834 -0.010404 0.000000 0.000000 0.000000
# 3 -0.005396 -0.010404 0.025968 0.000000 0.000000 0.000000
# 4 0.000000 0.000000 0.000000 0.035881 0.000000 0.000000
# 5 0.000000 0.000000 0.000000 0.000000 0.029528 0.000000
# 6 0.000000 0.000000 0.000000 0.000000 0.000000 0.051966
#
#
# Mechanical properties :
#
#
# Convention : Reuss Voigt Hill
#
# Bulk Modulus (GPa) = 31.56586 38.80446 35.18516
# Shear Modulus (GPa) = 19.17789 22.99804 21.08797
#
# Velocity S-wave (km/s) = 3.33947 3.65698 3.50183
# Velocity P-wave (km/s) = 5.76413 6.35581 6.06719
#
# Compressibility (1/GPa) = 0.03167980
#
# Stress axis : x y z
#
# Youngs Moduli (GPa) = 64.81122 24.48955 38.50910
#
# Poissons Ratio (x) = 0.23206 0.20779
# Poissons Ratio (y) = 0.61414 0.40064
# Poissons Ratio (z) = 0.34972 0.25479
#
# Static dielectric constant tensor:
#      x y z
#    x 3.138650 0.000000 0.000000 
#    y 0.000000 3.294400 0.000000 
#    z 0.000000 0.000000 3.174040 
# 
# 
# High freq. dielectric constant tensor:
#      x y z
#    x 1.658110 0.000000 0.000000 
#    y 0.000000 1.656260 0.000000 
#    z 0.000000 0.000000 1.669250 
# 
# From -- ./inp_files/7835.got.cif
#   From: 2010.03.12/outbox.cif.g09.slc.cpg/sg55_4_cif.got.tgz:7835.got - 2010.04.16 15:19:21.
