data_PCOD8225846
_publ_section_title
;
Structure prediction by ZEFSAII (Michael W. Deem and Ramdas Pophale) SiO2 
 PCOD8225846
Probable space group: P B A M
;
_chemical_formula_sum "Si O2"
_cell_formula_units_Z 56
_cell_length_a 18.229242
_cell_length_b 18.785011
_cell_length_c 9.085200
_cell_angle_alpha 90.000000
_cell_angle_beta 90.000000
_cell_angle_gamma 90.000000
_cell_volume 3111.104194
_symmetry_space_group_name_H-M "P B A M"
_symmetry_group_IT_number 55
_symmetry_cell_setting 'orthorhombic'
loop_
_space_group_symop_operation_xyz
x,y,z
-x,-y,z
1/2+x,1/2-y,-z
1/2-x,1/2+y,-z
-x,-y,-z
x,y,-z
1/2-x,1/2+y,z
1/2+x,1/2-y,z
loop_
_atom_site_type_symbol
_atom_site_label
_atom_site_fract_x
_atom_site_fract_y
_atom_site_fract_z
Si Si1 0.508307 0.778694 0.163304
Si Si2 0.624353 0.397415 0.667748
Si Si3 0.659915 0.264828 0.836494
Si Si4 0.962093 0.570715 0.824394
Si Si5 0.956024 0.145721 0.667838
Si Si6 0.344820 0.457124 0.825034
Si Si7 0.195650 0.387405 0.175031
O O1 0.424804 0.754899 0.152723
O O2 0.509915 0.860025 0.223572
O O3 0.552192 0.726430 0.272373
O O4 0.543906 0.774065 0.000000
O O5 0.646718 0.412758 0.500000
O O6 0.671899 0.330654 0.726272
O O7 0.538610 0.381657 0.681473
O O8 0.643704 0.463967 0.767634
O O9 0.702384 0.195306 0.774067
O O10 0.688358 0.285884 0.000000
O O11 0.878842 0.576446 0.762250
O O12 0.000000 0.500000 0.758411
O O13 0.959867 0.567857 0.000000
O O14 0.928869 0.144145 0.500000
O O15 0.907460 0.093867 0.764823
O O16 0.265889 0.430206 0.767006
O O17 0.349363 0.457139 0.000000
O O18 0.191650 0.387791 0.000000
#
# Coordination Sequence:
#
# PCOD8225846 Si02
#       7
#     8   8   8   8   8   8   8
#     4   8  14  26  47  73  95 117 151 192 233 282
#     4  10  20  33  49  71  97 125 161 202 242 285
#     4   8  14  29  51  69  88 117 154 193 230 275
#     4   8  13  25  49  77 100 122 153 197 243 284
#     4  10  20  33  48  67  95 129 164 204 245 286
#     4  11  21  32  48  70  99 132 163 199 243 289
#     4   8  16  30  47  70  97 124 157 196 237 281
#
# _framework density 18.000039999999998
#
# number of rings (size 3 to 8) (size 9 to 14) (size 15 to 20)
#    0.000    3.000    0.000    3.429    0.000    3.429 
#    0.000    2.857    0.000    7.286    0.000    0.000 
#    0.000    0.000    0.000    0.000    0.000    0.000 
#
# Total GULP energy -694112.259962 kJ/mol
# GULP energy per Si atom -12394.861785 kJ/mol
# Density = 1.795907 g / cm^3
# Si number density = 18.000040 Si / 1000 Ang^3
#
#
#
# Elastic Constant Matrix: (Units=GPa)
#
#
# Indices 1 2 3 4 5 6 
#
# 1 44.9936 42.0765 27.7417 0.0000 0.0000 0.0000
# 2 42.0765 154.5221 50.2530 0.0000 0.0000 0.0000
# 3 27.7417 50.2530 74.6112 0.0000 0.0000 0.0000
# 4 0.0000 0.0000 0.0000 2.8237 0.0000 0.0000
# 5 0.0000 0.0000 0.0000 0.0000 11.8482 0.0000
# 6 0.0000 0.0000 0.0000 0.0000 0.0000 13.0096
#
#
#
# Elastic Compliance Matrix: (Units=1/GPa)
#
#
# Indices 1 2 3 4 5 6 
#
# 1 0.033174 -0.006430 -0.008003 0.000000 0.000000 0.000000
# 2 -0.006430 0.009533 -0.004030 0.000000 0.000000 0.000000
# 3 -0.008003 -0.004030 0.019093 0.000000 0.000000 0.000000
# 4 0.000000 0.000000 0.000000 0.354149 0.000000 0.000000
# 5 0.000000 0.000000 0.000000 0.000000 0.084401 0.000000
# 6 0.000000 0.000000 0.000000 0.000000 0.000000 0.076867
#
#
# Mechanical properties :
#
#
# Convention : Reuss Voigt Hill
#
# Bulk Modulus (GPa) = 40.20565 57.14103 48.67334
# Shear Modulus (GPa) = 8.03298 15.80668 11.91983
#
# Velocity S-wave (km/s) = 2.11482 2.96657 2.57614
# Velocity P-wave (km/s) = 5.32430 6.59908 5.99567
#
# Compressibility (1/GPa) = 0.02487213
#
# Stress axis : x y z
#
# Youngs Moduli (GPa) = 30.14452 104.89701 52.37542
#
# Poissons Ratio (x) = 0.67452 0.41918
# Poissons Ratio (y) = 0.19384 0.21107
# Poissons Ratio (z) = 0.24126 0.42273
#
# Static dielectric constant tensor:
#      x y z
#    x 3.221360 0.000000 0.000000 
#    y 0.000000 3.779680 0.000000 
#    z 0.000000 0.000000 3.189260 
# 
# 
# High freq. dielectric constant tensor:
#      x y z
#    x 1.663540 0.000000 0.000000 
#    y 0.000000 1.711580 0.000000 
#    z 0.000000 0.000000 1.670380 
# 
# From -- ./inp_files/8909.got.cif
#   From: 2010.03.12/outbox.cif.g09.slc.cpg/sg55_5_cif.got.tgz:8909.got - 2010.04.16 15:19:21.
