data_PCOD8225440
_publ_section_title
;
Structure prediction by ZEFSAII (Michael W. Deem and Ramdas Pophale) SiO2 
 PCOD8225440
Probable space group: P B A M
;
_chemical_formula_sum "Si O2"
_cell_formula_units_Z 48
_cell_length_a 15.237442
_cell_length_b 8.515120
_cell_length_c 18.833057
_cell_angle_alpha 90.000000
_cell_angle_beta 90.000000
_cell_angle_gamma 90.000000
_cell_volume 2443.563667
_symmetry_space_group_name_H-M "P B A M"
_symmetry_group_IT_number 55
_symmetry_cell_setting 'orthorhombic'
loop_
_space_group_symop_operation_xyz
x,y,z
-x,-y,z
1/2+x,1/2-y,-z
1/2-x,1/2+y,-z
-x,-y,-z
x,y,-z
1/2-x,1/2+y,z
1/2+x,1/2-y,z
loop_
_atom_site_type_symbol
_atom_site_label
_atom_site_fract_x
_atom_site_fract_y
_atom_site_fract_z
Si Si1 0.144762 0.177175 0.670780
Si Si2 0.149981 0.296342 0.824148
Si Si3 0.337187 0.168321 0.179314
Si Si4 0.007179 0.686100 0.079363
Si Si5 0.667842 0.691825 0.332422
Si Si6 0.009594 0.679655 0.416396
O O1 0.116669 0.230141 0.749242
O O2 0.233104 0.264629 0.646031
O O3 0.066960 0.216285 0.617327
O O4 0.161732 0.993581 0.671471
O O5 0.159596 0.481907 0.816616
O O6 0.241935 0.221410 0.847489
O O7 0.079622 0.245608 0.883266
O O8 0.407493 0.236967 0.123866
O O9 0.358546 0.235947 0.256695
O O10 0.000000 0.500000 0.076559
O O11 0.014236 0.756310 0.000000
O O12 0.603994 0.758687 0.392262
O O13 0.002165 0.698712 0.500000
O O14 0.000000 0.500000 0.392035
#
# Coordination Sequence:
#
# PCOD8225440 Si02
#       6
#     8   8   8   8   8   8
#     4  11  22  38  61  86 114 147 188 234 279 331
#     4  10  19  34  57  81 108 142 184 231 277 328
#     4  10  19  34  57  81 108 142 184 231 277 328
#     4   9  19  34  52  76 108 147 184 221 274 336
#     4  11  22  38  61  86 114 147 188 234 279 331
#     4  11  24  41  60  84 116 151 186 227 278 334
#
# _framework density 19.643440999999999
#
# number of rings (size 3 to 8) (size 9 to 14) (size 15 to 20)
#    0.000    1.667    0.000    7.500    0.000    4.000 
#    0.000    2.500    0.000    7.000    0.000    0.000 
#    0.000    0.000    0.000    0.000    0.000    0.000 
#
# Total GULP energy -595391.715486 kJ/mol
# GULP energy per Si atom -12403.994073 kJ/mol
# Density = 1.959873 g / cm^3
# Si number density = 19.643441 Si / 1000 Ang^3
#
#
#
# Elastic Constant Matrix: (Units=GPa)
#
#
# Indices 1 2 3 4 5 6 
#
# 1 84.0778 -10.7799 45.7997 0.0000 0.0000 0.0000
# 2 -10.7799 65.1699 11.2909 0.0000 0.0000 0.0000
# 3 45.7997 11.2909 80.3108 0.0000 0.0000 0.0000
# 4 0.0000 0.0000 0.0000 17.3987 0.0000 0.0000
# 5 0.0000 0.0000 0.0000 0.0000 20.7716 0.0000
# 6 0.0000 0.0000 0.0000 0.0000 0.0000 25.0384
#
#
#
# Elastic Compliance Matrix: (Units=1/GPa)
#
#
# Indices 1 2 3 4 5 6 
#
# 1 0.018763 0.005081 -0.011415 0.000000 0.000000 0.000000
# 2 0.005081 0.017104 -0.005302 0.000000 0.000000 0.000000
# 3 -0.011415 -0.005302 0.019707 0.000000 0.000000 0.000000
# 4 0.000000 0.000000 0.000000 0.057476 0.000000 0.000000
# 5 0.000000 0.000000 0.000000 0.000000 0.048143 0.000000
# 6 0.000000 0.000000 0.000000 0.000000 0.000000 0.039939
#
#
# Mechanical properties :
#
#
# Convention : Reuss Voigt Hill
#
# Bulk Modulus (GPa) = 30.95786 35.79778 33.37782
# Shear Modulus (GPa) = 21.26131 24.85826 23.05978
#
# Velocity S-wave (km/s) = 3.29350 3.56121 3.42997
# Velocity P-wave (km/s) = 5.50063 5.93068 5.71970
#
# Compressibility (1/GPa) = 0.03230197
#
# Stress axis : x y z
#
# Youngs Moduli (GPa) = 53.29599 58.46710 50.74434
#
# Poissons Ratio (x) = -0.29709 0.57923
# Poissons Ratio (y) = -0.27081 0.26906
# Poissons Ratio (z) = 0.60835 0.31001
#
# Static dielectric constant tensor:
#      x y z
#    x 3.885170 0.000000 0.000000 
#    y 0.000000 3.584190 0.000000 
#    z 0.000000 0.000000 3.643200 
# 
# 
# High freq. dielectric constant tensor:
#      x y z
#    x 1.780440 0.000000 0.000000 
#    y 0.000000 1.767840 0.000000 
#    z 0.000000 0.000000 1.760220 
# 
# From -- ./inp_files/21501.got.cif
#   From: 2010.03.12/outbox.cif.g09.slc.cpg/sg55_11_cif.got.tgz:21501.got - 2010.04.16 15:19:21.
