data_PCOD8225190
_publ_section_title
;
Structure prediction by ZEFSAII (Michael W. Deem and Ramdas Pophale) SiO2 
 PCOD8225190
Probable space group: P B A M
;
_chemical_formula_sum "Si O2"
_cell_formula_units_Z 64
_cell_length_a 15.008797
_cell_length_b 24.643615
_cell_length_c 9.320103
_cell_angle_alpha 90.000000
_cell_angle_beta 90.000000
_cell_angle_gamma 90.000000
_cell_volume 3447.235955
_symmetry_space_group_name_H-M "P B A M"
_symmetry_group_IT_number 55
_symmetry_cell_setting 'orthorhombic'
loop_
_space_group_symop_operation_xyz
x,y,z
-x,-y,z
1/2+x,1/2-y,-z
1/2-x,1/2+y,-z
-x,-y,-z
x,y,-z
1/2-x,1/2+y,z
1/2+x,1/2-y,z
loop_
_atom_site_type_symbol
_atom_site_label
_atom_site_fract_x
_atom_site_fract_y
_atom_site_fract_z
Si Si1 0.786557 0.751423 0.165375
Si Si2 0.687304 0.547599 0.667288
Si Si3 0.821871 0.355439 0.836400
Si Si4 0.988587 0.335359 0.336057
Si Si5 0.954962 0.781423 0.336895
Si Si6 0.189673 0.353189 0.667380
Si Si7 0.672658 0.439459 0.829234
Si Si8 0.001259 0.098999 0.664639
O O1 0.704531 0.792588 0.182827
O O2 0.872374 0.781429 0.229622
O O3 0.763602 0.695859 0.247166
O O4 0.806043 0.738310 0.000000
O O5 0.692129 0.531778 0.500000
O O6 0.762967 0.590954 0.707995
O O7 0.706947 0.496013 0.765462
O O8 0.591364 0.571797 0.707163
O O9 0.743003 0.393957 0.778751
O O10 0.913257 0.366547 0.752725
O O11 0.841087 0.370135 0.000000
O O12 0.970043 0.349699 0.500000
O O13 0.982583 0.270580 0.307452
O O14 0.085829 0.357038 0.289010
O O15 0.918019 0.777964 0.500000
O O16 0.010356 0.836403 0.311967
O O17 0.200441 0.339607 0.500000
O O18 0.576352 0.425605 0.765922
O O19 0.664480 0.442965 0.000000
O O20 0.026762 0.085934 0.500000
#
# Coordination Sequence:
#
# PCOD8225190 Si02
#       8
#     8   8   8   8   8   8   8   8
#     4  10  19  33  53  79 112 148 184 222 273 331
#     4  10  22  39  60  83 110 146 189 235 282 333
#     4  10  22  37  53  79 113 150 187 228 275 326
#     4   9  19  34  56  84 111 143 184 228 277 331
#     4   9  18  33  53  82 114 144 181 222 272 330
#     4   9  20  39  59  82 113 144 182 234 283 330
#     4  11  23  40  57  79 115 150 189 234 276 328
#     4  10  20  35  57  84 113 147 185 225 275 335
#
# _framework density 18.565598999999999
#
# number of rings (size 3 to 8) (size 9 to 14) (size 15 to 20)
#    0.000    2.250    1.250    1.875    1.750    6.500 
#    0.000    0.625    0.000    3.750    0.000    0.000 
#    0.000    0.000    0.000    0.000    0.000    0.000 
#
# Total GULP energy -793683.349263 kJ/mol
# GULP energy per Si atom -12401.302332 kJ/mol
# Density = 1.852334 g / cm^3
# Si number density = 18.565599 Si / 1000 Ang^3
#
#
#
# Elastic Constant Matrix: (Units=GPa)
#
#
# Indices 1 2 3 4 5 6 
#
# 1 102.1281 51.5201 52.5894 0.0000 0.0000 0.0000
# 2 51.5201 89.5913 45.2125 0.0000 0.0000 0.0000
# 3 52.5894 45.2125 76.0575 0.0000 0.0000 0.0000
# 4 0.0000 0.0000 0.0000 27.9594 0.0000 0.0000
# 5 0.0000 0.0000 0.0000 0.0000 22.1027 0.0000
# 6 0.0000 0.0000 0.0000 0.0000 0.0000 23.6245
#
#
#
# Elastic Compliance Matrix: (Units=1/GPa)
#
#
# Indices 1 2 3 4 5 6 
#
# 1 0.016886 -0.005454 -0.008433 0.000000 0.000000 0.000000
# 2 -0.005454 0.017707 -0.006755 0.000000 0.000000 0.000000
# 3 -0.008433 -0.006755 0.022994 0.000000 0.000000 0.000000
# 4 0.000000 0.000000 0.000000 0.035766 0.000000 0.000000
# 5 0.000000 0.000000 0.000000 0.000000 0.045243 0.000000
# 6 0.000000 0.000000 0.000000 0.000000 0.000000 0.042329
#
#
# Mechanical properties :
#
#
# Convention : Reuss Voigt Hill
#
# Bulk Modulus (GPa) = 61.33918 62.93566 62.13742
# Shear Modulus (GPa) = 21.96411 22.63430 22.29921
#
# Velocity S-wave (km/s) = 3.44329 3.49543 3.46945
# Velocity P-wave (km/s) = 6.99423 7.08966 7.04211
#
# Compressibility (1/GPa) = 0.01630279
#
# Stress axis : x y z
#
# Youngs Moduli (GPa) = 59.22176 56.47434 43.48916
#
# Poissons Ratio (x) = 0.30804 0.36675
# Poissons Ratio (y) = 0.32302 0.29375
# Poissons Ratio (z) = 0.49942 0.38146
#
# Static dielectric constant tensor:
#      x y z
#    x 3.269850 0.000000 0.000000 
#    y 0.000000 3.489360 0.000000 
#    z 0.000000 0.000000 3.358980 
# 
# 
# High freq. dielectric constant tensor:
#      x y z
#    x 1.711790 0.000000 0.000000 
#    y 0.000000 1.718340 0.000000 
#    z 0.000000 0.000000 1.717480 
# 
# From -- ./inp_files/6570.got.cif
#   From: 2010.03.12/outbox.cif.g09.slc.cpg/sg55_4_cif.got.tgz:6570.got - 2010.04.16 15:19:21.
