data_PCOD8225170
_publ_section_title
;
Structure prediction by ZEFSAII (Michael W. Deem and Ramdas Pophale) SiO2 
 PCOD8225170
Probable space group: P B A M
;
_chemical_formula_sum "Si O2"
_cell_formula_units_Z 56
_cell_length_a 12.228116
_cell_length_b 18.644765
_cell_length_c 13.998764
_cell_angle_alpha 90.000000
_cell_angle_beta 90.000000
_cell_angle_gamma 90.000000
_cell_volume 3191.583093
_symmetry_space_group_name_H-M "P B A M"
_symmetry_group_IT_number 55
_symmetry_cell_setting 'orthorhombic'
loop_
_space_group_symop_operation_xyz
x,y,z
-x,-y,z
1/2+x,1/2-y,-z
1/2-x,1/2+y,-z
-x,-y,-z
x,y,-z
1/2-x,1/2+y,z
1/2+x,1/2-y,z
loop_
_atom_site_type_symbol
_atom_site_label
_atom_site_fract_x
_atom_site_fract_y
_atom_site_fract_z
Si Si1 0.571444 0.816644 0.106262
Si Si2 0.088291 0.398553 0.608855
Si Si3 0.342228 0.055196 0.390905
Si Si4 0.262792 0.636239 0.225915
Si Si5 0.336898 0.336510 0.105107
Si Si6 0.353593 0.796462 0.225880
Si Si7 0.541436 0.420086 0.108499
O O1 0.647371 0.869576 0.168764
O O2 0.645623 0.747404 0.092514
O O3 0.460879 0.796134 0.160573
O O4 0.545392 0.848433 0.000000
O O5 0.119219 0.380444 0.500000
O O6 0.148623 0.471930 0.640868
O O7 0.125427 0.331143 0.671459
O O8 0.959060 0.407224 0.619851
O O9 0.301703 0.059779 0.500000
O O10 0.254346 0.097747 0.327459
O O11 0.307386 0.716621 0.241745
O O12 0.349881 0.589089 0.169082
O O13 0.233462 0.348077 0.173258
O O14 0.444448 0.371501 0.151964
O O15 0.314391 0.371008 0.000000
O O16 0.500000 0.500000 0.113559
O O17 0.566947 0.395653 0.000000
#
# Coordination Sequence:
#
# PCOD8225170 Si02
#       7
#     8   8   8   8   8   8   8
#     4  10  19  33  52  79 111 143 179 224 272 319
#     4   9  19  37  59  80 105 138 181 229 283 339
#     4   9  19  37  59  80 105 141 181 228 285 339
#     4  11  21  34  58  83 112 145 187 231 277 324
#     4   9  19  33  49  73 108 147 180 210 258 320
#     4  11  20  32  56  84 110 138 180 231 278 318
#     4  10  21  36  52  75 110 153 192 219 258 327
#
# _framework density 17.546150999999998
#
# number of rings (size 3 to 8) (size 9 to 14) (size 15 to 20)
#    0.000    2.143    2.857    1.714    2.000    1.714 
#    0.000    0.000    0.000    2.143    0.000    0.000 
#    0.000    0.000    0.000    0.000    0.000    0.000 
#
# Total GULP energy -694242.163074 kJ/mol
# GULP energy per Si atom -12397.181483 kJ/mol
# Density = 1.750622 g / cm^3
# Si number density = 17.546151 Si / 1000 Ang^3
#
#
#
# Elastic Constant Matrix: (Units=GPa)
#
#
# Indices 1 2 3 4 5 6 
#
# 1 84.9430 29.5511 49.0485 0.0000 0.0000 0.0000
# 2 29.5511 56.2380 44.5827 0.0000 0.0000 0.0000
# 3 49.0485 44.5827 109.1644 0.0000 0.0000 0.0000
# 4 0.0000 0.0000 0.0000 22.2899 0.0000 0.0000
# 5 0.0000 0.0000 0.0000 0.0000 29.7935 0.0000
# 6 0.0000 0.0000 0.0000 0.0000 0.0000 20.5095
#
#
#
# Elastic Compliance Matrix: (Units=1/GPa)
#
#
# Indices 1 2 3 4 5 6 
#
# 1 0.016523 -0.004136 -0.005735 0.000000 0.000000 0.000000
# 2 -0.004136 0.027330 -0.009303 0.000000 0.000000 0.000000
# 3 -0.005735 -0.009303 0.015537 0.000000 0.000000 0.000000
# 4 0.000000 0.000000 0.000000 0.044863 0.000000 0.000000
# 5 0.000000 0.000000 0.000000 0.000000 0.033564 0.000000
# 6 0.000000 0.000000 0.000000 0.000000 0.000000 0.048758
#
#
# Mechanical properties :
#
#
# Convention : Reuss Voigt Hill
#
# Bulk Modulus (GPa) = 47.52491 55.19000 51.35746
# Shear Modulus (GPa) = 21.55758 22.99611 22.27684
#
# Velocity S-wave (km/s) = 3.50897 3.62416 3.56703
# Velocity P-wave (km/s) = 6.60012 7.00251 6.80429
#
# Compressibility (1/GPa) = 0.02104160
#
# Stress axis : x y z
#
# Youngs Moduli (GPa) = 60.52214 36.58980 64.36417
#
# Poissons Ratio (x) = 0.15133 0.36911
# Poissons Ratio (y) = 0.25032 0.59879
# Poissons Ratio (z) = 0.34708 0.34040
#
# Static dielectric constant tensor:
#      x y z
#    x 3.224050 0.000000 0.000000 
#    y 0.000000 3.109480 0.000000 
#    z 0.000000 0.000000 3.344500 
# 
# 
# High freq. dielectric constant tensor:
#      x y z
#    x 1.675990 0.000000 0.000000 
#    y 0.000000 1.665070 0.000000 
#    z 0.000000 0.000000 1.674820 
# 
# From -- ./inp_files/13364.got.cif
#   From: 2010.03.12/outbox.cif.g09.slc.cpg/sg55_7_cif.got.tgz:13364.got - 2010.04.16 15:19:21.
