data_PCOD8225536
_publ_section_title
;
Structure prediction by ZEFSAII (Michael W. Deem and Ramdas Pophale) SiO2 
 PCOD8225536
Probable space group: P B A M
;
_chemical_formula_sum "Si O2"
_cell_formula_units_Z 64
_cell_length_a 10.882219
_cell_length_b 29.866117
_cell_length_c 9.616637
_cell_angle_alpha 90.000000
_cell_angle_beta 90.000000
_cell_angle_gamma 90.000000
_cell_volume 3125.499594
_symmetry_space_group_name_H-M "P B A M"
_symmetry_group_IT_number 55
_symmetry_cell_setting 'orthorhombic'
loop_
_space_group_symop_operation_xyz
x,y,z
-x,-y,z
1/2+x,1/2-y,-z
1/2-x,1/2+y,-z
-x,-y,-z
x,y,-z
1/2-x,1/2+y,z
1/2+x,1/2-y,z
loop_
_atom_site_type_symbol
_atom_site_label
_atom_site_fract_x
_atom_site_fract_y
_atom_site_fract_z
Si Si1 0.593037 0.638811 0.658037
Si Si2 0.514379 0.785762 0.333686
Si Si3 0.473831 0.950985 0.841057
Si Si4 0.258815 0.942330 0.653929
Si Si5 0.883818 0.971331 0.341553
Si Si6 0.378345 0.616062 0.839228
Si Si7 0.761357 0.224406 0.661518
Si Si8 0.891816 0.363259 0.843974
O O1 0.547333 0.647487 0.500000
O O2 0.637688 0.587815 0.678781
O O3 0.480495 0.646356 0.763202
O O4 0.702895 0.673007 0.694353
O O5 0.514973 0.790560 0.500000
O O6 0.627902 0.755280 0.276239
O O7 0.379044 0.767121 0.283943
O O8 0.532495 0.834614 0.267202
O O9 0.359836 0.928060 0.764293
O O10 0.586038 0.916541 0.822012
O O11 0.500000 0.000000 0.775428
O O12 0.435221 0.957442 0.000000
O O13 0.309742 0.931752 0.500000
O O14 0.230798 0.994924 0.668487
O O15 0.900196 0.953199 0.500000
O O16 0.862199 0.931193 0.236627
O O17 0.000000 0.000000 0.293957
O O18 0.253330 0.644268 0.825449
O O19 0.413565 0.607815 0.000000
O O20 0.760879 0.234745 0.500000
O O21 0.933343 0.349453 0.000000
#
# Coordination Sequence:
#
# PCOD8225536 Si02
#       8
#     8   8   8   8   8   8   8   8
#     4  10  20  37  58  83 118 154 189 240 302 350
#     4  10  21  40  66  95 121 154 199 245 297 361
#     4  10  21  38  58  79 111 155 198 240 291 350
#     4  10  20  34  56  83 113 146 188 240 292 349
#     4  10  19  35  54  79 116 155 194 241 300 354
#     4  11  23  37  56  84 117 156 205 248 289 349
#     4   9  20  37  63  95 122 148 192 246 296 355
#     4  10  23  41  58  83 121 160 199 245 298 355
#
# _framework density 20.476725999999999
#
# number of rings (size 3 to 8) (size 9 to 14) (size 15 to 20)
#    0.000    2.000    1.250    1.875    1.750    5.000 
#    0.000    1.875    0.000    0.000    0.000    0.000 
#    0.000    0.000    0.000    0.000    0.000    0.000 
#
# Total GULP energy -793352.797184 kJ/mol
# GULP energy per Si atom -12396.137456 kJ/mol
# Density = 2.043012 g / cm^3
# Si number density = 20.476726 Si / 1000 Ang^3
#
#
#
# Elastic Constant Matrix: (Units=GPa)
#
#
# Indices 1 2 3 4 5 6 
#
# 1 132.9693 37.2620 49.8722 0.0000 0.0000 0.0000
# 2 37.2620 81.6645 27.6920 0.0000 0.0000 0.0000
# 3 49.8722 27.6920 73.3126 0.0000 0.0000 0.0000
# 4 0.0000 0.0000 0.0000 23.9396 0.0000 0.0000
# 5 0.0000 0.0000 0.0000 0.0000 29.5627 0.0000
# 6 0.0000 0.0000 0.0000 0.0000 0.0000 27.1305
#
#
#
# Elastic Compliance Matrix: (Units=1/GPa)
#
#
# Indices 1 2 3 4 5 6 
#
# 1 0.010607 -0.002745 -0.006179 0.000000 0.000000 0.000000
# 2 -0.002745 0.014754 -0.003706 0.000000 0.000000 0.000000
# 3 -0.006179 -0.003706 0.019243 0.000000 0.000000 0.000000
# 4 0.000000 0.000000 0.000000 0.041772 0.000000 0.000000
# 5 0.000000 0.000000 0.000000 0.000000 0.033826 0.000000
# 6 0.000000 0.000000 0.000000 0.000000 0.000000 0.036859
#
#
# Mechanical properties :
#
#
# Convention : Reuss Voigt Hill
#
# Bulk Modulus (GPa) = 51.69115 57.51096 54.60105
# Shear Modulus (GPa) = 26.48730 27.66790 27.07760
#
# Velocity S-wave (km/s) = 3.60047 3.67984 3.64037
# Velocity P-wave (km/s) = 6.52558 6.79720 6.66277
#
# Compressibility (1/GPa) = 0.01934567
#
# Stress axis : x y z
#
# Youngs Moduli (GPa) = 94.27568 67.77728 51.96570
#
# Poissons Ratio (x) = 0.18602 0.32110
# Poissons Ratio (y) = 0.25875 0.19258
# Poissons Ratio (z) = 0.58253 0.25118
#
# Static dielectric constant tensor:
#      x y z
#    x 3.828790 0.000000 0.000000 
#    y 0.000000 3.602310 0.000000 
#    z 0.000000 0.000000 3.505090 
# 
# 
# High freq. dielectric constant tensor:
#      x y z
#    x 1.805840 0.000000 0.000000 
#    y 0.000000 1.794380 0.000000 
#    z 0.000000 0.000000 1.776670 
# 
# From -- ./inp_files/4476.got.cif
#   From: 2010.03.12/outbox.cif.g09.slc.cpg/sg55_3_cif.got.tgz:4476.got - 2010.04.16 15:19:21.
