data_PCOD8225909
_publ_section_title
;
Structure prediction by ZEFSAII (Michael W. Deem and Ramdas Pophale) SiO2 
 PCOD8225909
Probable space group: P B A M
;
_chemical_formula_sum "Si O2"
_cell_formula_units_Z 64
_cell_length_a 14.264643
_cell_length_b 24.243815
_cell_length_c 9.612583
_cell_angle_alpha 90.000000
_cell_angle_beta 90.000000
_cell_angle_gamma 90.000000
_cell_volume 3324.313484
_symmetry_space_group_name_H-M "P B A M"
_symmetry_group_IT_number 55
_symmetry_cell_setting 'orthorhombic'
loop_
_space_group_symop_operation_xyz
x,y,z
-x,-y,z
1/2+x,1/2-y,-z
1/2-x,1/2+y,-z
-x,-y,-z
x,y,-z
1/2-x,1/2+y,z
1/2+x,1/2-y,z
loop_
_atom_site_type_symbol
_atom_site_label
_atom_site_fract_x
_atom_site_fract_y
_atom_site_fract_z
Si Si1 0.768603 0.258937 0.839786
Si Si2 0.950942 0.554688 0.841625
Si Si3 0.892595 0.841494 0.160780
Si Si4 0.230070 0.945178 0.842137
Si Si5 0.760807 0.151745 0.653398
Si Si6 0.514808 0.758612 0.156274
Si Si7 0.585973 0.464013 0.163277
Si Si8 0.048121 0.350080 0.348237
O O1 0.700085 0.308012 0.785448
O O2 0.758162 0.207484 0.739561
O O3 0.877197 0.275283 0.828126
O O4 0.743704 0.243000 0.000000
O O5 0.840337 0.547078 0.825377
O O6 0.996655 0.602761 0.748216
O O7 0.000000 0.500000 0.787499
O O8 0.978594 0.568178 0.000000
O O9 0.987755 0.805534 0.186340
O O10 0.905458 0.902210 0.231141
O O11 0.874424 0.852219 0.000000
O O12 0.189674 0.896858 0.742203
O O13 0.181597 0.003131 0.803518
O O14 0.203755 0.928072 0.000000
O O15 0.808765 0.158991 0.500000
O O16 0.654922 0.133310 0.628964
O O17 0.456439 0.792248 0.268856
O O18 0.480002 0.773081 0.000000
O O19 0.500000 0.500000 0.227165
O O20 0.567949 0.457088 0.000000
O O21 0.998208 0.346578 0.500000
#
# Coordination Sequence:
#
# PCOD8225909 Si02
#       8
#     8   8   8   8   8   8   8   8
#     4  10  20  33  55  82 108 140 178 224 279 331
#     4   9  18  32  52  78 106 139 177 221 271 326
#     4   9  18  33  51  79 115 141 174 229 277 320
#     4   9  18  32  53  78 104 136 176 223 271 322
#     4  10  20  34  53  76 106 140 179 225 273 325
#     4  10  20  33  54  81 107 141 181 223 275 337
#     4   9  18  31  51  79 109 141 179 226 272 320
#     4  10  20  34  52  75 107 144 179 220 272 327
#
# _framework density 19.252094
#
# number of rings (size 3 to 8) (size 9 to 14) (size 15 to 20)
#    0.000    2.500    1.250    0.750    1.750    2.750 
#    0.000    3.750    0.000    1.875    0.000    0.000 
#    0.000    0.000    0.000    0.000    0.000    0.000 
#
# Total GULP energy -793023.916122 kJ/mol
# GULP energy per Si atom -12390.998689 kJ/mol
# Density = 1.920827 g / cm^3
# Si number density = 19.252094 Si / 1000 Ang^3
#
#
#
# Elastic Constant Matrix: (Units=GPa)
#
#
# Indices 1 2 3 4 5 6 
#
# 1 58.3694 34.3470 13.7084 0.0000 0.0000 0.0000
# 2 34.3470 164.1670 65.7163 0.0000 0.0000 0.0000
# 3 13.7084 65.7163 96.1511 0.0000 0.0000 0.0000
# 4 0.0000 0.0000 0.0000 -0.1847 0.0000 0.0000
# 5 0.0000 0.0000 0.0000 0.0000 9.8954 0.0000
# 6 0.0000 0.0000 0.0000 0.0000 0.0000 28.6796
#
#
#
# Elastic Compliance Matrix: (Units=1/GPa)
#
#
# Indices 1 2 3 4 5 6 
#
# 1 0.019538 -0.004092 0.000011 0.000000 0.000000 0.000000
# 2 -0.004092 0.009243 -0.005734 0.000000 0.000000 0.000000
# 3 0.000011 -0.005734 0.014317 0.000000 0.000000 0.000000
# 4 0.000000 0.000000 0.000000 -5.413400 0.000000 0.000000
# 5 0.000000 0.000000 0.000000 0.000000 0.101057 0.000000
# 6 0.000000 0.000000 0.000000 0.000000 0.000000 0.034868
#
#
# Mechanical properties :
#
#
# Convention : Reuss Voigt Hill
#
# Bulk Modulus (GPa) = 42.60974 60.69230 51.65102
# Shear Modulus (GPa) = -0.96026 21.33912 10.18943
#
# Velocity S-wave (km/s) = -0.70701 3.33288 2.30307
# Velocity P-wave (km/s) = 4.63833 6.81207 5.82745
#
# Compressibility (1/GPa) = 0.02346881
#
# Stress axis : x y z
#
# Youngs Moduli (GPa) = 51.18334 108.19303 69.84472
#
# Poissons Ratio (x) = 0.44275 -0.00080
# Poissons Ratio (y) = 0.20945 0.40047
# Poissons Ratio (z) = -0.00058 0.62035
#
# Static dielectric constant tensor:
#      x y z
#    x 3.498130 0.000000 0.000000 
#    y 0.000000 3.645530 0.000000 
#    z 0.000000 0.000000 3.538700 
# 
# 
# High freq. dielectric constant tensor:
#      x y z
#    x 1.734650 0.000000 0.000000 
#    y 0.000000 1.751620 0.000000 
#    z 0.000000 0.000000 1.717060 
# 
# From -- ./inp_files/6635.got.cif
#   From: 2010.03.12/outbox.cif.g09.slc.cpg/sg55_4_cif.got.tgz:6635.got - 2010.04.16 15:19:21.
