data_PCOD8225181
_publ_section_title
;
Structure prediction by ZEFSAII (Michael W. Deem and Ramdas Pophale) SiO2 
 PCOD8225181
Probable space group: P B A M
;
_chemical_formula_sum "Si O2"
_cell_formula_units_Z 64
_cell_length_a 24.934145
_cell_length_b 14.982323
_cell_length_c 9.276826
_cell_angle_alpha 90.000000
_cell_angle_beta 90.000000
_cell_angle_gamma 90.000000
_cell_volume 3465.557007
_symmetry_space_group_name_H-M "P B A M"
_symmetry_group_IT_number 55
_symmetry_cell_setting 'orthorhombic'
loop_
_space_group_symop_operation_xyz
x,y,z
-x,-y,z
1/2+x,1/2-y,-z
1/2-x,1/2+y,-z
-x,-y,-z
x,y,-z
1/2-x,1/2+y,z
1/2+x,1/2-y,z
loop_
_atom_site_type_symbol
_atom_site_label
_atom_site_fract_x
_atom_site_fract_y
_atom_site_fract_z
Si Si1 0.854471 0.823873 0.165072
Si Si2 0.061047 0.321850 0.165698
Si Si3 0.721361 0.033179 0.335393
Si Si4 0.398459 0.993517 0.670711
Si Si5 0.323819 0.487196 0.835289
Si Si6 0.844603 0.209579 0.830619
Si Si7 0.560869 0.838369 0.834009
Si Si8 0.239742 0.261365 0.333220
O O1 0.907415 0.768685 0.207945
O O2 0.865233 0.930373 0.185763
O O3 0.805180 0.801454 0.267445
O O4 0.838256 0.803104 0.000000
O O5 0.079967 0.401128 0.267251
O O6 0.998658 0.301021 0.191173
O O7 0.071985 0.349167 0.000000
O O8 0.733539 0.010114 0.500000
O O9 0.663975 0.993800 0.287835
O O10 0.768442 0.988446 0.244380
O O11 0.719616 0.138577 0.308703
O O12 0.406787 0.991242 0.500000
O O13 0.431732 0.074463 0.737085
O O14 0.350028 0.394290 0.780445
O O15 0.307370 0.475170 0.000000
O O16 0.899030 0.259678 0.786314
O O17 0.795900 0.256141 0.746597
O O18 0.833432 0.217457 0.000000
O O19 0.570262 0.865824 0.000000
O O20 0.247781 0.237507 0.500000
#
# Coordination Sequence:
#
# PCOD8225181 Si02
#       8
#     8   8   8   8   8   8   8   8
#     4  10  20  34  54  81 109 140 180 221 266 318
#     4  10  21  38  57  78 109 145 183 225 269 321
#     4   9  19  34  50  75 109 140 172 212 264 319
#     4  11  22  36  54  80 111 143 180 224 273 323
#     4   9  19  34  54  79 108 141 177 217 264 318
#     4   9  19  37  56  77 108 142 179 222 268 318
#     4  10  22  38  56  78 106 145 187 225 270 322
#     4  10  19  33  53  77 107 140 175 217 266 320
#
# _framework density 18.467451000000001
#
# number of rings (size 3 to 8) (size 9 to 14) (size 15 to 20)
#    0.000    2.250    1.250    1.125    1.750    4.500 
#    0.000    0.625    0.000    3.750    0.000    0.000 
#    0.000    7.000    0.000    0.000    0.000    0.000 
#
# Total GULP energy -793612.497347 kJ/mol
# GULP energy per Si atom -12400.195271 kJ/mol
# Density = 1.842542 g / cm^3
# Si number density = 18.467451 Si / 1000 Ang^3
#
#
#
# Elastic Constant Matrix: (Units=GPa)
#
#
# Indices 1 2 3 4 5 6 
#
# 1 106.1551 47.0699 42.5335 0.0000 0.0000 0.0000
# 2 47.0699 63.4734 29.9650 0.0000 0.0000 0.0000
# 3 42.5335 29.9650 60.8165 0.0000 0.0000 0.0000
# 4 0.0000 0.0000 0.0000 15.6069 0.0000 0.0000
# 5 0.0000 0.0000 0.0000 0.0000 15.9558 0.0000
# 6 0.0000 0.0000 0.0000 0.0000 0.0000 26.5083
#
#
#
# Elastic Compliance Matrix: (Units=1/GPa)
#
#
# Indices 1 2 3 4 5 6 
#
# 1 0.016023 -0.008590 -0.006974 0.000000 0.000000 0.000000
# 2 -0.008590 0.025135 -0.006377 0.000000 0.000000 0.000000
# 3 -0.006974 -0.006377 0.024462 0.000000 0.000000 0.000000
# 4 0.000000 0.000000 0.000000 0.064074 0.000000 0.000000
# 5 0.000000 0.000000 0.000000 0.000000 0.062673 0.000000
# 6 0.000000 0.000000 0.000000 0.000000 0.000000 0.037724
#
#
# Mechanical properties :
#
#
# Convention : Reuss Voigt Hill
#
# Bulk Modulus (GPa) = 45.99970 52.17576 49.08773
# Shear Modulus (GPa) = 17.77970 19.00598 18.39284
#
# Velocity S-wave (km/s) = 3.10620 3.21153 3.15931
# Velocity P-wave (km/s) = 6.15039 6.48584 6.32034
#
# Compressibility (1/GPa) = 0.02173927
#
# Stress axis : x y z
#
# Youngs Moduli (GPa) = 62.40901 39.78492 40.87959
#
# Poissons Ratio (x) = 0.34176 0.28509
# Poissons Ratio (y) = 0.53610 0.26068
# Poissons Ratio (z) = 0.43523 0.25370
#
# Static dielectric constant tensor:
#      x y z
#    x 3.428690 0.000000 0.000000 
#    y 0.000000 3.487000 0.000000 
#    z 0.000000 0.000000 3.390890 
# 
# 
# High freq. dielectric constant tensor:
#      x y z
#    x 1.705550 0.000000 0.000000 
#    y 0.000000 1.718600 0.000000 
#    z 0.000000 0.000000 1.713960 
# 
# From -- ./inp_files/9770.got.cif
#   From: 2010.03.12/outbox.cif.g09.slc.cpg/sg55_5_cif.got.tgz:9770.got - 2010.04.16 15:19:21.
