data_PCOD8225409
_publ_section_title
;
Structure prediction by ZEFSAII (Michael W. Deem and Ramdas Pophale) SiO2 
 PCOD8225409
Probable space group: P B A M
;
_chemical_formula_sum "Si O2"
_cell_formula_units_Z 64
_cell_length_a 19.503619
_cell_length_b 20.628328
_cell_length_c 8.639292
_cell_angle_alpha 90.000000
_cell_angle_beta 90.000000
_cell_angle_gamma 90.000000
_cell_volume 3475.820864
_symmetry_space_group_name_H-M "P B A M"
_symmetry_group_IT_number 55
_symmetry_cell_setting 'orthorhombic'
loop_
_space_group_symop_operation_xyz
x,y,z
-x,-y,z
1/2+x,1/2-y,-z
1/2-x,1/2+y,-z
-x,-y,-z
x,y,-z
1/2-x,1/2+y,z
1/2+x,1/2-y,z
loop_
_atom_site_type_symbol
_atom_site_label
_atom_site_fract_x
_atom_site_fract_y
_atom_site_fract_z
Si Si1 0.201465 0.567708 0.817178
Si Si2 0.211821 0.433759 0.319119
Si Si3 0.707354 0.684213 0.817924
Si Si4 0.432586 0.730398 0.178518
Si Si5 0.713455 0.310236 0.816474
Si Si6 0.934107 0.381419 0.318382
Si Si7 0.923383 0.618057 0.822039
Si Si8 0.573754 0.732344 0.320117
O O1 0.233999 0.499343 0.769114
O O2 0.251417 0.624374 0.754012
O O3 0.127722 0.573688 0.736520
O O4 0.192046 0.572888 0.000000
O O5 0.219236 0.445418 0.500000
O O6 0.263608 0.378339 0.266717
O O7 0.133620 0.416875 0.279882
O O8 0.746180 0.747681 0.751364
O O9 0.627078 0.690511 0.779297
O O10 0.718803 0.675846 0.000000
O O11 0.365931 0.690843 0.236926
O O12 0.415497 0.805545 0.203692
O O13 0.497195 0.708033 0.280372
O O14 0.449728 0.716186 0.000000
O O15 0.716760 0.307023 0.000000
O O16 0.945969 0.387979 0.500000
O O17 0.918411 0.307331 0.270737
O O18 0.002269 0.406159 0.232619
O O19 0.911980 0.598770 0.000000
O O20 0.588502 0.721662 0.500000
#
# Coordination Sequence:
#
# PCOD8225409 Si02
#       8
#     8   8   8   8   8   8   8   8
#     4  11  22  38  58  81 110 150 193 233 277 334
#     4  12  25  39  54  80 116 151 185 232 287 337
#     4  11  20  37  61  85 109 146 192 234 275 327
#     4   9  17  33  56  83 111 142 181 229 275 325
#     4   9  18  34  59  86 109 138 186 236 276 321
#     4  10  20  34  52  80 117 151 185 228 278 332
#     4  10  19  34  56  80 109 149 193 230 269 330
#     4  10  20  33  52  85 119 147 179 224 280 334
#
# _framework density 18.412915000000002
#
# number of rings (size 3 to 8) (size 9 to 14) (size 15 to 20)
#    0.000    1.750    2.500    3.000    0.000    2.000 
#    0.000    3.750    0.000    0.750    0.000    5.250 
#    0.000    0.000    0.000    0.000    0.000    0.000 
#
# Total GULP energy -793865.891743 kJ/mol
# GULP energy per Si atom -12404.154558 kJ/mol
# Density = 1.837101 g / cm^3
# Si number density = 18.412915 Si / 1000 Ang^3
#
#
#
# Elastic Constant Matrix: (Units=GPa)
#
#
# Indices 1 2 3 4 5 6 
#
# 1 99.6063 44.5444 16.7003 0.0000 0.0000 0.0000
# 2 44.5444 84.0088 11.9042 0.0000 0.0000 0.0000
# 3 16.7003 11.9042 45.8381 0.0000 0.0000 0.0000
# 4 0.0000 0.0000 0.0000 23.7183 0.0000 0.0000
# 5 0.0000 0.0000 0.0000 0.0000 27.8863 0.0000
# 6 0.0000 0.0000 0.0000 0.0000 0.0000 21.0555
#
#
#
# Elastic Compliance Matrix: (Units=1/GPa)
#
#
# Indices 1 2 3 4 5 6 
#
# 1 0.013597 -0.006757 -0.003199 0.000000 0.000000 0.000000
# 2 -0.006757 0.015716 -0.001620 0.000000 0.000000 0.000000
# 3 -0.003199 -0.001620 0.023402 0.000000 0.000000 0.000000
# 4 0.000000 0.000000 0.000000 0.042162 0.000000 0.000000
# 5 0.000000 0.000000 0.000000 0.000000 0.035860 0.000000
# 6 0.000000 0.000000 0.000000 0.000000 0.000000 0.047494
#
#
# Mechanical properties :
#
#
# Convention : Reuss Voigt Hill
#
# Bulk Modulus (GPa) = 33.82483 41.75010 37.78747
# Shear Modulus (GPa) = 23.67020 24.95230 24.31125
#
# Velocity S-wave (km/s) = 3.58931 3.68523 3.63759
# Velocity P-wave (km/s) = 5.96553 6.38995 6.18139
#
# Compressibility (1/GPa) = 0.02956408
#
# Stress axis : x y z
#
# Youngs Moduli (GPa) = 73.54303 63.63116 42.73110
#
# Poissons Ratio (x) = 0.42992 0.13671
# Poissons Ratio (y) = 0.49689 0.06921
# Poissons Ratio (z) = 0.23529 0.10306
#
# Static dielectric constant tensor:
#      x y z
#    x 3.469090 0.000000 0.000000 
#    y 0.000000 3.304530 0.000000 
#    z 0.000000 0.000000 3.285800 
# 
# 
# High freq. dielectric constant tensor:
#      x y z
#    x 1.717080 0.000000 0.000000 
#    y 0.000000 1.691170 0.000000 
#    z 0.000000 0.000000 1.712020 
# 
# From -- ./inp_files/7978.got.cif
#   From: 2010.03.12/outbox.cif.g09.slc.cpg/sg55_4_cif.got.tgz:7978.got - 2010.04.16 15:19:21.
