data_PCOD8225420
_publ_section_title
;
Structure prediction by ZEFSAII (Michael W. Deem and Ramdas Pophale) SiO2 
 PCOD8225420
Probable space group: P B A M
;
_chemical_formula_sum "Si O2"
_cell_formula_units_Z 64
_cell_length_a 12.015964
_cell_length_b 29.048434
_cell_length_c 9.326943
_cell_angle_alpha 90.000000
_cell_angle_beta 90.000000
_cell_angle_gamma 90.000000
_cell_volume 3255.522234
_symmetry_space_group_name_H-M "P B A M"
_symmetry_group_IT_number 55
_symmetry_cell_setting 'orthorhombic'
loop_
_space_group_symop_operation_xyz
x,y,z
-x,-y,z
1/2+x,1/2-y,-z
1/2-x,1/2+y,-z
-x,-y,-z
x,y,-z
1/2-x,1/2+y,z
1/2+x,1/2-y,z
loop_
_atom_site_type_symbol
_atom_site_label
_atom_site_fract_x
_atom_site_fract_y
_atom_site_fract_z
Si Si1 0.545102 0.937628 0.840065
Si Si2 0.242164 0.524568 0.668516
Si Si3 0.166152 0.119906 0.664338
Si Si4 0.711764 0.060958 0.835593
Si Si5 0.243899 0.835504 0.169079
Si Si6 0.139781 0.659768 0.161013
Si Si7 0.951732 0.728160 0.831908
Si Si8 0.023321 0.813210 0.667138
O O1 0.618634 0.962169 0.720004
O O2 0.417858 0.950989 0.814711
O O3 0.554971 0.882812 0.828026
O O4 0.583365 0.953658 0.000000
O O5 0.242290 0.515991 0.500000
O O6 0.324602 0.566529 0.715135
O O7 0.280563 0.477077 0.744612
O O8 0.202085 0.122397 0.500000
O O9 0.251997 0.153490 0.743107
O O10 0.041321 0.138249 0.688877
O O11 0.737136 0.112120 0.778670
O O12 0.748262 0.056830 0.000000
O O13 0.350174 0.805001 0.210602
O O14 0.139745 0.814788 0.252237
O O15 0.220675 0.833520 0.000000
O O16 0.068937 0.704054 0.207660
O O17 0.184150 0.665974 0.000000
O O18 0.945614 0.773879 0.736449
O O19 0.946497 0.740500 0.000000
O O20 0.042390 0.802717 0.500000
#
# Coordination Sequence:
#
# PCOD8225420 Si02
#       8
#     8   8   8   8   8   8   8   8
#     4   9  16  30  51  78 113 149 183 225 281 339
#     4  10  20  33  52  80 114 153 194 236 285 342
#     4   9  21  40  56  77 116 157 193 236 284 337
#     4  10  19  34  56  82 114 151 189 237 291 343
#     4  10  22  42  64  87 118 152 193 243 294 347
#     4   9  17  32  57  85 110 143 185 228 278 338
#     4  10  21  39  62  88 115 146 187 236 291 349
#     4  11  25  42  60  83 115 154 196 240 289 345
#
# _framework density 19.658906000000002
#
# number of rings (size 3 to 8) (size 9 to 14) (size 15 to 20)
#    0.000    2.250    1.250    1.125    1.750    5.000 
#    0.000    0.625    0.000    3.750    0.000    0.000 
#    0.000    0.000    0.000    0.000    0.000    0.000 
#
# Total GULP energy -793539.949924 kJ/mol
# GULP energy per Si atom -12399.061718 kJ/mol
# Density = 1.961416 g / cm^3
# Si number density = 19.658906 Si / 1000 Ang^3
#
#
#
# Elastic Constant Matrix: (Units=GPa)
#
#
# Indices 1 2 3 4 5 6 
#
# 1 67.4249 34.2591 36.8593 0.0000 0.0000 0.0000
# 2 34.2591 123.6748 49.9388 0.0000 0.0000 0.0000
# 3 36.8593 49.9388 68.2409 0.0000 0.0000 0.0000
# 4 0.0000 0.0000 0.0000 28.2461 0.0000 0.0000
# 5 0.0000 0.0000 0.0000 0.0000 19.3012 0.0000
# 6 0.0000 0.0000 0.0000 0.0000 0.0000 16.4302
#
#
#
# Elastic Compliance Matrix: (Units=1/GPa)
#
#
# Indices 1 2 3 4 5 6 
#
# 1 0.021319 -0.001783 -0.010211 0.000000 0.000000 0.000000
# 2 -0.001783 0.011626 -0.007545 0.000000 0.000000 0.000000
# 3 -0.010211 -0.007545 0.025691 0.000000 0.000000 0.000000
# 4 0.000000 0.000000 0.000000 0.035403 0.000000 0.000000
# 5 0.000000 0.000000 0.000000 0.000000 0.051810 0.000000
# 6 0.000000 0.000000 0.000000 0.000000 0.000000 0.060864
#
#
# Mechanical properties :
#
#
# Convention : Reuss Voigt Hill
#
# Bulk Modulus (GPa) = 51.12745 55.71723 53.42234
# Shear Modulus (GPa) = 19.81692 22.01437 20.91564
#
# Velocity S-wave (km/s) = 3.17841 3.35000 3.26533
# Velocity P-wave (km/s) = 6.28756 6.58535 6.43818
#
# Compressibility (1/GPa) = 0.01955897
#
# Stress axis : x y z
#
# Youngs Moduli (GPa) = 46.90667 86.01243 38.92456
#
# Poissons Ratio (x) = 0.15332 0.39744
# Poissons Ratio (y) = 0.08362 0.29370
# Poissons Ratio (z) = 0.47895 0.64899
#
# Static dielectric constant tensor:
#      x y z
#    x 3.281110 0.000000 0.000000 
#    y 0.000000 3.844890 0.000000 
#    z 0.000000 0.000000 3.475780 
# 
# 
# High freq. dielectric constant tensor:
#      x y z
#    x 1.741530 0.000000 0.000000 
#    y 0.000000 1.782260 0.000000 
#    z 0.000000 0.000000 1.756070 
# 
# From -- ./inp_files/4680.got.cif
#   From: 2010.03.12/outbox.cif.g09.slc.cpg/sg55_3_cif.got.tgz:4680.got - 2010.04.16 15:19:21.
