data_PCOD8225581
_publ_section_title
;
Structure prediction by ZEFSAII (Michael W. Deem and Ramdas Pophale) SiO2 
 PCOD8225581
Probable space group: P B A M
;
_chemical_formula_sum "Si O2"
_cell_formula_units_Z 56
_cell_length_a 21.286028
_cell_length_b 15.040903
_cell_length_c 8.584145
_cell_angle_alpha 90.000000
_cell_angle_beta 90.000000
_cell_angle_gamma 90.000000
_cell_volume 2748.309155
_symmetry_space_group_name_H-M "P B A M"
_symmetry_group_IT_number 55
_symmetry_cell_setting 'orthorhombic'
loop_
_space_group_symop_operation_xyz
x,y,z
-x,-y,z
1/2+x,1/2-y,-z
1/2-x,1/2+y,-z
-x,-y,-z
x,y,-z
1/2-x,1/2+y,z
1/2+x,1/2-y,z
loop_
_atom_site_type_symbol
_atom_site_label
_atom_site_fract_x
_atom_site_fract_y
_atom_site_fract_z
Si Si1 0.432434 0.474891 0.817621
Si Si2 0.804514 0.947584 0.818191
Si Si3 0.714564 0.084764 0.320509
Si Si4 0.099195 0.778996 0.817321
Si Si5 0.517771 0.868545 0.319545
Si Si6 0.411737 0.971395 0.820430
Si Si7 0.759213 0.262236 0.817800
O O1 0.500000 0.500000 0.739918
O O2 0.379603 0.550376 0.781852
O O3 0.406420 0.380156 0.756638
O O4 0.443072 0.465661 0.000000
O O5 0.773188 0.854742 0.768666
O O6 0.775848 0.027381 0.717804
O O7 0.792417 0.967350 0.000000
O O8 0.695637 0.074609 0.500000
O O9 0.660301 0.048298 0.209952
O O10 0.725534 0.187612 0.283524
O O11 0.045422 0.726081 0.727263
O O12 0.167049 0.737276 0.775904
O O13 0.086578 0.770858 0.000000
O O14 0.500665 0.869293 0.500000
O O15 0.453823 0.885842 0.223438
O O16 0.568178 0.945003 0.283191
O O17 0.421304 0.996755 0.000000
O O18 0.749087 0.241951 0.000000
#
# Coordination Sequence:
#
# PCOD8225581 Si02
#       7
#     8   8   8   8   8   8   8
#     4   9  18  34  58  86 116 153 204 259 302 348
#     4  10  20  38  62  88 119 158 209 259 307 366
#     4  12  24  38  59  88 124 158 196 251 316 370
#     4  10  19  35  58  85 118 158 207 251 302 370
#     4  11  22  37  58  88 124 155 194 245 307 364
#     4  11  22  39  61  85 117 158 204 246 299 360
#     4  10  21  37  61  89 116 156 208 258 305 367
#
# _framework density 20.376163999999999
#
# number of rings (size 3 to 8) (size 9 to 14) (size 15 to 20)
#    0.000    1.571    1.429    5.571    0.000    3.429 
#    0.000    2.857    0.000    1.714    0.000    0.000 
#    0.000    0.000    0.000    0.000    0.000    0.000 
#
# Total GULP energy -694516.331997 kJ/mol
# GULP energy per Si atom -12402.077357 kJ/mol
# Density = 2.032979 g / cm^3
# Si number density = 20.376164 Si / 1000 Ang^3
#
#
#
# Elastic Constant Matrix: (Units=GPa)
#
#
# Indices 1 2 3 4 5 6 
#
# 1 125.5763 50.1055 14.6386 0.0000 0.0000 0.0000
# 2 50.1055 113.5126 18.1912 0.0000 0.0000 0.0000
# 3 14.6386 18.1912 58.1413 0.0000 0.0000 0.0000
# 4 0.0000 0.0000 0.0000 24.3987 0.0000 0.0000
# 5 0.0000 0.0000 0.0000 0.0000 18.5640 0.0000
# 6 0.0000 0.0000 0.0000 0.0000 0.0000 35.5960
#
#
#
# Elastic Compliance Matrix: (Units=1/GPa)
#
#
# Indices 1 2 3 4 5 6 
#
# 1 0.009740 -0.004113 -0.001166 0.000000 0.000000 0.000000
# 2 -0.004113 0.011011 -0.002410 0.000000 0.000000 0.000000
# 3 -0.001166 -0.002410 0.018247 0.000000 0.000000 0.000000
# 4 0.000000 0.000000 0.000000 0.040986 0.000000 0.000000
# 5 0.000000 0.000000 0.000000 0.000000 0.053868 0.000000
# 6 0.000000 0.000000 0.000000 0.000000 0.000000 0.028093
#
#
# Mechanical properties :
#
#
# Convention : Reuss Voigt Hill
#
# Bulk Modulus (GPa) = 42.33275 51.45565 46.89420
# Shear Modulus (GPa) = 26.99867 29.99808 28.49837
#
# Velocity S-wave (km/s) = 3.64402 3.84111 3.74386
# Velocity P-wave (km/s) = 6.20692 6.70670 6.46165
#
# Compressibility (1/GPa) = 0.02362237
#
# Stress axis : x y z
#
# Youngs Moduli (GPa) = 102.66844 90.81758 54.80384
#
# Poissons Ratio (x) = 0.37349 0.06388
# Poissons Ratio (y) = 0.42223 0.13206
# Poissons Ratio (z) = 0.11967 0.21884
#
# Static dielectric constant tensor:
#      x y z
#    x 3.831130 0.000000 0.000000 
#    y 0.000000 3.710050 0.000000 
#    z 0.000000 0.000000 3.444410 
# 
# 
# High freq. dielectric constant tensor:
#      x y z
#    x 1.805160 0.000000 0.000000 
#    y 0.000000 1.793500 0.000000 
#    z 0.000000 0.000000 1.773620 
# 
# From -- ./inp_files/8807.got.cif
#   From: 2010.03.12/outbox.cif.g09.slc.cpg/sg55_5_cif.got.tgz:8807.got - 2010.04.16 15:19:21.
