data_PCOD8225732
_publ_section_title
;
Structure prediction by ZEFSAII (Michael W. Deem and Ramdas Pophale) SiO2 
 PCOD8225732
Probable space group: P B A M
;
_chemical_formula_sum "Si O2"
_cell_formula_units_Z 64
_cell_length_a 12.149614
_cell_length_b 18.312783
_cell_length_c 14.172918
_cell_angle_alpha 90.000000
_cell_angle_beta 90.000000
_cell_angle_gamma 90.000000
_cell_volume 3153.378513
_symmetry_space_group_name_H-M "P B A M"
_symmetry_group_IT_number 55
_symmetry_cell_setting 'orthorhombic'
loop_
_space_group_symop_operation_xyz
x,y,z
-x,-y,z
1/2+x,1/2-y,-z
1/2-x,1/2+y,-z
-x,-y,-z
x,y,-z
1/2-x,1/2+y,z
1/2+x,1/2-y,z
loop_
_atom_site_type_symbol
_atom_site_label
_atom_site_fract_x
_atom_site_fract_y
_atom_site_fract_z
Si Si1 0.281646 0.954490 0.609990
Si Si2 0.057571 0.346106 0.713020
Si Si3 0.333694 0.118790 0.388807
Si Si4 0.985610 0.415621 0.106614
Si Si5 0.383955 0.461729 0.100989
Si Si6 0.732593 0.392114 0.106654
Si Si7 0.366627 0.681961 0.713228
Si Si8 0.938805 0.076777 0.707129
O O1 0.301246 0.950073 0.500000
O O2 0.366943 0.901214 0.657076
O O3 0.157386 0.928933 0.630817
O O4 0.306414 0.036557 0.645333
O O5 0.059286 0.368371 0.822793
O O6 0.107927 0.266506 0.707506
O O7 0.936627 0.349705 0.668161
O O8 0.356691 0.123682 0.500000
O O9 0.228602 0.167408 0.362462
O O10 0.000000 0.500000 0.133867
O O11 0.862405 0.385899 0.119564
O O12 0.027378 0.402500 0.000000
O O13 0.500000 0.500000 0.088637
O O14 0.294292 0.523221 0.125535
O O15 0.386832 0.405318 0.188700
O O16 0.354550 0.423052 0.000000
O O17 0.668820 0.341126 0.180985
O O18 0.696535 0.369606 0.000000
O O19 0.476089 0.639540 0.679270
O O20 0.000000 0.000000 0.713524
#
# Coordination Sequence:
#
# PCOD8225732 Si02
#       8
#     8   8   8   8   8   8   8   8
#     4  11  25  45  70  96 122 167 228 276 324 386
#     4  12  27  42  67  94 137 170 216 272 333 395
#     4  11  24  46  71  93 122 167 221 276 330 389
#     4  10  22  40  67  97 125 167 221 272 324 385
#     4   9  16  29  55  93 122 155 208 255 299 362
#     4  10  19  36  64  92 129 171 210 258 316 379
#     4  12  25  42  62  99 136 172 211 263 334 398
#     4  11  21  38  65  95 133 169 214 266 321 380
#
# _framework density 20.295691999999999
#
# number of rings (size 3 to 8) (size 9 to 14) (size 15 to 20)
#    0.000    1.250    5.000    1.500    3.500    3.250 
#    0.000    0.000    0.000    0.000    0.000    0.000 
#    0.000    0.000    0.000    0.000    0.000    0.000 
#
# Total GULP energy -793577.623010 kJ/mol
# GULP energy per Si atom -12399.650360 kJ/mol
# Density = 2.024950 g / cm^3
# Si number density = 20.295692 Si / 1000 Ang^3
#
#
#
# Elastic Constant Matrix: (Units=GPa)
#
#
# Indices 1 2 3 4 5 6 
#
# 1 84.5723 47.3771 37.5715 0.0000 0.0000 0.0000
# 2 47.3771 115.3261 41.3547 0.0000 0.0000 0.0000
# 3 37.5715 41.3547 86.7751 0.0000 0.0000 0.0000
# 4 0.0000 0.0000 0.0000 20.5814 0.0000 0.0000
# 5 0.0000 0.0000 0.0000 0.0000 2.8404 0.0000
# 6 0.0000 0.0000 0.0000 0.0000 0.0000 26.8197
#
#
#
# Elastic Compliance Matrix: (Units=1/GPa)
#
#
# Indices 1 2 3 4 5 6 
#
# 1 0.016886 -0.005205 -0.004831 0.000000 0.000000 0.000000
# 2 -0.005205 0.012063 -0.003495 0.000000 0.000000 0.000000
# 3 -0.004831 -0.003495 0.015281 0.000000 0.000000 0.000000
# 4 0.000000 0.000000 0.000000 0.048588 0.000000 0.000000
# 5 0.000000 0.000000 0.000000 0.000000 0.352065 0.000000
# 6 0.000000 0.000000 0.000000 0.000000 0.000000 0.037286
#
#
# Mechanical properties :
#
#
# Convention : Reuss Voigt Hill
#
# Bulk Modulus (GPa) = 58.24602 59.92002 59.08302
# Shear Modulus (GPa) = 9.70962 20.73964 15.22463
#
# Velocity S-wave (km/s) = 2.18963 3.20014 2.74184
# Velocity P-wave (km/s) = 5.92905 6.57588 6.26082
#
# Compressibility (1/GPa) = 0.01716855
#
# Stress axis : x y z
#
# Youngs Moduli (GPa) = 59.22092 82.90143 65.43916
#
# Poissons Ratio (x) = 0.43147 0.31612
# Poissons Ratio (y) = 0.30822 0.22872
# Poissons Ratio (z) = 0.28608 0.28976
#
# Static dielectric constant tensor:
#      x y z
#    x 3.987920 0.000000 0.000000 
#    y 0.000000 3.438350 0.000000 
#    z 0.000000 0.000000 4.183190 
# 
# 
# High freq. dielectric constant tensor:
#      x y z
#    x 1.804220 0.000000 0.000000 
#    y 0.000000 1.756490 0.000000 
#    z 0.000000 0.000000 1.811190 
# 
# From -- ./inp_files/18575.got.cif
#   From: 2010.03.12/outbox.cif.g09.slc.cpg/sg55_10_cif.got.tgz:18575.got - 2010.04.16 15:19:21.
