data_PCOD8225160
_publ_section_title
;
Structure prediction by ZEFSAII (Michael W. Deem and Ramdas Pophale) SiO2 
 PCOD8225160
Probable space group: P B A M
;
_chemical_formula_sum "Si O2"
_cell_formula_units_Z 64
_cell_length_a 22.982164
_cell_length_b 18.947734
_cell_length_c 8.718701
_cell_angle_alpha 90.000000
_cell_angle_beta 90.000000
_cell_angle_gamma 90.000000
_cell_volume 3796.644929
_symmetry_space_group_name_H-M "P B A M"
_symmetry_group_IT_number 55
_symmetry_cell_setting 'orthorhombic'
loop_
_space_group_symop_operation_xyz
x,y,z
-x,-y,z
1/2+x,1/2-y,-z
1/2-x,1/2+y,-z
-x,-y,-z
x,y,-z
1/2-x,1/2+y,z
1/2+x,1/2-y,z
loop_
_atom_site_type_symbol
_atom_site_label
_atom_site_fract_x
_atom_site_fract_y
_atom_site_fract_z
Si Si1 0.168706 0.270316 0.823156
Si Si2 0.225134 0.142205 0.322906
Si Si3 0.875748 0.499602 0.678321
Si Si4 0.932947 0.366576 0.176691
Si Si5 0.433947 0.869493 0.175410
Si Si6 0.730426 0.643467 0.679588
Si Si7 0.249662 0.998812 0.820511
Si Si8 0.157255 0.725775 0.324309
O O1 0.176379 0.198234 0.728556
O O2 0.103677 0.299041 0.795607
O O3 0.212270 0.331233 0.768015
O O4 0.181346 0.253853 0.000000
O O5 0.215848 0.124331 0.500000
O O6 0.288662 0.174198 0.291887
O O7 0.217944 0.071040 0.226197
O O8 0.858896 0.498269 0.500000
O O9 0.913002 0.430779 0.717228
O O10 0.914335 0.567813 0.713727
O O11 0.817047 0.500021 0.775416
O O12 0.896084 0.296617 0.216666
O O13 0.999855 0.349294 0.212066
O O14 0.923246 0.387189 0.000000
O O15 0.426506 0.895558 0.000000
O O16 0.744800 0.646219 0.500000
O O17 0.715975 0.564645 0.734537
O O18 0.675834 0.694271 0.717146
O O19 0.243808 0.986954 0.000000
O O20 0.137383 0.719938 0.500000
#
# Coordination Sequence:
#
# PCOD8225160 Si02
#       8
#     8   8   8   8   8   8   8   8
#     4  10  19  33  52  73 100 134 172 210 251 300
#     4  10  20  34  52  74 103 132 165 210 258 303
#     4  12  23  34  49  71 102 138 177 214 249 295
#     4  11  22  35  52  72 101 138 176 214 251 293
#     4  10  22  37  51  72 102 137 175 214 252 294
#     4  10  20  34  52  74 102 132 166 211 259 302
#     4  12  22  33  52  77 103 135 171 207 254 312
#     4   9  19  34  51  72 100 132 168 209 251 299
#
# _framework density 16.856988000000001
#
# number of rings (size 3 to 8) (size 9 to 14) (size 15 to 20)
#    0.000    1.500    2.500    4.875    0.000    5.500 
#    0.000    0.000    0.000    0.000    0.000    0.875 
#    0.000    7.000    0.000    0.000    0.000    0.000 
#
# Total GULP energy -793870.971897 kJ/mol
# GULP energy per Si atom -12404.233936 kJ/mol
# Density = 1.681862 g / cm^3
# Si number density = 16.856988 Si / 1000 Ang^3
#
#
#
# Elastic Constant Matrix: (Units=GPa)
#
#
# Indices 1 2 3 4 5 6 
#
# 1 70.8382 44.0324 28.0021 0.0000 0.0000 0.0000
# 2 44.0324 104.5031 21.2080 0.0000 0.0000 0.0000
# 3 28.0021 21.2080 57.9980 0.0000 0.0000 0.0000
# 4 0.0000 0.0000 0.0000 31.6542 0.0000 0.0000
# 5 0.0000 0.0000 0.0000 0.0000 15.7416 0.0000
# 6 0.0000 0.0000 0.0000 0.0000 0.0000 21.0665
#
#
#
# Elastic Compliance Matrix: (Units=1/GPa)
#
#
# Indices 1 2 3 4 5 6 
#
# 1 0.021971 -0.007674 -0.007802 0.000000 0.000000 0.000000
# 2 -0.007674 0.013017 -0.001055 0.000000 0.000000 0.000000
# 3 -0.007802 -0.001055 0.021394 0.000000 0.000000 0.000000
# 4 0.000000 0.000000 0.000000 0.031591 0.000000 0.000000
# 5 0.000000 0.000000 0.000000 0.000000 0.063526 0.000000
# 6 0.000000 0.000000 0.000000 0.000000 0.000000 0.047469
#
#
# Mechanical properties :
#
#
# Convention : Reuss Voigt Hill
#
# Bulk Modulus (GPa) = 42.87964 46.64716 44.76340
# Shear Modulus (GPa) = 20.85053 23.03224 21.94139
#
# Velocity S-wave (km/s) = 3.52078 3.70040 3.61171
# Velocity P-wave (km/s) = 6.48232 6.78157 6.63363
#
# Compressibility (1/GPa) = 0.02332109
#
# Stress axis : x y z
#
# Youngs Moduli (GPa) = 45.51509 76.82495 46.74151
#
# Poissons Ratio (x) = 0.58956 0.36466
# Poissons Ratio (y) = 0.34929 0.04929
# Poissons Ratio (z) = 0.35509 0.08102
#
# Static dielectric constant tensor:
#      x y z
#    x 2.974800 0.000000 0.000000 
#    y 0.000000 3.248030 0.000000 
#    z 0.000000 0.000000 3.255140 
# 
# 
# High freq. dielectric constant tensor:
#      x y z
#    x 1.616120 0.000000 0.000000 
#    y 0.000000 1.648540 0.000000 
#    z 0.000000 0.000000 1.664740 
# 
# From -- ./inp_files/8164.got.cif
#   From: 2010.03.12/outbox.cif.g09.slc.cpg/sg55_5_cif.got.tgz:8164.got - 2010.04.16 15:19:21.
