data_PCOD8225474
_publ_section_title
;
Structure prediction by ZEFSAII (Michael W. Deem and Ramdas Pophale) SiO2 
 PCOD8225474
Probable space group: P B A M
;
_chemical_formula_sum "Si O2"
_cell_formula_units_Z 64
_cell_length_a 15.088637
_cell_length_b 24.534929
_cell_length_c 8.643402
_cell_angle_alpha 90.000000
_cell_angle_beta 90.000000
_cell_angle_gamma 90.000000
_cell_volume 3199.775644
_symmetry_space_group_name_H-M "P B A M"
_symmetry_group_IT_number 55
_symmetry_cell_setting 'orthorhombic'
loop_
_space_group_symop_operation_xyz
x,y,z
-x,-y,z
1/2+x,1/2-y,-z
1/2-x,1/2+y,-z
-x,-y,-z
x,y,-z
1/2-x,1/2+y,z
1/2+x,1/2-y,z
loop_
_atom_site_type_symbol
_atom_site_label
_atom_site_fract_x
_atom_site_fract_y
_atom_site_fract_z
Si Si1 0.178917 0.147163 0.820007
Si Si2 0.816869 0.434907 0.679673
Si Si3 0.496203 0.105144 0.820712
Si Si4 0.196412 0.862538 0.678803
Si Si5 0.820217 0.550544 0.820021
Si Si6 0.780228 0.260174 0.320824
Si Si7 0.497146 0.662618 0.320795
Si Si8 0.463567 0.226404 0.177711
O O1 0.246752 0.100048 0.775626
O O2 0.196571 0.203463 0.727327
O O3 0.078398 0.130473 0.774883
O O4 0.186450 0.158877 0.000000
O O5 0.799400 0.424478 0.500000
O O6 0.916803 0.418315 0.719186
O O7 0.800393 0.497688 0.718942
O O8 0.584983 0.074398 0.769726
O O9 0.512340 0.169193 0.790012
O O10 0.473100 0.094535 0.000000
O O11 0.209131 0.878806 0.500000
O O12 0.243869 0.905659 0.788081
O O13 0.238955 0.803260 0.712141
O O14 0.092731 0.861676 0.724428
O O15 0.819495 0.535131 0.000000
O O16 0.805064 0.268578 0.500000
O O17 0.860692 0.282470 0.217619
O O18 0.477656 0.654294 0.500000
O O19 0.494114 0.727062 0.283981
O O20 0.473419 0.244366 0.000000
#
# Coordination Sequence:
#
# PCOD8225474 Si02
#       8
#     8   8   8   8   8   8   8   8
#     4  12  24  39  62  91 123 160 206 256 309 370
#     4  12  25  42  64  89 121 161 208 256 309 366
#     4  10  22  39  59  89 126 164 203 249 303 361
#     4   9  21  41  62  88 123 159 202 252 304 359
#     4  11  24  41  63  89 122 162 206 254 307 363
#     4  10  20  36  58  88 123 161 200 247 306 363
#     4  10  22  40  61  88 126 165 203 254 308 365
#     4  10  19  34  57  88 125 163 201 244 297 360
#
# _framework density 20.001403
#
# number of rings (size 3 to 8) (size 9 to 14) (size 15 to 20)
#    0.000    1.500    1.250    4.875    1.750    6.000 
#    0.000    0.625    0.000    3.750    0.000    0.000 
#    0.000    0.000    0.000    0.000    0.000    0.000 
#
# Total GULP energy -793896.224734 kJ/mol
# GULP energy per Si atom -12404.628511 kJ/mol
# Density = 1.995588 g / cm^3
# Si number density = 20.001403 Si / 1000 Ang^3
#
#
#
# Elastic Constant Matrix: (Units=GPa)
#
#
# Indices 1 2 3 4 5 6 
#
# 1 101.4526 51.5669 24.8180 0.0000 0.0000 0.0000
# 2 51.5669 85.5281 27.7645 0.0000 0.0000 0.0000
# 3 24.8180 27.7645 59.6923 0.0000 0.0000 0.0000
# 4 0.0000 0.0000 0.0000 32.8041 0.0000 0.0000
# 5 0.0000 0.0000 0.0000 0.0000 33.4909 0.0000
# 6 0.0000 0.0000 0.0000 0.0000 0.0000 23.2143
#
#
#
# Elastic Compliance Matrix: (Units=1/GPa)
#
#
# Indices 1 2 3 4 5 6 
#
# 1 0.014477 -0.007980 -0.002308 0.000000 0.000000 0.000000
# 2 -0.007980 0.018170 -0.005134 0.000000 0.000000 0.000000
# 3 -0.002308 -0.005134 0.020100 0.000000 0.000000 0.000000
# 4 0.000000 0.000000 0.000000 0.030484 0.000000 0.000000
# 5 0.000000 0.000000 0.000000 0.000000 0.029859 0.000000
# 6 0.000000 0.000000 0.000000 0.000000 0.000000 0.043077
#
#
# Mechanical properties :
#
#
# Convention : Reuss Voigt Hill
#
# Bulk Modulus (GPa) = 45.65141 50.55244 48.10192
# Shear Modulus (GPa) = 25.73215 27.40343 26.56779
#
# Velocity S-wave (km/s) = 3.59070 3.70547 3.64853
# Velocity P-wave (km/s) = 6.32965 6.60580 6.46920
#
# Compressibility (1/GPa) = 0.02190513
#
# Stress axis : x y z
#
# Youngs Moduli (GPa) = 69.07406 55.03704 49.75183
#
# Poissons Ratio (x) = 0.43917 0.11481
# Poissons Ratio (y) = 0.55118 0.25540
# Poissons Ratio (z) = 0.15940 0.28254
#
# Static dielectric constant tensor:
#      x y z
#    x 3.635790 0.000000 0.000000 
#    y 0.000000 3.547160 0.000000 
#    z 0.000000 0.000000 3.589180 
# 
# 
# High freq. dielectric constant tensor:
#      x y z
#    x 1.781320 0.000000 0.000000 
#    y 0.000000 1.772490 0.000000 
#    z 0.000000 0.000000 1.785960 
# 
# From -- ./inp_files/6492.got.cif
#   From: 2010.03.12/outbox.cif.g09.slc.cpg/sg55_4_cif.got.tgz:6492.got - 2010.04.16 15:19:21.
