data_PCOD8225829
_publ_section_title
;
Structure prediction by ZEFSAII (Michael W. Deem and Ramdas Pophale) SiO2 
 PCOD8225829
Probable space group: P B A M
;
_chemical_formula_sum "Si O2"
_cell_formula_units_Z 48
_cell_length_a 9.097449
_cell_length_b 31.444474
_cell_length_c 8.809046
_cell_angle_alpha 90.000000
_cell_angle_beta 90.000000
_cell_angle_gamma 90.000000
_cell_volume 2519.955327
_symmetry_space_group_name_H-M "P B A M"
_symmetry_group_IT_number 55
_symmetry_cell_setting 'orthorhombic'
loop_
_space_group_symop_operation_xyz
x,y,z
-x,-y,z
1/2+x,1/2-y,-z
1/2-x,1/2+y,-z
-x,-y,-z
x,y,-z
1/2-x,1/2+y,z
1/2+x,1/2-y,z
loop_
_atom_site_type_symbol
_atom_site_label
_atom_site_fract_x
_atom_site_fract_y
_atom_site_fract_z
Si Si1 0.638965 0.363613 0.180670
Si Si2 0.835631 0.284678 0.178946
Si Si3 0.171611 0.870842 0.673981
Si Si4 0.833774 0.954053 0.169702
Si Si5 0.349495 0.787701 0.675469
Si Si6 0.683166 0.544789 0.828994
O O1 0.741511 0.325239 0.233290
O O2 0.475015 0.355925 0.240559
O O3 0.709844 0.408435 0.244699
O O4 0.627146 0.366323 0.000000
O O5 0.746605 0.242470 0.218147
O O6 0.983340 0.284687 0.274211
O O7 0.869352 0.285850 0.000000
O O8 0.128362 0.876320 0.500000
O O9 0.296258 0.835783 0.699962
O O10 0.241431 0.915460 0.731878
O O11 0.008756 0.953201 0.166726
O O12 0.774443 0.998256 0.246010
O O13 0.771062 0.955828 0.000000
O O14 0.334825 0.773669 0.500000
O O15 0.746015 0.548691 0.000000
#
# Coordination Sequence:
#
# PCOD8225829 Si02
#       6
#     8   8   8   8   8   8
#     4   9  18  33  53  77 105 134 166 211 261 303
#     4  11  23  38  59  83 103 129 173 223 259 299
#     4  10  20  32  49  75 105 138 174 209 249 303
#     4   7  11  23  44  70  99 131 165 202 252 304
#     4  11  24  40  56  75 106 143 171 205 262 323
#     4   8  13  24  45  70  98 133 169 208 251 294
#
# _framework density 19.047955999999999
#
# number of rings (size 3 to 8) (size 9 to 14) (size 15 to 20)
#    0.000    2.667    0.000    4.500    0.000    6.667 
#    0.000    6.667    0.000    1.000    0.000    7.000 
#    0.000    0.000    0.000    0.000    0.000    0.000 
#
# Total GULP energy -594678.971583 kJ/mol
# GULP energy per Si atom -12389.145241 kJ/mol
# Density = 1.900460 g / cm^3
# Si number density = 19.047956 Si / 1000 Ang^3
#
#
#
# Elastic Constant Matrix: (Units=GPa)
#
#
# Indices 1 2 3 4 5 6 
#
# 1 51.7442 13.2024 14.2678 0.0000 0.0000 0.0000
# 2 13.2024 103.6054 34.7641 0.0000 0.0000 0.0000
# 3 14.2678 34.7641 40.9270 0.0000 0.0000 0.0000
# 4 0.0000 0.0000 0.0000 22.5412 0.0000 0.0000
# 5 0.0000 0.0000 0.0000 0.0000 22.1030 0.0000
# 6 0.0000 0.0000 0.0000 0.0000 0.0000 21.4333
#
#
#
# Elastic Compliance Matrix: (Units=1/GPa)
#
#
# Indices 1 2 3 4 5 6 
#
# 1 0.021388 -0.000313 -0.007191 0.000000 0.000000 0.000000
# 2 -0.000313 0.013504 -0.011362 0.000000 0.000000 0.000000
# 3 -0.007191 -0.011362 0.036591 0.000000 0.000000 0.000000
# 4 0.000000 0.000000 0.000000 0.044363 0.000000 0.000000
# 5 0.000000 0.000000 0.000000 0.000000 0.045243 0.000000
# 6 0.000000 0.000000 0.000000 0.000000 0.000000 0.046656
#
#
# Mechanical properties :
#
#
# Convention : Reuss Voigt Hill
#
# Bulk Modulus (GPa) = 29.62638 35.63837 32.63238
# Shear Modulus (GPa) = 19.47590 22.15167 20.81378
#
# Velocity S-wave (km/s) = 3.20107 3.41389 3.30919
# Velocity P-wave (km/s) = 5.40831 5.85577 5.63648
#
# Compressibility (1/GPa) = 0.03375370
#
# Stress axis : x y z
#
# Youngs Moduli (GPa) = 46.75442 74.05110 27.32887
#
# Poissons Ratio (x) = 0.02316 0.19651
# Poissons Ratio (y) = 0.01462 0.31050
# Poissons Ratio (z) = 0.33620 0.84134
#
# Static dielectric constant tensor:
#      x y z
#    x 3.047080 0.000000 0.000000 
#    y 0.000000 4.390490 0.000000 
#    z 0.000000 0.000000 3.348270 
# 
# 
# High freq. dielectric constant tensor:
#      x y z
#    x 1.693220 0.000000 0.000000 
#    y 0.000000 1.774210 0.000000 
#    z 0.000000 0.000000 1.718330 
# 
# From -- ./inp_files/2887.got.cif
#   From: 2010.03.12/outbox.cif.g09.slc.cpg/sg55_2_cif.got.tgz:2887.got - 2010.04.16 15:19:21.
