data_PCOD8225083
_publ_section_title
;
Structure prediction by ZEFSAII (Michael W. Deem and Ramdas Pophale) SiO2 
 PCOD8225083
Probable space group: P B A M
;
_chemical_formula_sum "Si O2"
_cell_formula_units_Z 48
_cell_length_a 27.389342
_cell_length_b 8.992059
_cell_length_c 9.698718
_cell_angle_alpha 90.000000
_cell_angle_beta 90.000000
_cell_angle_gamma 90.000000
_cell_volume 2388.664079
_symmetry_space_group_name_H-M "P B A M"
_symmetry_group_IT_number 55
_symmetry_cell_setting 'orthorhombic'
loop_
_space_group_symop_operation_xyz
x,y,z
-x,-y,z
1/2+x,1/2-y,-z
1/2-x,1/2+y,-z
-x,-y,-z
x,y,-z
1/2-x,1/2+y,z
1/2+x,1/2-y,z
loop_
_atom_site_type_symbol
_atom_site_label
_atom_site_fract_x
_atom_site_fract_y
_atom_site_fract_z
Si Si1 0.254797 0.447691 0.229783
Si Si2 0.315362 0.707090 0.654763
Si Si3 0.506135 0.823758 0.157696
Si Si4 0.917718 0.705274 0.657204
Si Si5 0.094860 0.645746 0.343054
Si Si6 0.181727 0.689424 0.145759
O O1 0.221796 0.341690 0.323081
O O2 0.290957 0.548798 0.319587
O O3 0.219979 0.553598 0.141922
O O4 0.288509 0.343312 0.136364
O O5 0.332425 0.717874 0.500000
O O6 0.368255 0.727341 0.728028
O O7 0.461044 0.748300 0.239036
O O8 0.554219 0.779013 0.245066
O O9 0.500000 0.000000 0.154512
O O10 0.509236 0.762915 0.000000
O O11 0.929330 0.759899 0.500000
O O12 0.912292 0.528831 0.654092
O O13 0.092389 0.709068 0.500000
O O14 0.147594 0.685006 0.279262
O O15 0.152334 0.676894 0.000000
#
# Coordination Sequence:
#
# PCOD8225083 Si02
#       6
#     8   8   8   8   8   8
#     4  10  22  36  54  80 109 150 190 229 272 325
#     4  10  19  34  55  82 114 147 185 229 276 325
#     4   9  17  30  49  77 108 143 180 221 271 327
#     4   9  17  31  50  79 111 142 178 225 275 324
#     4  10  19  32  53  81 110 142 180 227 277 327
#     4  11  22  38  56  79 112 149 188 229 274 328
#
# _framework density 20.094912999999998
#
# number of rings (size 3 to 8) (size 9 to 14) (size 15 to 20)
#    0.000    2.167    1.667    2.000    0.000    6.000 
#    0.000    1.667    0.000    1.000    0.000    5.833 
#    0.000    0.000    0.000    0.000    0.000    0.000 
#
# Total GULP energy -594757.144854 kJ/mol
# GULP energy per Si atom -12390.773851 kJ/mol
# Density = 2.004918 g / cm^3
# Si number density = 20.094913 Si / 1000 Ang^3
#
#
#
# Elastic Constant Matrix: (Units=GPa)
#
#
# Indices 1 2 3 4 5 6 
#
# 1 119.0879 22.4480 67.5945 0.0000 0.0000 0.0000
# 2 22.4480 69.3269 21.2764 0.0000 0.0000 0.0000
# 3 67.5945 21.2764 150.8451 0.0000 0.0000 0.0000
# 4 0.0000 0.0000 0.0000 0.5384 0.0000 0.0000
# 5 0.0000 0.0000 0.0000 0.0000 34.2813 0.0000
# 6 0.0000 0.0000 0.0000 0.0000 0.0000 9.1951
#
#
#
# Elastic Compliance Matrix: (Units=1/GPa)
#
#
# Indices 1 2 3 4 5 6 
#
# 1 0.011590 -0.002257 -0.004875 0.000000 0.000000 0.000000
# 2 -0.002257 0.015516 -0.001177 0.000000 0.000000 0.000000
# 3 -0.004875 -0.001177 0.008980 0.000000 0.000000 0.000000
# 4 0.000000 0.000000 0.000000 1.857355 0.000000 0.000000
# 5 0.000000 0.000000 0.000000 0.000000 0.029170 0.000000
# 6 0.000000 0.000000 0.000000 0.000000 0.000000 0.108753
#
#
# Mechanical properties :
#
#
# Convention : Reuss Voigt Hill
#
# Bulk Modulus (GPa) = 51.36653 62.43308 56.89980
# Shear Modulus (GPa) = 2.43372 23.99904 13.21638
#
# Velocity S-wave (km/s) = 1.10170 3.45959 2.56734
# Velocity P-wave (km/s) = 5.21879 6.86257 6.09634
#
# Compressibility (1/GPa) = 0.01946793
#
# Stress axis : x y z
#
# Youngs Moduli (GPa) = 86.28411 64.44780 111.35932
#
# Poissons Ratio (x) = 0.14543 0.54289
# Poissons Ratio (y) = 0.19470 0.13111
# Poissons Ratio (z) = 0.42064 0.07588
#
# Static dielectric constant tensor:
#      x y z
#    x 3.828150 0.000000 0.000000 
#    y 0.000000 3.491480 0.000000 
#    z 0.000000 0.000000 3.690500 
# 
# 
# High freq. dielectric constant tensor:
#      x y z
#    x 1.794960 0.000000 0.000000 
#    y 0.000000 1.743360 0.000000 
#    z 0.000000 0.000000 1.784120 
# 
# From -- ./inp_files/10503.got.cif
#   From: 2010.03.12/outbox.cif.g09.slc.cpg/sg55_6_cif.got.tgz:10503.got - 2010.04.16 15:19:21.
