data_PCOD8225514
_publ_section_title
;
Structure prediction by ZEFSAII (Michael W. Deem and Ramdas Pophale) SiO2 
 PCOD8225514
Probable space group: P B A M
;
_chemical_formula_sum "Si O2"
_cell_formula_units_Z 64
_cell_length_a 23.617700
_cell_length_b 15.307333
_cell_length_c 8.878560
_cell_angle_alpha 90.000000
_cell_angle_beta 90.000000
_cell_angle_gamma 90.000000
_cell_volume 3209.812513
_symmetry_space_group_name_H-M "P B A M"
_symmetry_group_IT_number 55
_symmetry_cell_setting 'orthorhombic'
loop_
_space_group_symop_operation_xyz
x,y,z
-x,-y,z
1/2+x,1/2-y,-z
1/2-x,1/2+y,-z
-x,-y,-z
x,y,-z
1/2-x,1/2+y,z
1/2+x,1/2-y,z
loop_
_atom_site_type_symbol
_atom_site_label
_atom_site_fract_x
_atom_site_fract_y
_atom_site_fract_z
Si Si1 0.696168 0.741673 0.175567
Si Si2 0.385492 0.596208 0.327485
Si Si3 0.624247 0.906409 0.822588
Si Si4 0.002044 0.355781 0.176796
Si Si5 0.503075 0.675950 0.327486
Si Si6 0.172308 0.256088 0.824549
Si Si7 0.889365 0.581864 0.322014
Si Si8 0.621073 0.599841 0.321836
O O1 0.665742 0.829737 0.233695
O O2 0.761751 0.747976 0.214552
O O3 0.671882 0.657131 0.258131
O O4 0.684133 0.729805 0.000000
O O5 0.366068 0.611501 0.500000
O O6 0.453391 0.604867 0.315531
O O7 0.353891 0.663664 0.220240
O O8 0.369624 0.499687 0.269225
O O9 0.560977 0.880674 0.773443
O O10 0.642225 0.995227 0.738245
O O11 0.629642 0.921821 0.000000
O O12 0.015203 0.257247 0.225571
O O13 0.046816 0.419337 0.257173
O O14 0.010972 0.365878 0.000000
O O15 0.510695 0.707557 0.500000
O O16 0.560721 0.634952 0.261797
O O17 0.144254 0.333118 0.730295
O O18 0.161339 0.273665 0.000000
O O19 0.891498 0.581188 0.500000
O O20 0.621150 0.604315 0.500000
#
# Coordination Sequence:
#
# PCOD8225514 Si02
#       8
#     8   8   8   8   8   8   8   8
#     4  10  23  43  63  85 116 157 203 250 298 349
#     4  10  21  38  60  89 124 159 194 238 294 353
#     4  10  22  41  63  89 122 157 196 245 300 354
#     4  11  21  36  62  91 123 157 194 242 297 355
#     4  10  19  34  59  89 124 160 192 233 293 356
#     4  11  24  42  63  85 115 157 204 251 299 349
#     4  12  25  40  61  90 123 157 198 245 297 360
#     4  10  21  37  61  92 125 158 194 238 295 358
#
# _framework density 19.938859999999998
#
# number of rings (size 3 to 8) (size 9 to 14) (size 15 to 20)
#    0.000    1.500    2.500    2.625    0.000    7.000 
#    0.000    3.750    0.000    2.250    0.000    0.000 
#    0.000    0.000    0.000    0.000    0.000    0.000 
#
# Total GULP energy -793938.894976 kJ/mol
# GULP energy per Si atom -12405.295234 kJ/mol
# Density = 1.989348 g / cm^3
# Si number density = 19.938860 Si / 1000 Ang^3
#
#
#
# Elastic Constant Matrix: (Units=GPa)
#
#
# Indices 1 2 3 4 5 6 
#
# 1 90.8744 30.4839 27.2018 0.0000 0.0000 0.0000
# 2 30.4839 120.4114 31.0475 0.0000 0.0000 0.0000
# 3 27.2018 31.0475 62.3352 0.0000 0.0000 0.0000
# 4 0.0000 0.0000 0.0000 35.1985 0.0000 0.0000
# 5 0.0000 0.0000 0.0000 0.0000 19.5283 0.0000
# 6 0.0000 0.0000 0.0000 0.0000 0.0000 13.4590
#
#
#
# Elastic Compliance Matrix: (Units=1/GPa)
#
#
# Indices 1 2 3 4 5 6 
#
# 1 0.013111 -0.002116 -0.004668 0.000000 0.000000 0.000000
# 2 -0.002116 0.009870 -0.003993 0.000000 0.000000 0.000000
# 3 -0.004668 -0.003993 0.020068 0.000000 0.000000 0.000000
# 4 0.000000 0.000000 0.000000 0.028410 0.000000 0.000000
# 5 0.000000 0.000000 0.000000 0.000000 0.051208 0.000000
# 6 0.000000 0.000000 0.000000 0.000000 0.000000 0.074300
#
#
# Mechanical properties :
#
#
# Convention : Reuss Voigt Hill
#
# Bulk Modulus (GPa) = 46.51862 50.12081 48.31971
# Shear Modulus (GPa) = 22.15480 25.96300 24.05890
#
# Velocity S-wave (km/s) = 3.33699 3.61242 3.47743
# Velocity P-wave (km/s) = 6.18293 6.52620 6.35688
#
# Compressibility (1/GPa) = 0.02149677
#
# Stress axis : x y z
#
# Youngs Moduli (GPa) = 76.27130 101.31717 49.83100
#
# Poissons Ratio (x) = 0.21436 0.23259
# Poissons Ratio (y) = 0.16137 0.19896
# Poissons Ratio (z) = 0.35600 0.40453
#
# Static dielectric constant tensor:
#      x y z
#    x 3.674670 0.000000 0.000000 
#    y 0.000000 3.734280 0.000000 
#    z 0.000000 0.000000 3.487550 
# 
# 
# High freq. dielectric constant tensor:
#      x y z
#    x 1.777050 0.000000 0.000000 
#    y 0.000000 1.789960 0.000000 
#    z 0.000000 0.000000 1.769630 
# 
# From -- ./inp_files/9662.got.cif
#   From: 2010.03.12/outbox.cif.g09.slc.cpg/sg55_5_cif.got.tgz:9662.got - 2010.04.16 15:19:21.
