data_PCOD8225912
_publ_section_title
;
Structure prediction by ZEFSAII (Michael W. Deem and Ramdas Pophale) SiO2 
 PCOD8225912
Probable space group: P B A M
;
_chemical_formula_sum "Si O2"
_cell_formula_units_Z 64
_cell_length_a 15.865304
_cell_length_b 22.783267
_cell_length_c 9.510516
_cell_angle_alpha 90.000000
_cell_angle_beta 90.000000
_cell_angle_gamma 90.000000
_cell_volume 3437.703992
_symmetry_space_group_name_H-M "P B A M"
_symmetry_group_IT_number 55
_symmetry_cell_setting 'orthorhombic'
loop_
_space_group_symop_operation_xyz
x,y,z
-x,-y,z
1/2+x,1/2-y,-z
1/2-x,1/2+y,-z
-x,-y,-z
x,y,-z
1/2-x,1/2+y,z
1/2+x,1/2-y,z
loop_
_atom_site_type_symbol
_atom_site_label
_atom_site_fract_x
_atom_site_fract_y
_atom_site_fract_z
Si Si1 0.478964 0.729778 0.157761
Si Si2 0.300149 0.244435 0.349573
Si Si3 0.907271 0.152210 0.344810
Si Si4 0.094857 0.982583 0.664029
Si Si5 0.532601 0.830395 0.664598
Si Si6 0.239403 0.049082 0.165820
Si Si7 0.197609 0.176754 0.153331
Si Si8 0.065925 0.552213 0.163769
O O1 0.544999 0.685304 0.222880
O O2 0.465344 0.788650 0.252693
O O3 0.400771 0.686284 0.149345
O O4 0.506008 0.749192 0.000000
O O5 0.263570 0.224730 0.500000
O O6 0.318233 0.313934 0.352619
O O7 0.381200 0.204710 0.315840
O O8 0.231105 0.233063 0.234095
O O9 0.951863 0.157190 0.500000
O O10 0.892691 0.085593 0.304864
O O11 0.106029 0.998809 0.500000
O O12 0.170761 0.011001 0.751389
O O13 0.000000 0.000000 0.714250
O O14 0.507606 0.837527 0.500000
O O15 0.538930 0.893685 0.737779
O O16 0.223215 0.114997 0.222850
O O17 0.337294 0.032057 0.198436
O O18 0.219901 0.043311 0.000000
O O19 0.239125 0.177553 0.000000
O O20 0.000000 0.500000 0.196091
O O21 0.060541 0.571016 0.000000
#
# Coordination Sequence:
#
# PCOD8225912 Si02
#       8
#     8   8   8   8   8   8   8   8
#     4  10  20  33  54  83 111 142 181 229 283 342
#     4   9  18  32  53  76 103 138 175 221 275 330
#     4   9  19  36  53  76 110 144 183 225 275 337
#     4  10  21  37  58  84 117 157 195 235 287 347
#     4  10  20  36  57  82 110 143 184 231 287 345
#     4  10  21  37  58  85 116 151 196 246 291 342
#     4  10  20  34  53  80 109 139 181 230 280 339
#     4  10  21  39  62  84 113 154 198 248 299 344
#
# _framework density 18.617076000000001
#
# number of rings (size 3 to 8) (size 9 to 14) (size 15 to 20)
#    0.000    2.250    1.250    2.250    0.000    5.000 
#    2.250    0.000    0.000    0.000    0.000    0.000 
#    0.000    0.000    0.000    0.000    0.000    0.000 
#
# Total GULP energy -792908.243092 kJ/mol
# GULP energy per Si atom -12389.191298 kJ/mol
# Density = 1.857470 g / cm^3
# Si number density = 18.617076 Si / 1000 Ang^3
#
#
#
# Elastic Constant Matrix: (Units=GPa)
#
#
# Indices 1 2 3 4 5 6 
#
# 1 90.2793 53.9004 48.9909 0.0000 0.0000 0.0000
# 2 53.9004 130.4818 65.2644 0.0000 0.0000 0.0000
# 3 48.9909 65.2644 104.3365 0.0000 0.0000 0.0000
# 4 0.0000 0.0000 0.0000 29.6805 0.0000 0.0000
# 5 0.0000 0.0000 0.0000 0.0000 28.1867 0.0000
# 6 0.0000 0.0000 0.0000 0.0000 0.0000 22.8854
#
#
#
# Elastic Compliance Matrix: (Units=1/GPa)
#
#
# Indices 1 2 3 4 5 6 
#
# 1 0.016328 -0.004235 -0.005018 0.000000 0.000000 0.000000
# 2 -0.004235 0.012252 -0.005675 0.000000 0.000000 0.000000
# 3 -0.005018 -0.005675 0.015490 0.000000 0.000000 0.000000
# 4 0.000000 0.000000 0.000000 0.033692 0.000000 0.000000
# 5 0.000000 0.000000 0.000000 0.000000 0.035478 0.000000
# 6 0.000000 0.000000 0.000000 0.000000 0.000000 0.043696
#
#
# Mechanical properties :
#
#
# Convention : Reuss Voigt Hill
#
# Bulk Modulus (GPa) = 70.35129 73.48988 71.92058
# Shear Modulus (GPa) = 26.10545 26.61332 26.35938
#
# Velocity S-wave (km/s) = 3.74870 3.78499 3.76689
# Velocity P-wave (km/s) = 7.52380 7.65909 7.59175
#
# Compressibility (1/GPa) = 0.01421438
#
# Stress axis : x y z
#
# Youngs Moduli (GPa) = 61.24362 81.61870 64.55627
#
# Poissons Ratio (x) = 0.34568 0.32392
# Poissons Ratio (y) = 0.25938 0.36637
# Poissons Ratio (z) = 0.30730 0.46321
#
# Static dielectric constant tensor:
#      x y z
#    x 3.311520 0.000000 0.000000 
#    y 0.000000 3.570440 0.000000 
#    z 0.000000 0.000000 3.690860 
# 
# 
# High freq. dielectric constant tensor:
#      x y z
#    x 1.704650 0.000000 0.000000 
#    y 0.000000 1.723480 0.000000 
#    z 0.000000 0.000000 1.730190 
# 
# From -- ./inp_files/6604.got.cif
#   From: 2010.03.12/outbox.cif.g09.slc.cpg/sg55_4_cif.got.tgz:6604.got - 2010.04.16 15:19:21.
