data_PCOD8225859
_publ_section_title
;
Structure prediction by ZEFSAII (Michael W. Deem and Ramdas Pophale) SiO2 
 PCOD8225859
Probable space group: P B A M
;
_chemical_formula_sum "Si O2"
_cell_formula_units_Z 56
_cell_length_a 14.566734
_cell_length_b 21.624450
_cell_length_c 9.810370
_cell_angle_alpha 90.000000
_cell_angle_beta 90.000000
_cell_angle_gamma 90.000000
_cell_volume 3090.243113
_symmetry_space_group_name_H-M "P B A M"
_symmetry_group_IT_number 55
_symmetry_cell_setting 'orthorhombic'
loop_
_space_group_symop_operation_xyz
x,y,z
-x,-y,z
1/2+x,1/2-y,-z
1/2-x,1/2+y,-z
-x,-y,-z
x,y,-z
1/2-x,1/2+y,z
1/2+x,1/2-y,z
loop_
_atom_site_type_symbol
_atom_site_label
_atom_site_fract_x
_atom_site_fract_y
_atom_site_fract_z
Si Si1 0.338798 0.782691 0.342928
Si Si2 0.294527 0.392105 0.340990
Si Si3 0.027841 0.350766 0.843712
Si Si4 0.825160 0.859908 0.659345
Si Si5 0.838609 0.541012 0.847345
Si Si6 0.494411 0.430052 0.661000
Si Si7 0.664205 0.901011 0.154096
O O1 0.366989 0.791057 0.500000
O O2 0.249802 0.824932 0.307009
O O3 0.427149 0.799940 0.253626
O O4 0.316025 0.712382 0.308440
O O5 0.284312 0.407915 0.500000
O O6 0.242775 0.445367 0.258239
O O7 0.400880 0.394885 0.295094
O O8 0.073830 0.416897 0.814230
O O9 0.920251 0.355987 0.808773
O O10 0.042581 0.330369 0.000000
O O11 0.811936 0.873571 0.500000
O O12 0.921324 0.887994 0.713442
O O13 0.745413 0.893310 0.740349
O O14 0.871787 0.470913 0.833365
O O15 0.801651 0.554603 0.000000
O O16 0.500000 0.500000 0.722126
O O17 0.499304 0.434778 0.500000
O O18 0.698430 0.887438 0.000000
#
# Coordination Sequence:
#
# PCOD8225859 Si02
#       7
#     8   8   8   8   8   8   8
#     4   9  19  34  51  74 100 126 162 207 251 294
#     4   9  17  31  51  72  96 127 163 204 248 296
#     4   9  18  33  53  74  99 133 166 197 241 298
#     4  10  21  35  51  72  99 132 169 209 252 297
#     4   9  17  31  51  75 102 129 160 200 245 296
#     4   9  17  30  49  71  94 125 165 204 244 293
#     4  10  20  33  50  74 102 131 163 201 247 295
#
# _framework density 18.121551
#
# number of rings (size 3 to 8) (size 9 to 14) (size 15 to 20)
#    0.000    2.714    0.000    1.286    0.000    5.714 
#    0.000    3.571    0.000    6.857    0.000    0.000 
#    0.000    0.000    0.000    0.000    0.000    0.000 
#
# Total GULP energy -694310.533963 kJ/mol
# GULP energy per Si atom -12398.402392 kJ/mol
# Density = 1.808031 g / cm^3
# Si number density = 18.121551 Si / 1000 Ang^3
#
#
#
# Elastic Constant Matrix: (Units=GPa)
#
#
# Indices 1 2 3 4 5 6 
#
# 1 113.2244 28.6166 37.6043 0.0000 0.0000 0.0000
# 2 28.6166 70.0738 21.4198 0.0000 0.0000 0.0000
# 3 37.6043 21.4198 47.7500 0.0000 0.0000 0.0000
# 4 0.0000 0.0000 0.0000 20.3345 0.0000 0.0000
# 5 0.0000 0.0000 0.0000 0.0000 27.1845 0.0000
# 6 0.0000 0.0000 0.0000 0.0000 0.0000 21.0978
#
#
#
# Elastic Compliance Matrix: (Units=1/GPa)
#
#
# Indices 1 2 3 4 5 6 
#
# 1 0.012296 -0.002389 -0.008612 0.000000 0.000000 0.000000
# 2 -0.002389 0.017003 -0.005746 0.000000 0.000000 0.000000
# 3 -0.008612 -0.005746 0.030302 0.000000 0.000000 0.000000
# 4 0.000000 0.000000 0.000000 0.049177 0.000000 0.000000
# 5 0.000000 0.000000 0.000000 0.000000 0.036786 0.000000
# 6 0.000000 0.000000 0.000000 0.000000 0.000000 0.047398
#
#
# Mechanical properties :
#
#
# Convention : Reuss Voigt Hill
#
# Bulk Modulus (GPa) = 38.30313 45.14775 41.72544
# Shear Modulus (GPa) = 21.26241 23.28388 22.27315
#
# Velocity S-wave (km/s) = 3.42909 3.58840 3.50965
# Velocity P-wave (km/s) = 6.07132 6.49128 6.28481
#
# Compressibility (1/GPa) = 0.02610753
#
# Stress axis : x y z
#
# Youngs Moduli (GPa) = 81.32761 58.81454 33.00148
#
# Poissons Ratio (x) = 0.14051 0.28420
# Poissons Ratio (y) = 0.19429 0.18961
# Poissons Ratio (z) = 0.70037 0.33793
#
# Static dielectric constant tensor:
#      x y z
#    x 3.405640 0.000000 0.000000 
#    y 0.000000 3.342520 0.000000 
#    z 0.000000 0.000000 3.247380 
# 
# 
# High freq. dielectric constant tensor:
#      x y z
#    x 1.701190 0.000000 0.000000 
#    y 0.000000 1.699450 0.000000 
#    z 0.000000 0.000000 1.685330 
# 
# From -- ./inp_files/6017.got.cif
#   From: 2010.03.12/outbox.cif.g09.slc.cpg/sg55_4_cif.got.tgz:6017.got - 2010.04.16 15:19:21.
