data_PCOD8225685
_publ_section_title
;
Structure prediction by ZEFSAII (Michael W. Deem and Ramdas Pophale) SiO2 
 PCOD8225685
Probable space group: P B A M
;
_chemical_formula_sum "Si O2"
_cell_formula_units_Z 64
_cell_length_a 14.651436
_cell_length_b 24.380223
_cell_length_c 8.842696
_cell_angle_alpha 90.000000
_cell_angle_beta 90.000000
_cell_angle_gamma 90.000000
_cell_volume 3158.657674
_symmetry_space_group_name_H-M "P B A M"
_symmetry_group_IT_number 55
_symmetry_cell_setting 'orthorhombic'
loop_
_space_group_symop_operation_xyz
x,y,z
-x,-y,z
1/2+x,1/2-y,-z
1/2-x,1/2+y,-z
-x,-y,-z
x,y,-z
1/2-x,1/2+y,z
1/2+x,1/2-y,z
loop_
_atom_site_type_symbol
_atom_site_label
_atom_site_fract_x
_atom_site_fract_y
_atom_site_fract_z
Si Si1 0.256213 0.937387 0.178784
Si Si2 0.365533 0.743389 0.178874
Si Si3 0.450731 0.943389 0.322512
Si Si4 0.097925 0.014605 0.173709
Si Si5 0.453380 0.631033 0.173121
Si Si6 0.634257 0.642566 0.671705
Si Si7 0.670622 0.764684 0.672719
Si Si8 0.484430 0.167758 0.820890
O O1 0.349178 0.949677 0.262602
O O2 0.219517 0.877263 0.225949
O O3 0.183122 0.981744 0.243895
O O4 0.272844 0.939971 0.000000
O O5 0.407262 0.685878 0.235006
O O6 0.269358 0.747555 0.259790
O O7 0.432121 0.792808 0.231047
O O8 0.350523 0.744123 0.000000
O O9 0.450527 0.932014 0.500000
O O10 0.501885 0.892888 0.243251
O O11 0.500000 0.000000 0.280641
O O12 0.116464 0.079910 0.189491
O O13 0.093177 0.995558 0.000000
O O14 0.000000 0.000000 0.249689
O O15 0.542404 0.614534 0.267984
O O16 0.484260 0.639337 0.000000
O O17 0.653138 0.624667 0.500000
O O18 0.617873 0.707344 0.685928
O O19 0.680136 0.784263 0.500000
O O20 0.612869 0.809831 0.763018
O O21 0.479931 0.164871 0.000000
#
# Coordination Sequence:
#
# PCOD8225685 Si02
#       8
#     8   8   8   8   8   8   8   8
#     4  11  22  38  64  93 122 163 216 263 305 365
#     4  10  22  38  60  92 125 160 205 260 315 369
#     4  11  26  47  67  90 125 164 205 257 317 375
#     4   9  17  32  57  87 119 156 196 244 304 359
#     4  10  19  36  59  85 120 159 200 255 312 364
#     4  11  22  36  57  88 123 164 207 252 312 373
#     4  11  24  39  60  89 126 168 207 253 313 380
#     4  11  23  42  69  97 124 160 212 265 313 370
#
# _framework density 20.261772000000001
#
# number of rings (size 3 to 8) (size 9 to 14) (size 15 to 20)
#    0.000    1.500    2.500    2.625    0.000    7.000 
#    0.000    3.125    0.000    0.000    0.000    0.000 
#    0.000    0.000    0.000    0.000    0.000    0.000 
#
# Total GULP energy -793649.084516 kJ/mol
# GULP energy per Si atom -12400.766946 kJ/mol
# Density = 2.021566 g / cm^3
# Si number density = 20.261772 Si / 1000 Ang^3
#
#
#
# Elastic Constant Matrix: (Units=GPa)
#
#
# Indices 1 2 3 4 5 6 
#
# 1 96.2710 42.7602 37.3410 0.0000 0.0000 0.0000
# 2 42.7602 123.5385 44.5046 0.0000 0.0000 0.0000
# 3 37.3410 44.5046 61.3139 0.0000 0.0000 0.0000
# 4 0.0000 0.0000 0.0000 25.1456 0.0000 0.0000
# 5 0.0000 0.0000 0.0000 0.0000 -152.1719 0.0000
# 6 0.0000 0.0000 0.0000 0.0000 0.0000 34.4337
#
#
#
# Elastic Compliance Matrix: (Units=1/GPa)
#
#
# Indices 1 2 3 4 5 6 
#
# 1 0.014116 -0.002422 -0.006838 0.000000 0.000000 0.000000
# 2 -0.002422 0.011376 -0.006782 0.000000 0.000000 0.000000
# 3 -0.006838 -0.006782 0.025397 0.000000 0.000000 0.000000
# 4 0.000000 0.000000 0.000000 0.039768 0.000000 0.000000
# 5 0.000000 0.000000 0.000000 0.000000 -0.006572 0.000000
# 6 0.000000 0.000000 0.000000 0.000000 0.000000 0.029041
#
#
# Mechanical properties :
#
#
# Convention : Reuss Voigt Hill
#
# Bulk Modulus (GPa) = 53.18263 58.92610 56.05437
# Shear Modulus (GPa) = 33.00737 -8.08403 12.46167
#
# Velocity S-wave (km/s) = 4.04052 -1.99961 2.48268
# Velocity P-wave (km/s) = 6.93344 4.87999 5.99528
#
# Compressibility (1/GPa) = 0.01880313
#
# Stress axis : x y z
#
# Youngs Moduli (GPa) = 70.84309 87.90139 39.37452
#
# Poissons Ratio (x) = 0.21292 0.26926
# Poissons Ratio (y) = 0.17160 0.26705
# Poissons Ratio (z) = 0.48446 0.59617
#
# Static dielectric constant tensor:
#      x y z
#    x 3.636850 0.000000 0.000000 
#    y 0.000000 3.853040 0.000000 
#    z 0.000000 0.000000 3.566140 
# 
# 
# High freq. dielectric constant tensor:
#      x y z
#    x 1.789770 0.000000 0.000000 
#    y 0.000000 1.802320 0.000000 
#    z 0.000000 0.000000 1.779920 
# 
# From -- ./inp_files/6621.got.cif
#   From: 2010.03.12/outbox.cif.g09.slc.cpg/sg55_4_cif.got.tgz:6621.got - 2010.04.16 15:19:21.
