data_PCOD8225122
_publ_section_title
;
Structure prediction by ZEFSAII (Michael W. Deem and Ramdas Pophale) SiO2 
 PCOD8225122
Probable space group: P B A M
;
_chemical_formula_sum "Si O2"
_cell_formula_units_Z 64
_cell_length_a 15.563408
_cell_length_b 22.782565
_cell_length_c 9.450394
_cell_angle_alpha 90.000000
_cell_angle_beta 90.000000
_cell_angle_gamma 90.000000
_cell_volume 3350.867351
_symmetry_space_group_name_H-M "P B A M"
_symmetry_group_IT_number 55
_symmetry_cell_setting 'orthorhombic'
loop_
_space_group_symop_operation_xyz
x,y,z
-x,-y,z
1/2+x,1/2-y,-z
1/2-x,1/2+y,-z
-x,-y,-z
x,y,-z
1/2-x,1/2+y,z
1/2+x,1/2-y,z
loop_
_atom_site_type_symbol
_atom_site_label
_atom_site_fract_x
_atom_site_fract_y
_atom_site_fract_z
Si Si1 0.073694 0.262079 0.158237
Si Si2 0.456689 0.343920 0.159487
Si Si3 0.254518 0.070375 0.167651
Si Si4 0.432884 0.546589 0.165700
Si Si5 0.902854 0.518672 0.165299
Si Si6 0.375204 0.864602 0.661358
Si Si7 0.810228 0.191744 0.660900
Si Si8 0.746884 0.796972 0.164260
O O1 0.063928 0.315974 0.266425
O O2 0.154567 0.220453 0.189038
O O3 0.989975 0.222360 0.174617
O O4 0.080401 0.288499 0.000000
O O5 0.532505 0.388562 0.198680
O O6 0.378355 0.352243 0.267327
O O7 0.424023 0.356482 0.000000
O O8 0.164611 0.042945 0.228343
O O9 0.267465 0.137006 0.222177
O O10 0.336593 0.032074 0.214619
O O11 0.246138 0.073485 0.000000
O O12 0.500000 0.500000 0.235194
O O13 0.427494 0.533486 0.000000
O O14 0.881110 0.575133 0.255900
O O15 0.000000 0.500000 0.198356
O O16 0.890521 0.532988 0.000000
O O17 0.404769 0.873692 0.500000
O O18 0.279050 0.841539 0.671993
O O19 0.836329 0.204463 0.500000
O O20 0.811692 0.253224 0.744614
O O21 0.720207 0.791109 0.000000
#
# Coordination Sequence:
#
# PCOD8225122 Si02
#       8
#     8   8   8   8   8   8   8   8
#     4   9  17  32  55  80 107 136 177 233 281 326
#     4  10  19  32  54  85 113 139 180 227 277 333
#     4   9  17  32  55  81 113 147 179 229 282 324
#     4   9  17  29  50  84 115 140 180 228 273 328
#     4  10  22  38  57  84 113 143 184 233 285 337
#     4  10  22  39  57  77 108 151 192 227 273 329
#     4  10  22  36  51  78 115 149 183 222 270 333
#     4   9  16  32  55  78 103 137 185 231 276 322
#
# _framework density 19.099532
#
# number of rings (size 3 to 8) (size 9 to 14) (size 15 to 20)
#    0.000    2.500    1.250    0.750    1.750    3.250 
#    0.000    3.125    0.000    1.125    0.000    0.000 
#    0.000    0.000    0.000    0.000    0.000    0.000 
#
# Total GULP energy -793446.574923 kJ/mol
# GULP energy per Si atom -12397.602733 kJ/mol
# Density = 1.905606 g / cm^3
# Si number density = 19.099532 Si / 1000 Ang^3
#
#
#
# Elastic Constant Matrix: (Units=GPa)
#
#
# Indices 1 2 3 4 5 6 
#
# 1 92.0026 39.0337 33.1393 0.0000 0.0000 0.0000
# 2 39.0337 124.3404 52.8887 0.0000 0.0000 0.0000
# 3 33.1393 52.8887 77.7452 0.0000 0.0000 0.0000
# 4 0.0000 0.0000 0.0000 11.0349 0.0000 0.0000
# 5 0.0000 0.0000 0.0000 0.0000 18.5088 0.0000
# 6 0.0000 0.0000 0.0000 0.0000 0.0000 19.5916
#
#
#
# Elastic Compliance Matrix: (Units=1/GPa)
#
#
# Indices 1 2 3 4 5 6 
#
# 1 0.013369 -0.002495 -0.004001 0.000000 0.000000 0.000000
# 2 -0.002495 0.011783 -0.006952 0.000000 0.000000 0.000000
# 3 -0.004001 -0.006952 0.019298 0.000000 0.000000 0.000000
# 4 0.000000 0.000000 0.000000 0.090622 0.000000 0.000000
# 5 0.000000 0.000000 0.000000 0.000000 0.054028 0.000000
# 6 0.000000 0.000000 0.000000 0.000000 0.000000 0.051042
#
#
# Mechanical properties :
#
#
# Convention : Reuss Voigt Hill
#
# Bulk Modulus (GPa) = 56.97185 60.46793 58.71989
# Shear Modulus (GPa) = 18.32242 21.09549 19.70895
#
# Velocity S-wave (km/s) = 3.10064 3.32701 3.21582
# Velocity P-wave (km/s) = 6.53546 6.81812 6.67829
#
# Compressibility (1/GPa) = 0.01755253
#
# Stress axis : x y z
#
# Youngs Moduli (GPa) = 74.79963 84.86967 51.81996
#
# Poissons Ratio (x) = 0.21174 0.20735
# Poissons Ratio (y) = 0.18662 0.36026
# Poissons Ratio (z) = 0.29930 0.59003
#
# Static dielectric constant tensor:
#      x y z
#    x 3.628370 0.000000 0.000000 
#    y 0.000000 3.520750 0.000000 
#    z 0.000000 0.000000 3.271690 
# 
# 
# High freq. dielectric constant tensor:
#      x y z
#    x 1.744200 0.000000 0.000000 
#    y 0.000000 1.745170 0.000000 
#    z 0.000000 0.000000 1.703920 
# 
# From -- ./inp_files/6640.got.cif
#   From: 2010.03.12/outbox.cif.g09.slc.cpg/sg55_4_cif.got.tgz:6640.got - 2010.04.16 15:19:21.
