data_PCOD8225802
_publ_section_title
;
Structure prediction by ZEFSAII (Michael W. Deem and Ramdas Pophale) SiO2 
 PCOD8225802
Probable space group: P B A M
;
_chemical_formula_sum "Si O2"
_cell_formula_units_Z 64
_cell_length_a 9.775598
_cell_length_b 25.116614
_cell_length_c 14.211586
_cell_angle_alpha 90.000000
_cell_angle_beta 90.000000
_cell_angle_gamma 90.000000
_cell_volume 3489.369596
_symmetry_space_group_name_H-M "P B A M"
_symmetry_group_IT_number 55
_symmetry_cell_setting 'orthorhombic'
loop_
_space_group_symop_operation_xyz
x,y,z
-x,-y,z
1/2+x,1/2-y,-z
1/2-x,1/2+y,-z
-x,-y,-z
x,y,-z
1/2-x,1/2+y,z
1/2+x,1/2-y,z
loop_
_atom_site_type_symbol
_atom_site_label
_atom_site_fract_x
_atom_site_fract_y
_atom_site_fract_z
Si Si1 0.490428 0.437434 0.280614
Si Si2 0.707428 0.633237 0.390647
Si Si3 0.405119 0.374274 0.895704
Si Si4 0.520773 0.282273 0.610002
Si Si5 0.774077 0.859122 0.709854
Si Si6 0.835539 0.809044 0.895590
Si Si7 0.130942 0.312780 0.106223
Si Si8 0.482199 0.832641 0.700669
O O1 0.500000 0.500000 0.288429
O O2 0.379811 0.417313 0.356270
O O3 0.442320 0.420756 0.176723
O O4 0.640888 0.413491 0.303025
O O5 0.738561 0.626345 0.500000
O O6 0.620216 0.686459 0.369330
O O7 0.850340 0.635723 0.335846
O O8 0.503797 0.323251 0.883652
O O9 0.253642 0.353699 0.877485
O O10 0.419034 0.399008 0.000000
O O11 0.551183 0.278017 0.500000
O O12 0.649014 0.311638 0.656410
O O13 0.507378 0.224471 0.652935
O O14 0.754380 0.843388 0.819243
O O15 0.619030 0.865522 0.671700
O O16 0.813794 0.746715 0.878270
O O17 0.783288 0.824855 0.000000
O O18 0.019985 0.326248 0.185826
O O19 0.069480 0.318433 0.000000
#
# Coordination Sequence:
#
# PCOD8225802 Si02
#       8
#     8   8   8   8   8   8   8   8
#     4  10  21  41  63  80 101 137 186 240 291 330
#     4  10  22  39  58  81 109 144 184 225 274 329
#     4   9  18  34  54  80 109 143 190 225 255 317
#     4  10  21  36  54  78 113 152 183 211 253 319
#     4  10  22  34  54  83 112 143 185 227 266 320
#     4   9  18  30  48  76 112 150 183 213 249 306
#     4  10  20  30  48  77 114 153 177 205 259 323
#     4  12  21  32  54  82 116 148 174 214 265 324
#
# _framework density 18.341422000000001
#
# number of rings (size 3 to 8) (size 9 to 14) (size 15 to 20)
#    0.000    2.000    2.500    1.125    1.750    3.000 
#    0.000    0.625    0.000    0.750    0.000    1.750 
#    0.000    0.000    0.000    0.000    0.000    0.000 
#
# Total GULP energy -793479.223013 kJ/mol
# GULP energy per Si atom -12398.112860 kJ/mol
# Density = 1.829968 g / cm^3
# Si number density = 18.341422 Si / 1000 Ang^3
#
#
#
# Elastic Constant Matrix: (Units=GPa)
#
#
# Indices 1 2 3 4 5 6 
#
# 1 100.1130 44.3035 33.8204 0.0000 0.0000 0.0000
# 2 44.3035 109.2067 32.9314 0.0000 0.0000 0.0000
# 3 33.8204 32.9314 88.1432 0.0000 0.0000 0.0000
# 4 0.0000 0.0000 0.0000 15.6345 0.0000 0.0000
# 5 0.0000 0.0000 0.0000 0.0000 17.5229 0.0000
# 6 0.0000 0.0000 0.0000 0.0000 0.0000 8.7334
#
#
#
# Elastic Compliance Matrix: (Units=1/GPa)
#
#
# Indices 1 2 3 4 5 6 
#
# 1 0.013023 -0.004256 -0.003407 0.000000 0.000000 0.000000
# 2 -0.004256 0.011710 -0.002742 0.000000 0.000000 0.000000
# 3 -0.003407 -0.002742 0.013677 0.000000 0.000000 0.000000
# 4 0.000000 0.000000 0.000000 0.063961 0.000000 0.000000
# 5 0.000000 0.000000 0.000000 0.000000 0.057068 0.000000
# 6 0.000000 0.000000 0.000000 0.000000 0.000000 0.114503
#
#
# Mechanical properties :
#
#
# Convention : Reuss Voigt Hill
#
# Bulk Modulus (GPa) = 56.81670 57.73039 57.27355
# Shear Modulus (GPa) = 16.63236 20.80534 18.71885
#
# Velocity S-wave (km/s) = 3.01461 3.37164 3.19811
# Velocity P-wave (km/s) = 6.56976 6.83382 6.70309
#
# Compressibility (1/GPa) = 0.01760046
#
# Stress axis : x y z
#
# Youngs Moduli (GPa) = 76.78721 85.39418 73.11609
#
# Poissons Ratio (x) = 0.36343 0.24910
# Poissons Ratio (y) = 0.32680 0.20050
# Poissons Ratio (z) = 0.26160 0.23417
#
# Static dielectric constant tensor:
#      x y z
#    x 3.403130 0.000000 0.000000 
#    y 0.000000 2.900300 0.000000 
#    z 0.000000 0.000000 3.797700 
# 
# 
# High freq. dielectric constant tensor:
#      x y z
#    x 1.711600 0.000000 0.000000 
#    y 0.000000 1.659370 0.000000 
#    z 0.000000 0.000000 1.732320 
# 
# From -- ./inp_files/17804.got.cif
#   From: 2010.03.12/outbox.cif.g09.slc.cpg/sg55_9_cif.got.tgz:17804.got - 2010.04.16 15:19:21.
