data_PCOD8225077
_publ_section_title
;
Structure prediction by ZEFSAII (Michael W. Deem and Ramdas Pophale) SiO2 
 PCOD8225077
Probable space group: P B A M
;
_chemical_formula_sum "Si O2"
_cell_formula_units_Z 48
_cell_length_a 18.329362
_cell_length_b 8.901524
_cell_length_c 16.184195
_cell_angle_alpha 90.000000
_cell_angle_beta 90.000000
_cell_angle_gamma 90.000000
_cell_volume 2640.601211
_symmetry_space_group_name_H-M "P B A M"
_symmetry_group_IT_number 55
_symmetry_cell_setting 'orthorhombic'
loop_
_space_group_symop_operation_xyz
x,y,z
-x,-y,z
1/2+x,1/2-y,-z
1/2-x,1/2+y,-z
-x,-y,-z
x,y,-z
1/2-x,1/2+y,z
1/2+x,1/2-y,z
loop_
_atom_site_type_symbol
_atom_site_label
_atom_site_fract_x
_atom_site_fract_y
_atom_site_fract_z
Si Si1 0.076666 0.071578 0.725918
Si Si2 0.671564 0.570105 0.596371
Si Si3 0.422180 0.923835 0.247099
Si Si4 0.792150 0.918303 0.833925
Si Si5 0.328460 0.884477 0.093217
Si Si6 0.201938 0.611494 0.674760
O O1 0.072463 0.251327 0.725935
O O2 0.135168 0.010651 0.793167
O O3 0.102272 0.015332 0.635998
O O4 0.000000 0.000000 0.750538
O O5 0.656645 0.580189 0.500000
O O6 0.745616 0.479248 0.613255
O O7 0.676351 0.736238 0.633044
O O8 0.392448 0.940519 0.153591
O O9 0.500000 0.000000 0.252294
O O10 0.368077 0.007288 0.309650
O O11 0.816248 0.792450 0.898606
O O12 0.743561 0.847528 0.759887
O O13 0.749102 0.042992 0.884304
O O14 0.351394 0.925092 0.000000
#
# Coordination Sequence:
#
# PCOD8225077 Si02
#       6
#     8   8   8   8   8   8
#     4  10  20  36  56  76 103 139 179 217 257 310
#     4  11  21  34  56  82 108 134 168 218 265 306
#     4  10  21  36  55  76 103 141 180 214 254 312
#     4   9  18  33  53  76 101 136 174 208 252 310
#     4  10  19  32  53  79 106 132 167 217 263 304
#     4  10  19  35  55  78 105 139 178 210 253 312
#
# _framework density 18.177679000000001
#
# number of rings (size 3 to 8) (size 9 to 14) (size 15 to 20)
#    0.000    2.000    0.000    7.000    0.000    2.000 
#    0.000    0.833    0.000   18.000    0.000    0.000 
#    0.000    0.000    0.000    0.000    0.000    0.000 
#
# Total GULP energy -595279.018667 kJ/mol
# GULP energy per Si atom -12401.646222 kJ/mol
# Density = 1.813631 g / cm^3
# Si number density = 18.177679 Si / 1000 Ang^3
#
#
#
# Elastic Constant Matrix: (Units=GPa)
#
#
# Indices 1 2 3 4 5 6 
#
# 1 108.8038 38.1248 22.9788 0.0000 0.0000 0.0000
# 2 38.1248 94.6907 38.3855 0.0000 0.0000 0.0000
# 3 22.9788 38.3855 103.6241 0.0000 0.0000 0.0000
# 4 0.0000 0.0000 0.0000 17.9379 0.0000 0.0000
# 5 0.0000 0.0000 0.0000 0.0000 16.2384 0.0000
# 6 0.0000 0.0000 0.0000 0.0000 0.0000 34.3767
#
#
#
# Elastic Compliance Matrix: (Units=1/GPa)
#
#
# Indices 1 2 3 4 5 6 
#
# 1 0.010775 -0.003965 -0.000921 0.000000 0.000000 0.000000
# 2 -0.003965 0.013886 -0.004264 0.000000 0.000000 0.000000
# 3 -0.000921 -0.004264 0.011434 0.000000 0.000000 0.000000
# 4 0.000000 0.000000 0.000000 0.055748 0.000000 0.000000
# 5 0.000000 0.000000 0.000000 0.000000 0.061582 0.000000
# 6 0.000000 0.000000 0.000000 0.000000 0.000000 0.029089
#
#
# Mechanical properties :
#
#
# Convention : Reuss Voigt Hill
#
# Bulk Modulus (GPa) = 56.19707 56.23299 56.21503
# Shear Modulus (GPa) = 24.18430 27.55257 25.86844
#
# Velocity S-wave (km/s) = 3.65148 3.89747 3.77648
# Velocity P-wave (km/s) = 6.98285 7.15933 7.07164
#
# Compressibility (1/GPa) = 0.01779452
#
# Stress axis : x y z
#
# Youngs Moduli (GPa) = 92.81107 72.01593 87.45773
#
# Poissons Ratio (x) = 0.28554 0.08051
# Poissons Ratio (y) = 0.36799 0.37296
# Poissons Ratio (z) = 0.08544 0.30711
#
# Static dielectric constant tensor:
#      x y z
#    x 3.415200 0.000000 0.000000 
#    y 0.000000 3.402780 0.000000 
#    z 0.000000 0.000000 3.270280 
# 
# 
# High freq. dielectric constant tensor:
#      x y z
#    x 1.702770 0.000000 0.000000 
#    y 0.000000 1.713820 0.000000 
#    z 0.000000 0.000000 1.691880 
# 
# From -- ./inp_files/17377.got.cif
#   From: 2010.03.12/outbox.cif.g09.slc.cpg/sg55_9_cif.got.tgz:17377.got - 2010.04.16 15:19:21.
