data_PCOD8226253
_publ_section_title
;
Structure prediction by ZEFSAII (Michael W. Deem and Ramdas Pophale) SiO2 
 PCOD8226253
Probable space group: P B A M
;
_chemical_formula_sum "Si O2"
_cell_formula_units_Z 64
_cell_length_a 14.703532
_cell_length_b 24.512880
_cell_length_c 8.797794
_cell_angle_alpha 90.000000
_cell_angle_beta 90.000000
_cell_angle_gamma 90.000000
_cell_volume 3170.952957
_symmetry_space_group_name_H-M "P B A M"
_symmetry_group_IT_number 55
_symmetry_cell_setting 'orthorhombic'
loop_
_space_group_symop_operation_xyz
x,y,z
-x,-y,z
1/2+x,1/2-y,-z
1/2-x,1/2+y,-z
-x,-y,-z
x,y,-z
1/2-x,1/2+y,z
1/2+x,1/2-y,z
loop_
_atom_site_type_symbol
_atom_site_label
_atom_site_fract_x
_atom_site_fract_y
_atom_site_fract_z
Si Si1 0.131800 0.843188 0.668590
Si Si2 0.566888 0.367517 0.671359
Si Si3 0.000490 0.671616 0.680428
Si Si4 0.661121 0.764834 0.176783
Si Si5 0.760216 0.053412 0.323413
Si Si6 0.446116 0.947896 0.319762
Si Si7 0.903810 0.976428 0.178106
Si Si8 0.868964 0.759761 0.179272
O O1 0.141967 0.816913 0.500000
O O2 0.124269 0.795762 0.792362
O O3 0.215775 0.883079 0.703020
O O4 0.040813 0.879661 0.675083
O O5 0.601771 0.356921 0.500000
O O6 0.618345 0.419492 0.739334
O O7 0.581894 0.314931 0.774183
O O8 0.996349 0.675342 0.500000
O O9 0.987373 0.609469 0.739226
O O10 0.918541 0.708538 0.743820
O O11 0.099658 0.691204 0.735495
O O12 0.764876 0.765682 0.235074
O O13 0.653310 0.778267 0.000000
O O14 0.773914 0.037296 0.500000
O O15 0.657680 0.045758 0.267010
O O16 0.822628 0.016774 0.217328
O O17 0.451972 0.948155 0.500000
O O18 0.500000 0.000000 0.251565
O O19 0.906772 0.965512 0.000000
O O20 0.000000 0.000000 0.236024
O O21 0.874723 0.751147 0.000000
#
# Coordination Sequence:
#
# PCOD8226253 Si02
#       8
#     8   8   8   8   8   8   8   8
#     4  10  20  35  58  88 118 153 202 254 302 356
#     4  11  22  37  60  87 118 157 199 250 302 354
#     4  11  22  39  65  92 122 160 204 255 305 364
#     4  11  24  39  60  89 124 163 200 248 307 368
#     4  10  20  37  62  88 118 156 203 254 298 355
#     4   9  20  39  63  91 119 151 197 252 303 349
#     4  11  23  37  56  85 123 161 196 242 299 364
#     4  11  24  41  60  88 126 163 202 248 304 369
#
# _framework density 20.183205999999998
#
# number of rings (size 3 to 8) (size 9 to 14) (size 15 to 20)
#    0.000    1.500    2.500    2.625    0.000    5.500 
#    0.000    2.500    0.000    2.625    0.000    0.000 
#    0.000    0.000    0.000    0.000    0.000    0.000 
#
# Total GULP energy -793733.992625 kJ/mol
# GULP energy per Si atom -12402.093635 kJ/mol
# Density = 2.013727 g / cm^3
# Si number density = 20.183206 Si / 1000 Ang^3
#
#
#
# Elastic Constant Matrix: (Units=GPa)
#
#
# Indices 1 2 3 4 5 6 
#
# 1 135.9367 65.1144 35.5029 0.0000 0.0000 0.0000
# 2 65.1144 140.8000 34.0022 0.0000 0.0000 0.0000
# 3 35.5029 34.0022 60.1723 0.0000 0.0000 0.0000
# 4 0.0000 0.0000 0.0000 17.8367 0.0000 0.0000
# 5 0.0000 0.0000 0.0000 0.0000 25.8046 0.0000
# 6 0.0000 0.0000 0.0000 0.0000 0.0000 33.3963
#
#
#
# Elastic Compliance Matrix: (Units=1/GPa)
#
#
# Indices 1 2 3 4 5 6 
#
# 1 0.010173 -0.003770 -0.003872 0.000000 0.000000 0.000000
# 2 -0.003770 0.009621 -0.003213 0.000000 0.000000 0.000000
# 3 -0.003872 -0.003213 0.020719 0.000000 0.000000 0.000000
# 4 0.000000 0.000000 0.000000 0.056064 0.000000 0.000000
# 5 0.000000 0.000000 0.000000 0.000000 0.038753 0.000000
# 6 0.000000 0.000000 0.000000 0.000000 0.000000 0.029943
#
#
# Mechanical properties :
#
#
# Convention : Reuss Voigt Hill
#
# Bulk Modulus (GPa) = 53.17866 67.34979 60.26423
# Shear Modulus (GPa) = 25.87295 28.89348 27.38322
#
# Velocity S-wave (km/s) = 3.58425 3.78770 3.68738
# Velocity P-wave (km/s) = 6.59806 7.25056 6.93199
#
# Compressibility (1/GPa) = 0.01880454
#
# Stress axis : x y z
#
# Youngs Moduli (GPa) = 98.29556 103.93461 48.26454
#
# Poissons Ratio (x) = 0.39180 0.18690
# Poissons Ratio (y) = 0.37054 0.15506
# Poissons Ratio (z) = 0.38064 0.33391
#
# Static dielectric constant tensor:
#      x y z
#    x 3.840330 0.000000 0.000000 
#    y 0.000000 3.687520 0.000000 
#    z 0.000000 0.000000 3.488880 
# 
# 
# High freq. dielectric constant tensor:
#      x y z
#    x 1.792850 0.000000 0.000000 
#    y 0.000000 1.790350 0.000000 
#    z 0.000000 0.000000 1.776460 
# 
# From -- ./inp_files/6672.got.cif
#   From: 2010.03.12/outbox.cif.g09.slc.cpg/sg55_4_cif.got.tgz:6672.got - 2010.04.16 15:19:21.
