data_PCOD8226237
_publ_section_title
;
Structure prediction by ZEFSAII (Michael W. Deem and Ramdas Pophale) SiO2 
 PCOD8226237
Probable space group: P B A M
;
_chemical_formula_sum "Si O2"
_cell_formula_units_Z 64
_cell_length_a 10.677063
_cell_length_b 32.085779
_cell_length_c 9.435661
_cell_angle_alpha 90.000000
_cell_angle_beta 90.000000
_cell_angle_gamma 90.000000
_cell_volume 3232.486520
_symmetry_space_group_name_H-M "P B A M"
_symmetry_group_IT_number 55
_symmetry_cell_setting 'orthorhombic'
loop_
_space_group_symop_operation_xyz
x,y,z
-x,-y,z
1/2+x,1/2-y,-z
1/2-x,1/2+y,-z
-x,-y,-z
x,y,-z
1/2-x,1/2+y,z
1/2+x,1/2-y,z
loop_
_atom_site_type_symbol
_atom_site_label
_atom_site_fract_x
_atom_site_fract_y
_atom_site_fract_z
Si Si1 0.476015 0.215088 0.665347
Si Si2 0.469588 0.308571 0.341062
Si Si3 0.394507 0.465771 0.663687
Si Si4 0.742342 0.339244 0.655179
Si Si5 0.842684 0.405000 0.165150
Si Si6 0.359127 0.383469 0.834374
Si Si7 0.358595 0.014424 0.339015
Si Si8 0.086303 0.354021 0.162517
O O1 0.511230 0.215306 0.500000
O O2 0.455812 0.262008 0.720841
O O3 0.346223 0.193406 0.703404
O O4 0.584498 0.188810 0.746195
O O5 0.410392 0.313046 0.500000
O O6 0.616249 0.314299 0.350951
O O7 0.412472 0.341365 0.232803
O O8 0.500000 0.500000 0.709010
O O9 0.417120 0.453646 0.500000
O O10 0.414353 0.424342 0.757332
O O11 0.250563 0.480387 0.686140
O O12 0.775797 0.357827 0.500000
O O13 0.733279 0.376798 0.767288
O O14 0.827829 0.450317 0.227711
O O15 0.975683 0.385221 0.208800
O O16 0.820722 0.407823 0.000000
O O17 0.210422 0.380868 0.811656
O O18 0.394995 0.385624 0.000000
O O19 0.350753 0.031028 0.500000
O O20 0.500000 0.000000 0.306258
O O21 0.071954 0.340383 0.000000
#
# Coordination Sequence:
#
# PCOD8226237 Si02
#       8
#     8   8   8   8   8   8   8   8
#     4   9  19  35  59  87 111 146 193 239 284 333
#     4  10  22  37  58  84 114 150 191 239 286 337
#     4  10  23  42  62  85 116 154 193 239 296 350
#     4   9  19  36  55  80 114 147 185 233 283 335
#     4  10  20  35  58  85 114 149 188 230 282 337
#     4  11  24  40  59  85 117 154 195 234 282 345
#     4  10  21  37  60  88 115 146 190 240 289 343
#     4   9  20  38  57  83 121 157 188 231 284 340
#
# _framework density 19.798999999999999
#
# number of rings (size 3 to 8) (size 9 to 14) (size 15 to 20)
#    0.000    2.250    0.000    1.500    3.500    3.500 
#    0.000    0.000    0.000    0.000    0.000    0.000 
#    0.000    0.000    0.000    0.000    0.000    0.000 
#
# Total GULP energy -793447.362043 kJ/mol
# GULP energy per Si atom -12397.615032 kJ/mol
# Density = 1.975394 g / cm^3
# Si number density = 19.799000 Si / 1000 Ang^3
#
#
#
# Elastic Constant Matrix: (Units=GPa)
#
#
# Indices 1 2 3 4 5 6 
#
# 1 43.1036 3.7850 10.7111 0.0000 0.0000 0.0000
# 2 3.7850 114.5700 64.4965 0.0000 0.0000 0.0000
# 3 10.7111 64.4965 89.8883 0.0000 0.0000 0.0000
# 4 0.0000 0.0000 0.0000 81.3987 0.0000 0.0000
# 5 0.0000 0.0000 0.0000 0.0000 24.6115 0.0000
# 6 0.0000 0.0000 0.0000 0.0000 0.0000 23.3397
#
#
#
# Elastic Compliance Matrix: (Units=1/GPa)
#
#
# Indices 1 2 3 4 5 6 
#
# 1 0.024036 0.001373 -0.003849 0.000000 0.000000 0.000000
# 2 0.001373 0.014721 -0.010726 0.000000 0.000000 0.000000
# 3 -0.003849 -0.010726 0.019280 0.000000 0.000000 0.000000
# 4 0.000000 0.000000 0.000000 0.012285 0.000000 0.000000
# 5 0.000000 0.000000 0.000000 0.000000 0.040631 0.000000
# 6 0.000000 0.000000 0.000000 0.000000 0.000000 0.042845
#
#
# Mechanical properties :
#
#
# Convention : Reuss Voigt Hill
#
# Bulk Modulus (GPa) = 31.61386 45.06078 38.33732
# Shear Modulus (GPa) = 26.21253 37.10794 31.66024
#
# Velocity S-wave (km/s) = 3.64254 4.33394 4.00319
# Velocity P-wave (km/s) = 5.80455 6.91755 6.38535
#
# Compressibility (1/GPa) = 0.03163170
#
# Stress axis : x y z
#
# Youngs Moduli (GPa) = 41.60446 67.92891 51.86741
#
# Poissons Ratio (x) = -0.09325 0.19964
# Poissons Ratio (y) = -0.05711 0.55635
# Poissons Ratio (z) = 0.16014 0.72863
#
# Static dielectric constant tensor:
#      x y z
#    x 3.716380 0.000000 0.000000 
#    y 0.000000 3.578920 0.000000 
#    z 0.000000 0.000000 3.660660 
# 
# 
# High freq. dielectric constant tensor:
#      x y z
#    x 1.772940 0.000000 0.000000 
#    y 0.000000 1.773100 0.000000 
#    z 0.000000 0.000000 1.768220 
# 
# From -- ./inp_files/4517.got.cif
#   From: 2010.03.12/outbox.cif.g09.slc.cpg/sg55_3_cif.got.tgz:4517.got - 2010.04.16 15:19:21.
