data_PCOD8226361
_publ_section_title
;
Structure prediction by ZEFSAII (Michael W. Deem and Ramdas Pophale) SiO2 
 PCOD8226361
Probable space group: P B A M
;
_chemical_formula_sum "Si O2"
_cell_formula_units_Z 56
_cell_length_a 16.540087
_cell_length_b 19.530096
_cell_length_c 9.041701
_cell_angle_alpha 90.000000
_cell_angle_beta 90.000000
_cell_angle_gamma 90.000000
_cell_volume 2920.736035
_symmetry_space_group_name_H-M "P B A M"
_symmetry_group_IT_number 55
_symmetry_cell_setting 'orthorhombic'
loop_
_space_group_symop_operation_xyz
x,y,z
-x,-y,z
1/2+x,1/2-y,-z
1/2-x,1/2+y,-z
-x,-y,-z
x,y,-z
1/2-x,1/2+y,z
1/2+x,1/2-y,z
loop_
_atom_site_type_symbol
_atom_site_label
_atom_site_fract_x
_atom_site_fract_y
_atom_site_fract_z
Si Si1 0.360997 0.641460 0.828251
Si Si2 0.934801 0.443361 0.171710
Si Si3 0.980539 0.165637 0.672101
Si Si4 0.247059 0.517938 0.827814
Si Si5 0.826709 0.704539 0.174458
Si Si6 0.988723 0.679839 0.325752
Si Si7 0.805405 0.116806 0.674571
O O1 0.445832 0.625964 0.749346
O O2 0.294137 0.586490 0.781211
O O3 0.327199 0.715653 0.782571
O O4 0.379504 0.638444 0.000000
O O5 0.846893 0.472777 0.208162
O O6 0.947121 0.375300 0.267885
O O7 0.000000 0.500000 0.218924
O O8 0.943169 0.423688 0.000000
O O9 0.996027 0.158665 0.500000
O O10 0.977847 0.245432 0.718583
O O11 0.898011 0.129392 0.720496
O O12 0.280833 0.458101 0.726467
O O13 0.260321 0.499919 0.000000
O O14 0.745771 0.674206 0.242380
O O15 0.903360 0.666136 0.245611
O O16 0.828494 0.691420 0.000000
O O17 0.976558 0.671817 0.500000
O O18 0.792278 0.124345 0.500000
#
# Coordination Sequence:
#
# PCOD8226361 Si02
#       7
#     8   8   8   8   8   8   8
#     4   9  20  38  59  84 112 148 194 240 287 340
#     4  10  21  36  56  82 116 153 188 232 288 343
#     4   9  21  39  57  82 115 149 187 236 288 338
#     4  10  22  39  57  83 118 152 192 241 290 341
#     4  10  20  36  59  85 114 149 189 235 288 339
#     4  10  20  36  58  84 113 147 189 234 282 340
#     4  11  23  38  57  84 116 151 192 234 286 346
#
# _framework density 19.173249999999999
#
# number of rings (size 3 to 8) (size 9 to 14) (size 15 to 20)
#    0.000    2.143    0.000    2.143    2.000    5.429 
#    0.000    2.857    0.000    0.000    0.000    0.000 
#    0.000    0.000    0.000    0.000    0.000    0.000 
#
# Total GULP energy -694676.148274 kJ/mol
# GULP energy per Si atom -12404.931219 kJ/mol
# Density = 1.912961 g / cm^3
# Si number density = 19.173250 Si / 1000 Ang^3
#
#
#
# Elastic Constant Matrix: (Units=GPa)
#
#
# Indices 1 2 3 4 5 6 
#
# 1 118.0615 72.7984 48.7467 0.0000 0.0000 0.0000
# 2 72.7984 95.8295 41.7638 0.0000 0.0000 0.0000
# 3 48.7467 41.7638 67.3529 0.0000 0.0000 0.0000
# 4 0.0000 0.0000 0.0000 31.2852 0.0000 0.0000
# 5 0.0000 0.0000 0.0000 0.0000 33.0936 0.0000
# 6 0.0000 0.0000 0.0000 0.0000 0.0000 35.7813
#
#
#
# Elastic Compliance Matrix: (Units=1/GPa)
#
#
# Indices 1 2 3 4 5 6 
#
# 1 0.017585 -0.010705 -0.006089 0.000000 0.000000 0.000000
# 2 -0.010705 0.020816 -0.005160 0.000000 0.000000 0.000000
# 3 -0.006089 -0.005160 0.022454 0.000000 0.000000 0.000000
# 4 0.000000 0.000000 0.000000 0.031964 0.000000 0.000000
# 5 0.000000 0.000000 0.000000 0.000000 0.030217 0.000000
# 6 0.000000 0.000000 0.000000 0.000000 0.000000 0.027948
#
#
# Mechanical properties :
#
#
# Convention : Reuss Voigt Hill
#
# Bulk Modulus (GPa) = 59.00835 67.54019 63.27427
# Shear Modulus (GPa) = 24.93244 27.89435 26.41340
#
# Velocity S-wave (km/s) = 3.60999 3.81840 3.71565
# Velocity P-wave (km/s) = 6.94400 7.39885 7.17503
#
# Compressibility (1/GPa) = 0.01694675
#
# Stress axis : x y z
#
# Youngs Moduli (GPa) = 56.86539 48.03944 44.53586
#
# Poissons Ratio (x) = 0.51427 0.27120
# Poissons Ratio (y) = 0.60875 0.22979
# Poissons Ratio (z) = 0.34628 0.24787
#
# Static dielectric constant tensor:
#      x y z
#    x 3.611170 0.000000 0.000000 
#    y 0.000000 3.563540 0.000000 
#    z 0.000000 0.000000 3.469310 
# 
# 
# High freq. dielectric constant tensor:
#      x y z
#    x 1.753260 0.000000 0.000000 
#    y 0.000000 1.748200 0.000000 
#    z 0.000000 0.000000 1.745610 
# 
# From -- ./inp_files/5974.got.cif
#   From: 2010.03.12/outbox.cif.g09.slc.cpg/sg55_3_cif.got.tgz:5974.got - 2010.04.16 15:19:21.
