data_PCOD8226903
_publ_section_title
;
Structure prediction by ZEFSAII (Michael W. Deem and Ramdas Pophale) SiO2 
 PCOD8226903
Probable space group: P B A M
;
_chemical_formula_sum "Si O2"
_cell_formula_units_Z 56
_cell_length_a 12.780210
_cell_length_b 8.432275
_cell_length_c 21.212745
_cell_angle_alpha 90.000000
_cell_angle_beta 90.000000
_cell_angle_gamma 90.000000
_cell_volume 2286.017881
_symmetry_space_group_name_H-M "P B A M"
_symmetry_group_IT_number 55
_symmetry_cell_setting 'orthorhombic'
loop_
_space_group_symop_operation_xyz
x,y,z
-x,-y,z
1/2+x,1/2-y,-z
1/2-x,1/2+y,-z
-x,-y,-z
x,y,-z
1/2-x,1/2+y,z
1/2+x,1/2-y,z
loop_
_atom_site_type_symbol
_atom_site_label
_atom_site_fract_x
_atom_site_fract_y
_atom_site_fract_z
Si Si1 0.565321 0.745823 0.227701
Si Si2 0.819075 0.486560 0.862576
Si Si3 0.606789 0.348117 0.000000
Si Si4 0.597669 0.209606 0.332421
Si Si5 0.451535 0.327807 0.569489
Si Si6 0.805979 0.512883 0.000000
Si Si7 0.192069 0.941757 0.325460
Si Si8 0.600368 0.338155 0.136165
O O1 0.617210 0.884353 0.187319
O O2 0.487981 0.821971 0.279178
O O3 0.652931 0.638656 0.261010
O O4 0.495863 0.631809 0.183013
O O5 0.846213 0.668631 0.849613
O O6 0.693524 0.465952 0.854620
O O7 0.853771 0.439780 0.934847
O O8 0.544921 0.346977 0.933707
O O9 0.684551 0.200314 0.000000
O O10 0.681192 0.500168 0.000000
O O11 0.537622 0.210467 0.399565
O O12 0.681868 0.067404 0.329438
O O13 0.657262 0.376625 0.322927
O O14 0.500000 0.500000 0.563054
O O15 0.419982 0.262961 0.500000
O O16 0.350757 0.344237 0.614295
#
# Coordination Sequence:
#
# PCOD8226903 Si02
#       8
#     8   8   4   8   8   4   8   8
#     4  11  22  34  53  79 109 145 189 229 270 328
#     4  10  21  36  56  80 107 142 184 232 287 342
#     4   8  16  33  53  75 104 136 175 227 285 343
#     4  10  22  39  59  84 115 152 189 229 277 327
#     4   8  16  35  62  89 117 150 187 224 269 328
#     4   8  16  33  53  75 104 136 175 227 285 343
#     4  10  22  39  59  84 115 152 189 229 277 327
#     4  10  21  36  56  80 107 142 184 232 287 342
#
# _framework density 24.496746999999999
#
# number of rings (size 3 to 8) (size 9 to 14) (size 15 to 20)
#    0.000    2.429    0.000    2.571    0.000    8.000 
#    0.000    4.286    0.000    0.857    0.000   14.000 
#    0.000    0.000    0.000    0.000    0.000    0.000 
#
# Total GULP energy -694016.797811 kJ/mol
# GULP energy per Si atom -12393.157104 kJ/mol
# Density = 2.444099 g / cm^3
# Si number density = 24.496747 Si / 1000 Ang^3
#
#
#
# Elastic Constant Matrix: (Units=GPa)
#
#
# Indices 1 2 3 4 5 6 
#
# 1 85.5180 5.3702 29.3329 0.0000 0.0000 0.0000
# 2 5.3702 50.4721 6.7425 0.0000 0.0000 0.0000
# 3 29.3329 6.7425 158.8017 0.0000 0.0000 0.0000
# 4 0.0000 0.0000 0.0000 -0.0183 0.0000 0.0000
# 5 0.0000 0.0000 0.0000 0.0000 35.3545 0.0000
# 6 0.0000 0.0000 0.0000 0.0000 0.0000 24.1016
#
#
#
# Elastic Compliance Matrix: (Units=1/GPa)
#
#
# Indices 1 2 3 4 5 6 
#
# 1 0.012537 -0.001030 -0.002272 0.000000 0.000000 0.000000
# 2 -0.001030 0.020011 -0.000659 0.000000 0.000000 0.000000
# 3 -0.002272 -0.000659 0.006745 0.000000 0.000000 0.000000
# 4 0.000000 0.000000 0.000000-54.534447 0.000000 0.000000
# 5 0.000000 0.000000 0.000000 0.000000 0.028285 0.000000
# 6 0.000000 0.000000 0.000000 0.000000 0.000000 0.041491
#
#
# Mechanical properties :
#
#
# Convention : Reuss Voigt Hill
#
# Bulk Modulus (GPa) = 31.87830 41.96478 36.92154
# Shear Modulus (GPa) = -0.09190 28.77730 14.34270
#
# Velocity S-wave (km/s) = -0.19390 3.43117 2.42232
# Velocity P-wave (km/s) = 3.60436 5.73281 4.78835
#
# Compressibility (1/GPa) = 0.03136930
#
# Stress axis : x y z
#
# Youngs Moduli (GPa) = 79.76079 49.97341 148.26143
#
# Poissons Ratio (x) = 0.05150 0.33686
# Poissons Ratio (y) = 0.08219 0.09775
# Poissons Ratio (z) = 0.18122 0.03295
#
# Static dielectric constant tensor:
#      x y z
#    x 4.307950 0.000000 0.000000 
#    y 0.000000 4.149970 0.000000 
#    z 0.000000 0.000000 5.188930 
# 
# 
# High freq. dielectric constant tensor:
#      x y z
#    x 1.959840 0.000000 0.000000 
#    y 0.000000 1.962580 0.000000 
#    z 0.000000 0.000000 1.988050 
# 
# From -- ./inp_files/23005.got.cif
#   From: 2010.03.12/outbox.cif.g09.slc.cpg/sg55_12_cif.got.tgz:23005.got - 2010.04.16 15:19:21.
