data_PCOD8226516
_publ_section_title
;
Structure prediction by ZEFSAII (Michael W. Deem and Ramdas Pophale) SiO2 
 PCOD8226516
Probable space group: P B A M
;
_chemical_formula_sum "Si O2"
_cell_formula_units_Z 56
_cell_length_a 21.832445
_cell_length_b 14.463518
_cell_length_c 9.124969
_cell_angle_alpha 90.000000
_cell_angle_beta 90.000000
_cell_angle_gamma 90.000000
_cell_volume 2881.427607
_symmetry_space_group_name_H-M "P B A M"
_symmetry_group_IT_number 55
_symmetry_cell_setting 'orthorhombic'
loop_
_space_group_symop_operation_xyz
x,y,z
-x,-y,z
1/2+x,1/2-y,-z
1/2-x,1/2+y,-z
-x,-y,-z
x,y,-z
1/2-x,1/2+y,z
1/2+x,1/2-y,z
loop_
_atom_site_type_symbol
_atom_site_label
_atom_site_fract_x
_atom_site_fract_y
_atom_site_fract_z
Si Si1 0.079023 0.589829 0.830994
Si Si2 0.304801 0.588766 0.672123
Si Si3 0.524693 0.600757 0.827986
Si Si4 0.685895 0.811021 0.669881
Si Si5 0.651909 0.608709 0.669294
Si Si6 0.419618 0.705048 0.673799
Si Si7 0.061291 0.383151 0.169808
O O1 0.123352 0.654238 0.739329
O O2 0.092610 0.481997 0.799187
O O3 0.009898 0.613033 0.786016
O O4 0.089869 0.612544 0.000000
O O5 0.302742 0.605682 0.500000
O O6 0.244442 0.636824 0.741706
O O7 0.306631 0.480053 0.712251
O O8 0.365853 0.638220 0.732824
O O9 0.500000 0.500000 0.787561
O O10 0.593355 0.611566 0.772606
O O11 0.483308 0.675703 0.746663
O O12 0.522701 0.620857 0.000000
O O13 0.681790 0.835173 0.500000
O O14 0.692245 0.700666 0.695204
O O15 0.630421 0.600635 0.500000
O O16 0.426162 0.701868 0.500000
O O17 0.404656 0.808717 0.727849
O O18 0.068570 0.355859 0.000000
#
# Coordination Sequence:
#
# PCOD8226516 Si02
#       7
#     8   8   8   8   8   8   8
#     4   9  19  37  57  78 108 147 181 220 278 331
#     4   9  20  37  54  77 111 147 181 224 276 327
#     4  11  22  35  55  83 114 147 182 230 284 333
#     4  10  21  36  57  82 107 144 191 231 272 325
#     4  10  20  37  59  81 111 149 186 229 280 335
#     4  11  21  34  56  84 112 146 185 226 278 332
#     4   9  19  36  57  80 111 145 178 222 278 332
#
# _framework density 19.434812000000001
#
# number of rings (size 3 to 8) (size 9 to 14) (size 15 to 20)
#    0.000    2.143    1.429    2.571    0.000    5.714 
#    0.000    6.429    0.000    0.000    0.000    0.000 
#    0.000    0.000    0.000    0.000    0.000    0.000 
#
# Total GULP energy -694467.825397 kJ/mol
# GULP energy per Si atom -12401.211168 kJ/mol
# Density = 1.939058 g / cm^3
# Si number density = 19.434812 Si / 1000 Ang^3
#
#
#
# Elastic Constant Matrix: (Units=GPa)
#
#
# Indices 1 2 3 4 5 6 
#
# 1 74.9003 41.5319 22.2123 0.0000 0.0000 0.0000
# 2 41.5319 134.8155 37.6468 0.0000 0.0000 0.0000
# 3 22.2123 37.6468 51.2133 0.0000 0.0000 0.0000
# 4 0.0000 0.0000 0.0000 29.5237 0.0000 0.0000
# 5 0.0000 0.0000 0.0000 0.0000 12.4874 0.0000
# 6 0.0000 0.0000 0.0000 0.0000 0.0000 31.1454
#
#
#
# Elastic Compliance Matrix: (Units=1/GPa)
#
#
# Indices 1 2 3 4 5 6 
#
# 1 0.016853 -0.003964 -0.004395 0.000000 0.000000 0.000000
# 2 -0.003964 0.010266 -0.005827 0.000000 0.000000 0.000000
# 3 -0.004395 -0.005827 0.025716 0.000000 0.000000 0.000000
# 4 0.000000 0.000000 0.000000 0.033871 0.000000 0.000000
# 5 0.000000 0.000000 0.000000 0.000000 0.080081 0.000000
# 6 0.000000 0.000000 0.000000 0.000000 0.000000 0.032108
#
#
# Mechanical properties :
#
#
# Convention : Reuss Voigt Hill
#
# Bulk Modulus (GPa) = 40.88072 51.52344 46.20208
# Shear Modulus (GPa) = 21.23850 25.26715 23.25282
#
# Velocity S-wave (km/s) = 3.30935 3.60960 3.46273
# Velocity P-wave (km/s) = 5.97351 6.62878 6.30966
#
# Compressibility (1/GPa) = 0.02446141
#
# Stress axis : x y z
#
# Youngs Moduli (GPa) = 59.33749 97.40855 38.88636
#
# Poissons Ratio (x) = 0.38617 0.17091
# Poissons Ratio (y) = 0.23524 0.22659
# Poissons Ratio (z) = 0.26080 0.56761
#
# Static dielectric constant tensor:
#      x y z
#    x 3.473150 0.000000 0.000000 
#    y 0.000000 3.852710 0.000000 
#    z 0.000000 0.000000 3.303120 
# 
# 
# High freq. dielectric constant tensor:
#      x y z
#    x 1.741850 0.000000 0.000000 
#    y 0.000000 1.777330 0.000000 
#    z 0.000000 0.000000 1.736240 
# 
# From -- ./inp_files/6103.got.cif
#   From: 2010.03.12/outbox.cif.g09.slc.cpg/sg55_4_cif.got.tgz:6103.got - 2010.04.16 15:19:21.
