data_PCOD8226087
_publ_section_title
;
Structure prediction by ZEFSAII (Michael W. Deem and Ramdas Pophale) SiO2 
 PCOD8226087
Probable space group: P B A M
;
_chemical_formula_sum "Si O2"
_cell_formula_units_Z 48
_cell_length_a 4.987354
_cell_length_b 28.590427
_cell_length_c 13.543769
_cell_angle_alpha 90.000000
_cell_angle_beta 90.000000
_cell_angle_gamma 90.000000
_cell_volume 1931.213883
_symmetry_space_group_name_H-M "P B A M"
_symmetry_group_IT_number 55
_symmetry_cell_setting 'orthorhombic'
loop_
_space_group_symop_operation_xyz
x,y,z
-x,-y,z
1/2+x,1/2-y,-z
1/2-x,1/2+y,-z
-x,-y,-z
x,y,-z
1/2-x,1/2+y,z
1/2+x,1/2-y,z
loop_
_atom_site_type_symbol
_atom_site_label
_atom_site_fract_x
_atom_site_fract_y
_atom_site_fract_z
Si Si1 0.206266 0.541414 0.206061
Si Si2 0.063446 0.220030 0.115649
Si Si3 0.808065 0.626614 0.000000
Si Si4 0.553689 0.850895 0.808330
Si Si5 0.685498 0.436147 0.000000
Si Si6 0.968725 0.928781 0.392795
Si Si7 0.465966 0.866433 0.606092
O O1 0.411011 0.537813 0.298776
O O2 0.000000 0.500000 0.222228
O O3 0.077460 0.593000 0.201971
O O4 0.356699 0.533555 0.100046
O O5 0.771581 0.238553 0.146054
O O6 0.157581 0.173208 0.173334
O O7 0.077542 0.207744 0.000000
O O8 0.854783 0.659090 0.097921
O O9 0.506163 0.608735 0.000000
O O10 0.009996 0.582988 0.000000
O O11 0.428493 0.833251 0.703078
O O12 0.929817 0.954446 0.500000
O O13 0.771843 0.884164 0.390176
O O14 0.272792 0.911244 0.384667
O O15 0.414515 0.840594 0.500000
#
# Coordination Sequence:
#
# PCOD8226087 Si02
#       7
#     8   8   4   8   4   8   8
#     4  10  21  37  57  84 118 158 199 240 287 348
#     4  10  22  39  60  88 116 145 187 239 292 345
#     4  10  20  34  57  81 104 146 186 225 281 336
#     4  10  20  38  59  86 117 152 191 237 291 346
#     4  10  21  36  50  75 112 148 188 227 270 334
#     4   9  18  34  53  78 110 148 195 242 282 326
#     4   9  18  33  56  82 111 148 189 233 285 340
#
# _framework density 24.854834
#
# number of rings (size 3 to 8) (size 9 to 14) (size 15 to 20)
#    0.000    2.333    0.833    1.250    0.000    5.667 
#    0.000   16.667    0.000   10.000    0.000    0.000 
#    0.000    0.000    0.000    0.000    0.000    0.000 
#
# Total GULP energy -594640.338968 kJ/mol
# GULP energy per Si atom -12388.340395 kJ/mol
# Density = 2.479826 g / cm^3
# Si number density = 24.854834 Si / 1000 Ang^3
#
#
#
# Elastic Constant Matrix: (Units=GPa)
#
#
# Indices 1 2 3 4 5 6 
#
# 1 37.2127 -4.4984 -4.2042 0.0000 0.0000 0.0000
# 2 -4.4984 60.5331 1.1714 0.0000 0.0000 0.0000
# 3 -4.2042 1.1714 248.5807 0.0000 0.0000 0.0000
# 4 0.0000 0.0000 0.0000 35.5349 0.0000 0.0000
# 5 0.0000 0.0000 0.0000 0.0000 47.2877 0.0000
# 6 0.0000 0.0000 0.0000 0.0000 0.0000 16.5599
#
#
#
# Elastic Compliance Matrix: (Units=1/GPa)
#
#
# Indices 1 2 3 4 5 6 
#
# 1 0.027166 0.002010 0.000450 0.000000 0.000000 0.000000
# 2 0.002010 0.016670 -0.000045 0.000000 0.000000 0.000000
# 3 0.000450 -0.000045 0.004031 0.000000 0.000000 0.000000
# 4 0.000000 0.000000 0.000000 0.028141 0.000000 0.000000
# 5 0.000000 0.000000 0.000000 0.000000 0.021147 0.000000
# 6 0.000000 0.000000 0.000000 0.000000 0.000000 0.060387
#
#
# Mechanical properties :
#
#
# Convention : Reuss Voigt Hill
#
# Bulk Modulus (GPa) = 18.97596 36.80711 27.89153
# Shear Modulus (GPa) = 29.36385 43.46702 36.41543
#
# Velocity S-wave (km/s) = 3.44090 4.18645 3.83185
# Velocity P-wave (km/s) = 4.84125 6.18138 5.55190
#
# Compressibility (1/GPa) = 0.05269826
#
# Stress axis : x y z
#
# Youngs Moduli (GPa) = 36.81023 59.98750 248.09837
#
# Poissons Ratio (x) = -0.12058 -0.11164
# Poissons Ratio (y) = -0.07399 0.01106
# Poissons Ratio (z) = -0.01656 0.00267
#
# Static dielectric constant tensor:
#      x y z
#    x 4.377130 0.000000 0.000000 
#    y 0.000000 3.914880 0.000000 
#    z 0.000000 0.000000 6.196910 
# 
# 
# High freq. dielectric constant tensor:
#      x y z
#    x 1.991930 0.000000 0.000000 
#    y 0.000000 1.943780 0.000000 
#    z 0.000000 0.000000 2.014600 
# 
# From -- ./inp_files/16741.got.cif
#   From: 2010.03.12/outbox.cif.g09.slc.cpg/sg55_9_cif.got.tgz:16741.got - 2010.04.16 15:19:21.
