data_PCOD8226367
_publ_section_title
;
Structure prediction by ZEFSAII (Michael W. Deem and Ramdas Pophale) SiO2 
 PCOD8226367
Probable space group: P B A M
;
_chemical_formula_sum "Si O2"
_cell_formula_units_Z 40
_cell_length_a 19.696451
_cell_length_b 8.551665
_cell_length_c 11.575732
_cell_angle_alpha 90.000000
_cell_angle_beta 90.000000
_cell_angle_gamma 90.000000
_cell_volume 1949.786787
_symmetry_space_group_name_H-M "P B A M"
_symmetry_group_IT_number 55
_symmetry_cell_setting 'orthorhombic'
loop_
_space_group_symop_operation_xyz
x,y,z
-x,-y,z
1/2+x,1/2-y,-z
1/2-x,1/2+y,-z
-x,-y,-z
x,y,-z
1/2-x,1/2+y,z
1/2+x,1/2-y,z
loop_
_atom_site_type_symbol
_atom_site_label
_atom_site_fract_x
_atom_site_fract_y
_atom_site_fract_z
Si Si1 0.349974 0.199334 0.000000
Si Si2 0.683450 0.139691 0.750407
Si Si3 0.947979 0.127503 0.633128
Si Si4 0.934179 0.412442 0.789827
Si Si5 0.274002 0.886435 0.000000
Si Si6 0.194168 0.033583 0.633410
O O1 0.397172 0.186557 0.888809
O O2 0.289991 0.070561 0.000000
O O3 0.307940 0.361852 0.000000
O O4 0.677016 0.291037 0.671219
O O5 0.615714 0.038927 0.732770
O O6 0.692440 0.188422 0.884885
O O7 0.746592 0.033894 0.712247
O O8 0.965743 0.153403 0.500000
O O9 0.959647 0.292876 0.693376
O O10 0.871086 0.073713 0.651845
O O11 0.000000 0.000000 0.686014
O O12 0.000000 0.500000 0.841492
O O13 0.217184 0.035698 0.500000
#
# Coordination Sequence:
#
# PCOD8226367 Si02
#       6
#     4   8   8   8   4   8
#     4  10  21  38  61  87 118 151 190 238 291 348
#     4  11  22  37  60  87 117 155 194 243 297 349
#     4  10  22  40  60  83 115 155 196 241 292 350
#     4  11  23  39  59  84 117 155 196 242 293 347
#     4  10  20  36  58  85 113 147 189 232 282 344
#     4  11  22  37  58  86 118 150 193 245 298 355
#
# _framework density 20.515063999999999
#
# number of rings (size 3 to 8) (size 9 to 14) (size 15 to 20)
#    0.000    1.400    0.000    6.900    0.000    3.600 
#    0.000    0.500    0.000    0.000    0.000    0.000 
#    0.000    0.000    0.000    0.000    0.000    0.000 
#
# Total GULP energy -496181.368239 kJ/mol
# GULP energy per Si atom -12404.534206 kJ/mol
# Density = 2.046837 g / cm^3
# Si number density = 20.515064 Si / 1000 Ang^3
#
#
#
# Elastic Constant Matrix: (Units=GPa)
#
#
# Indices 1 2 3 4 5 6 
#
# 1 108.3465 30.9991 42.3322 0.0000 0.0000 0.0000
# 2 30.9991 79.2345 41.9518 0.0000 0.0000 0.0000
# 3 42.3322 41.9518 88.1368 0.0000 0.0000 0.0000
# 4 0.0000 0.0000 0.0000 22.2454 0.0000 0.0000
# 5 0.0000 0.0000 0.0000 0.0000 25.0050 0.0000
# 6 0.0000 0.0000 0.0000 0.0000 0.0000 48.8145
#
#
#
# Elastic Compliance Matrix: (Units=1/GPa)
#
#
# Indices 1 2 3 4 5 6 
#
# 1 0.011624 -0.002128 -0.004570 0.000000 0.000000 0.000000
# 2 -0.002128 0.017263 -0.007195 0.000000 0.000000 0.000000
# 3 -0.004570 -0.007195 0.016966 0.000000 0.000000 0.000000
# 4 0.000000 0.000000 0.000000 0.044953 0.000000 0.000000
# 5 0.000000 0.000000 0.000000 0.000000 0.039992 0.000000
# 6 0.000000 0.000000 0.000000 0.000000 0.000000 0.020486
#
#
# Mechanical properties :
#
#
# Convention : Reuss Voigt Hill
#
# Bulk Modulus (GPa) = 55.35056 56.25378 55.80217
# Shear Modulus (GPa) = 27.01371 29.90862 28.46116
#
# Velocity S-wave (km/s) = 3.63268 3.82237 3.72873
# Velocity P-wave (km/s) = 6.68088 6.85280 6.76739
#
# Compressibility (1/GPa) = 0.01806666
#
# Stress axis : x y z
#
# Youngs Moduli (GPa) = 86.02810 57.92856 58.94262
#
# Poissons Ratio (x) = 0.12327 0.26938
# Poissons Ratio (y) = 0.18307 0.42407
# Poissons Ratio (z) = 0.39316 0.41678
#
# Static dielectric constant tensor:
#      x y z
#    x 3.769830 0.000000 0.000000 
#    y 0.000000 3.642370 0.000000 
#    z 0.000000 0.000000 3.752420 
# 
# 
# High freq. dielectric constant tensor:
#      x y z
#    x 1.808370 0.000000 0.000000 
#    y 0.000000 1.801280 0.000000 
#    z 0.000000 0.000000 1.806840 
# 
# From -- ./inp_files/12081.got.cif
#   From: 2010.03.12/outbox.cif.g09.slc.cpg/sg55_7_cif.got.tgz:12081.got - 2010.04.16 15:19:21.
