data_PCOD8226256
_publ_section_title
;
Structure prediction by ZEFSAII (Michael W. Deem and Ramdas Pophale) SiO2 
 PCOD8226256
Probable space group: P B A M
;
_chemical_formula_sum "Si O2"
_cell_formula_units_Z 40
_cell_length_a 20.369070
_cell_length_b 5.041481
_cell_length_c 17.931428
_cell_angle_alpha 90.000000
_cell_angle_beta 90.000000
_cell_angle_gamma 90.000000
_cell_volume 1841.383351
_symmetry_space_group_name_H-M "P B A M"
_symmetry_group_IT_number 55
_symmetry_cell_setting 'orthorhombic'
loop_
_space_group_symop_operation_xyz
x,y,z
-x,-y,z
1/2+x,1/2-y,-z
1/2-x,1/2+y,-z
-x,-y,-z
x,y,-z
1/2-x,1/2+y,z
1/2+x,1/2-y,z
loop_
_atom_site_type_symbol
_atom_site_label
_atom_site_fract_x
_atom_site_fract_y
_atom_site_fract_z
Si Si1 0.209077 0.004411 0.375609
Si Si2 0.434221 0.336574 0.415316
Si Si3 0.855339 0.012440 0.769530
Si Si4 0.071485 0.490692 0.275587
Si Si5 0.707398 0.358867 0.917454
O O1 0.245492 0.265614 0.404847
O O2 0.208425 0.991804 0.284340
O O3 0.134522 0.997422 0.406894
O O4 0.500000 0.500000 0.392203
O O5 0.441604 0.236880 0.500000
O O6 0.429490 0.078833 0.362398
O O7 0.905558 0.811645 0.729519
O O8 0.845076 0.919732 0.853946
O O9 0.883185 0.310137 0.771818
O O10 0.000000 0.500000 0.239257
O O11 0.768419 0.558527 0.907565
O O12 0.675860 0.397306 0.000000
#
# Coordination Sequence:
#
# PCOD8226256 Si02
#       5
#     8   8   8   8   8
#     4  11  22  38  60  88 120 154 196 248 305 360
#     4  10  23  43  65  89 121 162 208 257 310 371
#     4  11  21  37  61  87 121 158 196 245 300 364
#     4  11  22  39  61  87 115 153 206 253 296 353
#     4  10  20  35  58  89 122 155 194 241 296 361
#
# _framework density 21.722797
#
# number of rings (size 3 to 8) (size 9 to 14) (size 15 to 20)
#    0.000    1.400    0.000    7.800    0.000    1.200 
#    0.000   10.000    0.000    3.600    0.000    0.000 
#    0.000    0.000    0.000    0.000    0.000    0.000 
#
# Total GULP energy -495843.463999 kJ/mol
# GULP energy per Si atom -12396.086600 kJ/mol
# Density = 2.167335 g / cm^3
# Si number density = 21.722797 Si / 1000 Ang^3
#
#
#
# Elastic Constant Matrix: (Units=GPa)
#
#
# Indices 1 2 3 4 5 6 
#
# 1 112.4419 19.8122 19.0262 0.0000 0.0000 0.0000
# 2 19.8122 66.6697 -13.7447 0.0000 0.0000 0.0000
# 3 19.0262 -13.7447 112.7548 0.0000 0.0000 0.0000
# 4 0.0000 0.0000 0.0000 19.3285 0.0000 0.0000
# 5 0.0000 0.0000 0.0000 0.0000 19.1248 0.0000
# 6 0.0000 0.0000 0.0000 0.0000 0.0000 34.6344
#
#
#
# Elastic Compliance Matrix: (Units=1/GPa)
#
#
# Indices 1 2 3 4 5 6 
#
# 1 0.009833 -0.003348 -0.002067 0.000000 0.000000 0.000000
# 2 -0.003348 0.016526 0.002580 0.000000 0.000000 0.000000
# 3 -0.002067 0.002580 0.009532 0.000000 0.000000 0.000000
# 4 0.000000 0.000000 0.000000 0.051737 0.000000 0.000000
# 5 0.000000 0.000000 0.000000 0.000000 0.052288 0.000000
# 6 0.000000 0.000000 0.000000 0.000000 0.000000 0.028873
#
#
# Mechanical properties :
#
#
# Convention : Reuss Voigt Hill
#
# Bulk Modulus (GPa) = 33.09179 38.00597 35.54888
# Shear Modulus (GPa) = 27.09509 32.40239 29.74874
#
# Velocity S-wave (km/s) = 3.53556 3.86635 3.70465
# Velocity P-wave (km/s) = 5.65099 6.12090 5.89063
#
# Compressibility (1/GPa) = 0.03021898
#
# Stress axis : x y z
#
# Youngs Moduli (GPa) = 101.69535 60.51018 104.90872
#
# Poissons Ratio (x) = 0.20261 0.21689
# Poissons Ratio (y) = 0.34051 -0.27061
# Poissons Ratio (z) = 0.21025 -0.15609
#
# Static dielectric constant tensor:
#      x y z
#    x 3.953010 0.000000 0.000000 
#    y 0.000000 3.969760 0.000000 
#    z 0.000000 0.000000 3.922130 
# 
# 
# High freq. dielectric constant tensor:
#      x y z
#    x 1.842240 0.000000 0.000000 
#    y 0.000000 1.867750 0.000000 
#    z 0.000000 0.000000 1.838940 
# 
# From -- ./inp_files/20338.got.cif
#   From: 2010.03.12/outbox.cif.g09.slc.cpg/sg55_11_cif.got.tgz:20338.got - 2010.04.16 15:19:21.
