data_PCOD8226267
_publ_section_title
;
Structure prediction by ZEFSAII (Michael W. Deem and Ramdas Pophale) SiO2 
 PCOD8226267
Probable space group: P B A M
;
_chemical_formula_sum "Si O2"
_cell_formula_units_Z 48
_cell_length_a 21.890185
_cell_length_b 12.426270
_cell_length_c 8.842811
_cell_angle_alpha 90.000000
_cell_angle_beta 90.000000
_cell_angle_gamma 90.000000
_cell_volume 2405.362636
_symmetry_space_group_name_H-M "P B A M"
_symmetry_group_IT_number 55
_symmetry_cell_setting 'orthorhombic'
loop_
_space_group_symop_operation_xyz
x,y,z
-x,-y,z
1/2+x,1/2-y,-z
1/2-x,1/2+y,-z
-x,-y,-z
x,y,-z
1/2-x,1/2+y,z
1/2+x,1/2-y,z
loop_
_atom_site_type_symbol
_atom_site_label
_atom_site_fract_x
_atom_site_fract_y
_atom_site_fract_z
Si Si1 0.603893 0.253804 0.678974
Si Si2 0.985942 0.375762 0.331474
Si Si3 0.828192 0.141352 0.821110
Si Si4 0.637986 0.869857 0.822802
Si Si5 0.806161 0.590038 0.820269
Si Si6 0.569565 0.477595 0.820440
O O1 0.611262 0.258631 0.500000
O O2 0.544464 0.187439 0.729370
O O3 0.662675 0.194577 0.747916
O O4 0.597612 0.372223 0.745077
O O5 0.967344 0.336422 0.500000
O O6 0.932846 0.354136 0.213045
O O7 0.000000 0.500000 0.335254
O O8 0.828630 0.263648 0.757059
O O9 0.764790 0.086868 0.771300
O O10 0.886846 0.074395 0.762305
O O11 0.833080 0.146519 0.000000
O O12 0.664879 0.979971 0.751812
O O13 0.647579 0.877820 0.000000
O O14 0.813969 0.598169 0.000000
O O15 0.500000 0.500000 0.766107
O O16 0.571912 0.463239 0.000000
#
# Coordination Sequence:
#
# PCOD8226267 Si02
#       6
#     8   8   8   8   8   8
#     4  11  23  38  58  84 118 156 195 238 288 346
#     4  10  20  36  55  78 113 152 184 227 288 338
#     4   9  20  37  59  87 118 150 188 236 292 346
#     4  10  20  35  59  88 113 143 190 238 279 337
#     4  10  21  36  58  86 115 152 192 236 287 341
#     4  10  21  39  64  91 119 152 193 243 296 350
#
# _framework density 19.955411999999999
#
# number of rings (size 3 to 8) (size 9 to 14) (size 15 to 20)
#    0.000    2.000    1.667    1.500    2.333    3.333 
#    0.000    2.500    0.000    0.000    0.000    0.000 
#    0.000    0.000    0.000    0.000    0.000    0.000 
#
# Total GULP energy -595155.749388 kJ/mol
# GULP energy per Si atom -12399.078112 kJ/mol
# Density = 1.990999 g / cm^3
# Si number density = 19.955412 Si / 1000 Ang^3
#
#
#
# Elastic Constant Matrix: (Units=GPa)
#
#
# Indices 1 2 3 4 5 6 
#
# 1 140.0712 66.1837 23.1736 0.0000 0.0000 0.0000
# 2 66.1837 141.6532 27.3244 0.0000 0.0000 0.0000
# 3 23.1736 27.3244 28.0094 0.0000 0.0000 0.0000
# 4 0.0000 0.0000 0.0000 17.1956 0.0000 0.0000
# 5 0.0000 0.0000 0.0000 0.0000 8.2958 0.0000
# 6 0.0000 0.0000 0.0000 0.0000 0.0000 29.1029
#
#
#
# Elastic Compliance Matrix: (Units=1/GPa)
#
#
# Indices 1 2 3 4 5 6 
#
# 1 0.009580 -0.003630 -0.004385 0.000000 0.000000 0.000000
# 2 -0.003630 0.010071 -0.006822 0.000000 0.000000 0.000000
# 3 -0.004385 -0.006822 0.045985 0.000000 0.000000 0.000000
# 4 0.000000 0.000000 0.000000 0.058154 0.000000 0.000000
# 5 0.000000 0.000000 0.000000 0.000000 0.120543 0.000000
# 6 0.000000 0.000000 0.000000 0.000000 0.000000 0.034361
#
#
# Mechanical properties :
#
#
# Convention : Reuss Voigt Hill
#
# Bulk Modulus (GPa) = 27.80616 60.34414 44.07515
# Shear Modulus (GPa) = 15.60768 23.78899 19.69833
#
# Velocity S-wave (km/s) = 2.79969 3.45644 3.14525
# Velocity P-wave (km/s) = 4.94119 6.79959 5.94348
#
# Compressibility (1/GPa) = 0.03596325
#
# Stress axis : x y z
#
# Youngs Moduli (GPa) = 104.38550 99.29021 21.74633
#
# Poissons Ratio (x) = 0.36044 0.09535
# Poissons Ratio (y) = 0.37894 0.14835
# Poissons Ratio (z) = 0.45768 0.67733
#
# Static dielectric constant tensor:
#      x y z
#    x 2.773490 0.000000 0.000000 
#    y 0.000000 3.923190 0.000000 
#    z 0.000000 0.000000 3.369400 
# 
# 
# High freq. dielectric constant tensor:
#      x y z
#    x 1.784970 0.000000 0.000000 
#    y 0.000000 1.794460 0.000000 
#    z 0.000000 0.000000 1.745110 
# 
# From -- ./inp_files/9422.got.cif
#   From: 2010.03.12/outbox.cif.g09.slc.cpg/sg55_5_cif.got.tgz:9422.got - 2010.04.16 15:19:21.
