data_PCOD8226178
_publ_section_title
;
Structure prediction by ZEFSAII (Michael W. Deem and Ramdas Pophale) SiO2 
 PCOD8226178
Probable space group: P B A M
;
_chemical_formula_sum "Si O2"
_cell_formula_units_Z 56
_cell_length_a 21.513328
_cell_length_b 14.565272
_cell_length_c 9.076063
_cell_angle_alpha 90.000000
_cell_angle_beta 90.000000
_cell_angle_gamma 90.000000
_cell_volume 2843.961414
_symmetry_space_group_name_H-M "P B A M"
_symmetry_group_IT_number 55
_symmetry_cell_setting 'orthorhombic'
loop_
_space_group_symop_operation_xyz
x,y,z
-x,-y,z
1/2+x,1/2-y,-z
1/2-x,1/2+y,-z
-x,-y,-z
x,y,-z
1/2-x,1/2+y,z
1/2+x,1/2-y,z
loop_
_atom_site_type_symbol
_atom_site_label
_atom_site_fract_x
_atom_site_fract_y
_atom_site_fract_z
Si Si1 0.377274 0.296968 0.829973
Si Si2 0.041691 0.625535 0.165343
Si Si3 0.638397 0.338852 0.674724
Si Si4 0.719420 0.822318 0.672497
Si Si5 0.072058 0.993263 0.825883
Si Si6 0.864738 0.490020 0.672271
Si Si7 0.600655 0.160874 0.168056
O O1 0.434254 0.227892 0.799960
O O2 0.315230 0.263682 0.746975
O O3 0.400344 0.395730 0.773808
O O4 0.359417 0.301980 0.000000
O O5 0.069587 0.554351 0.281941
O O6 0.968255 0.620946 0.178214
O O7 0.062630 0.596474 0.000000
O O8 0.630986 0.340664 0.500000
O O9 0.709660 0.325811 0.723893
O O10 0.611915 0.432037 0.740287
O O11 0.600418 0.254694 0.741715
O O12 0.712625 0.807133 0.500000
O O13 0.689265 0.919441 0.719582
O O14 0.079113 0.008817 0.000000
O O15 0.000000 0.000000 0.779434
O O16 0.864571 0.511423 0.500000
O O17 0.853678 0.585828 0.757796
O O18 0.621144 0.178759 0.000000
#
# Coordination Sequence:
#
# PCOD8226178 Si02
#       7
#     8   8   8   8   8   8   8
#     4   9  18  34  59  85 108 142 186 226 268 329
#     4   9  18  34  55  81 113 145 177 216 266 324
#     4  11  24  40  57  79 109 146 189 234 278 329
#     4   9  21  40  57  77 110 148 183 227 282 330
#     4  10  21  39  61  86 117 150 185 231 288 341
#     4  10  20  35  56  82 112 145 181 221 267 323
#     4  11  22  36  55  80 111 145 179 221 275 326
#
# _framework density 19.690843000000001
#
# number of rings (size 3 to 8) (size 9 to 14) (size 15 to 20)
#    0.000    2.143    0.000    2.571    0.000    8.857 
#    0.000    7.143    0.000    0.000    0.000    0.000 
#    0.000    0.000    0.000    0.000    0.000    0.000 
#
# Total GULP energy -694535.558553 kJ/mol
# GULP energy per Si atom -12402.420688 kJ/mol
# Density = 1.964603 g / cm^3
# Si number density = 19.690843 Si / 1000 Ang^3
#
#
#
# Elastic Constant Matrix: (Units=GPa)
#
#
# Indices 1 2 3 4 5 6 
#
# 1 77.8205 23.3521 34.6144 0.0000 0.0000 0.0000
# 2 23.3521 121.3030 43.6596 0.0000 0.0000 0.0000
# 3 34.6144 43.6596 65.4675 0.0000 0.0000 0.0000
# 4 0.0000 0.0000 0.0000 30.9776 0.0000 0.0000
# 5 0.0000 0.0000 0.0000 0.0000 28.0452 0.0000
# 6 0.0000 0.0000 0.0000 0.0000 0.0000 22.9854
#
#
#
# Elastic Compliance Matrix: (Units=1/GPa)
#
#
# Indices 1 2 3 4 5 6 
#
# 1 0.016802 -0.000049 -0.008851 0.000000 0.000000 0.000000
# 2 -0.000049 0.010848 -0.007208 0.000000 0.000000 0.000000
# 3 -0.008851 -0.007208 0.024762 0.000000 0.000000 0.000000
# 4 0.000000 0.000000 0.000000 0.032281 0.000000 0.000000
# 5 0.000000 0.000000 0.000000 0.000000 0.035657 0.000000
# 6 0.000000 0.000000 0.000000 0.000000 0.000000 0.043506
#
#
# Mechanical properties :
#
#
# Convention : Reuss Voigt Hill
#
# Bulk Modulus (GPa) = 49.51791 51.98257 50.75024
# Shear Modulus (GPa) = 24.65450 27.26595 25.96022
#
# Velocity S-wave (km/s) = 3.54231 3.72520 3.63490
# Velocity P-wave (km/s) = 6.47556 6.70518 6.59137
#
# Compressibility (1/GPa) = 0.02019472
#
# Stress axis : x y z
#
# Youngs Moduli (GPa) = 59.51819 92.18566 40.38508
#
# Poissons Ratio (x) = 0.00451 0.35744
# Poissons Ratio (y) = 0.00291 0.29111
# Poissons Ratio (z) = 0.52679 0.66451
#
# Static dielectric constant tensor:
#      x y z
#    x 3.549050 0.000000 0.000000 
#    y 0.000000 3.716860 0.000000 
#    z 0.000000 0.000000 3.561190 
# 
# 
# High freq. dielectric constant tensor:
#      x y z
#    x 1.759620 0.000000 0.000000 
#    y 0.000000 1.779830 0.000000 
#    z 0.000000 0.000000 1.765020 
# 
# From -- ./inp_files/6127.got.cif
#   From: 2010.03.12/outbox.cif.g09.slc.cpg/sg55_4_cif.got.tgz:6127.got - 2010.04.16 15:19:21.
