data_PCOD8226142
_publ_section_title
;
Structure prediction by ZEFSAII (Michael W. Deem and Ramdas Pophale) SiO2 
 PCOD8226142
Probable space group: P B A M
;
_chemical_formula_sum "Si O2"
_cell_formula_units_Z 64
_cell_length_a 26.361829
_cell_length_b 10.105202
_cell_length_c 13.969719
_cell_angle_alpha 90.000000
_cell_angle_beta 90.000000
_cell_angle_gamma 90.000000
_cell_volume 3721.415896
_symmetry_space_group_name_H-M "P B A M"
_symmetry_group_IT_number 55
_symmetry_cell_setting 'orthorhombic'
loop_
_space_group_symop_operation_xyz
x,y,z
-x,-y,z
1/2+x,1/2-y,-z
1/2-x,1/2+y,-z
-x,-y,-z
x,y,-z
1/2-x,1/2+y,z
1/2+x,1/2-y,z
loop_
_atom_site_type_symbol
_atom_site_label
_atom_site_fract_x
_atom_site_fract_y
_atom_site_fract_z
Si Si1 0.690729 0.142839 0.609608
Si Si2 0.528381 0.869743 0.386864
Si Si3 0.133509 0.091679 0.609121
Si Si4 0.521474 0.206832 0.108038
Si Si5 0.918418 0.444844 0.108573
Si Si6 0.029806 0.133640 0.289375
Si Si7 0.306091 0.328263 0.611567
Si Si8 0.863372 0.404507 0.295504
O O1 0.682692 0.098773 0.500000
O O2 0.674750 0.294216 0.625635
O O3 0.749242 0.130389 0.639233
O O4 0.656427 0.048258 0.674301
O O5 0.529977 0.866967 0.500000
O O6 0.497091 0.745038 0.351605
O O7 0.585208 0.867587 0.349411
O O8 0.500000 0.000000 0.347805
O O9 0.113946 0.092357 0.500000
O O10 0.087101 0.115464 0.678693
O O11 0.158327 0.951912 0.634875
O O12 0.465970 0.149409 0.129749
O O13 0.531303 0.329406 0.177657
O O14 0.564026 0.095409 0.124994
O O15 0.524576 0.260342 0.000000
O O16 0.873201 0.407921 0.181272
O O17 0.898729 0.424982 0.000000
O O18 0.000000 0.000000 0.306112
O O19 0.309209 0.286124 0.500000
O O20 0.322019 0.205873 0.678211
#
# Coordination Sequence:
#
# PCOD8226142 Si02
#       8
#     8   8   8   8   8   8   8   8
#     4  10  20  35  55  78 102 134 179 227 263 298
#     4  11  22  34  50  76 108 142 181 219 256 308
#     4  10  21  35  49  70 107 146 174 205 258 319
#     4   9  18  35  54  75 104 138 176 219 261 302
#     4   9  18  33  57  81 101 130 175 227 269 307
#     4  12  23  33  49  76 113 148 172 205 259 330
#     4  10  21  36  53  76 106 139 177 220 264 310
#     4  12  20  32  57  80 102 133 179 223 260 310
#
# _framework density 17.197755999999998
#
# number of rings (size 3 to 8) (size 9 to 14) (size 15 to 20)
#    0.000    1.625    1.250    6.000    0.000    6.250 
#    0.000    0.000    0.000    0.750    0.000    1.750 
#    0.000    0.000    0.000    0.000    0.000    0.000 
#
# Total GULP energy -793845.711247 kJ/mol
# GULP energy per Si atom -12403.839238 kJ/mol
# Density = 1.715861 g / cm^3
# Si number density = 17.197756 Si / 1000 Ang^3
#
#
#
# Elastic Constant Matrix: (Units=GPa)
#
#
# Indices 1 2 3 4 5 6 
#
# 1 74.9316 11.9607 33.6869 0.0000 0.0000 0.0000
# 2 11.9607 71.8621 26.3922 0.0000 0.0000 0.0000
# 3 33.6869 26.3922 86.1993 0.0000 0.0000 0.0000
# 4 0.0000 0.0000 0.0000 26.1956 0.0000 0.0000
# 5 0.0000 0.0000 0.0000 0.0000 17.0336 0.0000
# 6 0.0000 0.0000 0.0000 0.0000 0.0000 28.5077
#
#
#
# Elastic Compliance Matrix: (Units=1/GPa)
#
#
# Indices 1 2 3 4 5 6 
#
# 1 0.016201 -0.000418 -0.006203 0.000000 0.000000 0.000000
# 2 -0.000418 0.015689 -0.004640 0.000000 0.000000 0.000000
# 3 -0.006203 -0.004640 0.015446 0.000000 0.000000 0.000000
# 4 0.000000 0.000000 0.000000 0.038174 0.000000 0.000000
# 5 0.000000 0.000000 0.000000 0.000000 0.058707 0.000000
# 6 0.000000 0.000000 0.000000 0.000000 0.000000 0.035078
#
#
# Mechanical properties :
#
#
# Convention : Reuss Voigt Hill
#
# Bulk Modulus (GPa) = 40.30184 41.89693 41.09938
# Shear Modulus (GPa) = 23.79918 25.07759 24.43839
#
# Velocity S-wave (km/s) = 3.72405 3.82277 3.77373
# Velocity P-wave (km/s) = 6.47894 6.62567 6.55272
#
# Compressibility (1/GPa) = 0.02481277
#
# Stress axis : x y z
#
# Youngs Moduli (GPa) = 61.72418 63.73750 64.74141
#
# Poissons Ratio (x) = 0.02666 0.40162
# Poissons Ratio (y) = 0.02582 0.30042
# Poissons Ratio (z) = 0.38290 0.29576
#
# Static dielectric constant tensor:
#      x y z
#    x 3.179970 0.000000 0.000000 
#    y 0.000000 3.246250 0.000000 
#    z 0.000000 0.000000 3.214720 
# 
# 
# High freq. dielectric constant tensor:
#      x y z
#    x 1.656970 0.000000 0.000000 
#    y 0.000000 1.669650 0.000000 
#    z 0.000000 0.000000 1.653120 
# 
# From -- ./inp_files/19994.got.cif
#   From: 2010.03.12/outbox.cif.g09.slc.cpg/sg55_10_cif.got.tgz:19994.got - 2010.04.16 15:19:21.
