data_PCOD8226954
_publ_section_title
;
Structure prediction by ZEFSAII (Michael W. Deem and Ramdas Pophale) SiO2 
 PCOD8226954
Probable space group: P B A M
;
_chemical_formula_sum "Si O2"
_cell_formula_units_Z 48
_cell_length_a 32.416075
_cell_length_b 5.241438
_cell_length_c 14.634509
_cell_angle_alpha 90.000000
_cell_angle_beta 90.000000
_cell_angle_gamma 90.000000
_cell_volume 2486.503286
_symmetry_space_group_name_H-M "P B A M"
_symmetry_group_IT_number 55
_symmetry_cell_setting 'orthorhombic'
loop_
_space_group_symop_operation_xyz
x,y,z
-x,-y,z
1/2+x,1/2-y,-z
1/2-x,1/2+y,-z
-x,-y,-z
x,y,-z
1/2-x,1/2+y,z
1/2+x,1/2-y,z
loop_
_atom_site_type_symbol
_atom_site_label
_atom_site_fract_x
_atom_site_fract_y
_atom_site_fract_z
Si Si1 0.275048 0.276402 0.606252
Si Si2 0.112140 0.251972 0.692989
Si Si3 0.345312 0.252565 0.251329
Si Si4 0.724311 0.758933 0.106527
Si Si5 0.485079 0.750045 0.686014
Si Si6 0.904825 0.750429 0.500000
Si Si7 0.538290 0.750334 0.500000
O O1 0.285417 0.266494 0.500000
O O2 0.253925 0.541183 0.635508
O O3 0.317549 0.251634 0.658960
O O4 0.126163 0.502332 0.747482
O O5 0.126820 0.249570 0.586931
O O6 0.063437 0.250004 0.677743
O O7 0.126674 0.005237 0.749066
O O8 0.318677 0.249632 0.159375
O O9 0.751356 0.514198 0.134665
O O10 0.713529 0.755881 0.000000
O O11 0.500000 0.500000 0.741132
O O12 0.508629 0.750160 0.587977
O O13 0.500000 0.000000 0.741197
O O14 0.932861 0.497410 0.500000
O O15 0.932805 0.003589 0.500000
#
# Coordination Sequence:
#
# PCOD8226954 Si02
#       7
#     8   8   8   8   8   4   4
#     4  10  21  37  53  68  96 146 192 213 244 310
#     4  12  25  34  51  79 117 153 192 233 288 332
#     4  12  24  38  55  84 119 144 177 238 291 337
#     4  10  21  41  71  97 113 140 183 231 293 363
#     4  12  20  35  50  72 101 151 205 242 286 325
#     4  12  23  36  52  74 108 161 208 245 282 330
#     4  12  19  36  54  70  96 153 210 267 286 308
#
# _framework density 19.304216
#
# number of rings (size 3 to 8) (size 9 to 14) (size 15 to 20)
#    0.000    0.667    3.333    6.000    2.333    0.000 
#    0.000    0.000    0.000    0.000    0.000    0.000 
#    0.000   13.333    0.000    0.000    0.000    0.000 
#
# Total GULP energy -595079.190913 kJ/mol
# GULP energy per Si atom -12397.483144 kJ/mol
# Density = 1.926028 g / cm^3
# Si number density = 19.304216 Si / 1000 Ang^3
#
#
#
# Elastic Constant Matrix: (Units=GPa)
#
#
# Indices 1 2 3 4 5 6 
#
# 1 74.5302 46.6160 34.4137 0.0000 0.0000 0.0000
# 2 46.6160 183.3239 30.6019 0.0000 0.0000 0.0000
# 3 34.4137 30.6019 60.7591 0.0000 0.0000 0.0000
# 4 0.0000 0.0000 0.0000 13.3145 0.0000 0.0000
# 5 0.0000 0.0000 0.0000 0.0000 30.7973 0.0000
# 6 0.0000 0.0000 0.0000 0.0000 0.0000 38.8769
#
#
#
# Elastic Compliance Matrix: (Units=1/GPa)
#
#
# Indices 1 2 3 4 5 6 
#
# 1 0.020027 -0.003493 -0.009584 0.000000 0.000000 0.000000
# 2 -0.003493 0.006565 -0.001328 0.000000 0.000000 0.000000
# 3 -0.009584 -0.001328 0.022556 0.000000 0.000000 0.000000
# 4 0.000000 0.000000 0.000000 0.075106 0.000000 0.000000
# 5 0.000000 0.000000 0.000000 0.000000 0.032470 0.000000
# 6 0.000000 0.000000 0.000000 0.000000 0.000000 0.025722
#
#
# Mechanical properties :
#
#
# Convention : Reuss Voigt Hill
#
# Bulk Modulus (GPa) = 49.16979 60.20850 54.68914
# Shear Modulus (GPa) = 22.93200 30.39652 26.66426
#
# Velocity S-wave (km/s) = 3.45037 3.97243 3.72057
# Velocity P-wave (km/s) = 6.43426 7.23169 6.84460
#
# Compressibility (1/GPa) = 0.02033769
#
# Stress axis : x y z
#
# Youngs Moduli (GPa) = 49.93151 152.33084 44.33439
#
# Poissons Ratio (x) = 0.53205 0.42491
# Poissons Ratio (y) = 0.17440 0.05888
# Poissons Ratio (z) = 0.47856 0.20231
#
# Static dielectric constant tensor:
#      x y z
#    x 3.469980 0.000000 0.000000 
#    y 0.000000 5.140100 0.000000 
#    z 0.000000 0.000000 3.179620 
# 
# 
# High freq. dielectric constant tensor:
#      x y z
#    x 1.750270 0.000000 0.000000 
#    y 0.000000 1.793900 0.000000 
#    z 0.000000 0.000000 1.693300 
# 
# From -- ./inp_files/20060.got.cif
#   From: 2010.03.12/outbox.cif.g09.slc.cpg/sg55_11_cif.got.tgz:20060.got - 2010.04.16 15:19:21.
