data_PCOD8226887
_publ_section_title
;
Structure prediction by ZEFSAII (Michael W. Deem and Ramdas Pophale) SiO2 
 PCOD8226887
Probable space group: P B A M
;
_chemical_formula_sum "Si O2"
_cell_formula_units_Z 56
_cell_length_a 22.070802
_cell_length_b 14.783676
_cell_length_c 8.794101
_cell_angle_alpha 90.000000
_cell_angle_beta 90.000000
_cell_angle_gamma 90.000000
_cell_volume 2869.405985
_symmetry_space_group_name_H-M "P B A M"
_symmetry_group_IT_number 55
_symmetry_cell_setting 'orthorhombic'
loop_
_space_group_symop_operation_xyz
x,y,z
-x,-y,z
1/2+x,1/2-y,-z
1/2-x,1/2+y,-z
-x,-y,-z
x,y,-z
1/2-x,1/2+y,z
1/2+x,1/2-y,z
loop_
_atom_site_type_symbol
_atom_site_label
_atom_site_fract_x
_atom_site_fract_y
_atom_site_fract_z
Si Si1 0.722882 0.177317 0.176839
Si Si2 0.855370 0.532977 0.327703
Si Si3 0.881437 0.811818 0.178254
Si Si4 0.538980 0.166252 0.328397
Si Si5 0.930017 0.993465 0.680598
Si Si6 0.852613 0.164037 0.319989
Si Si7 0.905325 0.349004 0.319302
O O1 0.686442 0.085768 0.210198
O O2 0.682905 0.265239 0.227812
O O3 0.783338 0.166107 0.271734
O O4 0.738251 0.182700 0.000000
O O5 0.828362 0.535747 0.500000
O O6 0.921938 0.575812 0.328644
O O7 0.862649 0.431185 0.263437
O O8 0.934841 0.743509 0.220191
O O9 0.893516 0.906116 0.261520
O O10 0.881792 0.829707 0.000000
O O11 0.534457 0.206539 0.500000
O O12 0.473849 0.138707 0.262497
O O13 0.930456 0.989966 0.500000
O O14 0.891602 0.079277 0.742470
O O15 0.000000 0.000000 0.740107
O O16 0.855655 0.162953 0.500000
O O17 0.881416 0.255040 0.251639
O O18 0.903585 0.349864 0.500000
#
# Coordination Sequence:
#
# PCOD8226887 Si02
#       7
#     8   8   8   8   8   8   8
#     4  10  22  39  54  73 106 143 180 221 266 315
#     4   9  17  31  55  83 107 135 172 211 255 312
#     4  10  21  36  55  79 108 145 184 221 264 316
#     4   9  16  30  54  82 111 139 168 208 258 311
#     4  10  21  38  60  85 111 141 180 228 281 330
#     4  10  21  36  55  78 105 138 178 223 267 317
#     4   9  17  31  53  81 108 133 166 211 261 312
#
# _framework density 19.516235000000002
#
# number of rings (size 3 to 8) (size 9 to 14) (size 15 to 20)
#    0.000    2.429    0.000    2.143    0.000    7.714 
#    0.000    7.857    0.000    3.429    0.000    0.000 
#    0.000    0.000    0.000    0.000    0.000    0.000 
#
# Total GULP energy -694180.870247 kJ/mol
# GULP energy per Si atom -12396.086969 kJ/mol
# Density = 1.947181 g / cm^3
# Si number density = 19.516235 Si / 1000 Ang^3
#
#
#
# Elastic Constant Matrix: (Units=GPa)
#
#
# Indices 1 2 3 4 5 6 
#
# 1 107.6369 48.1988 10.4820 0.0000 0.0000 0.0000
# 2 48.1988 150.1693 18.4220 0.0000 0.0000 0.0000
# 3 10.4820 18.4220 17.2944 0.0000 0.0000 0.0000
# 4 0.0000 0.0000 0.0000 18.3465 0.0000 0.0000
# 5 0.0000 0.0000 0.0000 0.0000 9.8756 0.0000
# 6 0.0000 0.0000 0.0000 0.0000 0.0000 21.9810
#
#
#
# Elastic Compliance Matrix: (Units=1/GPa)
#
#
# Indices 1 2 3 4 5 6 
#
# 1 0.011016 -0.003125 -0.003348 0.000000 0.000000 0.000000
# 2 -0.003125 0.008547 -0.007210 0.000000 0.000000 0.000000
# 3 -0.003348 -0.007210 0.067531 0.000000 0.000000 0.000000
# 4 0.000000 0.000000 0.000000 0.054506 0.000000 0.000000
# 5 0.000000 0.000000 0.000000 0.000000 0.101260 0.000000
# 6 0.000000 0.000000 0.000000 0.000000 0.000000 0.045494
#
#
# Mechanical properties :
#
#
# Convention : Reuss Voigt Hill
#
# Bulk Modulus (GPa) = 16.74246 47.70069 32.22157
# Shear Modulus (GPa) = 14.89742 23.24047 19.06895
#
# Velocity S-wave (km/s) = 2.76585 3.45458 3.12922
# Velocity P-wave (km/s) = 4.33558 6.35663 5.44077
#
# Compressibility (1/GPa) = 0.05972839
#
# Stress axis : x y z
#
# Youngs Moduli (GPa) = 90.77829 117.00530 14.80793
#
# Poissons Ratio (x) = 0.36564 0.04958
# Poissons Ratio (y) = 0.28368 0.10676
# Poissons Ratio (z) = 0.30391 0.84359
#
# Static dielectric constant tensor:
#      x y z
#    x 3.603840 0.000000 0.000000 
#    y 0.000000 3.819370 0.000000 
#    z 0.000000 0.000000 3.281240 
# 
# 
# High freq. dielectric constant tensor:
#      x y z
#    x 1.761980 0.000000 0.000000 
#    y 0.000000 1.769670 0.000000 
#    z 0.000000 0.000000 1.728830 
# 
# From -- ./inp_files/8752.got.cif
#   From: 2010.03.12/outbox.cif.g09.slc.cpg/sg55_5_cif.got.tgz:8752.got - 2010.04.16 15:19:21.
