data_PCOD8226291
_publ_section_title
;
Structure prediction by ZEFSAII (Michael W. Deem and Ramdas Pophale) SiO2 
 PCOD8226291
Probable space group: P B A M
;
_chemical_formula_sum "Si O2"
_cell_formula_units_Z 48
_cell_length_a 9.760429
_cell_length_b 30.497098
_cell_length_c 8.655733
_cell_angle_alpha 90.000000
_cell_angle_beta 90.000000
_cell_angle_gamma 90.000000
_cell_volume 2576.506684
_symmetry_space_group_name_H-M "P B A M"
_symmetry_group_IT_number 55
_symmetry_cell_setting 'orthorhombic'
loop_
_space_group_symop_operation_xyz
x,y,z
-x,-y,z
1/2+x,1/2-y,-z
1/2-x,1/2+y,-z
-x,-y,-z
x,y,-z
1/2-x,1/2+y,z
1/2+x,1/2-y,z
loop_
_atom_site_type_symbol
_atom_site_label
_atom_site_fract_x
_atom_site_fract_y
_atom_site_fract_z
Si Si1 0.841742 0.624186 0.818887
Si Si2 0.345378 0.114787 0.181147
Si Si3 0.361001 0.784861 0.318796
Si Si4 0.672819 0.793563 0.682835
Si Si5 0.358329 0.451922 0.817016
Si Si6 0.648753 0.455079 0.318560
O O1 0.797291 0.670379 0.746457
O O2 0.740574 0.586621 0.757549
O O3 0.995809 0.611732 0.770544
O O4 0.828994 0.629505 0.000000
O O5 0.285426 0.161865 0.230556
O O6 0.271409 0.077072 0.276640
O O7 0.322425 0.107396 0.000000
O O8 0.343267 0.786804 0.500000
O O9 0.275336 0.743693 0.254428
O O10 0.519161 0.779336 0.269945
O O11 0.685580 0.801153 0.500000
O O12 0.309576 0.496196 0.733646
O O13 0.512659 0.439524 0.770586
O O14 0.348419 0.458729 0.000000
O O15 0.619811 0.454463 0.500000
#
# Coordination Sequence:
#
# PCOD8226291 Si02
#       6
#     8   8   8   8   8   8
#     4   9  20  36  55  78 105 136 175 216 258 307
#     4  10  20  36  55  77 105 139 174 214 259 306
#     4   9  18  32  51  73 103 137 171 211 257 304
#     4   9  18  33  50  73 102 135 172 212 255 303
#     4  10  20  37  57  78 105 138 174 216 261 309
#     4  11  22  36  54  79 107 137 173 215 259 311
#
# _framework density 18.629874999999998
#
# number of rings (size 3 to 8) (size 9 to 14) (size 15 to 20)
#    0.000    2.333    0.000    3.500    0.000    4.667 
#    0.000    5.000    0.000    0.000    0.000    0.000 
#    0.000    0.000    0.000    0.000    0.000    0.000 
#
# Total GULP energy -595335.462792 kJ/mol
# GULP energy per Si atom -12402.822142 kJ/mol
# Density = 1.858747 g / cm^3
# Si number density = 18.629875 Si / 1000 Ang^3
#
#
#
# Elastic Constant Matrix: (Units=GPa)
#
#
# Indices 1 2 3 4 5 6 
#
# 1 49.8709 35.9599 12.2403 0.0000 0.0000 0.0000
# 2 35.9599 81.3756 21.7352 0.0000 0.0000 0.0000
# 3 12.2403 21.7352 39.3041 0.0000 0.0000 0.0000
# 4 0.0000 0.0000 0.0000 35.7614 0.0000 0.0000
# 5 0.0000 0.0000 0.0000 0.0000 22.6441 0.0000
# 6 0.0000 0.0000 0.0000 0.0000 0.0000 43.8253
#
#
#
# Elastic Compliance Matrix: (Units=1/GPa)
#
#
# Indices 1 2 3 4 5 6 
#
# 1 0.029610 -0.012462 -0.002330 0.000000 0.000000 0.000000
# 2 -0.012462 0.019664 -0.006993 0.000000 0.000000 0.000000
# 3 -0.002330 -0.006993 0.030035 0.000000 0.000000 0.000000
# 4 0.000000 0.000000 0.000000 0.027963 0.000000 0.000000
# 5 0.000000 0.000000 0.000000 0.000000 0.044162 0.000000
# 6 0.000000 0.000000 0.000000 0.000000 0.000000 0.022818
#
#
# Mechanical properties :
#
#
# Convention : Reuss Voigt Hill
#
# Bulk Modulus (GPa) = 27.98069 34.49127 31.23598
# Shear Modulus (GPa) = 21.76436 27.15382 24.45909
#
# Velocity S-wave (km/s) = 3.42168 3.82192 3.62732
# Velocity P-wave (km/s) = 5.53736 6.16687 5.86057
#
# Compressibility (1/GPa) = 0.03573893
#
# Stress axis : x y z
#
# Youngs Moduli (GPa) = 33.77289 50.85553 33.29426
#
# Poissons Ratio (x) = 0.63377 0.07756
# Poissons Ratio (y) = 0.42089 0.23282
# Poissons Ratio (z) = 0.07868 0.35563
#
# Static dielectric constant tensor:
#      x y z
#    x 3.507050 0.000000 0.000000 
#    y 0.000000 3.571890 0.000000 
#    z 0.000000 0.000000 3.359320 
# 
# 
# High freq. dielectric constant tensor:
#      x y z
#    x 1.719090 0.000000 0.000000 
#    y 0.000000 1.730800 0.000000 
#    z 0.000000 0.000000 1.722970 
# 
# From -- ./inp_files/2909.got.cif
#   From: 2010.03.12/outbox.cif.g09.slc.cpg/sg55_2_cif.got.tgz:2909.got - 2010.04.16 15:19:21.
