data_PCOD8226426
_publ_section_title
;
Structure prediction by ZEFSAII (Michael W. Deem and Ramdas Pophale) SiO2 
 PCOD8226426
Probable space group: P B A M
;
_chemical_formula_sum "Si O2"
_cell_formula_units_Z 56
_cell_length_a 21.722573
_cell_length_b 14.659165
_cell_length_c 8.971319
_cell_angle_alpha 90.000000
_cell_angle_beta 90.000000
_cell_angle_gamma 90.000000
_cell_volume 2856.780009
_symmetry_space_group_name_H-M "P B A M"
_symmetry_group_IT_number 55
_symmetry_cell_setting 'orthorhombic'
loop_
_space_group_symop_operation_xyz
x,y,z
-x,-y,z
1/2+x,1/2-y,-z
1/2-x,1/2+y,-z
-x,-y,-z
x,y,-z
1/2-x,1/2+y,z
1/2+x,1/2-y,z
loop_
_atom_site_type_symbol
_atom_site_label
_atom_site_fract_x
_atom_site_fract_y
_atom_site_fract_z
Si Si1 0.738682 0.621753 0.828510
Si Si2 0.047422 0.575435 0.323734
Si Si3 0.408321 0.613363 0.177106
Si Si4 0.674644 0.957772 0.170609
Si Si5 0.015958 0.778685 0.325990
Si Si6 0.114532 0.929883 0.673634
Si Si7 0.776674 0.818648 0.177008
O O1 0.798662 0.559080 0.814342
O O2 0.683192 0.580725 0.734276
O O3 0.758717 0.719113 0.762605
O O4 0.716657 0.627881 0.000000
O O5 0.049126 0.573362 0.500000
O O6 0.114241 0.549117 0.267531
O O7 0.028282 0.676095 0.268638
O O8 0.000000 0.500000 0.260803
O O9 0.459920 0.683015 0.230712
O O10 0.419972 0.513348 0.245254
O O11 0.343079 0.651001 0.237964
O O12 0.409988 0.605609 0.000000
O O13 0.725149 0.888061 0.235596
O O14 0.658649 0.933986 0.000000
O O15 0.998419 0.781423 0.500000
O O16 0.077023 0.837546 0.294043
O O17 0.117206 0.952488 0.500000
O O18 0.779462 0.819217 0.000000
#
# Coordination Sequence:
#
# PCOD8226426 Si02
#       7
#     8   8   8   8   8   8   8
#     4  10  20  36  60  85 116 150 187 238 290 343
#     4  10  23  42  61  83 118 158 197 242 290 347
#     4  11  22  38  61  88 118 153 198 245 297 354
#     4  10  20  37  60  86 116 148 188 239 290 341
#     4  10  23  41  58  82 119 157 196 244 295 346
#     4  11  22  38  59  86 120 156 193 239 294 352
#     4   9  19  36  57  85 117 149 186 239 295 341
#
# _framework density 19.60249
#
# number of rings (size 3 to 8) (size 9 to 14) (size 15 to 20)
#    0.000    1.857    1.429    2.143    2.000    4.286 
#    0.000    1.429    0.000    0.000    0.000    0.000 
#    0.000    0.000    0.000    0.000    0.000    0.000 
#
# Total GULP energy -694636.429372 kJ/mol
# GULP energy per Si atom -12404.221953 kJ/mol
# Density = 1.955787 g / cm^3
# Si number density = 19.602490 Si / 1000 Ang^3
#
#
#
# Elastic Constant Matrix: (Units=GPa)
#
#
# Indices 1 2 3 4 5 6 
#
# 1 114.5485 46.8503 35.8052 0.0000 0.0000 0.0000
# 2 46.8503 133.7863 28.4829 0.0000 0.0000 0.0000
# 3 35.8052 28.4829 43.2034 0.0000 0.0000 0.0000
# 4 0.0000 0.0000 0.0000 23.2339 0.0000 0.0000
# 5 0.0000 0.0000 0.0000 0.0000 31.9338 0.0000
# 6 0.0000 0.0000 0.0000 0.0000 0.0000 31.5423
#
#
#
# Elastic Compliance Matrix: (Units=1/GPa)
#
#
# Indices 1 2 3 4 5 6 
#
# 1 0.012472 -0.002521 -0.008675 0.000000 0.000000 0.000000
# 2 -0.002521 0.009205 -0.003979 0.000000 0.000000 0.000000
# 3 -0.008675 -0.003979 0.032959 0.000000 0.000000 0.000000
# 4 0.000000 0.000000 0.000000 0.043040 0.000000 0.000000
# 5 0.000000 0.000000 0.000000 0.000000 0.031315 0.000000
# 6 0.000000 0.000000 0.000000 0.000000 0.000000 0.031703
#
#
# Mechanical properties :
#
#
# Convention : Reuss Voigt Hill
#
# Bulk Modulus (GPa) = 41.17516 57.09056 49.13286
# Shear Modulus (GPa) = 25.10803 29.36868 27.23835
#
# Velocity S-wave (km/s) = 3.58279 3.87487 3.73169
# Velocity P-wave (km/s) = 6.17785 7.01476 6.60957
#
# Compressibility (1/GPa) = 0.02428649
#
# Stress axis : x y z
#
# Youngs Moduli (GPa) = 80.17643 108.64220 30.34080
#
# Poissons Ratio (x) = 0.27387 0.26320
# Poissons Ratio (y) = 0.20211 0.12073
# Poissons Ratio (z) = 0.69551 0.43230
#
# Static dielectric constant tensor:
#      x y z
#    x 3.559440 0.000000 0.000000 
#    y 0.000000 3.951980 0.000000 
#    z 0.000000 0.000000 3.366930 
# 
# 
# High freq. dielectric constant tensor:
#      x y z
#    x 1.770310 0.000000 0.000000 
#    y 0.000000 1.781350 0.000000 
#    z 0.000000 0.000000 1.742930 
# 
# From -- ./inp_files/6048.got.cif
#   From: 2010.03.12/outbox.cif.g09.slc.cpg/sg55_4_cif.got.tgz:6048.got - 2010.04.16 15:19:21.
