data_PCOD8226137
_publ_section_title
;
Structure prediction by ZEFSAII (Michael W. Deem and Ramdas Pophale) SiO2 
 PCOD8226137
Probable space group: P B A M
;
_chemical_formula_sum "Si O2"
_cell_formula_units_Z 64
_cell_length_a 14.402706
_cell_length_b 24.227499
_cell_length_c 9.399479
_cell_angle_alpha 90.000000
_cell_angle_beta 90.000000
_cell_angle_gamma 90.000000
_cell_volume 3279.868726
_symmetry_space_group_name_H-M "P B A M"
_symmetry_group_IT_number 55
_symmetry_cell_setting 'orthorhombic'
loop_
_space_group_symop_operation_xyz
x,y,z
-x,-y,z
1/2+x,1/2-y,-z
1/2-x,1/2+y,-z
-x,-y,-z
x,y,-z
1/2-x,1/2+y,z
1/2+x,1/2-y,z
loop_
_atom_site_type_symbol
_atom_site_label
_atom_site_fract_x
_atom_site_fract_y
_atom_site_fract_z
Si Si1 0.966632 0.235245 0.156186
Si Si2 0.907707 0.860292 0.158446
Si Si3 0.241628 0.669428 0.332295
Si Si4 0.439370 0.447796 0.166271
Si Si5 0.552953 0.057259 0.338095
Si Si6 0.060446 0.642861 0.165738
Si Si7 0.240791 0.914197 0.334991
Si Si8 0.702548 0.707932 0.665326
O O1 0.988729 0.298460 0.192337
O O2 0.898080 0.206234 0.265191
O O3 0.064165 0.203893 0.159018
O O4 0.919646 0.231129 0.000000
O O5 0.827681 0.866501 0.274964
O O6 0.998087 0.894887 0.201870
O O7 0.872867 0.877870 0.000000
O O8 0.232327 0.660521 0.500000
O O9 0.154568 0.641925 0.255286
O O10 0.253717 0.734578 0.290709
O O11 0.500000 0.500000 0.217598
O O12 0.341558 0.443534 0.247814
O O13 0.415288 0.452303 0.000000
O O14 0.539831 0.078931 0.500000
O O15 0.510045 0.098312 0.224661
O O16 0.663159 0.053199 0.304111
O O17 0.500000 0.000000 0.317444
O O18 0.081430 0.631272 0.000000
O O19 0.213417 0.918528 0.500000
O O20 0.255081 0.849045 0.292193
O O21 0.683987 0.709756 0.500000
#
# Coordination Sequence:
#
# PCOD8226137 Si02
#       8
#     8   8   8   8   8   8   8   8
#     4   9  18  33  54  81 114 149 185 232 289 344
#     4  10  20  35  54  82 119 153 188 236 287 344
#     4  10  21  35  55  85 120 158 194 237 292 352
#     4  10  22  40  61  86 117 154 195 238 289 344
#     4  10  23  42  62  85 117 156 198 247 298 346
#     4  10  21  38  59  85 115 152 197 243 293 350
#     4  10  21  38  60  85 113 148 192 242 290 343
#     4   9  18  33  53  81 113 146 189 235 283 339
#
# _framework density 19.512975999999998
#
# number of rings (size 3 to 8) (size 9 to 14) (size 15 to 20)
#    0.000    2.250    1.250    0.750    1.750    4.000 
#    0.000    2.500    0.000    0.000    0.000    0.000 
#    0.000    0.000    0.000    0.000    0.000    0.000 
#
# Total GULP energy -793285.107252 kJ/mol
# GULP energy per Si atom -12395.079801 kJ/mol
# Density = 1.946856 g / cm^3
# Si number density = 19.512976 Si / 1000 Ang^3
#
#
#
# Elastic Constant Matrix: (Units=GPa)
#
#
# Indices 1 2 3 4 5 6 
#
# 1 125.1085 55.6787 63.1198 0.0000 0.0000 0.0000
# 2 55.6787 76.4701 41.9930 0.0000 0.0000 0.0000
# 3 63.1198 41.9930 77.0681 0.0000 0.0000 0.0000
# 4 0.0000 0.0000 0.0000 21.2771 0.0000 0.0000
# 5 0.0000 0.0000 0.0000 0.0000 39.3783 0.0000
# 6 0.0000 0.0000 0.0000 0.0000 0.0000 27.2660
#
#
#
# Elastic Compliance Matrix: (Units=1/GPa)
#
#
# Indices 1 2 3 4 5 6 
#
# 1 0.015395 -0.006115 -0.009277 0.000000 0.000000 0.000000
# 2 -0.006115 0.021089 -0.006483 0.000000 0.000000 0.000000
# 3 -0.009277 -0.006483 0.024106 0.000000 0.000000 0.000000
# 4 0.000000 0.000000 0.000000 0.046999 0.000000 0.000000
# 5 0.000000 0.000000 0.000000 0.000000 0.025395 0.000000
# 6 0.000000 0.000000 0.000000 0.000000 0.000000 0.036676
#
#
# Mechanical properties :
#
#
# Convention : Reuss Voigt Hill
#
# Bulk Modulus (GPa) = 59.37979 66.69222 63.03600
# Shear Modulus (GPa) = 22.82878 25.44128 24.13503
#
# Velocity S-wave (km/s) = 3.42413 3.61475 3.52073
# Velocity P-wave (km/s) = 6.79190 7.18850 6.99301
#
# Compressibility (1/GPa) = 0.01684075
#
# Stress axis : x y z
#
# Youngs Moduli (GPa) = 64.95760 47.41706 41.48400
#
# Poissons Ratio (x) = 0.28995 0.38483
# Poissons Ratio (y) = 0.39721 0.26895
# Poissons Ratio (z) = 0.60258 0.30741
#
# Static dielectric constant tensor:
#      x y z
#    x 3.384230 0.000000 0.000000 
#    y 0.000000 3.659490 0.000000 
#    z 0.000000 0.000000 3.567810 
# 
# 
# High freq. dielectric constant tensor:
#      x y z
#    x 1.748690 0.000000 0.000000 
#    y 0.000000 1.757900 0.000000 
#    z 0.000000 0.000000 1.760220 
# 
# From -- ./inp_files/6551.got.cif
#   From: 2010.03.12/outbox.cif.g09.slc.cpg/sg55_4_cif.got.tgz:6551.got - 2010.04.16 15:19:21.
