data_PCOD8226937
_publ_section_title
;
Structure prediction by ZEFSAII (Michael W. Deem and Ramdas Pophale) SiO2 
 PCOD8226937
Probable space group: P B A M
;
_chemical_formula_sum "Si O2"
_cell_formula_units_Z 40
_cell_length_a 11.692065
_cell_length_b 19.467401
_cell_length_c 9.137225
_cell_angle_alpha 90.000000
_cell_angle_beta 90.000000
_cell_angle_gamma 90.000000
_cell_volume 2079.761408
_symmetry_space_group_name_H-M "P B A M"
_symmetry_group_IT_number 55
_symmetry_cell_setting 'orthorhombic'
loop_
_space_group_symop_operation_xyz
x,y,z
-x,-y,z
1/2+x,1/2-y,-z
1/2-x,1/2+y,-z
-x,-y,-z
x,y,-z
1/2-x,1/2+y,z
1/2+x,1/2-y,z
loop_
_atom_site_type_symbol
_atom_site_label
_atom_site_fract_x
_atom_site_fract_y
_atom_site_fract_z
Si Si1 0.125808 0.519069 0.830810
Si Si2 0.491294 0.651743 0.172579
Si Si3 0.248020 0.879285 0.168245
Si Si4 0.367395 0.759465 0.665511
Si Si5 0.280547 0.617689 0.334568
O O1 0.211861 0.456493 0.803680
O O2 0.170226 0.584424 0.740891
O O3 0.000000 0.500000 0.772704
O O4 0.119605 0.540455 0.000000
O O5 0.616190 0.624751 0.214905
O O6 0.473829 0.728428 0.240681
O O7 0.397577 0.599887 0.244703
O O8 0.471324 0.654089 0.000000
O O9 0.324232 0.829616 0.265859
O O10 0.264649 0.857398 0.000000
O O11 0.408439 0.774094 0.500000
O O12 0.266942 0.701049 0.667064
O O13 0.292142 0.589912 0.500000
#
# Coordination Sequence:
#
# PCOD8226937 Si02
#       5
#     8   8   8   8   8
#     4  10  22  39  58  83 115 153 193 238 290 344
#     4   9  18  35  58  82 110 145 188 236 282 337
#     4  10  21  36  58  88 114 147 196 238 285 343
#     4   9  20  36  55  83 115 149 186 232 288 341
#     4   9  20  38  57  82 112 149 190 230 288 345
#
# _framework density 19.232975
#
# number of rings (size 3 to 8) (size 9 to 14) (size 15 to 20)
#    1.200    1.400    0.000    1.200    0.000    5.200 
#    0.000   10.000    0.000    0.000    0.000    0.000 
#    0.000    0.000    0.000    0.000    0.000    0.000 
#
# Total GULP energy -495746.002904 kJ/mol
# GULP energy per Si atom -12393.650073 kJ/mol
# Density = 1.918920 g / cm^3
# Si number density = 19.232975 Si / 1000 Ang^3
#
#
#
# Elastic Constant Matrix: (Units=GPa)
#
#
# Indices 1 2 3 4 5 6 
#
# 1 52.3603 -12.8241 11.7490 0.0000 0.0000 0.0000
# 2 -12.8241 25.0305 6.9235 0.0000 0.0000 0.0000
# 3 11.7490 6.9235 80.6798 0.0000 0.0000 0.0000
# 4 0.0000 0.0000 0.0000 26.4915 0.0000 0.0000
# 5 0.0000 0.0000 0.0000 0.0000 7.5642 0.0000
# 6 0.0000 0.0000 0.0000 0.0000 0.0000 32.0314
#
#
#
# Elastic Compliance Matrix: (Units=1/GPa)
#
#
# Indices 1 2 3 4 5 6 
#
# 1 0.023354 0.013220 -0.004535 0.000000 0.000000 0.000000
# 2 0.013220 0.048405 -0.006079 0.000000 0.000000 0.000000
# 3 -0.004535 -0.006079 0.013577 0.000000 0.000000 0.000000
# 4 0.000000 0.000000 0.000000 0.037748 0.000000 0.000000
# 5 0.000000 0.000000 0.000000 0.000000 0.132203 0.000000
# 6 0.000000 0.000000 0.000000 0.000000 0.000000 0.031219
#
#
# Mechanical properties :
#
#
# Convention : Reuss Voigt Hill
#
# Bulk Modulus (GPa) = 11.04404 18.86304 14.95354
# Shear Modulus (GPa) = 16.05252 23.36557 19.70904
#
# Velocity S-wave (km/s) = 2.89214 3.48928 3.20465
# Velocity P-wave (km/s) = 4.11185 5.10513 4.63518
#
# Compressibility (1/GPa) = 0.09054660
#
# Stress axis : x y z
#
# Youngs Moduli (GPa) = 42.81955 20.65882 73.65516
#
# Poissons Ratio (x) = -0.27310 0.33405
# Poissons Ratio (y) = -0.56605 0.44775
# Poissons Ratio (z) = 0.19420 0.12558
#
# Static dielectric constant tensor:
#      x y z
#    x 3.371620 0.000000 0.000000 
#    y 0.000000 3.222140 0.000000 
#    z 0.000000 0.000000 3.514420 
# 
# 
# High freq. dielectric constant tensor:
#      x y z
#    x 1.737040 0.000000 0.000000 
#    y 0.000000 1.729220 0.000000 
#    z 0.000000 0.000000 1.755120 
# 
# From -- ./inp_files/3848.got.cif
#   From: 2010.03.12/outbox.cif.g09.slc.cpg/sg55_2_cif.got.tgz:3848.got - 2010.04.16 15:19:21.
