data_PCOD8226052
_publ_section_title
;
Structure prediction by ZEFSAII (Michael W. Deem and Ramdas Pophale) SiO2 
 PCOD8226052
Probable space group: P B A M
;
_chemical_formula_sum "Si O2"
_cell_formula_units_Z 64
_cell_length_a 14.402911
_cell_length_b 14.677299
_cell_length_c 17.291622
_cell_angle_alpha 90.000000
_cell_angle_beta 90.000000
_cell_angle_gamma 90.000000
_cell_volume 3655.376806
_symmetry_space_group_name_H-M "P B A M"
_symmetry_group_IT_number 55
_symmetry_cell_setting 'orthorhombic'
loop_
_space_group_symop_operation_xyz
x,y,z
-x,-y,z
1/2+x,1/2-y,-z
1/2-x,1/2+y,-z
-x,-y,-z
x,y,-z
1/2-x,1/2+y,z
1/2+x,1/2-y,z
loop_
_atom_site_type_symbol
_atom_site_label
_atom_site_fract_x
_atom_site_fract_y
_atom_site_fract_z
Si Si1 0.925459 0.579837 0.590725
Si Si2 0.735697 0.553265 0.678469
Si Si3 0.527608 0.267330 0.670157
Si Si4 0.342396 0.288534 0.767646
Si Si5 0.698739 0.359512 0.244863
Si Si6 0.620829 0.414248 0.912959
Si Si7 0.056509 0.919614 0.412489
Si Si8 0.409265 0.376546 0.085770
O O1 0.907195 0.603389 0.500000
O O2 0.832154 0.546958 0.632897
O O3 0.964140 0.665267 0.638922
O O4 0.000000 0.500000 0.597667
O O5 0.730009 0.631181 0.743863
O O6 0.709942 0.456170 0.714162
O O7 0.659569 0.588460 0.618678
O O8 0.442141 0.286865 0.727164
O O9 0.620674 0.299972 0.712400
O O10 0.504457 0.328250 0.595258
O O11 0.296240 0.192097 0.749168
O O12 0.361035 0.303911 0.858258
O O13 0.681183 0.366712 0.153131
O O14 0.619111 0.520868 0.892787
O O15 0.519811 0.369569 0.908781
O O16 0.661580 0.398885 0.000000
O O17 0.068819 0.946992 0.500000
O O18 0.000000 0.000000 0.368416
O O19 0.375031 0.351509 0.000000
#
# Coordination Sequence:
#
# PCOD8226052 Si02
#       8
#     8   8   8   8   8   8   8   8
#     4  11  24  44  62  78 114 158 191 232 288 348
#     4  11  22  37  57  86 111 140 192 237 282 341
#     4  11  22  38  57  84 111 144 192 234 282 342
#     4  11  22  34  58  84 110 153 190 237 284 337
#     4  12  21  35  58  85 113 148 190 238 286 337
#     4   9  18  32  56  83 112 147 185 230 285 342
#     4  10  20  34  55  82 111 139 176 232 292 334
#     4   9  17  32  54  83 113 147 186 231 285 341
#
# _framework density 17.508455999999999
#
# number of rings (size 3 to 8) (size 9 to 14) (size 15 to 20)
#    0.000    1.500    5.000    2.250    0.000    0.500 
#    0.000    0.000    0.000    0.000    0.000    0.000 
#    0.000    8.000    0.000    0.000    0.000    0.000 
#
# Total GULP energy -793218.251193 kJ/mol
# GULP energy per Si atom -12394.035175 kJ/mol
# Density = 1.746861 g / cm^3
# Si number density = 17.508456 Si / 1000 Ang^3
#
#
#
# Elastic Constant Matrix: (Units=GPa)
#
#
# Indices 1 2 3 4 5 6 
#
# 1 76.1013 26.2598 30.8326 0.0000 0.0000 0.0000
# 2 26.2598 91.0936 34.0258 0.0000 0.0000 0.0000
# 3 30.8326 34.0258 93.8151 0.0000 0.0000 0.0000
# 4 0.0000 0.0000 0.0000 26.0279 0.0000 0.0000
# 5 0.0000 0.0000 0.0000 0.0000 22.4840 0.0000
# 6 0.0000 0.0000 0.0000 0.0000 0.0000 30.3533
#
#
#
# Elastic Compliance Matrix: (Units=1/GPa)
#
#
# Indices 1 2 3 4 5 6 
#
# 1 0.015852 -0.003035 -0.004109 0.000000 0.000000 0.000000
# 2 -0.003035 0.013279 -0.003819 0.000000 0.000000 0.000000
# 3 -0.004109 -0.003819 0.013395 0.000000 0.000000 0.000000
# 4 0.000000 0.000000 0.000000 0.038420 0.000000 0.000000
# 5 0.000000 0.000000 0.000000 0.000000 0.044476 0.000000
# 6 0.000000 0.000000 0.000000 0.000000 0.000000 0.032945
#
#
# Mechanical properties :
#
#
# Convention : Reuss Voigt Hill
#
# Bulk Modulus (GPa) = 48.54251 49.24962 48.89607
# Shear Modulus (GPa) = 26.71500 27.09914 26.90707
#
# Velocity S-wave (km/s) = 3.91043 3.93844 3.92446
# Velocity P-wave (km/s) = 6.94075 6.99084 6.96584
#
# Compressibility (1/GPa) = 0.02060050
#
# Stress axis : x y z
#
# Youngs Moduli (GPa) = 63.08157 75.30681 74.65590
#
# Poissons Ratio (x) = 0.22855 0.30678
# Poissons Ratio (y) = 0.19145 0.28509
# Poissons Ratio (z) = 0.25922 0.28758
#
# Static dielectric constant tensor:
#      x y z
#    x 3.145680 0.000000 0.000000 
#    y 0.000000 3.237890 0.000000 
#    z 0.000000 0.000000 3.345250 
# 
# 
# High freq. dielectric constant tensor:
#      x y z
#    x 1.669370 0.000000 0.000000 
#    y 0.000000 1.672350 0.000000 
#    z 0.000000 0.000000 1.684840 
# 
# From -- ./inp_files/21651.got.cif
#   From: 2010.03.12/outbox.cif.g09.slc.cpg/sg55_11_cif.got.tgz:21651.got - 2010.04.16 15:19:21.
