data_PCOD8226968
_publ_section_title
;
Structure prediction by ZEFSAII (Michael W. Deem and Ramdas Pophale) SiO2 
 PCOD8226968
Probable space group: P B A M
;
_chemical_formula_sum "Si O2"
_cell_formula_units_Z 56
_cell_length_a 13.812213
_cell_length_b 23.487751
_cell_length_c 9.047592
_cell_angle_alpha 90.000000
_cell_angle_beta 90.000000
_cell_angle_gamma 90.000000
_cell_volume 2935.200070
_symmetry_space_group_name_H-M "P B A M"
_symmetry_group_IT_number 55
_symmetry_cell_setting 'orthorhombic'
loop_
_space_group_symop_operation_xyz
x,y,z
-x,-y,z
1/2+x,1/2-y,-z
1/2-x,1/2+y,-z
-x,-y,-z
x,y,-z
1/2-x,1/2+y,z
1/2+x,1/2-y,z
loop_
_atom_site_type_symbol
_atom_site_label
_atom_site_fract_x
_atom_site_fract_y
_atom_site_fract_z
Si Si1 0.897463 0.063006 0.674431
Si Si2 0.387505 0.565152 0.324728
Si Si3 0.293277 0.880230 0.673838
Si Si4 0.398869 0.766930 0.325513
Si Si5 0.790350 0.833870 0.174083
Si Si6 0.038521 0.439995 0.827680
Si Si7 0.931173 0.325951 0.828718
O O1 0.901991 0.059741 0.500000
O O2 0.816626 0.108178 0.728412
O O3 0.003599 0.082545 0.727996
O O4 0.869584 0.999594 0.728283
O O5 0.373371 0.573141 0.500000
O O6 0.311022 0.603740 0.238288
O O7 0.303377 0.888225 0.500000
O O8 0.324276 0.816847 0.721314
O O9 0.361130 0.927147 0.747501
O O10 0.402906 0.757395 0.500000
O O11 0.364048 0.709660 0.249134
O O12 0.506163 0.782472 0.269316
O O13 0.680492 0.817086 0.213910
O O14 0.807140 0.834047 0.000000
O O15 0.000000 0.500000 0.765676
O O16 0.960150 0.391021 0.792501
O O17 0.061006 0.444400 0.000000
O O18 0.950879 0.312274 0.000000
#
# Coordination Sequence:
#
# PCOD8226968 Si02
#       7
#     8   8   8   8   8   8   8
#     4   8  16  33  55  79 110 143 176 223 277 327
#     4   9  18  34  55  79 108 144 184 222 269 329
#     4   9  18  33  53  77 103 135 176 224 273 321
#     4  10  21  37  56  79 107 140 187 235 274 326
#     4  11  23  37  56  81 112 147 183 228 281 332
#     4   9  18  32  51  76 107 142 176 212 262 325
#     4   9  20  38  55  76 110 146 180 224 275 326
#
# _framework density 19.078768
#
# number of rings (size 3 to 8) (size 9 to 14) (size 15 to 20)
#    0.000    2.714    0.000    1.714    2.000    3.143 
#    0.000    3.571    0.000    0.000    0.000    0.000 
#    0.000    0.000    0.000    0.000    0.000    0.000 
#
# Total GULP energy -694365.448367 kJ/mol
# GULP energy per Si atom -12399.383007 kJ/mol
# Density = 1.903534 g / cm^3
# Si number density = 19.078768 Si / 1000 Ang^3
#
#
#
# Elastic Constant Matrix: (Units=GPa)
#
#
# Indices 1 2 3 4 5 6 
#
# 1 90.8308 26.3109 35.3745 0.0000 0.0000 0.0000
# 2 26.3109 60.3486 23.3960 0.0000 0.0000 0.0000
# 3 35.3745 23.3960 50.0716 0.0000 0.0000 0.0000
# 4 0.0000 0.0000 0.0000 24.3177 0.0000 0.0000
# 5 0.0000 0.0000 0.0000 0.0000 27.2519 0.0000
# 6 0.0000 0.0000 0.0000 0.0000 0.0000 27.0940
#
#
#
# Elastic Compliance Matrix: (Units=1/GPa)
#
#
# Indices 1 2 3 4 5 6 
#
# 1 0.015649 -0.003098 -0.009608 0.000000 0.000000 0.000000
# 2 -0.003098 0.020849 -0.007553 0.000000 0.000000 0.000000
# 3 -0.009608 -0.007553 0.030289 0.000000 0.000000 0.000000
# 4 0.000000 0.000000 0.000000 0.041122 0.000000 0.000000
# 5 0.000000 0.000000 0.000000 0.000000 0.036695 0.000000
# 6 0.000000 0.000000 0.000000 0.000000 0.000000 0.036909
#
#
# Mechanical properties :
#
#
# Convention : Reuss Voigt Hill
#
# Bulk Modulus (GPa) = 38.06873 41.26820 39.66846
# Shear Modulus (GPa) = 21.66504 23.47735 22.57119
#
# Velocity S-wave (km/s) = 3.37346 3.51172 3.44329
# Velocity P-wave (km/s) = 5.93046 6.17417 6.05354
#
# Compressibility (1/GPa) = 0.02626828
#
# Stress axis : x y z
#
# Youngs Moduli (GPa) = 63.90307 47.96336 33.01568
#
# Poissons Ratio (x) = 0.14857 0.31722
# Poissons Ratio (y) = 0.19795 0.24938
# Poissons Ratio (z) = 0.61399 0.36229
#
# Static dielectric constant tensor:
#      x y z
#    x 3.746800 0.000000 0.000000 
#    y 0.000000 3.502870 0.000000 
#    z 0.000000 0.000000 3.266550 
# 
# 
# High freq. dielectric constant tensor:
#      x y z
#    x 1.746010 0.000000 0.000000 
#    y 0.000000 1.740540 0.000000 
#    z 0.000000 0.000000 1.723140 
# 
# From -- ./inp_files/6184.got.cif
#   From: 2010.03.12/outbox.cif.g09.slc.cpg/sg55_4_cif.got.tgz:6184.got - 2010.04.16 15:19:21.
