data_PCOD8226054
_publ_section_title
;
Structure prediction by ZEFSAII (Michael W. Deem and Ramdas Pophale) SiO2 
 PCOD8226054
Probable space group: P B A M
;
_chemical_formula_sum "Si O2"
_cell_formula_units_Z 56
_cell_length_a 24.101940
_cell_length_b 13.376762
_cell_length_c 8.608020
_cell_angle_alpha 90.000000
_cell_angle_beta 90.000000
_cell_angle_gamma 90.000000
_cell_volume 2775.276565
_symmetry_space_group_name_H-M "P B A M"
_symmetry_group_IT_number 55
_symmetry_cell_setting 'orthorhombic'
loop_
_space_group_symop_operation_xyz
x,y,z
-x,-y,z
1/2+x,1/2-y,-z
1/2-x,1/2+y,-z
-x,-y,-z
x,y,-z
1/2-x,1/2+y,z
1/2+x,1/2-y,z
loop_
_atom_site_type_symbol
_atom_site_label
_atom_site_fract_x
_atom_site_fract_y
_atom_site_fract_z
Si Si1 0.829775 0.969364 0.181871
Si Si2 0.953197 0.282467 0.819308
Si Si3 0.625818 0.955889 0.821285
Si Si4 0.275908 0.935228 0.680550
Si Si5 0.160617 0.257508 0.819297
Si Si6 0.945989 0.055989 0.184238
Si Si7 0.437793 0.867526 0.319552
O O1 0.818970 0.853543 0.220099
O O2 0.786041 0.034464 0.276465
O O3 0.890851 0.999641 0.241777
O O4 0.822735 0.992305 0.000000
O O5 0.896095 0.343506 0.792759
O O6 0.944233 0.170297 0.757686
O O7 0.000510 0.334273 0.719023
O O8 0.970656 0.284127 0.000000
O O9 0.681273 0.975539 0.722108
O O10 0.577270 0.033040 0.775902
O O11 0.641670 0.972738 0.000000
O O12 0.280204 0.911264 0.500000
O O13 0.291164 0.834782 0.773835
O O14 0.104675 0.279086 0.723834
O O15 0.146093 0.267789 0.000000
O O16 0.948809 0.052777 0.000000
O O17 0.000000 0.000000 0.254394
O O18 0.432910 0.893047 0.500000
#
# Coordination Sequence:
#
# PCOD8226054 Si02
#       7
#     8   8   8   8   8   8   8
#     4  10  21  38  62  87 110 144 189 234 278 329
#     4  10  20  34  55  82 111 145 184 229 280 331
#     4  10  20  35  55  80 111 147 191 236 276 327
#     4  11  23  38  57  83 117 150 183 229 284 342
#     4  10  20  37  61  83 108 146 193 238 277 326
#     4   9  18  35  59  85 110 137 178 230 278 324
#     4  11  21  33  53  81 114 150 187 227 278 337
#
# _framework density 20.178170000000001
#
# number of rings (size 3 to 8) (size 9 to 14) (size 15 to 20)
#    0.000    1.857    0.000    6.429    0.000    7.429 
#    0.000    3.571    0.000    1.714    0.000    0.000 
#    0.000    0.000    0.000    0.000    0.000    0.000 
#
# Total GULP energy -694579.289798 kJ/mol
# GULP energy per Si atom -12403.201604 kJ/mol
# Density = 2.013224 g / cm^3
# Si number density = 20.178170 Si / 1000 Ang^3
#
#
#
# Elastic Constant Matrix: (Units=GPa)
#
#
# Indices 1 2 3 4 5 6 
#
# 1 123.1890 52.7943 15.2749 0.0000 0.0000 0.0000
# 2 52.7943 106.1039 10.8491 0.0000 0.0000 0.0000
# 3 15.2749 10.8491 47.9665 0.0000 0.0000 0.0000
# 4 0.0000 0.0000 0.0000 3.4080 0.0000 0.0000
# 5 0.0000 0.0000 0.0000 0.0000 21.1706 0.0000
# 6 0.0000 0.0000 0.0000 0.0000 0.0000 24.9020
#
#
#
# Elastic Compliance Matrix: (Units=1/GPa)
#
#
# Indices 1 2 3 4 5 6 
#
# 1 0.010544 -0.005019 -0.002223 0.000000 0.000000 0.000000
# 2 -0.005019 0.012037 -0.001124 0.000000 0.000000 0.000000
# 3 -0.002223 -0.001124 0.021810 0.000000 0.000000 0.000000
# 4 0.000000 0.000000 0.000000 0.293431 0.000000 0.000000
# 5 0.000000 0.000000 0.000000 0.000000 0.047235 0.000000
# 6 0.000000 0.000000 0.000000 0.000000 0.000000 0.040157
#
#
# Mechanical properties :
#
#
# Convention : Reuss Voigt Hill
#
# Bulk Modulus (GPa) = 36.15423 48.34400 42.24911
# Shear Modulus (GPa) = 11.08238 23.11885 17.10061
#
# Velocity S-wave (km/s) = 2.34610 3.38854 2.91431
# Velocity P-wave (km/s) = 5.02944 6.27058 5.68399
#
# Compressibility (1/GPa) = 0.02765928
#
# Stress axis : x y z
#
# Youngs Moduli (GPa) = 94.83823 83.07628 45.85073
#
# Poissons Ratio (x) = 0.41698 0.10190
# Poissons Ratio (y) = 0.47602 0.05155
# Poissons Ratio (z) = 0.21078 0.09339
#
# Static dielectric constant tensor:
#      x y z
#    x 3.618670 0.000000 0.000000 
#    y 0.000000 3.767470 0.000000 
#    z 0.000000 0.000000 3.505710 
# 
# 
# High freq. dielectric constant tensor:
#      x y z
#    x 1.786480 0.000000 0.000000 
#    y 0.000000 1.791820 0.000000 
#    z 0.000000 0.000000 1.770960 
# 
# From -- ./inp_files/8782.got.cif
#   From: 2010.03.12/outbox.cif.g09.slc.cpg/sg55_5_cif.got.tgz:8782.got - 2010.04.16 15:19:21.
