data_PCOD8226026
_publ_section_title
;
Structure prediction by ZEFSAII (Michael W. Deem and Ramdas Pophale) SiO2 
 PCOD8226026
Probable space group: P B A M
;
_chemical_formula_sum "Si O2"
_cell_formula_units_Z 64
_cell_length_a 14.702852
_cell_length_b 24.591927
_cell_length_c 9.322086
_cell_angle_alpha 90.000000
_cell_angle_beta 90.000000
_cell_angle_gamma 90.000000
_cell_volume 3370.600274
_symmetry_space_group_name_H-M "P B A M"
_symmetry_group_IT_number 55
_symmetry_cell_setting 'orthorhombic'
loop_
_space_group_symop_operation_xyz
x,y,z
-x,-y,z
1/2+x,1/2-y,-z
1/2-x,1/2+y,-z
-x,-y,-z
x,y,-z
1/2-x,1/2+y,z
1/2+x,1/2-y,z
loop_
_atom_site_type_symbol
_atom_site_label
_atom_site_fract_x
_atom_site_fract_y
_atom_site_fract_z
Si Si1 0.241597 0.062902 0.333971
Si Si2 0.373854 0.267268 0.668181
Si Si3 0.998972 0.330601 0.331968
Si Si4 0.163215 0.256678 0.666394
Si Si5 0.857949 0.849646 0.837293
Si Si6 0.449110 0.052253 0.668520
Si Si7 0.439203 0.370320 0.836793
Si Si8 0.404301 0.473350 0.333319
O O1 0.229353 0.078774 0.500000
O O2 0.219170 0.116396 0.243578
O O3 0.343117 0.044664 0.297917
O O4 0.176191 0.013776 0.290463
O O5 0.392433 0.276798 0.500000
O O6 0.420176 0.210960 0.721312
O O7 0.267315 0.268560 0.704008
O O8 0.419948 0.314701 0.756488
O O9 0.985376 0.337029 0.500000
O O10 0.100101 0.308651 0.295081
O O11 0.985043 0.390650 0.262824
O O12 0.151296 0.240890 0.500000
O O13 0.126983 0.207671 0.761277
O O14 0.952993 0.881898 0.831366
O O15 0.826061 0.840004 0.000000
O O16 0.468703 0.053115 0.500000
O O17 0.500000 0.000000 0.737765
O O18 0.387636 0.419300 0.758292
O O19 0.404341 0.366425 0.000000
O O20 0.500000 0.500000 0.292674
O O21 0.400986 0.457317 0.500000
#
# Coordination Sequence:
#
# PCOD8226026 Si02
#       8
#     8   8   8   8   8   8   8   8
#     4  10  20  35  58  83 109 147 192 234 278 331
#     4  10  20  35  56  82 111 145 186 230 275 329
#     4   9  17  31  52  80 111 142 177 222 273 322
#     4  10  20  34  57  83 109 146 188 229 275 330
#     4  11  22  35  54  81 113 149 187 228 280 337
#     4   9  18  33  55  84 114 141 177 229 279 324
#     4  11  23  36  53  79 113 151 183 224 282 341
#     4  10  20  34  54  81 110 143 183 231 280 328
#
# _framework density 18.987715000000001
#
# number of rings (size 3 to 8) (size 9 to 14) (size 15 to 20)
#    0.000    2.000    2.500    1.500    0.000    5.250 
#    0.000    3.750    0.000    0.375    0.000    0.000 
#    0.000    0.000    0.000    0.000    0.000    0.000 
#
# Total GULP energy -793645.160240 kJ/mol
# GULP energy per Si atom -12400.705629 kJ/mol
# Density = 1.894450 g / cm^3
# Si number density = 18.987715 Si / 1000 Ang^3
#
#
#
# Elastic Constant Matrix: (Units=GPa)
#
#
# Indices 1 2 3 4 5 6 
#
# 1 121.0981 65.5888 26.6858 0.0000 0.0000 0.0000
# 2 65.5888 159.8836 45.8829 0.0000 0.0000 0.0000
# 3 26.6858 45.8829 57.7912 0.0000 0.0000 0.0000
# 4 0.0000 0.0000 0.0000 0.7703 0.0000 0.0000
# 5 0.0000 0.0000 0.0000 0.0000 9.1625 0.0000
# 6 0.0000 0.0000 0.0000 0.0000 0.0000 32.6500
#
#
#
# Elastic Compliance Matrix: (Units=1/GPa)
#
#
# Indices 1 2 3 4 5 6 
#
# 1 0.010775 -0.003875 -0.001899 0.000000 0.000000 0.000000
# 2 -0.003875 0.009494 -0.005748 0.000000 0.000000 0.000000
# 3 -0.001899 -0.005748 0.022744 0.000000 0.000000 0.000000
# 4 0.000000 0.000000 0.000000 1.298224 0.000000 0.000000
# 5 0.000000 0.000000 0.000000 0.000000 0.109141 0.000000
# 6 0.000000 0.000000 0.000000 0.000000 0.000000 0.030628
#
#
# Mechanical properties :
#
#
# Convention : Reuss Voigt Hill
#
# Bulk Modulus (GPa) = 50.07835 68.34308 59.21071
# Shear Modulus (GPa) = 3.30971 21.89091 12.60031
#
# Velocity S-wave (km/s) = 1.32169 3.39912 2.57884
# Velocity P-wave (km/s) = 5.36288 7.17473 6.33393
#
# Compressibility (1/GPa) = 0.01996871
#
# Stress axis : x y z
#
# Youngs Moduli (GPa) = 92.80604 105.33059 43.96747
#
# Poissons Ratio (x) = 0.40820 0.08348
# Poissons Ratio (y) = 0.35966 0.25273
# Poissons Ratio (z) = 0.17621 0.60545
#
# Static dielectric constant tensor:
#      x y z
#    x 3.541250 0.000000 0.000000 
#    y 0.000000 3.641670 0.000000 
#    z 0.000000 0.000000 3.181400 
# 
# 
# High freq. dielectric constant tensor:
#      x y z
#    x 1.741650 0.000000 0.000000 
#    y 0.000000 1.743570 0.000000 
#    z 0.000000 0.000000 1.702120 
# 
# From -- ./inp_files/6583.got.cif
#   From: 2010.03.12/outbox.cif.g09.slc.cpg/sg55_4_cif.got.tgz:6583.got - 2010.04.16 15:19:21.
