data_PCOD8226923
_publ_section_title
;
Structure prediction by ZEFSAII (Michael W. Deem and Ramdas Pophale) SiO2 
 PCOD8226923
Probable space group: P B A M
;
_chemical_formula_sum "Si O2"
_cell_formula_units_Z 64
_cell_length_a 22.895825
_cell_length_b 15.327348
_cell_length_c 9.356863
_cell_angle_alpha 90.000000
_cell_angle_beta 90.000000
_cell_angle_gamma 90.000000
_cell_volume 3283.625243
_symmetry_space_group_name_H-M "P B A M"
_symmetry_group_IT_number 55
_symmetry_cell_setting 'orthorhombic'
loop_
_space_group_symop_operation_xyz
x,y,z
-x,-y,z
1/2+x,1/2-y,-z
1/2-x,1/2+y,-z
-x,-y,-z
x,y,-z
1/2-x,1/2+y,z
1/2+x,1/2-y,z
loop_
_atom_site_type_symbol
_atom_site_label
_atom_site_fract_x
_atom_site_fract_y
_atom_site_fract_z
Si Si1 0.429510 0.757212 0.335442
Si Si2 0.320742 0.196799 0.666472
Si Si3 0.624653 0.650633 0.167967
Si Si4 0.484406 0.399428 0.660798
Si Si5 0.793805 0.996185 0.162733
Si Si6 0.162737 0.527652 0.162044
Si Si7 0.953696 0.573110 0.166093
Si Si8 0.810850 0.824463 0.333945
O O1 0.432269 0.785984 0.500000
O O2 0.461022 0.664455 0.310542
O O3 0.460672 0.834672 0.247032
O O4 0.361970 0.742397 0.286372
O O5 0.334733 0.203158 0.500000
O O6 0.361568 0.261067 0.751771
O O7 0.340385 0.102706 0.720980
O O8 0.252563 0.216990 0.699182
O O9 0.561750 0.619658 0.216840
O O10 0.672596 0.580868 0.216957
O O11 0.624937 0.667522 0.000000
O O12 0.500000 0.500000 0.679061
O O13 0.460054 0.383024 0.500000
O O14 0.725402 0.018442 0.180266
O O15 0.816651 0.915253 0.252902
O O16 0.809797 0.974162 0.000000
O O17 0.111978 0.459084 0.195411
O O18 0.155892 0.564772 0.000000
O O19 0.000000 0.500000 0.221439
O O20 0.965662 0.591451 0.000000
O O21 0.817745 0.847112 0.500000
#
# Coordination Sequence:
#
# PCOD8226923 Si02
#       8
#     8   8   8   8   8   8   8   8
#     4  10  22  39  61  89 118 152 196 242 290 346
#     4  10  21  36  57  86 116 149 188 233 288 347
#     4  11  23  36  56  85 118 152 192 238 284 343
#     4  10  22  41  63  87 118 158 197 239 295 352
#     4   9  19  35  56  84 114 150 191 231 283 344
#     4   9  19  38  59  80 113 151 189 235 288 344
#     4  10  23  40  59  84 114 153 198 243 295 348
#     4   9  19  37  59  85 116 148 187 235 288 344
#
# _framework density 19.490653999999999
#
# number of rings (size 3 to 8) (size 9 to 14) (size 15 to 20)
#    0.000    2.250    0.000    1.500    3.500    4.500 
#    0.000    0.000    0.000    0.000    0.000    0.000 
#    0.000    0.000    0.000    0.000    0.000    0.000 
#
# Total GULP energy -793601.064924 kJ/mol
# GULP energy per Si atom -12400.016639 kJ/mol
# Density = 1.944629 g / cm^3
# Si number density = 19.490654 Si / 1000 Ang^3
#
#
#
# Elastic Constant Matrix: (Units=GPa)
#
#
# Indices 1 2 3 4 5 6 
#
# 1 79.2986 40.4663 33.9967 0.0000 0.0000 0.0000
# 2 40.4663 89.5569 37.9230 0.0000 0.0000 0.0000
# 3 33.9967 37.9230 68.3288 0.0000 0.0000 0.0000
# 4 0.0000 0.0000 0.0000 28.4792 0.0000 0.0000
# 5 0.0000 0.0000 0.0000 0.0000 29.5406 0.0000
# 6 0.0000 0.0000 0.0000 0.0000 0.0000 30.3386
#
#
#
# Elastic Compliance Matrix: (Units=1/GPa)
#
#
# Indices 1 2 3 4 5 6 
#
# 1 0.017994 -0.005673 -0.005804 0.000000 0.000000 0.000000
# 2 -0.005673 0.016385 -0.006271 0.000000 0.000000 0.000000
# 3 -0.005804 -0.006271 0.021004 0.000000 0.000000 0.000000
# 4 0.000000 0.000000 0.000000 0.035113 0.000000 0.000000
# 5 0.000000 0.000000 0.000000 0.000000 0.033852 0.000000
# 6 0.000000 0.000000 0.000000 0.000000 0.000000 0.032961
#
#
# Mechanical properties :
#
#
# Convention : Reuss Voigt Hill
#
# Bulk Modulus (GPa) = 50.28748 51.32848 50.80798
# Shear Modulus (GPa) = 25.07097 25.99157 25.53127
#
# Velocity S-wave (km/s) = 3.59040 3.65573 3.62321
# Velocity P-wave (km/s) = 6.56086 6.64915 6.60515
#
# Compressibility (1/GPa) = 0.01988567
#
# Stress axis : x y z
#
# Youngs Moduli (GPa) = 55.57495 61.03198 47.61066
#
# Poissons Ratio (x) = 0.34621 0.27635
# Poissons Ratio (y) = 0.31525 0.29858
# Poissons Ratio (z) = 0.32258 0.38275
#
# Static dielectric constant tensor:
#      x y z
#    x 3.705310 0.000000 0.000000 
#    y 0.000000 3.305950 0.000000 
#    z 0.000000 0.000000 3.548820 
# 
# 
# High freq. dielectric constant tensor:
#      x y z
#    x 1.767060 0.000000 0.000000 
#    y 0.000000 1.754000 0.000000 
#    z 0.000000 0.000000 1.757760 
# 
# From -- ./inp_files/6548.got.cif
#   From: 2010.03.12/outbox.cif.g09.slc.cpg/sg55_4_cif.got.tgz:6548.got - 2010.04.16 15:19:21.
