data_PCOD8226437
_publ_section_title
;
Structure prediction by ZEFSAII (Michael W. Deem and Ramdas Pophale) SiO2 
 PCOD8226437
Probable space group: P B A M
;
_chemical_formula_sum "Si O2"
_cell_formula_units_Z 48
_cell_length_a 9.739294
_cell_length_b 27.964400
_cell_length_c 8.581067
_cell_angle_alpha 90.000000
_cell_angle_beta 90.000000
_cell_angle_gamma 90.000000
_cell_volume 2337.083744
_symmetry_space_group_name_H-M "P B A M"
_symmetry_group_IT_number 55
_symmetry_cell_setting 'orthorhombic'
loop_
_space_group_symop_operation_xyz
x,y,z
-x,-y,z
1/2+x,1/2-y,-z
1/2-x,1/2+y,-z
-x,-y,-z
x,y,-z
1/2-x,1/2+y,z
1/2+x,1/2-y,z
loop_
_atom_site_type_symbol
_atom_site_label
_atom_site_fract_x
_atom_site_fract_y
_atom_site_fract_z
Si Si1 0.159908 0.787791 0.315812
Si Si2 0.771391 0.389548 0.819399
Si Si3 0.769504 0.106441 0.676019
Si Si4 0.644533 0.292042 0.815379
Si Si5 0.545500 0.448611 0.322606
Si Si6 0.024216 0.446784 0.816939
O O1 0.168393 0.778826 0.500000
O O2 0.226484 0.838675 0.269381
O O3 0.251061 0.750144 0.223164
O O4 0.001607 0.783604 0.265518
O O5 0.715204 0.340233 0.744918
O O6 0.665066 0.432142 0.791200
O O7 0.915504 0.408145 0.746718
O O8 0.791168 0.379766 0.000000
O O9 0.714934 0.101831 0.500000
O O10 0.674967 0.073202 0.782845
O O11 0.923954 0.088914 0.690648
O O12 0.620652 0.295435 0.000000
O O13 0.500000 0.500000 0.260887
O O14 0.600169 0.452048 0.500000
O O15 0.000000 0.500000 0.744547
O O16 0.000760 0.450490 0.000000
#
# Coordination Sequence:
#
# PCOD8226437 Si02
#       6
#     8   8   8   8   8   8
#     4  11  24  43  65  92 124 160 204 255 312 373
#     4  10  22  39  59  87 120 156 200 248 300 359
#     4  10  22  39  59  88 121 155 200 249 301 362
#     4  11  24  42  64  92 123 160 206 256 311 371
#     4  10  20  36  60  88 119 156 198 247 299 355
#     4  10  22  39  59  87 124 164 205 250 300 357
#
# _framework density 20.538416999999999
#
# number of rings (size 3 to 8) (size 9 to 14) (size 15 to 20)
#    0.000    1.667    1.667    2.000    2.333    4.000 
#    0.000    0.000    0.000    0.000    0.000    0.000 
#    0.000    0.000    0.000    0.000    0.000    0.000 
#
# Total GULP energy -595208.985539 kJ/mol
# GULP energy per Si atom -12400.187199 kJ/mol
# Density = 2.049167 g / cm^3
# Si number density = 20.538417 Si / 1000 Ang^3
#
#
#
# Elastic Constant Matrix: (Units=GPa)
#
#
# Indices 1 2 3 4 5 6 
#
# 1 81.0617 21.2261 10.0490 0.0000 0.0000 0.0000
# 2 21.2261 98.5598 10.7304 0.0000 0.0000 0.0000
# 3 10.0490 10.7304 19.4635 0.0000 0.0000 0.0000
# 4 0.0000 0.0000 0.0000 25.3593 0.0000 0.0000
# 5 0.0000 0.0000 0.0000 0.0000 30.2593 0.0000
# 6 0.0000 0.0000 0.0000 0.0000 0.0000 39.1908
#
#
#
# Elastic Compliance Matrix: (Units=1/GPa)
#
#
# Indices 1 2 3 4 5 6 
#
# 1 0.013658 -0.002312 -0.005777 0.000000 0.000000 0.000000
# 2 -0.002312 0.011186 -0.004973 0.000000 0.000000 0.000000
# 3 -0.005777 -0.004973 0.057102 0.000000 0.000000 0.000000
# 4 0.000000 0.000000 0.000000 0.039433 0.000000 0.000000
# 5 0.000000 0.000000 0.000000 0.000000 0.033048 0.000000
# 6 0.000000 0.000000 0.000000 0.000000 0.000000 0.025516
#
#
# Mechanical properties :
#
#
# Convention : Reuss Voigt Hill
#
# Bulk Modulus (GPa) = 17.91411 31.45511 24.68461
# Shear Modulus (GPa) = 22.25447 29.43386 25.84416
#
# Velocity S-wave (km/s) = 3.29531 3.78975 3.55115
# Velocity P-wave (km/s) = 4.81871 5.87351 5.37206
#
# Compressibility (1/GPa) = 0.05582191
#
# Stress axis : x y z
#
# Youngs Moduli (GPa) = 73.21761 89.40109 17.51243
#
# Poissons Ratio (x) = 0.20674 0.10116
# Poissons Ratio (y) = 0.16931 0.08709
# Poissons Ratio (z) = 0.42295 0.44457
#
# Static dielectric constant tensor:
#      x y z
#    x 3.710110 0.000000 0.000000 
#    y 0.000000 4.009760 0.000000 
#    z 0.000000 0.000000 3.518460 
# 
# 
# High freq. dielectric constant tensor:
#      x y z
#    x 1.809540 0.000000 0.000000 
#    y 0.000000 1.821740 0.000000 
#    z 0.000000 0.000000 1.784710 
# 
# From -- ./inp_files/2870.got.cif
#   From: 2010.03.12/outbox.cif.g09.slc.cpg/sg55_2_cif.got.tgz:2870.got - 2010.04.16 15:19:21.
