data_PCOD8226039
_publ_section_title
;
Structure prediction by ZEFSAII (Michael W. Deem and Ramdas Pophale) SiO2 
 PCOD8226039
Probable space group: P B A M
;
_chemical_formula_sum "Si O2"
_cell_formula_units_Z 56
_cell_length_a 14.620741
_cell_length_b 20.817262
_cell_length_c 8.799488
_cell_angle_alpha 90.000000
_cell_angle_beta 90.000000
_cell_angle_gamma 90.000000
_cell_volume 2678.245571
_symmetry_space_group_name_H-M "P B A M"
_symmetry_group_IT_number 55
_symmetry_cell_setting 'orthorhombic'
loop_
_space_group_symop_operation_xyz
x,y,z
-x,-y,z
1/2+x,1/2-y,-z
1/2-x,1/2+y,-z
-x,-y,-z
x,y,-z
1/2-x,1/2+y,z
1/2+x,1/2-y,z
loop_
_atom_site_type_symbol
_atom_site_label
_atom_site_fract_x
_atom_site_fract_y
_atom_site_fract_z
Si Si1 0.519381 0.234480 0.175252
Si Si2 0.562216 0.356791 0.330036
Si Si3 0.191784 0.736577 0.179472
Si Si4 0.727043 0.028570 0.821969
Si Si5 0.242062 0.601629 0.673783
Si Si6 0.568189 0.558222 0.166277
Si Si7 0.829163 0.659279 0.679334
O O1 0.576582 0.298848 0.212112
O O2 0.414569 0.246703 0.221983
O O3 0.567941 0.179001 0.273199
O O4 0.529732 0.216164 0.000000
O O5 0.554864 0.328423 0.500000
O O6 0.647800 0.404953 0.316254
O O7 0.468130 0.392931 0.292288
O O8 0.216513 0.667689 0.246048
O O9 0.251600 0.794653 0.247984
O O10 0.207869 0.736551 0.000000
O O11 0.833565 0.034079 0.783876
O O12 0.677559 0.086309 0.736235
O O13 0.695291 0.959255 0.757077
O O14 0.704515 0.031425 0.000000
O O15 0.208314 0.603077 0.500000
O O16 0.500000 0.500000 0.152809
O O17 0.573822 0.592631 0.000000
O O18 0.817240 0.662514 0.500000
#
# Coordination Sequence:
#
# PCOD8226039 Si02
#       7
#     8   8   8   8   8   8   8
#     4  11  24  42  66  93 123 162 214 264 313 375
#     4  11  22  35  57  89 124 161 200 251 315 372
#     4  11  24  43  68  96 126 168 216 264 316 377
#     4  11  23  40  62  88 125 170 213 262 315 376
#     4  11  23  39  61  92 127 165 207 257 316 375
#     4  10  20  34  54  83 118 160 204 246 301 368
#     4  12  25  42  65  95 131 168 209 264 323 379
#
# _framework density 20.909210000000002
#
# number of rings (size 3 to 8) (size 9 to 14) (size 15 to 20)
#    0.000    1.000    2.857    4.286    0.000    8.286 
#    0.000    0.714    0.000    4.286    0.000    0.000 
#    0.000    0.000    0.000    0.000    0.000    0.000 
#
# Total GULP energy -694379.382106 kJ/mol
# GULP energy per Si atom -12399.631823 kJ/mol
# Density = 2.086162 g / cm^3
# Si number density = 20.909210 Si / 1000 Ang^3
#
#
#
# Elastic Constant Matrix: (Units=GPa)
#
#
# Indices 1 2 3 4 5 6 
#
# 1 45.0656 6.9240 33.6527 0.0000 0.0000 0.0000
# 2 6.9240 114.5242 47.3988 0.0000 0.0000 0.0000
# 3 33.6527 47.3988 128.4599 0.0000 0.0000 0.0000
# 4 0.0000 0.0000 0.0000 37.4821 0.0000 0.0000
# 5 0.0000 0.0000 0.0000 0.0000 34.2150 0.0000
# 6 0.0000 0.0000 0.0000 0.0000 0.0000 29.1610
#
#
#
# Elastic Compliance Matrix: (Units=1/GPa)
#
#
# Indices 1 2 3 4 5 6 
#
# 1 0.027825 0.001575 -0.007871 0.000000 0.000000 0.000000
# 2 0.001575 0.010395 -0.004248 0.000000 0.000000 0.000000
# 3 -0.007871 -0.004248 0.011414 0.000000 0.000000 0.000000
# 4 0.000000 0.000000 0.000000 0.026679 0.000000 0.000000
# 5 0.000000 0.000000 0.000000 0.000000 0.029227 0.000000
# 6 0.000000 0.000000 0.000000 0.000000 0.000000 0.034292
#
#
# Mechanical properties :
#
#
# Convention : Reuss Voigt Hill
#
# Bulk Modulus (GPa) = 35.03021 51.55565 43.29293
# Shear Modulus (GPa) = 29.33669 33.50991 31.42330
#
# Velocity S-wave (km/s) = 3.74980 4.00764 3.88086
# Velocity P-wave (km/s) = 5.96136 6.79156 6.38996
#
# Compressibility (1/GPa) = 0.02854679
#
# Stress axis : x y z
#
# Youngs Moduli (GPa) = 35.93863 96.20276 87.61305
#
# Poissons Ratio (x) = -0.15153 0.68957
# Poissons Ratio (y) = -0.05661 0.37219
# Poissons Ratio (z) = 0.28286 0.40867
#
# Static dielectric constant tensor:
#      x y z
#    x 3.978410 0.000000 0.000000 
#    y 0.000000 3.839170 0.000000 
#    z 0.000000 0.000000 3.895410 
# 
# 
# High freq. dielectric constant tensor:
#      x y z
#    x 1.804220 0.000000 0.000000 
#    y 0.000000 1.822020 0.000000 
#    z 0.000000 0.000000 1.828800 
# 
# From -- ./inp_files/6002.got.cif
#   From: 2010.03.12/outbox.cif.g09.slc.cpg/sg55_4_cif.got.tgz:6002.got - 2010.04.16 15:19:21.
