data_PCOD8226787
_publ_section_title
;
Structure prediction by ZEFSAII (Michael W. Deem and Ramdas Pophale) SiO2 
 PCOD8226787
Probable space group: P B A M
;
_chemical_formula_sum "Si O2"
_cell_formula_units_Z 60
_cell_length_a 12.173066
_cell_length_b 10.654403
_cell_length_c 21.540244
_cell_angle_alpha 90.000000
_cell_angle_beta 90.000000
_cell_angle_gamma 90.000000
_cell_volume 2793.699661
_symmetry_space_group_name_H-M "P B A M"
_symmetry_group_IT_number 55
_symmetry_cell_setting 'orthorhombic'
loop_
_space_group_symop_operation_xyz
x,y,z
-x,-y,z
1/2+x,1/2-y,-z
1/2-x,1/2+y,-z
-x,-y,-z
x,y,-z
1/2-x,1/2+y,z
1/2+x,1/2-y,z
loop_
_atom_site_type_symbol
_atom_site_label
_atom_site_fract_x
_atom_site_fract_y
_atom_site_fract_z
Si Si1 0.771777 0.034311 0.616496
Si Si2 0.657772 0.279126 0.430379
Si Si3 0.848575 0.974121 0.116328
Si Si4 0.392342 0.080400 0.855593
Si Si5 0.967265 0.175746 0.665052
Si Si6 0.976155 0.193632 0.069379
Si Si7 0.612604 0.928976 0.711108
Si Si8 0.000000 0.000000 0.227848
O O1 0.726803 0.151336 0.577219
O O2 0.897845 0.063065 0.634139
O O3 0.767916 0.904746 0.577371
O O4 0.706794 0.014501 0.680829
O O5 0.609045 0.279185 0.500000
O O6 0.561777 0.277902 0.380376
O O7 0.716913 0.974428 0.111922
O O8 0.891043 0.010214 0.185442
O O9 0.902532 0.840188 0.096364
O O10 0.896357 0.073056 0.067016
O O11 0.416107 0.215308 0.883034
O O12 0.364642 0.089213 0.783352
O O13 0.500000 0.000000 0.870615
O O14 0.887969 0.293440 0.678339
O O15 0.015177 0.124916 0.730178
O O16 0.986711 0.250098 0.000000
O O17 0.500000 0.000000 0.698966
#
# Coordination Sequence:
#
# PCOD8226787 Si02
#       8
#     8   8   8   8   8   8   8   4
#     4  12  24  45  70  97 133 177 223 280 342 401
#     4  12  27  45  68  98 133 177 229 279 337 411
#     4  10  22  43  68  98 134 176 229 282 339 402
#     4  11  26  42  66 105 138 174 224 286 335 402
#     4  12  23  42  67  97 130 174 224 273 341 407
#     4  10  23  45  69  96 135 183 227 274 338 403
#     4  11  23  43  66 100 135 170 218 277 342 402
#     4  10  20  40  70 100 126 178 226 280 350 408
#
# _framework density 21.476897999999998
#
# number of rings (size 3 to 8) (size 9 to 14) (size 15 to 20)
#    0.000    1.067    4.000    3.600    1.867    2.933 
#    2.400    0.667    0.000    0.000    0.000    0.000 
#    0.000    0.000    0.000    0.000    0.000    0.000 
#
# Total GULP energy -744033.951114 kJ/mol
# GULP energy per Si atom -12400.565852 kJ/mol
# Density = 2.142802 g / cm^3
# Si number density = 21.476898 Si / 1000 Ang^3
#
#
#
# Elastic Constant Matrix: (Units=GPa)
#
#
# Indices 1 2 3 4 5 6 
#
# 1 126.8696 28.7759 32.6225 0.0000 0.0000 0.0000
# 2 28.7759 104.8254 29.9389 0.0000 0.0000 0.0000
# 3 32.6225 29.9389 108.4568 0.0000 0.0000 0.0000
# 4 0.0000 0.0000 0.0000 23.6960 0.0000 0.0000
# 5 0.0000 0.0000 0.0000 0.0000 13.1686 0.0000
# 6 0.0000 0.0000 0.0000 0.0000 0.0000 31.8716
#
#
#
# Elastic Compliance Matrix: (Units=1/GPa)
#
#
# Indices 1 2 3 4 5 6 
#
# 1 0.008849 -0.001812 -0.002161 0.000000 0.000000 0.000000
# 2 -0.001812 0.010727 -0.002416 0.000000 0.000000 0.000000
# 3 -0.002161 -0.002416 0.010537 0.000000 0.000000 0.000000
# 4 0.000000 0.000000 0.000000 0.042201 0.000000 0.000000
# 5 0.000000 0.000000 0.000000 0.000000 0.075938 0.000000
# 6 0.000000 0.000000 0.000000 0.000000 0.000000 0.031376
#
#
# Mechanical properties :
#
#
# Convention : Reuss Voigt Hill
#
# Bulk Modulus (GPa) = 57.68875 58.09181 57.89028
# Shear Modulus (GPa) = 25.22889 30.33489 27.78189
#
# Velocity S-wave (km/s) = 3.43111 3.76233 3.60053
# Velocity P-wave (km/s) = 6.52808 6.78091 6.65569
#
# Compressibility (1/GPa) = 0.01733440
#
# Stress axis : x y z
#
# Youngs Moduli (GPa) = 113.00915 93.22175 94.90018
#
# Poissons Ratio (x) = 0.16890 0.20513
# Poissons Ratio (y) = 0.20475 0.22930
# Poissons Ratio (z) = 0.24427 0.22524
#
# Static dielectric constant tensor:
#      x y z
#    x 3.721950 0.000000 0.000000 
#    y 0.000000 4.014000 0.000000 
#    z 0.000000 0.000000 3.769810 
# 
# 
# High freq. dielectric constant tensor:
#      x y z
#    x 1.835360 0.000000 0.000000 
#    y 0.000000 1.849570 0.000000 
#    z 0.000000 0.000000 1.843230 
# 
# From -- ./inp_files/22872.got.cif
#   From: 2010.03.12/outbox.cif.g09.slc.cpg/sg55_12_cif.got.tgz:22872.got - 2010.04.16 15:19:21.
