data_PCOD8226760
_publ_section_title
;
Structure prediction by ZEFSAII (Michael W. Deem and Ramdas Pophale) SiO2 
 PCOD8226760
Probable space group: P B A M
;
_chemical_formula_sum "Si O2"
_cell_formula_units_Z 48
_cell_length_a 14.391342
_cell_length_b 10.804786
_cell_length_c 14.115541
_cell_angle_alpha 90.000000
_cell_angle_beta 90.000000
_cell_angle_gamma 90.000000
_cell_volume 2194.901278
_symmetry_space_group_name_H-M "P B A M"
_symmetry_group_IT_number 55
_symmetry_cell_setting 'orthorhombic'
loop_
_space_group_symop_operation_xyz
x,y,z
-x,-y,z
1/2+x,1/2-y,-z
1/2-x,1/2+y,-z
-x,-y,-z
x,y,-z
1/2-x,1/2+y,z
1/2+x,1/2-y,z
loop_
_atom_site_type_symbol
_atom_site_label
_atom_site_fract_x
_atom_site_fract_y
_atom_site_fract_z
Si Si1 0.067768 0.385302 0.718272
Si Si2 0.313689 0.531610 0.894030
Si Si3 0.218518 0.518999 0.605810
Si Si4 0.081901 0.746126 0.605204
Si Si5 0.104199 0.981475 0.705502
Si Si6 0.670684 0.189481 0.893341
O O1 0.166156 0.418262 0.670480
O O2 0.086349 0.317629 0.818685
O O3 0.000000 0.500000 0.737675
O O4 0.017749 0.289319 0.648729
O O5 0.394801 0.504138 0.818288
O O6 0.278555 0.675231 0.882435
O O7 0.234347 0.430507 0.873316
O O8 0.353567 0.511562 0.000000
O O9 0.237720 0.465849 0.500000
O O10 0.150532 0.632984 0.598039
O O11 0.315387 0.563248 0.654823
O O12 0.063898 0.800118 0.500000
O O13 0.132157 0.842941 0.674616
O O14 0.000000 0.000000 0.665862
O O15 0.630352 0.179685 0.000000
#
# Coordination Sequence:
#
# PCOD8226760 Si02
#       6
#     8   8   8   8   8   8
#     4  10  20  39  66  95 129 172 220 267 319 389
#     4  10  23  42  66  93 129 170 215 269 328 391
#     4  10  22  41  63  88 125 173 220 265 321 384
#     4  10  23  41  63  93 128 170 219 268 320 382
#     4  12  25  39  62  93 128 164 214 266 325 384
#     4  10  21  40  66  98 130 168 217 270 328 390
#
# _framework density 21.868865
#
# number of rings (size 3 to 8) (size 9 to 14) (size 15 to 20)
#    0.000    1.667    1.667    2.000    2.333    5.333 
#    0.000    2.500    0.000    0.000    0.000    0.000 
#    0.000    0.000    0.000    0.000    0.000    0.000 
#
# Total GULP energy -594871.883410 kJ/mol
# GULP energy per Si atom -12393.164238 kJ/mol
# Density = 2.181909 g / cm^3
# Si number density = 21.868865 Si / 1000 Ang^3
#
#
#
# Elastic Constant Matrix: (Units=GPa)
#
#
# Indices 1 2 3 4 5 6 
#
# 1 118.3611 12.0905 64.6858 0.0000 0.0000 0.0000
# 2 12.0905 91.5915 47.8129 0.0000 0.0000 0.0000
# 3 64.6858 47.8129 167.7687 0.0000 0.0000 0.0000
# 4 0.0000 0.0000 0.0000 31.5083 0.0000 0.0000
# 5 0.0000 0.0000 0.0000 0.0000 23.2502 0.0000
# 6 0.0000 0.0000 0.0000 0.0000 0.0000 16.9006
#
#
#
# Elastic Compliance Matrix: (Units=1/GPa)
#
#
# Indices 1 2 3 4 5 6 
#
# 1 0.010764 0.000876 -0.004400 0.000000 0.000000 0.000000
# 2 0.000876 0.012898 -0.004013 0.000000 0.000000 0.000000
# 3 -0.004400 -0.004013 0.008801 0.000000 0.000000 0.000000
# 4 0.000000 0.000000 0.000000 0.031738 0.000000 0.000000
# 5 0.000000 0.000000 0.000000 0.000000 0.043010 0.000000
# 6 0.000000 0.000000 0.000000 0.000000 0.000000 0.059169
#
#
# Mechanical properties :
#
#
# Convention : Reuss Voigt Hill
#
# Bulk Modulus (GPa) = 57.51250 69.65551 63.58400
# Shear Modulus (GPa) = 26.70227 31.20730 28.95478
#
# Velocity S-wave (km/s) = 3.49810 3.78169 3.64265
# Velocity P-wave (km/s) = 6.53234 7.14065 6.84326
#
# Compressibility (1/GPa) = 0.01738753
#
# Stress axis : x y z
#
# Youngs Moduli (GPa) = 92.90423 77.53429 113.62627
#
# Poissons Ratio (x) = -0.06791 0.49993
# Poissons Ratio (y) = -0.08138 0.45603
# Poissons Ratio (z) = 0.40876 0.31118
#
# Static dielectric constant tensor:
#      x y z
#    x 3.722240 0.000000 0.000000 
#    y 0.000000 4.060980 0.000000 
#    z 0.000000 0.000000 4.328280 
# 
# 
# High freq. dielectric constant tensor:
#      x y z
#    x 1.836350 0.000000 0.000000 
#    y 0.000000 1.861870 0.000000 
#    z 0.000000 0.000000 1.879830 
# 
# From -- ./inp_files/18872.got.cif
#   From: 2010.03.12/outbox.cif.g09.slc.cpg/sg55_10_cif.got.tgz:18872.got - 2010.04.16 15:19:21.
