data_PCOD8226098
_publ_section_title
;
Structure prediction by ZEFSAII (Michael W. Deem and Ramdas Pophale) SiO2 
 PCOD8226098
Probable space group: P B A M
;
_chemical_formula_sum "Si O2"
_cell_formula_units_Z 64
_cell_length_a 16.935694
_cell_length_b 9.514730
_cell_length_c 20.509413
_cell_angle_alpha 90.000000
_cell_angle_beta 90.000000
_cell_angle_gamma 90.000000
_cell_volume 3304.857191
_symmetry_space_group_name_H-M "P B A M"
_symmetry_group_IT_number 55
_symmetry_cell_setting 'orthorhombic'
loop_
_space_group_symop_operation_xyz
x,y,z
-x,-y,z
1/2+x,1/2-y,-z
1/2-x,1/2+y,-z
-x,-y,-z
x,y,-z
1/2-x,1/2+y,z
1/2+x,1/2-y,z
loop_
_atom_site_type_symbol
_atom_site_label
_atom_site_fract_x
_atom_site_fract_y
_atom_site_fract_z
Si Si1 0.691314 0.054979 0.425104
Si Si2 0.841871 0.155206 0.788463
Si Si3 0.842690 0.137796 0.069610
Si Si4 0.681983 0.980843 0.790525
Si Si5 0.069632 0.394335 0.683000
Si Si6 0.537118 0.643306 0.676511
Si Si7 0.160319 0.763619 0.574612
Si Si8 0.198246 0.552854 0.931061
O O1 0.670479 0.091296 0.500000
O O2 0.624386 0.122772 0.380260
O O3 0.775318 0.120410 0.405264
O O4 0.698091 0.888949 0.412739
O O5 0.885854 0.137157 0.859732
O O6 0.813015 0.314734 0.774512
O O7 0.906051 0.108291 0.736464
O O8 0.767022 0.052301 0.780473
O O9 0.786648 0.003969 0.068603
O O10 0.790611 0.279463 0.071057
O O11 0.892747 0.135780 0.000000
O O12 0.617254 0.052300 0.745461
O O13 0.653304 0.001501 0.866114
O O14 0.000000 0.500000 0.665090
O O15 0.033224 0.243805 0.700636
O O16 0.500000 0.500000 0.649754
O O17 0.582971 0.718849 0.617912
O O18 0.134006 0.781060 0.500000
O O19 0.155345 0.509142 0.000000
#
# Coordination Sequence:
#
# PCOD8226098 Si02
#       8
#     8   8   8   8   8   8   8   8
#     4  10  22  40  65  89 114 146 183 225 273 329
#     4  10  20  36  56  83 110 145 188 229 277 332
#     4   8  14  26  48  76 105 135 174 226 275 320
#     4  10  20  34  58  81 110 147 186 230 277 332
#     4  12  23  40  57  80 113 151 185 224 274 325
#     4  12  27  40  56  82 115 151 188 233 275 326
#     4  10  22  42  64  89 115 144 183 226 273 329
#     4   8  14  26  46  76 106 134 175 226 274 321
#
# _framework density 19.365435999999999
#
# number of rings (size 3 to 8) (size 9 to 14) (size 15 to 20)
#    0.000    2.000    2.500    0.750    3.500    1.000 
#    0.000    0.000    0.000    1.500    0.000    0.000 
#    0.000    0.000    0.000    0.000    0.000    0.000 
#
# Total GULP energy -792977.595399 kJ/mol
# GULP energy per Si atom -12390.274928 kJ/mol
# Density = 1.932136 g / cm^3
# Si number density = 19.365436 Si / 1000 Ang^3
#
#
#
# Elastic Constant Matrix: (Units=GPa)
#
#
# Indices 1 2 3 4 5 6 
#
# 1 56.8410 23.6959 42.0066 0.0000 0.0000 0.0000
# 2 23.6959 74.2641 11.9856 0.0000 0.0000 0.0000
# 3 42.0066 11.9856 107.6874 0.0000 0.0000 0.0000
# 4 0.0000 0.0000 0.0000 22.9340 0.0000 0.0000
# 5 0.0000 0.0000 0.0000 0.0000 0.1984 0.0000
# 6 0.0000 0.0000 0.0000 0.0000 0.0000 23.1416
#
#
#
# Elastic Compliance Matrix: (Units=1/GPa)
#
#
# Indices 1 2 3 4 5 6 
#
# 1 0.028173 -0.007348 -0.010172 0.000000 0.000000 0.000000
# 2 -0.007348 0.015628 0.001127 0.000000 0.000000 0.000000
# 3 -0.010172 0.001127 0.013129 0.000000 0.000000 0.000000
# 4 0.000000 0.000000 0.000000 0.043603 0.000000 0.000000
# 5 0.000000 0.000000 0.000000 0.000000 5.039907 0.000000
# 6 0.000000 0.000000 0.000000 0.000000 0.000000 0.043212
#
#
# Mechanical properties :
#
#
# Convention : Reuss Voigt Hill
#
# Bulk Modulus (GPa) = 41.41800 43.79653 42.60726
# Shear Modulus (GPa) = 0.95703 19.99509 10.47606
#
# Velocity S-wave (km/s) = 0.70375 3.21676 2.32839
# Velocity P-wave (km/s) = 4.70047 6.03835 5.41092
#
# Compressibility (1/GPa) = 0.02414409
#
# Stress axis : x y z
#
# Youngs Moduli (GPa) = 35.49442 63.98726 76.16940
#
# Poissons Ratio (x) = 0.47017 0.77480
# Poissons Ratio (y) = 0.26081 -0.08583
# Poissons Ratio (z) = 0.36105 -0.07210
#
# Static dielectric constant tensor:
#      x y z
#    x 3.161120 0.000000 0.000000 
#    y 0.000000 3.690810 0.000000 
#    z 0.000000 0.000000 4.104830 
# 
# 
# High freq. dielectric constant tensor:
#      x y z
#    x 1.702810 0.000000 0.000000 
#    y 0.000000 1.764170 0.000000 
#    z 0.000000 0.000000 1.783410 
# 
# From -- ./inp_files/23074.got.cif
#   From: 2010.03.12/outbox.cif.g09.slc.cpg/sg55_12_cif.got.tgz:23074.got - 2010.04.16 15:19:21.
