data_PCOD8226197
_publ_section_title
;
Structure prediction by ZEFSAII (Michael W. Deem and Ramdas Pophale) SiO2 
 PCOD8226197
Probable space group: P B A M
;
_chemical_formula_sum "Si O2"
_cell_formula_units_Z 56
_cell_length_a 15.941586
_cell_length_b 20.169976
_cell_length_c 9.341626
_cell_angle_alpha 90.000000
_cell_angle_beta 90.000000
_cell_angle_gamma 90.000000
_cell_volume 3003.719568
_symmetry_space_group_name_H-M "P B A M"
_symmetry_group_IT_number 55
_symmetry_cell_setting 'orthorhombic'
loop_
_space_group_symop_operation_xyz
x,y,z
-x,-y,z
1/2+x,1/2-y,-z
1/2-x,1/2+y,-z
-x,-y,-z
x,y,-z
1/2-x,1/2+y,z
1/2+x,1/2-y,z
loop_
_atom_site_type_symbol
_atom_site_label
_atom_site_fract_x
_atom_site_fract_y
_atom_site_fract_z
Si Si1 0.813294 0.208535 0.668048
Si Si2 0.073735 0.048419 0.331173
Si Si3 0.838600 0.338257 0.832208
Si Si4 0.494069 0.689267 0.333890
Si Si5 0.527075 0.184380 0.164278
Si Si6 0.193794 0.387818 0.835957
Si Si7 0.758525 0.969252 0.834529
O O1 0.796331 0.216692 0.500000
O O2 0.795678 0.278728 0.744393
O O3 0.752556 0.153140 0.730512
O O4 0.907439 0.184608 0.701072
O O5 0.087380 0.043912 0.500000
O O6 0.050180 0.122297 0.281370
O O7 0.157625 0.024608 0.256041
O O8 0.000000 0.000000 0.280977
O O9 0.795266 0.406247 0.783656
O O10 0.936690 0.344715 0.791064
O O11 0.826281 0.324163 0.000000
O O12 0.478767 0.701475 0.500000
O O13 0.450476 0.749736 0.252222
O O14 0.596815 0.129013 0.196016
O O15 0.526620 0.206061 0.000000
O O16 0.203160 0.465664 0.805711
O O17 0.217666 0.370437 0.000000
O O18 0.783360 0.962599 0.000000
#
# Coordination Sequence:
#
# PCOD8226197 Si02
#       7
#     8   8   8   8   8   8   8
#     4  10  20  35  57  81 108 144 182 224 274 325
#     4  10  21  37  56  78 110 147 183 224 273 329
#     4   9  19  37  57  80 110 143 181 227 276 326
#     4   9  19  35  54  78 106 138 180 225 269 323
#     4   9  19  35  56  79 105 141 181 223 271 321
#     4  10  21  36  54  80 111 143 182 225 271 326
#     4  10  22  37  55  81 112 145 182 226 275 327
#
# _framework density 18.643552
#
# number of rings (size 3 to 8) (size 9 to 14) (size 15 to 20)
#    0.000    2.429    0.000    1.286    2.000    4.857 
#    0.000    2.857    0.000    0.000    0.000    6.000 
#    0.000    0.000    0.000    0.000    0.000    0.000 
#
# Total GULP energy -694597.821772 kJ/mol
# GULP energy per Si atom -12403.532532 kJ/mol
# Density = 1.860112 g / cm^3
# Si number density = 18.643552 Si / 1000 Ang^3
#
#
#
# Elastic Constant Matrix: (Units=GPa)
#
#
# Indices 1 2 3 4 5 6 
#
# 1 65.7018 39.6942 26.4255 0.0000 0.0000 0.0000
# 2 39.6942 116.3921 38.1460 0.0000 0.0000 0.0000
# 3 26.4255 38.1460 48.3657 0.0000 0.0000 0.0000
# 4 0.0000 0.0000 0.0000 22.1482 0.0000 0.0000
# 5 0.0000 0.0000 0.0000 0.0000 26.4631 0.0000
# 6 0.0000 0.0000 0.0000 0.0000 0.0000 36.8050
#
#
#
# Elastic Compliance Matrix: (Units=1/GPa)
#
#
# Indices 1 2 3 4 5 6 
#
# 1 0.021211 -0.004633 -0.007935 0.000000 0.000000 0.000000
# 2 -0.004633 0.012599 -0.007405 0.000000 0.000000 0.000000
# 3 -0.007935 -0.007405 0.030851 0.000000 0.000000 0.000000
# 4 0.000000 0.000000 0.000000 0.045150 0.000000 0.000000
# 5 0.000000 0.000000 0.000000 0.000000 0.037788 0.000000
# 6 0.000000 0.000000 0.000000 0.000000 0.000000 0.027170
#
#
# Mechanical properties :
#
#
# Convention : Reuss Voigt Hill
#
# Bulk Modulus (GPa) = 40.46142 48.77676 44.61909
# Shear Modulus (GPa) = 22.42611 25.49620 23.96115
#
# Velocity S-wave (km/s) = 3.47203 3.70207 3.58889
# Velocity P-wave (km/s) = 6.15005 6.67033 6.41547
#
# Compressibility (1/GPa) = 0.02471490
#
# Stress axis : x y z
#
# Youngs Moduli (GPa) = 47.14574 79.37338 32.41336
#
# Poissons Ratio (x) = 0.36775 0.25719
# Poissons Ratio (y) = 0.21844 0.24002
# Poissons Ratio (z) = 0.37409 0.58777
#
# Static dielectric constant tensor:
#      x y z
#    x 3.442780 0.000000 0.000000 
#    y 0.000000 3.539900 0.000000 
#    z 0.000000 0.000000 3.373320 
# 
# 
# High freq. dielectric constant tensor:
#      x y z
#    x 1.725570 0.000000 0.000000 
#    y 0.000000 1.729680 0.000000 
#    z 0.000000 0.000000 1.717790 
# 
# From -- ./inp_files/5976.got.cif
#   From: 2010.03.12/outbox.cif.g09.slc.cpg/sg55_3_cif.got.tgz:5976.got - 2010.04.16 15:19:21.
