data_PCOD8226422
_publ_section_title
;
Structure prediction by ZEFSAII (Michael W. Deem and Ramdas Pophale) SiO2 
 PCOD8226422
Probable space group: P B A M
;
_chemical_formula_sum "Si O2"
_cell_formula_units_Z 48
_cell_length_a 28.527899
_cell_length_b 7.114677
_cell_length_c 10.323222
_cell_angle_alpha 90.000000
_cell_angle_beta 90.000000
_cell_angle_gamma 90.000000
_cell_volume 2095.271200
_symmetry_space_group_name_H-M "P B A M"
_symmetry_group_IT_number 55
_symmetry_cell_setting 'orthorhombic'
loop_
_space_group_symop_operation_xyz
x,y,z
-x,-y,z
1/2+x,1/2-y,-z
1/2-x,1/2+y,-z
-x,-y,-z
x,y,-z
1/2-x,1/2+y,z
1/2+x,1/2-y,z
loop_
_atom_site_type_symbol
_atom_site_label
_atom_site_fract_x
_atom_site_fract_y
_atom_site_fract_z
Si Si1 0.636604 0.035707 0.356403
Si Si2 0.688536 0.525352 0.857844
Si Si3 0.103945 0.073872 0.286425
Si Si4 0.479318 0.704911 0.859431
Si Si5 0.708617 0.095121 0.144899
Si Si6 0.049639 0.719688 0.644072
O O1 0.653269 0.968640 0.500000
O O2 0.626787 0.259946 0.371123
O O3 0.676403 0.984637 0.248938
O O4 0.589894 0.925917 0.315300
O O5 0.644265 0.569103 0.766605
O O6 0.737826 0.602171 0.802194
O O7 0.689032 0.301515 0.867165
O O8 0.679862 0.612738 0.000000
O O9 0.075677 0.184669 0.173898
O O10 0.068355 0.935823 0.361180
O O11 0.500000 0.500000 0.872920
O O12 0.507857 0.813783 0.746806
O O13 0.483774 0.807414 0.000000
O O14 0.707913 0.999025 0.000000
O O15 0.030355 0.675172 0.500000
#
# Coordination Sequence:
#
# PCOD8226422 Si02
#       6
#     8   8   8   8   8   8
#     4  10  22  39  56  81 114 146 186 231 275 328
#     4   9  18  33  55  82 110 142 182 227 279 331
#     4  10  20  36  60  81 112 148 185 227 280 329
#     4   9  19  36  58  87 116 145 185 232 278 327
#     4   9  19  35  55  81 110 142 184 229 276 331
#     4  10  22  38  58  83 112 150 189 226 274 332
#
# _framework density 22.908729000000001
#
# number of rings (size 3 to 8) (size 9 to 14) (size 15 to 20)
#    0.000    2.500    0.000    1.000    2.333    6.333 
#    0.000    6.667    0.000    0.000    0.000    0.000 
#    0.000    0.000    0.000    0.000    0.000    0.000 
#
# Total GULP energy -594843.850876 kJ/mol
# GULP energy per Si atom -12392.580227 kJ/mol
# Density = 2.285659 g / cm^3
# Si number density = 22.908729 Si / 1000 Ang^3
#
#
#
# Elastic Constant Matrix: (Units=GPa)
#
#
# Indices 1 2 3 4 5 6 
#
# 1 111.1459 -10.7474 52.2037 0.0000 0.0000 0.0000
# 2 -10.7474 30.7892 -10.1909 0.0000 0.0000 0.0000
# 3 52.2037 -10.1909 123.3850 0.0000 0.0000 0.0000
# 4 0.0000 0.0000 0.0000 -5.4282 0.0000 0.0000
# 5 0.0000 0.0000 0.0000 0.0000 14.2230 0.0000
# 6 0.0000 0.0000 0.0000 0.0000 0.0000 30.2863
#
#
#
# Elastic Compliance Matrix: (Units=1/GPa)
#
#
# Indices 1 2 3 4 5 6 
#
# 1 0.011406 0.002451 -0.004623 0.000000 0.000000 0.000000
# 2 0.002451 0.033918 0.001764 0.000000 0.000000 0.000000
# 3 -0.004623 0.001764 0.010207 0.000000 0.000000 0.000000
# 4 0.000000 0.000000 0.000000 -0.184224 0.000000 0.000000
# 5 0.000000 0.000000 0.000000 0.000000 0.070309 0.000000
# 6 0.000000 0.000000 0.000000 0.000000 0.000000 0.033018
#
#
# Mechanical properties :
#
#
# Convention : Reuss Voigt Hill
#
# Bulk Modulus (GPa) = 18.27647 36.42789 27.35218
# Shear Modulus (GPa) = -792.02782 23.41988 -384.30397
#
# Velocity S-wave (km/s) = -18.61404 3.20083 -12.96605
# Velocity P-wave (km/s) = 21.30684 5.44024 14.56683
#
# Compressibility (1/GPa) = 0.05471516
#
# Stress axis : x y z
#
# Youngs Moduli (GPa) = 87.67569 29.48246 97.97660
#
# Poissons Ratio (x) = -0.07226 0.45297
# Poissons Ratio (y) = -0.21490 -0.17287
# Poissons Ratio (z) = 0.40535 -0.05202
#
# Static dielectric constant tensor:
#      x y z
#    x 4.186440 0.000000 0.000000 
#    y 0.000000 3.808600 0.000000 
#    z 0.000000 0.000000 4.278810 
# 
# 
# High freq. dielectric constant tensor:
#      x y z
#    x 1.901550 0.000000 0.000000 
#    y 0.000000 1.894890 0.000000 
#    z 0.000000 0.000000 1.891050 
# 
# From -- ./inp_files/15606.got.cif
#   From: 2010.03.12/outbox.cif.g09.slc.cpg/sg55_8_cif.got.tgz:15606.got - 2010.04.16 15:19:21.
