data_PCOD8226655
_publ_section_title
;
Structure prediction by ZEFSAII (Michael W. Deem and Ramdas Pophale) SiO2 
 PCOD8226655
Probable space group: P B A M
;
_chemical_formula_sum "Si O2"
_cell_formula_units_Z 64
_cell_length_a 17.633425
_cell_length_b 13.877455
_cell_length_c 13.684257
_cell_angle_alpha 90.000000
_cell_angle_beta 90.000000
_cell_angle_gamma 90.000000
_cell_volume 3348.634325
_symmetry_space_group_name_H-M "P B A M"
_symmetry_group_IT_number 55
_symmetry_cell_setting 'orthorhombic'
loop_
_space_group_symop_operation_xyz
x,y,z
-x,-y,z
1/2+x,1/2-y,-z
1/2-x,1/2+y,-z
-x,-y,-z
x,y,-z
1/2-x,1/2+y,z
1/2+x,1/2-y,z
loop_
_atom_site_type_symbol
_atom_site_label
_atom_site_fract_x
_atom_site_fract_y
_atom_site_fract_z
Si Si1 0.670199 0.534181 0.609626
Si Si2 0.347903 0.119260 0.249851
Si Si3 0.919612 0.048022 0.887359
Si Si4 0.675420 0.396987 0.780243
Si Si5 0.657218 0.061489 0.385777
Si Si6 0.516788 0.889956 0.893097
Si Si7 0.923898 0.720808 0.261378
Si Si8 0.581174 0.689260 0.287360
O O1 0.661691 0.497799 0.500000
O O2 0.657033 0.439765 0.673841
O O3 0.753172 0.579974 0.628924
O O4 0.605111 0.611653 0.632063
O O5 0.264729 0.112484 0.204836
O O6 0.402495 0.119364 0.157439
O O7 0.361464 0.221502 0.302594
O O8 0.367100 0.034605 0.326998
O O9 0.910506 0.143583 0.821446
O O10 0.855367 0.968918 0.863457
O O11 0.912355 0.079307 0.000000
O O12 0.000000 0.000000 0.863652
O O13 0.637664 0.292547 0.784477
O O14 0.636691 0.047628 0.500000
O O15 0.612453 0.153572 0.344629
O O16 0.450632 0.842795 0.829524
O O17 0.500000 0.000000 0.907138
O O18 0.519276 0.839799 0.000000
O O19 0.994783 0.778690 0.307422
#
# Coordination Sequence:
#
# PCOD8226655 Si02
#       8
#     8   8   8   8   8   8   8   8
#     4   9  20  38  58  82 117 157 196 240 293 345
#     4  10  21  39  60  85 117 154 197 240 288 346
#     4  10  20  38  60  84 114 153 193 234 288 348
#     4  10  21  37  61  86 118 151 196 243 290 339
#     4  10  21  38  59  84 117 157 196 240 293 348
#     4  10  21  39  60  81 113 153 190 231 287 346
#     4  11  21  36  59  89 119 150 193 242 293 346
#     4  10  21  35  58  86 114 154 190 241 294 347
#
# _framework density 19.112268
#
# number of rings (size 3 to 8) (size 9 to 14) (size 15 to 20)
#    0.000    2.000    2.500    0.750    0.000    4.500 
#    0.000    7.500    0.000    0.000    0.000    0.000 
#    0.000    0.000    0.000    0.000    0.000    0.000 
#
# Total GULP energy -793628.960065 kJ/mol
# GULP energy per Si atom -12400.452501 kJ/mol
# Density = 1.906877 g / cm^3
# Si number density = 19.112268 Si / 1000 Ang^3
#
#
#
# Elastic Constant Matrix: (Units=GPa)
#
#
# Indices 1 2 3 4 5 6 
#
# 1 77.1405 35.9975 30.1011 0.0000 0.0000 0.0000
# 2 35.9975 93.5433 30.6311 0.0000 0.0000 0.0000
# 3 30.1011 30.6311 102.2711 0.0000 0.0000 0.0000
# 4 0.0000 0.0000 0.0000 11.6240 0.0000 0.0000
# 5 0.0000 0.0000 0.0000 0.0000 21.3693 0.0000
# 6 0.0000 0.0000 0.0000 0.0000 0.0000 38.1862
#
#
#
# Elastic Compliance Matrix: (Units=1/GPa)
#
#
# Indices 1 2 3 4 5 6 
#
# 1 0.016764 -0.005361 -0.003328 0.000000 0.000000 0.000000
# 2 -0.005361 0.013567 -0.002486 0.000000 0.000000 0.000000
# 3 -0.003328 -0.002486 0.011502 0.000000 0.000000 0.000000
# 4 0.000000 0.000000 0.000000 0.086029 0.000000 0.000000
# 5 0.000000 0.000000 0.000000 0.000000 0.046796 0.000000
# 6 0.000000 0.000000 0.000000 0.000000 0.000000 0.026187
#
#
# Mechanical properties :
#
#
# Convention : Reuss Voigt Hill
#
# Bulk Modulus (GPa) = 51.32703 51.82383 51.57543
# Shear Modulus (GPa) = 21.76845 25.98426 23.87636
#
# Velocity S-wave (km/s) = 3.37854 3.69122 3.53833
# Velocity P-wave (km/s) = 6.49101 6.73358 6.61341
#
# Compressibility (1/GPa) = 0.01948291
#
# Stress axis : x y z
#
# Youngs Moduli (GPa) = 59.65192 73.70686 86.94148
#
# Poissons Ratio (x) = 0.39516 0.28937
# Poissons Ratio (y) = 0.31981 0.21610
# Poissons Ratio (z) = 0.19854 0.18320
#
# Static dielectric constant tensor:
#      x y z
#    x 3.528410 0.000000 0.000000 
#    y 0.000000 3.186730 0.000000 
#    z 0.000000 0.000000 3.468550 
# 
# 
# High freq. dielectric constant tensor:
#      x y z
#    x 1.747480 0.000000 0.000000 
#    y 0.000000 1.752280 0.000000 
#    z 0.000000 0.000000 1.734250 
# 
# From -- ./inp_files/19490.got.cif
#   From: 2010.03.12/outbox.cif.g09.slc.cpg/sg55_10_cif.got.tgz:19490.got - 2010.04.16 15:19:21.
