data_PCOD8226964
_publ_section_title
;
Structure prediction by ZEFSAII (Michael W. Deem and Ramdas Pophale) SiO2 
 PCOD8226964
Probable space group: P B A M
;
_chemical_formula_sum "Si O2"
_cell_formula_units_Z 64
_cell_length_a 32.989516
_cell_length_b 11.569147
_cell_length_c 9.024694
_cell_angle_alpha 90.000000
_cell_angle_beta 90.000000
_cell_angle_gamma 90.000000
_cell_volume 3444.369766
_symmetry_space_group_name_H-M "P B A M"
_symmetry_group_IT_number 55
_symmetry_cell_setting 'orthorhombic'
loop_
_space_group_symop_operation_xyz
x,y,z
-x,-y,z
1/2+x,1/2-y,-z
1/2-x,1/2+y,-z
-x,-y,-z
x,y,-z
1/2-x,1/2+y,z
1/2+x,1/2-y,z
loop_
_atom_site_type_symbol
_atom_site_label
_atom_site_fract_x
_atom_site_fract_y
_atom_site_fract_z
Si Si1 0.942430 0.908790 0.674958
Si Si2 0.529987 0.657804 0.674463
Si Si3 0.905490 0.332684 0.671859
Si Si4 0.300618 0.552948 0.326596
Si Si5 0.633963 0.294684 0.175728
Si Si6 0.136054 0.468882 0.173025
Si Si7 0.717815 0.902632 0.173949
Si Si8 0.676813 0.704434 0.669664
O O1 0.932488 0.905196 0.500000
O O2 0.905399 0.859477 0.766442
O O3 0.982409 0.832561 0.713013
O O4 0.950705 0.038369 0.733646
O O5 0.535952 0.652585 0.500000
O O6 0.554358 0.768932 0.736876
O O7 0.910412 0.360887 0.500000
O O8 0.899089 0.454710 0.752099
O O9 0.868542 0.245734 0.702986
O O10 0.298901 0.580812 0.500000
O O11 0.325638 0.652407 0.245412
O O12 0.255749 0.547243 0.261476
O O13 0.321946 0.430819 0.294180
O O14 0.631704 0.161999 0.227920
O O15 0.636821 0.305497 0.000000
O O16 0.180293 0.515448 0.218184
O O17 0.129294 0.479886 0.000000
O O18 0.708384 0.771951 0.225661
O O19 0.726898 0.902794 0.000000
O O20 0.689226 0.729009 0.500000
#
# Coordination Sequence:
#
# PCOD8226964 Si02
#       8
#     8   8   8   8   8   8   8   8
#     4   9  17  33  56  82 112 146 179 219 272 325
#     4   8  15  30  56  85 112 140 176 224 275 322
#     4   9  16  31  56  81 103 134 179 225 267 313
#     4  11  23  37  56  81 106 136 177 223 272 325
#     4  11  23  38  54  77 110 146 182 221 270 325
#     4   9  21  39  54  72 105 146 181 218 267 322
#     4  10  21  37  56  77 104 139 179 220 268 322
#     4   9  19  35  54  79 107 133 170 222 268 315
#
# _framework density 18.581047999999999
#
# number of rings (size 3 to 8) (size 9 to 14) (size 15 to 20)
#    0.000    2.500    0.000    2.625    1.750    4.500 
#    0.000    5.625    0.000    3.750    0.000    0.000 
#    0.000    0.000    0.000    0.000    0.000    0.000 
#
# Total GULP energy -793628.627565 kJ/mol
# GULP energy per Si atom -12400.447306 kJ/mol
# Density = 1.853876 g / cm^3
# Si number density = 18.581048 Si / 1000 Ang^3
#
#
#
# Elastic Constant Matrix: (Units=GPa)
#
#
# Indices 1 2 3 4 5 6 
#
# 1 65.9082 16.4983 21.4297 0.0000 0.0000 0.0000
# 2 16.4983 74.3231 25.2187 0.0000 0.0000 0.0000
# 3 21.4297 25.2187 50.9274 0.0000 0.0000 0.0000
# 4 0.0000 0.0000 0.0000 26.4183 0.0000 0.0000
# 5 0.0000 0.0000 0.0000 0.0000 20.6352 0.0000
# 6 0.0000 0.0000 0.0000 0.0000 0.0000 24.5593
#
#
#
# Elastic Compliance Matrix: (Units=1/GPa)
#
#
# Indices 1 2 3 4 5 6 
#
# 1 0.017752 -0.001690 -0.006633 0.000000 0.000000 0.000000
# 2 -0.001690 0.016333 -0.007377 0.000000 0.000000 0.000000
# 3 -0.006633 -0.007377 0.026080 0.000000 0.000000 0.000000
# 4 0.000000 0.000000 0.000000 0.037853 0.000000 0.000000
# 5 0.000000 0.000000 0.000000 0.000000 0.048461 0.000000
# 6 0.000000 0.000000 0.000000 0.000000 0.000000 0.040718
#
#
# Mechanical properties :
#
#
# Convention : Reuss Voigt Hill
#
# Bulk Modulus (GPa) = 34.76402 35.27245 35.01823
# Shear Modulus (GPa) = 21.91208 22.85669 22.38439
#
# Velocity S-wave (km/s) = 3.43778 3.51109 3.47463
# Velocity P-wave (km/s) = 5.87433 5.95494 5.91477
#
# Compressibility (1/GPa) = 0.02876538
#
# Stress axis : x y z
#
# Youngs Moduli (GPa) = 56.33045 61.22601 38.34378
#
# Poissons Ratio (x) = 0.10347 0.25434
# Poissons Ratio (y) = 0.09520 0.28285
# Poissons Ratio (z) = 0.37365 0.45165
#
# Static dielectric constant tensor:
#      x y z
#    x 3.533670 0.000000 0.000000 
#    y 0.000000 3.565990 0.000000 
#    z 0.000000 0.000000 3.268360 
# 
# 
# High freq. dielectric constant tensor:
#      x y z
#    x 1.722230 0.000000 0.000000 
#    y 0.000000 1.721190 0.000000 
#    z 0.000000 0.000000 1.706790 
# 
# From -- ./inp_files/10833.got.cif
#   From: 2010.03.12/outbox.cif.g09.slc.cpg/sg55_6_cif.got.tgz:10833.got - 2010.04.16 15:19:21.
