data_PCOD8226444
_publ_section_title
;
Structure prediction by ZEFSAII (Michael W. Deem and Ramdas Pophale) SiO2 
 PCOD8226444
Probable space group: P B A M
;
_chemical_formula_sum "Si O2"
_cell_formula_units_Z 64
_cell_length_a 14.442366
_cell_length_b 24.921898
_cell_length_c 8.949785
_cell_angle_alpha 90.000000
_cell_angle_beta 90.000000
_cell_angle_gamma 90.000000
_cell_volume 3221.306607
_symmetry_space_group_name_H-M "P B A M"
_symmetry_group_IT_number 55
_symmetry_cell_setting 'orthorhombic'
loop_
_space_group_symop_operation_xyz
x,y,z
-x,-y,z
1/2+x,1/2-y,-z
1/2-x,1/2+y,-z
-x,-y,-z
x,y,-z
1/2-x,1/2+y,z
1/2+x,1/2-y,z
loop_
_atom_site_type_symbol
_atom_site_label
_atom_site_fract_x
_atom_site_fract_y
_atom_site_fract_z
Si Si1 0.053287 0.242518 0.830166
Si Si2 0.893805 0.489651 0.176630
Si Si3 0.804859 0.387666 0.325327
Si Si4 0.853997 0.276894 0.175533
Si Si5 0.600144 0.363298 0.673910
Si Si6 0.785067 0.682134 0.830439
Si Si7 0.547381 0.553433 0.322018
Si Si8 0.244992 0.427489 0.323707
O O1 0.104778 0.195252 0.744146
O O2 0.109796 0.297790 0.814667
O O3 0.951402 0.253435 0.767971
O O4 0.048801 0.223155 0.000000
O O5 0.862444 0.432339 0.238279
O O6 0.831149 0.536614 0.243472
O O7 0.000000 0.500000 0.223286
O O8 0.881991 0.489934 0.000000
O O9 0.826780 0.393300 0.500000
O O10 0.834649 0.329470 0.270359
O O11 0.695335 0.395366 0.293412
O O12 0.779580 0.231736 0.213952
O O13 0.854804 0.291557 0.000000
O O14 0.587211 0.354538 0.500000
O O15 0.513204 0.396678 0.739513
O O16 0.770890 0.634415 0.714848
O O17 0.764459 0.662766 0.000000
O O18 0.500000 0.500000 0.257531
O O19 0.544690 0.553205 0.500000
O O20 0.652734 0.556699 0.265196
O O21 0.236099 0.436192 0.500000
#
# Coordination Sequence:
#
# PCOD8226444 Si02
#       8
#     8   8   8   8   8   8   8   8
#     4  10  21  36  57  83 114 157 202 243 293 354
#     4  11  26  46  66  86 116 162 208 250 303 365
#     4  11  23  39  63  93 122 154 200 256 307 358
#     4  10  21  38  60  87 121 163 206 249 299 357
#     4  10  20  36  60  90 123 157 194 243 300 360
#     4  10  21  38  58  84 123 163 199 241 294 358
#     4   9  18  35  59  86 119 156 189 230 297 364
#     4  11  23  39  63  92 122 155 199 255 304 354
#
# _framework density 19.867713999999999
#
# number of rings (size 3 to 8) (size 9 to 14) (size 15 to 20)
#    0.000    1.750    1.250    2.625    1.750    5.000 
#    0.000    0.625    0.000    2.625    0.000    0.000 
#    0.000    0.000    0.000    0.000    0.000    0.000 
#
# Total GULP energy -793766.078537 kJ/mol
# GULP energy per Si atom -12402.594977 kJ/mol
# Density = 1.982249 g / cm^3
# Si number density = 19.867714 Si / 1000 Ang^3
#
#
#
# Elastic Constant Matrix: (Units=GPa)
#
#
# Indices 1 2 3 4 5 6 
#
# 1 134.7324 55.4798 51.4413 0.0000 0.0000 0.0000
# 2 55.4798 117.6268 41.0764 0.0000 0.0000 0.0000
# 3 51.4413 41.0764 60.2027 0.0000 0.0000 0.0000
# 4 0.0000 0.0000 0.0000 14.4585 0.0000 0.0000
# 5 0.0000 0.0000 0.0000 0.0000 25.7474 0.0000
# 6 0.0000 0.0000 0.0000 0.0000 0.0000 33.5654
#
#
#
# Elastic Compliance Matrix: (Units=1/GPa)
#
#
# Indices 1 2 3 4 5 6 
#
# 1 0.011609 -0.002641 -0.008118 0.000000 0.000000 0.000000
# 2 -0.002641 0.011761 -0.005768 0.000000 0.000000 0.000000
# 3 -0.008118 -0.005768 0.027483 0.000000 0.000000 0.000000
# 4 0.000000 0.000000 0.000000 0.069163 0.000000 0.000000
# 5 0.000000 0.000000 0.000000 0.000000 0.038839 0.000000
# 6 0.000000 0.000000 0.000000 0.000000 0.000000 0.029793
#
#
# Mechanical properties :
#
#
# Convention : Reuss Voigt Hill
#
# Bulk Modulus (GPa) = 56.18186 67.61741 61.89964
# Shear Modulus (GPa) = 21.96507 25.72523 23.84515
#
# Velocity S-wave (km/s) = 3.32861 3.60227 3.46814
# Velocity P-wave (km/s) = 6.56599 7.17004 6.87466
#
# Compressibility (1/GPa) = 0.01779934
#
# Stress axis : x y z
#
# Youngs Moduli (GPa) = 86.14137 85.02433 36.38663
#
# Poissons Ratio (x) = 0.22452 0.29537
# Poissons Ratio (y) = 0.22747 0.20989
# Poissons Ratio (z) = 0.69927 0.49046
#
# Static dielectric constant tensor:
#      x y z
#    x 3.972140 0.000000 0.000000 
#    y 0.000000 3.678820 0.000000 
#    z 0.000000 0.000000 3.459090 
# 
# 
# High freq. dielectric constant tensor:
#      x y z
#    x 1.793880 0.000000 0.000000 
#    y 0.000000 1.781440 0.000000 
#    z 0.000000 0.000000 1.757990 
# 
# From -- ./inp_files/6591.got.cif
#   From: 2010.03.12/outbox.cif.g09.slc.cpg/sg55_4_cif.got.tgz:6591.got - 2010.04.16 15:19:21.
