data_PCOD8226416
_publ_section_title
;
Structure prediction by ZEFSAII (Michael W. Deem and Ramdas Pophale) SiO2 
 PCOD8226416
Probable space group: P B A M
;
_chemical_formula_sum "Si O2"
_cell_formula_units_Z 36
_cell_length_a 9.228746
_cell_length_b 19.279016
_cell_length_c 9.505268
_cell_angle_alpha 90.000000
_cell_angle_beta 90.000000
_cell_angle_gamma 90.000000
_cell_volume 1691.188136
_symmetry_space_group_name_H-M "P B A M"
_symmetry_group_IT_number 55
_symmetry_cell_setting 'orthorhombic'
loop_
_space_group_symop_operation_xyz
x,y,z
-x,-y,z
1/2+x,1/2-y,-z
1/2-x,1/2+y,-z
-x,-y,-z
x,y,-z
1/2-x,1/2+y,z
1/2+x,1/2-y,z
loop_
_atom_site_type_symbol
_atom_site_label
_atom_site_fract_x
_atom_site_fract_y
_atom_site_fract_z
Si Si1 0.537811 0.625123 0.836710
Si Si2 0.225592 0.602206 0.840469
Si Si3 0.000000 0.500000 0.264121
Si Si4 0.306493 0.878421 0.342092
Si Si5 0.996929 0.287489 0.836587
O O1 0.386610 0.593252 0.775255
O O2 0.664489 0.593891 0.739781
O O3 0.532130 0.707415 0.814605
O O4 0.567587 0.605343 0.000000
O O5 0.126654 0.533886 0.830084
O O6 0.142318 0.669546 0.779674
O O7 0.260438 0.620326 0.000000
O O8 0.924110 0.559600 0.355918
O O9 0.266710 0.854696 0.500000
O O10 0.366286 0.812711 0.254879
O O11 0.030331 0.305499 0.000000
#
# Coordination Sequence:
#
# PCOD8226416 Si02
#       5
#     8   8   4   8   8
#     4  10  20  36  59  88 116 143 182 233 287 337
#     4   9  18  33  57  84 109 143 187 235 283 334
#     4  10  22  40  54  74 111 156 197 236 281 330
#     4  11  23  38  57  82 114 152 190 230 277 331
#     4   9  18  36  61  86 113 145 181 226 281 338
#
# _framework density 21.286809000000002
#
# number of rings (size 3 to 8) (size 9 to 14) (size 15 to 20)
#    0.000    2.222    0.000    2.667    0.000    8.000 
#    0.000    8.889    0.000    0.000    0.000    0.000 
#    0.000    0.000    0.000    0.000    0.000    0.000 
#
# Total GULP energy -446195.949440 kJ/mol
# GULP energy per Si atom -12394.331929 kJ/mol
# Density = 2.123836 g / cm^3
# Si number density = 21.286809 Si / 1000 Ang^3
#
#
#
# Elastic Constant Matrix: (Units=GPa)
#
#
# Indices 1 2 3 4 5 6 
#
# 1 150.3061 21.1144 57.9659 0.0000 0.0000 0.0000
# 2 21.1144 63.5374 15.3510 0.0000 0.0000 0.0000
# 3 57.9659 15.3510 95.8907 0.0000 0.0000 0.0000
# 4 0.0000 0.0000 0.0000 12.5194 0.0000 0.0000
# 5 0.0000 0.0000 0.0000 0.0000 8.0048 0.0000
# 6 0.0000 0.0000 0.0000 0.0000 0.0000 24.4026
#
#
#
# Elastic Compliance Matrix: (Units=1/GPa)
#
#
# Indices 1 2 3 4 5 6 
#
# 1 0.008852 -0.001715 -0.005076 0.000000 0.000000 0.000000
# 2 -0.001715 0.016704 -0.001637 0.000000 0.000000 0.000000
# 3 -0.005076 -0.001637 0.013759 0.000000 0.000000 0.000000
# 4 0.000000 0.000000 0.000000 0.079876 0.000000 0.000000
# 5 0.000000 0.000000 0.000000 0.000000 0.124925 0.000000
# 6 0.000000 0.000000 0.000000 0.000000 0.000000 0.040979
#
#
# Mechanical properties :
#
#
# Convention : Reuss Voigt Hill
#
# Bulk Modulus (GPa) = 44.52806 55.39965 49.96385
# Shear Modulus (GPa) = 16.15826 23.33889 19.74858
#
# Velocity S-wave (km/s) = 2.75812 3.31479 3.04918
# Velocity P-wave (km/s) = 5.57732 6.38218 5.99328
#
# Compressibility (1/GPa) = 0.02245775
#
# Stress axis : x y z
#
# Youngs Moduli (GPa) = 112.97264 59.86479 72.67817
#
# Poissons Ratio (x) = 0.10267 0.36894
# Poissons Ratio (y) = 0.19376 0.11900
# Poissons Ratio (z) = 0.57348 0.09802
#
# Static dielectric constant tensor:
#      x y z
#    x 4.271220 0.000000 0.000000 
#    y 0.000000 3.644380 0.000000 
#    z 0.000000 0.000000 3.405460 
# 
# 
# High freq. dielectric constant tensor:
#      x y z
#    x 1.853890 0.000000 0.000000 
#    y 0.000000 1.826660 0.000000 
#    z 0.000000 0.000000 1.790620 
# 
# From -- ./inp_files/2131.got.cif
#   From: 2010.03.12/outbox.cif.g09.slc.cpg/sg55_2_cif.got.tgz:2131.got - 2010.04.16 15:19:21.
