data_PCOD8226330
_publ_section_title
;
Structure prediction by ZEFSAII (Michael W. Deem and Ramdas Pophale) SiO2 
 PCOD8226330
Probable space group: P B A M
;
_chemical_formula_sum "Si O2"
_cell_formula_units_Z 64
_cell_length_a 12.425966
_cell_length_b 28.317664
_cell_length_c 9.069788
_cell_angle_alpha 90.000000
_cell_angle_beta 90.000000
_cell_angle_gamma 90.000000
_cell_volume 3191.425576
_symmetry_space_group_name_H-M "P B A M"
_symmetry_group_IT_number 55
_symmetry_cell_setting 'orthorhombic'
loop_
_space_group_symop_operation_xyz
x,y,z
-x,-y,z
1/2+x,1/2-y,-z
1/2-x,1/2+y,-z
-x,-y,-z
x,y,-z
1/2-x,1/2+y,z
1/2+x,1/2-y,z
loop_
_atom_site_type_symbol
_atom_site_label
_atom_site_fract_x
_atom_site_fract_y
_atom_site_fract_z
Si Si1 0.332899 0.120683 0.328113
Si Si2 0.381059 0.637747 0.830692
Si Si3 0.529418 0.552758 0.169490
Si Si4 0.755242 0.070233 0.673582
Si Si5 0.067786 0.791295 0.827654
Si Si6 0.886249 0.482606 0.674574
Si Si7 0.502826 0.200016 0.327572
Si Si8 0.296533 0.837247 0.827093
O O1 0.309467 0.116994 0.500000
O O2 0.228234 0.144773 0.258118
O O3 0.355011 0.068657 0.259829
O O4 0.436044 0.152682 0.294276
O O5 0.424912 0.584824 0.805037
O O6 0.470177 0.675069 0.776919
O O7 0.353609 0.646806 0.000000
O O8 0.500000 0.500000 0.215142
O O9 0.622112 0.571625 0.275065
O O10 0.569165 0.556378 0.000000
O O11 0.747536 0.078705 0.500000
O O12 0.689013 0.111649 0.752567
O O13 0.704697 0.020110 0.720162
O O14 0.178767 0.817451 0.791404
O O15 0.064972 0.743988 0.732520
O O16 0.060092 0.778908 0.000000
O O17 0.897049 0.478028 0.500000
O O18 0.000000 0.500000 0.740999
O O19 0.524695 0.206577 0.500000
O O20 0.615977 0.197935 0.242399
O O21 0.317153 0.841772 0.000000
#
# Coordination Sequence:
#
# PCOD8226330 Si02
#       8
#     8   8   8   8   8   8   8   8
#     4  10  22  40  61  90 126 163 201 251 310 364
#     4  10  21  39  60  85 119 159 202 245 298 367
#     4  10  20  36  57  83 119 162 204 251 307 365
#     4  11  21  34  59  91 120 156 204 257 307 364
#     4  10  23  43  64  87 117 160 204 247 307 370
#     4   9  18  35  58  83 120 164 202 243 303 367
#     4  11  25  42  64  94 124 154 201 258 312 364
#     4  11  23  43  67  90 123 163 206 251 305 373
#
# _framework density 20.053733000000001
#
# number of rings (size 3 to 8) (size 9 to 14) (size 15 to 20)
#    0.000    1.750    1.250    2.625    1.750    5.250 
#    0.000    0.625    0.000    2.625    0.000    0.000 
#    0.000    0.000    0.000    0.000    0.000    0.000 
#
# Total GULP energy -793922.205379 kJ/mol
# GULP energy per Si atom -12405.034459 kJ/mol
# Density = 2.000809 g / cm^3
# Si number density = 20.053733 Si / 1000 Ang^3
#
#
#
# Elastic Constant Matrix: (Units=GPa)
#
#
# Indices 1 2 3 4 5 6 
#
# 1 110.6782 28.0444 49.0733 0.0000 0.0000 0.0000
# 2 28.0444 115.0554 49.3133 0.0000 0.0000 0.0000
# 3 49.0733 49.3133 72.4236 0.0000 0.0000 0.0000
# 4 0.0000 0.0000 0.0000 31.8677 0.0000 0.0000
# 5 0.0000 0.0000 0.0000 0.0000 25.3938 0.0000
# 6 0.0000 0.0000 0.0000 0.0000 0.0000 26.8429
#
#
#
# Elastic Compliance Matrix: (Units=1/GPa)
#
#
# Indices 1 2 3 4 5 6 
#
# 1 0.012975 0.000855 -0.009374 0.000000 0.000000 0.000000
# 2 0.000855 0.012330 -0.008975 0.000000 0.000000 0.000000
# 3 -0.009374 -0.008975 0.026270 0.000000 0.000000 0.000000
# 4 0.000000 0.000000 0.000000 0.031380 0.000000 0.000000
# 5 0.000000 0.000000 0.000000 0.000000 0.039380 0.000000
# 6 0.000000 0.000000 0.000000 0.000000 0.000000 0.037254
#
#
# Mechanical properties :
#
#
# Convention : Reuss Voigt Hill
#
# Bulk Modulus (GPa) = 60.28537 61.22436 60.75486
# Shear Modulus (GPa) = 24.98709 28.26929 26.62819
#
# Velocity S-wave (km/s) = 3.53371 3.75864 3.64791
# Velocity P-wave (km/s) = 6.83935 7.03086 6.93576
#
# Compressibility (1/GPa) = 0.01658777
#
# Stress axis : x y z
#
# Youngs Moduli (GPa) = 77.07292 81.10566 38.06631
#
# Poissons Ratio (x) = -0.06935 0.35682
# Poissons Ratio (y) = -0.06590 0.34163
# Poissons Ratio (z) = 0.72246 0.72789
#
# Static dielectric constant tensor:
#      x y z
#    x 3.594600 0.000000 0.000000 
#    y 0.000000 3.839240 0.000000 
#    z 0.000000 0.000000 3.441570 
# 
# 
# High freq. dielectric constant tensor:
#      x y z
#    x 1.788870 0.000000 0.000000 
#    y 0.000000 1.795110 0.000000 
#    z 0.000000 0.000000 1.765850 
# 
# From -- ./inp_files/4519.got.cif
#   From: 2010.03.12/outbox.cif.g09.slc.cpg/sg55_3_cif.got.tgz:4519.got - 2010.04.16 15:19:21.
