data_PCOD8226625
_publ_section_title
;
Structure prediction by ZEFSAII (Michael W. Deem and Ramdas Pophale) SiO2 
 PCOD8226625
Probable space group: P B A M
;
_chemical_formula_sum "Si O2"
_cell_formula_units_Z 48
_cell_length_a 8.826207
_cell_length_b 30.770050
_cell_length_c 8.296610
_cell_angle_alpha 90.000000
_cell_angle_beta 90.000000
_cell_angle_gamma 90.000000
_cell_volume 2253.216829
_symmetry_space_group_name_H-M "P B A M"
_symmetry_group_IT_number 55
_symmetry_cell_setting 'orthorhombic'
loop_
_space_group_symop_operation_xyz
x,y,z
-x,-y,z
1/2+x,1/2-y,-z
1/2-x,1/2+y,-z
-x,-y,-z
x,y,-z
1/2-x,1/2+y,z
1/2+x,1/2-y,z
loop_
_atom_site_type_symbol
_atom_site_label
_atom_site_fract_x
_atom_site_fract_y
_atom_site_fract_z
Si Si1 0.902607 0.211164 0.816378
Si Si2 0.422277 0.791888 0.314368
Si Si3 0.406826 0.126769 0.185690
Si Si4 0.576871 0.369536 0.313073
Si Si5 0.924707 0.546412 0.313888
Si Si6 0.419048 0.457207 0.308535
O O1 0.758409 0.210876 0.700111
O O2 0.000984 0.253818 0.786338
O O3 0.006473 0.169456 0.787695
O O4 0.845894 0.211189 0.000000
O O5 0.468512 0.787141 0.500000
O O6 0.473469 0.837960 0.245698
O O7 0.256499 0.130179 0.291855
O O8 0.481653 0.079870 0.206870
O O9 0.365265 0.134357 0.000000
O O10 0.537460 0.362642 0.500000
O O11 0.507778 0.414674 0.247352
O O12 0.928985 0.561453 0.500000
O O13 0.753479 0.544623 0.247774
O O14 0.000000 0.500000 0.291608
O O15 0.500000 0.500000 0.235289
O O16 0.423595 0.459871 0.500000
#
# Coordination Sequence:
#
# PCOD8226625 Si02
#       6
#     8   8   8   8   8   8
#     4  12  25  43  65  94 129 162 200 253 315 368
#     4  12  25  44  67  92 122 162 210 253 301 368
#     4  12  25  41  61  89 125 163 205 259 319 369
#     4  11  22  39  63  90 122 164 211 255 304 369
#     4  10  20  37  63  92 122 160 207 257 310 373
#     4   9  18  34  59  90 120 153 199 253 303 355
#
# _framework density 21.302875
#
# number of rings (size 3 to 8) (size 9 to 14) (size 15 to 20)
#    0.000    1.000    0.000    8.000    0.000    4.333 
#    0.000    0.833    0.000    3.500    0.000    0.000 
#    0.000    0.000    0.000    0.000    0.000    0.000 
#
# Total GULP energy -595603.775113 kJ/mol
# GULP energy per Si atom -12408.411982 kJ/mol
# Density = 2.125439 g / cm^3
# Si number density = 21.302875 Si / 1000 Ang^3
#
#
#
# Elastic Constant Matrix: (Units=GPa)
#
#
# Indices 1 2 3 4 5 6 
#
# 1 129.1198 43.7153 2.4178 0.0000 0.0000 0.0000
# 2 43.7153 121.0642 23.2939 0.0000 0.0000 0.0000
# 3 2.4178 23.2939 77.8920 0.0000 0.0000 0.0000
# 4 0.0000 0.0000 0.0000 -27.2713 0.0000 0.0000
# 5 0.0000 0.0000 0.0000 0.0000 24.1203 0.0000
# 6 0.0000 0.0000 0.0000 0.0000 0.0000 40.3581
#
#
#
# Elastic Compliance Matrix: (Units=1/GPa)
#
#
# Indices 1 2 3 4 5 6 
#
# 1 0.008862 -0.003339 0.000723 0.000000 0.000000 0.000000
# 2 -0.003339 0.010023 -0.002894 0.000000 0.000000 0.000000
# 3 0.000723 -0.002894 0.013681 0.000000 0.000000 0.000000
# 4 0.000000 0.000000 0.000000 -0.036669 0.000000 0.000000
# 5 0.000000 0.000000 0.000000 0.000000 0.041459 0.000000
# 6 0.000000 0.000000 0.000000 0.000000 0.000000 0.024778
#
#
# Mechanical properties :
#
#
# Convention : Reuss Voigt Hill
#
# Bulk Modulus (GPa) = 46.41023 51.88111 49.14567
# Shear Modulus (GPa) = 62.23964 24.68469 43.46216
#
# Velocity S-wave (km/s) = 5.41110 3.40773 4.52176
# Velocity P-wave (km/s) = 7.80213 6.31589 7.09801
#
# Compressibility (1/GPa) = 0.02154697
#
# Stress axis : x y z
#
# Youngs Moduli (GPa) = 112.84528 99.77488 73.09305
#
# Poissons Ratio (x) = 0.33316 -0.05288
# Poissons Ratio (y) = 0.37680 0.21151
# Poissons Ratio (z) = -0.08164 0.28871
#
# Static dielectric constant tensor:
#      x y z
#    x 3.876630 0.000000 0.000000 
#    y 0.000000 3.989980 0.000000 
#    z 0.000000 0.000000 3.640140 
# 
# 
# High freq. dielectric constant tensor:
#      x y z
#    x 1.849850 0.000000 0.000000 
#    y 0.000000 1.853040 0.000000 
#    z 0.000000 0.000000 1.820730 
# 
# From -- ./inp_files/2760.got.cif
#   From: 2010.03.12/outbox.cif.g09.slc.cpg/sg55_2_cif.got.tgz:2760.got - 2010.04.16 15:19:21.
