data_PCOD8226274
_publ_section_title
;
Structure prediction by ZEFSAII (Michael W. Deem and Ramdas Pophale) SiO2 
 PCOD8226274
Probable space group: P B A M
;
_chemical_formula_sum "Si O2"
_cell_formula_units_Z 44
_cell_length_a 9.991029
_cell_length_b 15.379633
_cell_length_c 14.887886
_cell_angle_alpha 90.000000
_cell_angle_beta 90.000000
_cell_angle_gamma 90.000000
_cell_volume 2287.648136
_symmetry_space_group_name_H-M "P B A M"
_symmetry_group_IT_number 55
_symmetry_cell_setting 'orthorhombic'
loop_
_space_group_symop_operation_xyz
x,y,z
-x,-y,z
1/2+x,1/2-y,-z
1/2-x,1/2+y,-z
-x,-y,-z
x,y,-z
1/2-x,1/2+y,z
1/2+x,1/2-y,z
loop_
_atom_site_type_symbol
_atom_site_label
_atom_site_fract_x
_atom_site_fract_y
_atom_site_fract_z
Si Si1 0.000000 0.500000 0.687142
Si Si2 0.016029 0.899468 0.181363
Si Si3 0.661183 0.153121 0.000000
Si Si4 0.631257 0.275444 0.697718
Si Si5 0.816669 0.610266 0.804527
Si Si6 0.906338 0.321996 0.603568
Si Si7 0.458732 0.302427 0.000000
O O1 0.120969 0.469860 0.750747
O O2 0.052668 0.579078 0.626478
O O3 0.162176 0.881980 0.220546
O O4 0.913052 0.865577 0.256529
O O5 0.990456 0.853312 0.086901
O O6 0.000000 0.000000 0.163922
O O7 0.660924 0.093428 0.910878
O O8 0.797656 0.210839 0.000000
O O9 0.526605 0.208738 0.000000
O O10 0.619844 0.201952 0.774976
O O11 0.779354 0.289335 0.660160
O O12 0.529372 0.244349 0.619949
O O13 0.866361 0.318470 0.500000
#
# Coordination Sequence:
#
# PCOD8226274 Si02
#       7
#     4   8   4   8   8   8   4
#     4  10  23  39  64  86 122 154 198 243 305 356
#     4  11  21  37  60  87 124 154 199 244 290 345
#     4  10  20  35  60  84 124 155 200 244 269 354
#     4  11  21  38  65  85 120 159 194 242 296 359
#     4  10  21  39  58  92 119 160 199 235 293 346
#     4  11  23  41  63  89 116 154 200 250 303 358
#     4  10  21  36  56  88 116 161 200 237 286 339
#
# _framework density 19.233727999999999
#
# number of rings (size 3 to 8) (size 9 to 14) (size 15 to 20)
#    0.000    1.455    3.636    2.182    0.000    0.364 
#    3.273    0.000    0.000    2.182    0.000    0.000 
#    0.000    0.000    0.000    0.000    0.000    0.000 
#
# Total GULP energy -545655.450628 kJ/mol
# GULP energy per Si atom -12401.260242 kJ/mol
# Density = 1.918995 g / cm^3
# Si number density = 19.233728 Si / 1000 Ang^3
#
#
#
# Elastic Constant Matrix: (Units=GPa)
#
#
# Indices 1 2 3 4 5 6 
#
# 1 81.4889 18.7614 26.0679 0.0000 0.0000 0.0000
# 2 18.7614 46.9702 11.0489 0.0000 0.0000 0.0000
# 3 26.0679 11.0489 94.9695 0.0000 0.0000 0.0000
# 4 0.0000 0.0000 0.0000 -61.7576 0.0000 0.0000
# 5 0.0000 0.0000 0.0000 0.0000 25.2537 0.0000
# 6 0.0000 0.0000 0.0000 0.0000 0.0000 32.2204
#
#
#
# Elastic Compliance Matrix: (Units=1/GPa)
#
#
# Indices 1 2 3 4 5 6 
#
# 1 0.014510 -0.004996 -0.003402 0.000000 0.000000 0.000000
# 2 -0.004996 0.023609 -0.001375 0.000000 0.000000 0.000000
# 3 -0.003402 -0.001375 0.011623 0.000000 0.000000 0.000000
# 4 0.000000 0.000000 0.000000 -0.016192 0.000000 0.000000
# 5 0.000000 0.000000 0.000000 0.000000 0.039598 0.000000
# 6 0.000000 0.000000 0.000000 0.000000 0.000000 0.031036
#
#
# Mechanical properties :
#
#
# Convention : Reuss Voigt Hill
#
# Bulk Modulus (GPa) = 33.11578 37.24279 35.17929
# Shear Modulus (GPa) = 37.37048 10.31332 23.84190
#
# Velocity S-wave (km/s) = 4.41269 2.31813 3.52460
# Velocity P-wave (km/s) = 6.57399 5.15464 5.90710
#
# Compressibility (1/GPa) = 0.03019708
#
# Stress axis : x y z
#
# Youngs Moduli (GPa) = 68.91839 42.35659 86.03320
#
# Poissons Ratio (x) = 0.21160 0.29265
# Poissons Ratio (y) = 0.34429 0.11834
# Poissons Ratio (z) = 0.23443 0.05826
#
# Static dielectric constant tensor:
#      x y z
#    x 3.204990 0.000000 0.000000 
#    y 0.000000 3.616010 0.000000 
#    z 0.000000 0.000000 3.470000 
# 
# 
# High freq. dielectric constant tensor:
#      x y z
#    x 1.758110 0.000000 0.000000 
#    y 0.000000 1.738700 0.000000 
#    z 0.000000 0.000000 1.750840 
# 
# From -- ./inp_files/20739.got.cif
#   From: 2010.03.12/outbox.cif.g09.slc.cpg/sg55_11_cif.got.tgz:20739.got - 2010.04.16 15:19:21.
