data_PCOD8226743
_publ_section_title
;
Structure prediction by ZEFSAII (Michael W. Deem and Ramdas Pophale) SiO2 
 PCOD8226743
Probable space group: P B A M
;
_chemical_formula_sum "Si O2"
_cell_formula_units_Z 48
_cell_length_a 34.086648
_cell_length_b 9.000114
_cell_length_c 7.775862
_cell_angle_alpha 90.000000
_cell_angle_beta 90.000000
_cell_angle_gamma 90.000000
_cell_volume 2385.507854
_symmetry_space_group_name_H-M "P B A M"
_symmetry_group_IT_number 55
_symmetry_cell_setting 'orthorhombic'
loop_
_space_group_symop_operation_xyz
x,y,z
-x,-y,z
1/2+x,1/2-y,-z
1/2-x,1/2+y,-z
-x,-y,-z
x,y,-z
1/2-x,1/2+y,z
1/2+x,1/2-y,z
loop_
_atom_site_type_symbol
_atom_site_label
_atom_site_fract_x
_atom_site_fract_y
_atom_site_fract_z
Si Si1 0.575660 0.327912 0.806085
Si Si2 0.293274 0.807200 0.000000
Si Si3 0.922916 0.152162 0.694559
Si Si4 0.347974 0.819995 0.690911
Si Si5 0.152694 0.662887 0.698918
Si Si6 0.209998 0.655901 0.000000
Si Si7 0.497393 0.170725 0.797278
O O1 0.571654 0.505795 0.808592
O O2 0.612385 0.275224 0.694476
O O3 0.536125 0.255387 0.730550
O O4 0.582145 0.271076 0.000000
O O5 0.317193 0.758423 0.169947
O O6 0.252691 0.723330 0.000000
O O7 0.284903 0.980509 0.000000
O O8 0.917338 0.098925 0.500000
O O9 0.884853 0.242442 0.756160
O O10 0.960212 0.258352 0.705462
O O11 0.329549 0.802564 0.500000
O O12 0.358447 0.991153 0.729009
O O13 0.164888 0.692715 0.500000
O O14 0.187851 0.709193 0.826600
O O15 0.500000 0.000000 0.741104
O O16 0.492094 0.189321 0.000000
#
# Coordination Sequence:
#
# PCOD8226743 Si02
#       7
#     8   4   8   8   8   4   8
#     4  11  22  36  56  85 118 152 197 244 291 346
#     4  10  22  40  58  93 116 149 196 228 287 352
#     4  11  23  37  55  84 118 153 195 243 296 345
#     4  10  20  39  63  85 117 154 193 241 286 342
#     4   9  21  39  60  88 116 152 198 238 285 346
#     4  10  22  38  64  85 120 155 186 236 289 346
#     4  10  22  38  57  81 112 154 200 245 291 342
#
# _framework density 20.121500999999999
#
# number of rings (size 3 to 8) (size 9 to 14) (size 15 to 20)
#    0.000    1.833    0.833    2.500    2.333    5.667 
#    0.000    0.000    0.000    0.000    0.000    0.000 
#    0.000    0.000    0.000    0.000    0.000    0.000 
#
# Total GULP energy -595395.981796 kJ/mol
# GULP energy per Si atom -12404.082954 kJ/mol
# Density = 2.007570 g / cm^3
# Si number density = 20.121501 Si / 1000 Ang^3
#
#
#
# Elastic Constant Matrix: (Units=GPa)
#
#
# Indices 1 2 3 4 5 6 
#
# 1 91.2930 23.6802 36.7343 0.0000 0.0000 0.0000
# 2 23.6802 74.9769 18.5932 0.0000 0.0000 0.0000
# 3 36.7343 18.5932 91.7028 0.0000 0.0000 0.0000
# 4 0.0000 0.0000 0.0000 23.1631 0.0000 0.0000
# 5 0.0000 0.0000 0.0000 0.0000 22.7688 0.0000
# 6 0.0000 0.0000 0.0000 0.0000 0.0000 41.4870
#
#
#
# Elastic Compliance Matrix: (Units=1/GPa)
#
#
# Indices 1 2 3 4 5 6 
#
# 1 0.013722 -0.003128 -0.004862 0.000000 0.000000 0.000000
# 2 -0.003128 0.014757 -0.001739 0.000000 0.000000 0.000000
# 3 -0.004862 -0.001739 0.013205 0.000000 0.000000 0.000000
# 4 0.000000 0.000000 0.000000 0.043172 0.000000 0.000000
# 5 0.000000 0.000000 0.000000 0.000000 0.043920 0.000000
# 6 0.000000 0.000000 0.000000 0.000000 0.000000 0.024104
#
#
# Mechanical properties :
#
#
# Convention : Reuss Voigt Hill
#
# Bulk Modulus (GPa) = 44.99492 46.22089 45.60791
# Shear Modulus (GPa) = 27.81703 29.41477 28.61590
#
# Velocity S-wave (km/s) = 3.72217 3.82757 3.77524
# Velocity P-wave (km/s) = 6.39397 6.52338 6.45900
#
# Compressibility (1/GPa) = 0.02222473
#
# Stress axis : x y z
#
# Youngs Moduli (GPa) = 72.87769 67.76634 75.72798
#
# Poissons Ratio (x) = 0.21197 0.36822
# Poissons Ratio (y) = 0.22796 0.13169
# Poissons Ratio (z) = 0.35436 0.11784
#
# Static dielectric constant tensor:
#      x y z
#    x 3.546800 0.000000 0.000000 
#    y 0.000000 3.549920 0.000000 
#    z 0.000000 0.000000 3.748190 
# 
# 
# High freq. dielectric constant tensor:
#      x y z
#    x 1.778180 0.000000 0.000000 
#    y 0.000000 1.783910 0.000000 
#    z 0.000000 0.000000 1.794710 
# 
# From -- ./inp_files/10560.got.cif
#   From: 2010.03.12/outbox.cif.g09.slc.cpg/sg55_6_cif.got.tgz:10560.got - 2010.04.16 15:19:21.
