data_PCOD8226044
_publ_section_title
;
Structure prediction by ZEFSAII (Michael W. Deem and Ramdas Pophale) SiO2 
 PCOD8226044
Probable space group: P B A M
;
_chemical_formula_sum "Si O2"
_cell_formula_units_Z 64
_cell_length_a 24.519391
_cell_length_b 15.120417
_cell_length_c 8.877974
_cell_angle_alpha 90.000000
_cell_angle_beta 90.000000
_cell_angle_gamma 90.000000
_cell_volume 3291.450412
_symmetry_space_group_name_H-M "P B A M"
_symmetry_group_IT_number 55
_symmetry_cell_setting 'orthorhombic'
loop_
_space_group_symop_operation_xyz
x,y,z
-x,-y,z
1/2+x,1/2-y,-z
1/2-x,1/2+y,-z
-x,-y,-z
x,y,-z
1/2-x,1/2+y,z
1/2+x,1/2-y,z
loop_
_atom_site_type_symbol
_atom_site_label
_atom_site_fract_x
_atom_site_fract_y
_atom_site_fract_z
Si Si1 0.635146 0.665677 0.825882
Si Si2 0.948602 0.672384 0.175047
Si Si3 0.937425 0.314459 0.322294
Si Si4 0.715492 0.961953 0.675818
Si Si5 0.644456 0.308134 0.825352
Si Si6 0.338563 0.510449 0.677301
Si Si7 0.391367 0.009735 0.175101
Si Si8 0.266678 0.215233 0.171635
O O1 0.594245 0.731661 0.744990
O O2 0.628730 0.568932 0.754656
O O3 0.697790 0.696863 0.802893
O O4 0.618934 0.661039 0.000000
O O5 0.900093 0.737184 0.225324
O O6 0.931089 0.571927 0.206072
O O7 0.999772 0.695520 0.277261
O O8 0.963545 0.685256 0.000000
O O9 0.931290 0.313243 0.500000
O O10 0.913933 0.406061 0.261963
O O11 0.705587 0.974662 0.500000
O O12 0.669098 0.015618 0.765814
O O13 0.709604 0.858677 0.716894
O O14 0.775088 0.995363 0.725853
O O15 0.635633 0.397402 0.731228
O O16 0.703568 0.264713 0.791123
O O17 0.638754 0.332625 0.000000
O O18 0.345464 0.503259 0.500000
O O19 0.388336 0.033132 0.000000
O O20 0.273076 0.180738 0.000000
#
# Coordination Sequence:
#
# PCOD8226044 Si02
#       8
#     8   8   8   8   8   8   8   8
#     4  11  22  37  62  90 118 157 204 248 293 351
#     4  10  23  41  63  87 116 155 202 251 298 351
#     4  12  25  41  61  86 122 158 198 249 300 358
#     4  10  20  34  54  84 123 161 193 234 292 353
#     4   9  19  39  62  87 117 153 199 250 297 350
#     4  10  22  38  57  87 126 162 195 242 301 358
#     4  11  22  37  60  88 120 159 201 247 294 351
#     4   9  18  33  57  85 115 152 194 241 292 348
#
# _framework density 19.444316000000001
#
# number of rings (size 3 to 8) (size 9 to 14) (size 15 to 20)
#    0.000    1.750    1.250    3.000    1.750    5.000 
#    0.000    0.625    0.000    3.750    0.000    0.000 
#    0.000    0.000    0.000    0.000    0.000    0.000 
#
# Total GULP energy -793818.665412 kJ/mol
# GULP energy per Si atom -12403.416647 kJ/mol
# Density = 1.940006 g / cm^3
# Si number density = 19.444316 Si / 1000 Ang^3
#
#
#
# Elastic Constant Matrix: (Units=GPa)
#
#
# Indices 1 2 3 4 5 6 
#
# 1 95.7750 44.3665 45.1135 0.0000 0.0000 0.0000
# 2 44.3665 86.3493 46.2557 0.0000 0.0000 0.0000
# 3 45.1135 46.2557 100.9445 0.0000 0.0000 0.0000
# 4 0.0000 0.0000 0.0000 12.4712 0.0000 0.0000
# 5 0.0000 0.0000 0.0000 0.0000 31.5308 0.0000
# 6 0.0000 0.0000 0.0000 0.0000 0.0000 23.9790
#
#
#
# Elastic Compliance Matrix: (Units=1/GPa)
#
#
# Indices 1 2 3 4 5 6 
#
# 1 0.014926 -0.005428 -0.004183 0.000000 0.000000 0.000000
# 2 -0.005428 0.017322 -0.005512 0.000000 0.000000 0.000000
# 3 -0.004183 -0.005512 0.014302 0.000000 0.000000 0.000000
# 4 0.000000 0.000000 0.000000 0.080185 0.000000 0.000000
# 5 0.000000 0.000000 0.000000 0.000000 0.031715 0.000000
# 6 0.000000 0.000000 0.000000 0.000000 0.000000 0.041703
#
#
# Mechanical properties :
#
#
# Convention : Reuss Voigt Hill
#
# Bulk Modulus (GPa) = 61.33553 61.61557 61.47555
# Shear Modulus (GPa) = 21.20131 23.41839 22.30985
#
# Velocity S-wave (km/s) = 3.30564 3.47419 3.39096
# Velocity P-wave (km/s) = 6.79576 6.91739 6.85685
#
# Compressibility (1/GPa) = 0.01630376
#
# Stress axis : x y z
#
# Youngs Moduli (GPa) = 66.99631 57.72877 69.92200
#
# Poissons Ratio (x) = 0.31336 0.29251
# Poissons Ratio (y) = 0.36367 0.38539
# Poissons Ratio (z) = 0.28027 0.31818
#
# Static dielectric constant tensor:
#      x y z
#    x 3.674540 0.000000 0.000000 
#    y 0.000000 3.405820 0.000000 
#    z 0.000000 0.000000 3.558050 
# 
# 
# High freq. dielectric constant tensor:
#      x y z
#    x 1.755410 0.000000 0.000000 
#    y 0.000000 1.750790 0.000000 
#    z 0.000000 0.000000 1.760560 
# 
# From -- ./inp_files/6700.got.cif
#   From: 2010.03.12/outbox.cif.g09.slc.cpg/sg55_4_cif.got.tgz:6700.got - 2010.04.16 15:19:21.
