data_PCOD8226179
_publ_section_title
;
Structure prediction by ZEFSAII (Michael W. Deem and Ramdas Pophale) SiO2 
 PCOD8226179
Probable space group: P B A M
;
_chemical_formula_sum "Si O2"
_cell_formula_units_Z 64
_cell_length_a 12.883429
_cell_length_b 27.781008
_cell_length_c 8.819310
_cell_angle_alpha 90.000000
_cell_angle_beta 90.000000
_cell_angle_gamma 90.000000
_cell_volume 3156.560200
_symmetry_space_group_name_H-M "P B A M"
_symmetry_group_IT_number 55
_symmetry_cell_setting 'orthorhombic'
loop_
_space_group_symop_operation_xyz
x,y,z
-x,-y,z
1/2+x,1/2-y,-z
1/2-x,1/2+y,-z
-x,-y,-z
x,y,-z
1/2-x,1/2+y,z
1/2+x,1/2-y,z
loop_
_atom_site_type_symbol
_atom_site_label
_atom_site_fract_x
_atom_site_fract_y
_atom_site_fract_z
Si Si1 0.932370 0.170119 0.673746
Si Si2 0.380478 0.510341 0.831669
Si Si3 0.302918 0.421077 0.328851
Si Si4 0.766534 0.910449 0.321239
Si Si5 0.767052 0.713462 0.177358
Si Si6 0.346769 0.681524 0.822091
Si Si7 0.113576 0.378701 0.174357
Si Si8 0.542435 0.948669 0.678115
O O1 0.956260 0.183635 0.500000
O O2 0.901019 0.114148 0.688949
O O3 0.838090 0.203234 0.731285
O O4 0.034027 0.178181 0.772761
O O5 0.500000 0.500000 0.845375
O O6 0.333378 0.475206 0.706315
O O7 0.360565 0.563475 0.766288
O O8 0.330865 0.504711 0.000000
O O9 0.257618 0.418481 0.500000
O O10 0.217078 0.408545 0.205572
O O11 0.784855 0.911247 0.500000
O O12 0.770758 0.855467 0.264537
O O13 0.661020 0.938345 0.274564
O O14 0.805395 0.766027 0.221484
O O15 0.860246 0.676436 0.222435
O O16 0.741694 0.707797 0.000000
O O17 0.339501 0.671654 0.000000
O O18 0.020248 0.401885 0.267718
O O19 0.082306 0.382232 0.000000
O O20 0.530599 0.951155 0.500000
O O21 0.500000 0.000000 0.746469
#
# Coordination Sequence:
#
# PCOD8226179 Si02
#       8
#     8   8   8   8   8   8   8   8
#     4  10  21  37  60  88 116 149 191 241 295 348
#     4  11  23  37  56  83 113 147 187 231 282 341
#     4  10  20  35  56  82 113 147 184 230 283 338
#     4  11  24  40  59  86 119 154 196 244 293 351
#     4   9  21  40  60  85 116 154 199 245 297 356
#     4  11  23  40  61  84 118 159 196 241 297 356
#     4  10  20  36  60  86 111 144 192 243 288 342
#     4  10  22  40  60  84 119 160 196 237 296 359
#
# _framework density 20.275236
#
# number of rings (size 3 to 8) (size 9 to 14) (size 15 to 20)
#    0.000    1.750    0.000    3.750    0.000    9.250 
#    0.000    3.750    0.000    0.000    0.000    0.000 
#    0.000    0.000    0.000    0.000    0.000    0.000 
#
# Total GULP energy -793591.241607 kJ/mol
# GULP energy per Si atom -12399.863150 kJ/mol
# Density = 2.022909 g / cm^3
# Si number density = 20.275236 Si / 1000 Ang^3
#
#
#
# Elastic Constant Matrix: (Units=GPa)
#
#
# Indices 1 2 3 4 5 6 
#
# 1 86.1225 50.8772 38.8918 0.0000 0.0000 0.0000
# 2 50.8772 135.6307 46.1498 0.0000 0.0000 0.0000
# 3 38.8918 46.1498 54.0902 0.0000 0.0000 0.0000
# 4 0.0000 0.0000 0.0000 27.7430 0.0000 0.0000
# 5 0.0000 0.0000 0.0000 0.0000 28.1038 0.0000
# 6 0.0000 0.0000 0.0000 0.0000 0.0000 29.8895
#
#
#
# Elastic Compliance Matrix: (Units=1/GPa)
#
#
# Indices 1 2 3 4 5 6 
#
# 1 0.018213 -0.003348 -0.010239 0.000000 0.000000 0.000000
# 2 -0.003348 0.011004 -0.006982 0.000000 0.000000 0.000000
# 3 -0.010239 -0.006982 0.031806 0.000000 0.000000 0.000000
# 4 0.000000 0.000000 0.000000 0.036045 0.000000 0.000000
# 5 0.000000 0.000000 0.000000 0.000000 0.035582 0.000000
# 6 0.000000 0.000000 0.000000 0.000000 0.000000 0.033457
#
#
# Mechanical properties :
#
#
# Convention : Reuss Voigt Hill
#
# Bulk Modulus (GPa) = 50.28533 60.85345 55.56939
# Shear Modulus (GPa) = 23.37826 26.47557 24.92691
#
# Velocity S-wave (km/s) = 3.39934 3.61752 3.51012
# Velocity P-wave (km/s) = 6.34527 6.89401 6.62533
#
# Compressibility (1/GPa) = 0.01988652
#
# Stress axis : x y z
#
# Youngs Moduli (GPa) = 54.90587 90.87202 31.44032
#
# Poissons Ratio (x) = 0.30425 0.32191
# Poissons Ratio (y) = 0.18383 0.21951
# Poissons Ratio (z) = 0.56217 0.63444
#
# Static dielectric constant tensor:
#      x y z
#    x 3.609400 0.000000 0.000000 
#    y 0.000000 4.092160 0.000000 
#    z 0.000000 0.000000 3.699390 
# 
# 
# High freq. dielectric constant tensor:
#      x y z
#    x 1.785930 0.000000 0.000000 
#    y 0.000000 1.799250 0.000000 
#    z 0.000000 0.000000 1.797930 
# 
# From -- ./inp_files/4699.got.cif
#   From: 2010.03.12/outbox.cif.g09.slc.cpg/sg55_3_cif.got.tgz:4699.got - 2010.04.16 15:19:21.
