data_PCOD8226443
_publ_section_title
;
Structure prediction by ZEFSAII (Michael W. Deem and Ramdas Pophale) SiO2 
 PCOD8226443
Probable space group: P B A M
;
_chemical_formula_sum "Si O2"
_cell_formula_units_Z 64
_cell_length_a 23.383806
_cell_length_b 15.374461
_cell_length_c 8.584740
_cell_angle_alpha 90.000000
_cell_angle_beta 90.000000
_cell_angle_gamma 90.000000
_cell_volume 3086.329180
_symmetry_space_group_name_H-M "P B A M"
_symmetry_group_IT_number 55
_symmetry_cell_setting 'orthorhombic'
loop_
_space_group_symop_operation_xyz
x,y,z
-x,-y,z
1/2+x,1/2-y,-z
1/2-x,1/2+y,-z
-x,-y,-z
x,y,-z
1/2-x,1/2+y,z
1/2+x,1/2-y,z
loop_
_atom_site_type_symbol
_atom_site_label
_atom_site_fract_x
_atom_site_fract_y
_atom_site_fract_z
Si Si1 0.689808 0.288010 0.823956
Si Si2 0.632408 0.135417 0.323898
Si Si3 0.810268 0.313735 0.681589
Si Si4 0.793500 0.493364 0.818257
Si Si5 0.502837 0.099187 0.680551
Si Si6 0.331881 0.513275 0.823162
Si Si7 0.924538 0.253546 0.181903
Si Si8 0.551241 0.560372 0.815586
O O1 0.652183 0.233167 0.704446
O O2 0.756041 0.280956 0.778452
O O3 0.664002 0.383469 0.809116
O O4 0.683514 0.253176 0.000000
O O5 0.645727 0.105846 0.500000
O O6 0.666133 0.075368 0.203244
O O7 0.565866 0.133334 0.288942
O O8 0.797540 0.303929 0.500000
O O9 0.822191 0.414238 0.724304
O O10 0.864753 0.255718 0.726532
O O11 0.729694 0.515245 0.751103
O O12 0.788869 0.467062 0.000000
O O13 0.484491 0.102901 0.500000
O O14 0.461599 0.162256 0.775800
O O15 0.500000 0.000000 0.742227
O O16 0.387735 0.470932 0.741556
O O17 0.332344 0.480935 0.000000
O O18 0.956930 0.162862 0.225737
O O19 0.910817 0.256329 0.000000
O O20 0.500000 0.500000 0.745658
O O21 0.552376 0.545855 0.000000
#
# Coordination Sequence:
#
# PCOD8226443 Si02
#       8
#     8   8   8   8   8   8   8   8
#     4  10  21  37  60  87 119 157 203 256 303 360
#     4  11  23  37  58  89 123 161 203 248 309 375
#     4  11  22  39  61  86 124 162 197 247 311 374
#     4  10  20  36  60  90 121 158 200 249 303 365
#     4  10  23  43  63  84 120 167 207 250 311 374
#     4   8  17  34  56  83 116 154 194 241 303 358
#     4  11  23  37  63  96 124 157 207 259 304 370
#     4   9  19  35  57  87 122 156 196 250 308 362
#
# _framework density 20.736606999999999
#
# number of rings (size 3 to 8) (size 9 to 14) (size 15 to 20)
#    0.000    2.000    0.000    4.125    3.500    2.250 
#    0.000    0.000    0.000    3.750    0.000    0.000 
#    0.000    0.000    0.000    0.000    0.000    0.000 
#
# Total GULP energy -793558.163787 kJ/mol
# GULP energy per Si atom -12399.346309 kJ/mol
# Density = 2.068941 g / cm^3
# Si number density = 20.736607 Si / 1000 Ang^3
#
#
#
# Elastic Constant Matrix: (Units=GPa)
#
#
# Indices 1 2 3 4 5 6 
#
# 1 94.3625 45.1598 25.5102 0.0000 0.0000 0.0000
# 2 45.1598 92.4911 21.9738 0.0000 0.0000 0.0000
# 3 25.5102 21.9738 45.9825 0.0000 0.0000 0.0000
# 4 0.0000 0.0000 0.0000 25.0219 0.0000 0.0000
# 5 0.0000 0.0000 0.0000 0.0000 25.3835 0.0000
# 6 0.0000 0.0000 0.0000 0.0000 0.0000 38.4699
#
#
#
# Elastic Compliance Matrix: (Units=1/GPa)
#
#
# Indices 1 2 3 4 5 6 
#
# 1 0.014936 -0.006006 -0.005416 0.000000 0.000000 0.000000
# 2 -0.006006 0.014612 -0.003651 0.000000 0.000000 0.000000
# 3 -0.005416 -0.003651 0.026497 0.000000 0.000000 0.000000
# 4 0.000000 0.000000 0.000000 0.039965 0.000000 0.000000
# 5 0.000000 0.000000 0.000000 0.000000 0.039396 0.000000
# 6 0.000000 0.000000 0.000000 0.000000 0.000000 0.025994
#
#
# Mechanical properties :
#
#
# Convention : Reuss Voigt Hill
#
# Bulk Modulus (GPa) = 38.61139 46.45819 42.53479
# Shear Modulus (GPa) = 24.97789 27.12123 26.04956
#
# Velocity S-wave (km/s) = 3.47440 3.62040 3.54815
# Velocity P-wave (km/s) = 5.89539 6.31894 6.11084
#
# Compressibility (1/GPa) = 0.02589909
#
# Stress axis : x y z
#
# Youngs Moduli (GPa) = 66.95276 68.43893 37.74067
#
# Poissons Ratio (x) = 0.41104 0.20441
# Poissons Ratio (y) = 0.40211 0.13777
# Poissons Ratio (z) = 0.36262 0.24984
#
# Static dielectric constant tensor:
#      x y z
#    x 3.904980 0.000000 0.000000 
#    y 0.000000 3.785570 0.000000 
#    z 0.000000 0.000000 3.493870 
# 
# 
# High freq. dielectric constant tensor:
#      x y z
#    x 1.820730 0.000000 0.000000 
#    y 0.000000 1.815290 0.000000 
#    z 0.000000 0.000000 1.784190 
# 
# From -- ./inp_files/9746.got.cif
#   From: 2010.03.12/outbox.cif.g09.slc.cpg/sg55_5_cif.got.tgz:9746.got - 2010.04.16 15:19:21.
