data_PCOD8226484
_publ_section_title
;
Structure prediction by ZEFSAII (Michael W. Deem and Ramdas Pophale) SiO2 
 PCOD8226484
Probable space group: P B A M
;
_chemical_formula_sum "Si O2"
_cell_formula_units_Z 64
_cell_length_a 23.530672
_cell_length_b 15.150533
_cell_length_c 8.915431
_cell_angle_alpha 90.000000
_cell_angle_beta 90.000000
_cell_angle_gamma 90.000000
_cell_volume 3178.370967
_symmetry_space_group_name_H-M "P B A M"
_symmetry_group_IT_number 55
_symmetry_cell_setting 'orthorhombic'
loop_
_space_group_symop_operation_xyz
x,y,z
-x,-y,z
1/2+x,1/2-y,-z
1/2-x,1/2+y,-z
-x,-y,-z
x,y,-z
1/2-x,1/2+y,z
1/2+x,1/2-y,z
loop_
_atom_site_type_symbol
_atom_site_label
_atom_site_fract_x
_atom_site_fract_y
_atom_site_fract_z
Si Si1 0.757014 0.150575 0.168706
Si Si2 0.924324 0.759423 0.173735
Si Si3 0.635214 0.081688 0.825875
Si Si4 0.870368 0.109236 0.671208
Si Si5 0.254867 0.146567 0.828790
Si Si6 0.644836 0.410315 0.672397
Si Si7 0.127860 0.598607 0.677053
Si Si8 0.942662 0.253050 0.826693
O O1 0.702630 0.089897 0.202708
O O2 0.805161 0.128348 0.287690
O O3 0.736783 0.251562 0.184008
O O4 0.779858 0.133691 0.000000
O O5 0.897260 0.668348 0.232686
O O6 0.899860 0.840221 0.267097
O O7 0.991013 0.756888 0.201564
O O8 0.908465 0.774022 0.000000
O O9 0.612045 0.998899 0.733336
O O10 0.621576 0.066206 0.000000
O O11 0.879357 0.139500 0.500000
O O12 0.912610 0.162864 0.776926
O O13 0.883780 0.006048 0.691727
O O14 0.203847 0.088937 0.762569
O O15 0.312185 0.131047 0.739016
O O16 0.265063 0.117235 0.000000
O O17 0.658642 0.389482 0.500000
O O18 0.130298 0.599289 0.500000
O O19 0.079053 0.664403 0.731685
O O20 0.928032 0.270112 0.000000
#
# Coordination Sequence:
#
# PCOD8226484 Si02
#       8
#     8   8   8   8   8   8   8   8
#     4  10  20  36  63  92 121 159 201 247 301 361
#     4  10  23  44  67  90 118 159 213 260 302 356
#     4  10  21  41  65  91 122 158 201 251 303 360
#     4  11  24  40  60  90 128 164 200 248 305 370
#     4  11  21  38  64  93 125 161 204 249 300 362
#     4  11  24  40  62  94 129 163 199 246 310 368
#     4  12  25  40  61  93 128 162 200 247 308 372
#     4  11  24  43  66  89 117 160 212 262 305 355
#
# _framework density 20.136099999999999
#
# number of rings (size 3 to 8) (size 9 to 14) (size 15 to 20)
#    0.000    1.250    2.500    3.375    0.000    7.500 
#    0.000    5.000    0.000    0.000    0.000    0.000 
#    0.000    0.000    0.000    0.000    0.000    0.000 
#
# Total GULP energy -794046.971750 kJ/mol
# GULP energy per Si atom -12406.983934 kJ/mol
# Density = 2.009027 g / cm^3
# Si number density = 20.136100 Si / 1000 Ang^3
#
#
#
# Elastic Constant Matrix: (Units=GPa)
#
#
# Indices 1 2 3 4 5 6 
#
# 1 83.5793 32.6359 45.5473 0.0000 0.0000 0.0000
# 2 32.6359 106.0012 49.7162 0.0000 0.0000 0.0000
# 3 45.5473 49.7162 116.8060 0.0000 0.0000 0.0000
# 4 0.0000 0.0000 0.0000 30.1704 0.0000 0.0000
# 5 0.0000 0.0000 0.0000 0.0000 13.5080 0.0000
# 6 0.0000 0.0000 0.0000 0.0000 0.0000 11.6734
#
#
#
# Elastic Compliance Matrix: (Units=1/GPa)
#
#
# Indices 1 2 3 4 5 6 
#
# 1 0.015686 -0.002450 -0.005074 0.000000 0.000000 0.000000
# 2 -0.002450 0.012169 -0.004224 0.000000 0.000000 0.000000
# 3 -0.005074 -0.004224 0.012338 0.000000 0.000000 0.000000
# 4 0.000000 0.000000 0.000000 0.033145 0.000000 0.000000
# 5 0.000000 0.000000 0.000000 0.000000 0.074030 0.000000
# 6 0.000000 0.000000 0.000000 0.000000 0.000000 0.085665
#
#
# Mechanical properties :
#
#
# Convention : Reuss Voigt Hill
#
# Bulk Modulus (GPa) = 59.89034 62.46502 61.17768
# Shear Modulus (GPa) = 19.07697 22.96951 21.02324
#
# Velocity S-wave (km/s) = 3.08133 3.38111 3.23469
# Velocity P-wave (km/s) = 6.51665 6.80671 6.66326
#
# Compressibility (1/GPa) = 0.01669718
#
# Stress axis : x y z
#
# Youngs Moduli (GPa) = 63.74944 82.17328 81.05164
#
# Poissons Ratio (x) = 0.20130 0.41126
# Poissons Ratio (y) = 0.15617 0.34240
# Poissons Ratio (z) = 0.32347 0.34713
#
# Static dielectric constant tensor:
#      x y z
#    x 3.513570 0.000000 0.000000 
#    y 0.000000 3.824840 0.000000 
#    z 0.000000 0.000000 3.744800 
# 
# 
# High freq. dielectric constant tensor:
#      x y z
#    x 1.780200 0.000000 0.000000 
#    y 0.000000 1.802010 0.000000 
#    z 0.000000 0.000000 1.788630 
# 
# From -- ./inp_files/9670.got.cif
#   From: 2010.03.12/outbox.cif.g09.slc.cpg/sg55_5_cif.got.tgz:9670.got - 2010.04.16 15:19:21.
