data_PCOD8226876
_publ_section_title
;
Structure prediction by ZEFSAII (Michael W. Deem and Ramdas Pophale) SiO2 
 PCOD8226876
Probable space group: P B A M
;
_chemical_formula_sum "Si O2"
_cell_formula_units_Z 56
_cell_length_a 16.195070
_cell_length_b 19.680209
_cell_length_c 9.342860
_cell_angle_alpha 90.000000
_cell_angle_beta 90.000000
_cell_angle_gamma 90.000000
_cell_volume 2977.778410
_symmetry_space_group_name_H-M "P B A M"
_symmetry_group_IT_number 55
_symmetry_cell_setting 'orthorhombic'
loop_
_space_group_symop_operation_xyz
x,y,z
-x,-y,z
1/2+x,1/2-y,-z
1/2-x,1/2+y,-z
-x,-y,-z
x,y,-z
1/2-x,1/2+y,z
1/2+x,1/2-y,z
loop_
_atom_site_type_symbol
_atom_site_label
_atom_site_fract_x
_atom_site_fract_y
_atom_site_fract_z
Si Si1 0.318228 0.402675 0.167798
Si Si2 0.849763 0.836952 0.333692
Si Si3 0.987099 0.168573 0.833960
Si Si4 0.068134 0.553072 0.331232
Si Si5 0.182714 0.295606 0.833510
Si Si6 0.252552 0.526503 0.664403
Si Si7 0.996282 0.323391 0.837440
O O1 0.408785 0.376372 0.208536
O O2 0.251040 0.348271 0.221672
O O3 0.305435 0.474170 0.243746
O O4 0.308575 0.414209 0.000000
O O5 0.864506 0.820629 0.500000
O O6 0.807825 0.772512 0.258242
O O7 0.787576 0.898682 0.310948
O O8 0.937000 0.856140 0.262267
O O9 0.965813 0.247214 0.803757
O O10 0.011936 0.159567 0.000000
O O11 0.062398 0.562727 0.500000
O O12 0.157524 0.525435 0.284759
O O13 0.053505 0.626578 0.264061
O O14 0.000000 0.500000 0.274260
O O15 0.093823 0.329485 0.807189
O O16 0.194901 0.276515 0.000000
O O17 0.259849 0.504347 0.500000
O O18 0.976088 0.343475 0.000000
#
# Coordination Sequence:
#
# PCOD8226876 Si02
#       7
#     8   8   8   8   8   8   8
#     4  10  21  37  59  84 109 144 188 230 282 339
#     4  10  21  37  56  80 111 149 190 228 276 334
#     4   9  20  38  57  82 112 140 182 237 283 327
#     4  10  21  36  54  77 110 148 182 221 272 329
#     4   9  19  36  58  83 113 143 180 232 281 329
#     4  10  23  39  53  79 116 148 185 232 276 330
#     4   9  18  33  54  81 109 137 175 225 273 323
#
# _framework density 18.805966999999999
#
# number of rings (size 3 to 8) (size 9 to 14) (size 15 to 20)
#    0.000    2.429    0.000    2.143    2.000    6.000 
#    0.000    2.857    0.000    0.000    0.000    0.000 
#    0.000    0.000    0.000    0.000    0.000    0.000 
#
# Total GULP energy -694618.238471 kJ/mol
# GULP energy per Si atom -12403.897116 kJ/mol
# Density = 1.876316 g / cm^3
# Si number density = 18.805967 Si / 1000 Ang^3
#
#
#
# Elastic Constant Matrix: (Units=GPa)
#
#
# Indices 1 2 3 4 5 6 
#
# 1 64.0538 31.8722 30.6865 0.0000 0.0000 0.0000
# 2 31.8722 71.5074 37.5185 0.0000 0.0000 0.0000
# 3 30.6865 37.5185 57.5772 0.0000 0.0000 0.0000
# 4 0.0000 0.0000 0.0000 30.7583 0.0000 0.0000
# 5 0.0000 0.0000 0.0000 0.0000 27.5224 0.0000
# 6 0.0000 0.0000 0.0000 0.0000 0.0000 31.2647
#
#
#
# Elastic Compliance Matrix: (Units=1/GPa)
#
#
# Indices 1 2 3 4 5 6 
#
# 1 0.022370 -0.005646 -0.008244 0.000000 0.000000 0.000000
# 2 -0.005646 0.022674 -0.011766 0.000000 0.000000 0.000000
# 3 -0.008244 -0.011766 0.029429 0.000000 0.000000 0.000000
# 4 0.000000 0.000000 0.000000 0.032512 0.000000 0.000000
# 5 0.000000 0.000000 0.000000 0.000000 0.036334 0.000000
# 6 0.000000 0.000000 0.000000 0.000000 0.000000 0.031985
#
#
# Mechanical properties :
#
#
# Convention : Reuss Voigt Hill
#
# Bulk Modulus (GPa) = 43.17354 43.69919 43.43637
# Shear Modulus (GPa) = 21.33686 24.11314 22.72500
#
# Velocity S-wave (km/s) = 3.37201 3.58468 3.47997
# Velocity P-wave (km/s) = 6.17801 6.35771 6.26850
#
# Compressibility (1/GPa) = 0.02316233
#
# Stress axis : x y z
#
# Youngs Moduli (GPa) = 44.70190 44.10258 33.98039
#
# Poissons Ratio (x) = 0.24898 0.28013
# Poissons Ratio (y) = 0.25237 0.39982
# Poissons Ratio (z) = 0.36851 0.51892
#
# Static dielectric constant tensor:
#      x y z
#    x 3.567190 0.000000 0.000000 
#    y 0.000000 3.331150 0.000000 
#    z 0.000000 0.000000 3.377570 
# 
# 
# High freq. dielectric constant tensor:
#      x y z
#    x 1.736640 0.000000 0.000000 
#    y 0.000000 1.730830 0.000000 
#    z 0.000000 0.000000 1.724660 
# 
# From -- ./inp_files/6130.got.cif
#   From: 2010.03.12/outbox.cif.g09.slc.cpg/sg55_4_cif.got.tgz:6130.got - 2010.04.16 15:19:21.
