data_PCOD8226396
_publ_section_title
;
Structure prediction by ZEFSAII (Michael W. Deem and Ramdas Pophale) SiO2 
 PCOD8226396
Probable space group: P B A M
;
_chemical_formula_sum "Si O2"
_cell_formula_units_Z 48
_cell_length_a 17.687921
_cell_length_b 15.422085
_cell_length_c 8.799668
_cell_angle_alpha 90.000000
_cell_angle_beta 90.000000
_cell_angle_gamma 90.000000
_cell_volume 2400.414101
_symmetry_space_group_name_H-M "P B A M"
_symmetry_group_IT_number 55
_symmetry_cell_setting 'orthorhombic'
loop_
_space_group_symop_operation_xyz
x,y,z
-x,-y,z
1/2+x,1/2-y,-z
1/2-x,1/2+y,-z
-x,-y,-z
x,y,-z
1/2-x,1/2+y,z
1/2+x,1/2-y,z
loop_
_atom_site_type_symbol
_atom_site_label
_atom_site_fract_x
_atom_site_fract_y
_atom_site_fract_z
Si Si1 0.704843 0.068344 0.677450
Si Si2 0.548068 0.745199 0.823907
Si Si3 0.953146 0.583728 0.824839
Si Si4 0.046887 0.080821 0.819686
Si Si5 0.783484 0.906345 0.820003
Si Si6 0.291082 0.259335 0.677854
O O1 0.710293 0.049603 0.500000
O O2 0.619809 0.093065 0.720337
O O3 0.758796 0.147270 0.726673
O O4 0.728522 0.981727 0.764177
O O5 0.506120 0.834729 0.795687
O O6 0.493105 0.669012 0.767317
O O7 0.621707 0.743804 0.721162
O O8 0.571030 0.733221 0.000000
O O9 0.000000 0.500000 0.774371
O O10 0.927474 0.577401 0.000000
O O11 0.132077 0.078190 0.755033
O O12 0.049670 0.075098 0.000000
O O13 0.000000 0.000000 0.751682
O O14 0.755087 0.813564 0.765683
O O15 0.782881 0.906127 0.000000
O O16 0.281305 0.242798 0.500000
#
# Coordination Sequence:
#
# PCOD8226396 Si02
#       6
#     8   8   8   8   8   8
#     4  11  24  40  59  86 121 159 195 235 288 350
#     4  10  20  36  59  85 113 147 192 241 286 339
#     4  10  21  37  58  85 114 147 193 244 289 338
#     4   9  18  33  55  84 113 142 183 236 288 336
#     4  11  22  38  63  89 115 152 196 243 292 340
#     4  11  24  40  58  85 122 158 193 235 287 349
#
# _framework density 19.996549999999999
#
# number of rings (size 3 to 8) (size 9 to 14) (size 15 to 20)
#    0.000    1.667    0.000    4.500    0.000    7.667 
#    0.000    1.667    0.000    4.500    0.000    0.000 
#    0.000    0.000    0.000    0.000    0.000    0.000 
#
# Total GULP energy -595481.504275 kJ/mol
# GULP energy per Si atom -12405.864672 kJ/mol
# Density = 1.995104 g / cm^3
# Si number density = 19.996550 Si / 1000 Ang^3
#
#
#
# Elastic Constant Matrix: (Units=GPa)
#
#
# Indices 1 2 3 4 5 6 
#
# 1 109.7856 27.7512 27.6421 0.0000 0.0000 0.0000
# 2 27.7512 116.8238 32.9292 0.0000 0.0000 0.0000
# 3 27.6421 32.9292 54.9230 0.0000 0.0000 0.0000
# 4 0.0000 0.0000 0.0000 -269.8461 0.0000 0.0000
# 5 0.0000 0.0000 0.0000 0.0000 24.1335 0.0000
# 6 0.0000 0.0000 0.0000 0.0000 0.0000 35.1868
#
#
#
# Elastic Compliance Matrix: (Units=1/GPa)
#
#
# Indices 1 2 3 4 5 6 
#
# 1 0.010572 -0.001217 -0.004591 0.000000 0.000000 0.000000
# 2 -0.001217 0.010441 -0.005647 0.000000 0.000000 0.000000
# 3 -0.004591 -0.005647 0.023904 0.000000 0.000000 0.000000
# 4 0.000000 0.000000 0.000000 -0.003706 0.000000 0.000000
# 5 0.000000 0.000000 0.000000 0.000000 0.041436 0.000000
# 6 0.000000 0.000000 0.000000 0.000000 0.000000 0.028420
#
#
# Mechanical properties :
#
#
# Convention : Reuss Voigt Hill
#
# Bulk Modulus (GPa) = 45.44269 50.90860 48.17565
# Shear Modulus (GPa) = 35.38237 -29.22448 3.07894
#
# Velocity S-wave (km/s) = 4.21102 -3.82707 1.24221
# Velocity P-wave (km/s) = 6.81309 2.44649 5.11876
#
# Compressibility (1/GPa) = 0.02200574
#
# Stress axis : x y z
#
# Youngs Moduli (GPa) = 94.58653 95.77764 41.83449
#
# Poissons Ratio (x) = 0.11659 0.19207
# Poissons Ratio (y) = 0.11514 0.23625
# Poissons Ratio (z) = 0.43425 0.54087
#
# Static dielectric constant tensor:
#      x y z
#    x 3.778980 0.000000 0.000000 
#    y 0.000000 3.797990 0.000000 
#    z 0.000000 0.000000 3.434690 
# 
# 
# High freq. dielectric constant tensor:
#      x y z
#    x 1.795450 0.000000 0.000000 
#    y 0.000000 1.800770 0.000000 
#    z 0.000000 0.000000 1.760940 
# 
# From -- ./inp_files/7417.got.cif
#   From: 2010.03.12/outbox.cif.g09.slc.cpg/sg55_4_cif.got.tgz:7417.got - 2010.04.16 15:19:21.
