data_PCOD8226731
_publ_section_title
;
Structure prediction by ZEFSAII (Michael W. Deem and Ramdas Pophale) SiO2 
 PCOD8226731
Probable space group: P B A M
;
_chemical_formula_sum "Si O2"
_cell_formula_units_Z 48
_cell_length_a 21.428228
_cell_length_b 8.810733
_cell_length_c 13.491133
_cell_angle_alpha 90.000000
_cell_angle_beta 90.000000
_cell_angle_gamma 90.000000
_cell_volume 2547.104265
_symmetry_space_group_name_H-M "P B A M"
_symmetry_group_IT_number 55
_symmetry_cell_setting 'orthorhombic'
loop_
_space_group_symop_operation_xyz
x,y,z
-x,-y,z
1/2+x,1/2-y,-z
1/2-x,1/2+y,-z
-x,-y,-z
x,y,-z
1/2-x,1/2+y,z
1/2+x,1/2-y,z
loop_
_atom_site_type_symbol
_atom_site_label
_atom_site_fract_x
_atom_site_fract_y
_atom_site_fract_z
Si Si1 0.054564 0.881055 0.113544
Si Si2 0.668018 0.984886 0.387602
Si Si3 0.164215 0.978807 0.769418
Si Si4 0.447427 0.124582 0.721668
Si Si5 0.760271 0.753252 0.301681
Si Si6 0.059885 0.911473 0.387052
O O1 0.052457 0.728749 0.179840
O O2 0.120865 0.963967 0.133364
O O3 0.049906 0.829831 0.000000
O O4 0.000000 0.000000 0.140770
O O5 0.641150 0.975567 0.500000
O O6 0.617118 0.961883 0.300512
O O7 0.720727 0.857249 0.375981
O O8 0.696946 0.150204 0.371556
O O9 0.196430 0.143225 0.769230
O O10 0.216560 0.847627 0.769690
O O11 0.121286 0.958536 0.672294
O O12 0.456897 0.234124 0.626910
O O13 0.500000 0.000000 0.732463
O O14 0.073899 0.950280 0.500000
O O15 0.000000 0.000000 0.346140
#
# Coordination Sequence:
#
# PCOD8226731 Si02
#       6
#     8   8   8   8   8   8
#     4  10  22  43  70  89 107 144 193 245 302 360
#     4  11  22  36  55  85 120 161 200 234 273 330
#     4  10  20  39  59  83 118 149 194 241 289 341
#     4  11  23  37  58  85 120 150 184 246 297 344
#     4  10  22  36  58  81 117 163 197 230 276 336
#     4  10  21  36  55  80 113 160 203 242 289 340
#
# _framework density 18.844930000000002
#
# number of rings (size 3 to 8) (size 9 to 14) (size 15 to 20)
#    0.000    1.667    3.333    3.000    4.667    5.000 
#    0.000    0.833    0.000    0.000    0.000    0.000 
#    0.000    0.000    0.000    0.000    0.000    0.000 
#
# Total GULP energy -595034.270916 kJ/mol
# GULP energy per Si atom -12396.547311 kJ/mol
# Density = 1.880204 g / cm^3
# Si number density = 18.844930 Si / 1000 Ang^3
#
#
#
# Elastic Constant Matrix: (Units=GPa)
#
#
# Indices 1 2 3 4 5 6 
#
# 1 123.0689 74.3836 48.2895 0.0000 0.0000 0.0000
# 2 74.3836 124.5936 30.3110 0.0000 0.0000 0.0000
# 3 48.2895 30.3110 83.8266 0.0000 0.0000 0.0000
# 4 0.0000 0.0000 0.0000 16.7602 0.0000 0.0000
# 5 0.0000 0.0000 0.0000 0.0000 19.7074 0.0000
# 6 0.0000 0.0000 0.0000 0.0000 0.0000 33.7798
#
#
#
# Elastic Compliance Matrix: (Units=1/GPa)
#
#
# Indices 1 2 3 4 5 6 
#
# 1 0.014984 -0.007506 -0.005918 0.000000 0.000000 0.000000
# 2 -0.007506 0.012560 -0.000218 0.000000 0.000000 0.000000
# 3 -0.005918 -0.000218 0.015417 0.000000 0.000000 0.000000
# 4 0.000000 0.000000 0.000000 0.059665 0.000000 0.000000
# 5 0.000000 0.000000 0.000000 0.000000 0.050742 0.000000
# 6 0.000000 0.000000 0.000000 0.000000 0.000000 0.029604
#
#
# Mechanical properties :
#
#
# Convention : Reuss Voigt Hill
#
# Bulk Modulus (GPa) = 63.78139 70.82859 67.30499
# Shear Modulus (GPa) = 23.20380 25.94980 24.57680
#
# Velocity S-wave (km/s) = 3.51280 3.71484 3.61523
# Velocity P-wave (km/s) = 7.09731 7.48777 7.29515
#
# Compressibility (1/GPa) = 0.01567855
#
# Stress axis : x y z
#
# Youngs Moduli (GPa) = 66.73684 79.61631 64.86295
#
# Poissons Ratio (x) = 0.59760 0.38384
# Poissons Ratio (y) = 0.50093 0.01412
# Poissons Ratio (z) = 0.39493 0.01733
#
# Static dielectric constant tensor:
#      x y z
#    x 3.679000 0.000000 0.000000 
#    y 0.000000 3.706300 0.000000 
#    z 0.000000 0.000000 3.177970 
# 
# 
# High freq. dielectric constant tensor:
#      x y z
#    x 1.743690 0.000000 0.000000 
#    y 0.000000 1.741780 0.000000 
#    z 0.000000 0.000000 1.701860 
# 
# From -- ./inp_files/19650.got.cif
#   From: 2010.03.12/outbox.cif.g09.slc.cpg/sg55_10_cif.got.tgz:19650.got - 2010.04.16 15:19:21.
