data_PCOD8226970
_publ_section_title
;
Structure prediction by ZEFSAII (Michael W. Deem and Ramdas Pophale) SiO2 
 PCOD8226970
Probable space group: P B A M
;
_chemical_formula_sum "Si O2"
_cell_formula_units_Z 48
_cell_length_a 23.468653
_cell_length_b 11.940700
_cell_length_c 8.900390
_cell_angle_alpha 90.000000
_cell_angle_beta 90.000000
_cell_angle_gamma 90.000000
_cell_volume 2494.175380
_symmetry_space_group_name_H-M "P B A M"
_symmetry_group_IT_number 55
_symmetry_cell_setting 'orthorhombic'
loop_
_space_group_symop_operation_xyz
x,y,z
-x,-y,z
1/2+x,1/2-y,-z
1/2-x,1/2+y,-z
-x,-y,-z
x,y,-z
1/2-x,1/2+y,z
1/2+x,1/2-y,z
loop_
_atom_site_type_symbol
_atom_site_label
_atom_site_fract_x
_atom_site_fract_y
_atom_site_fract_z
Si Si1 0.619388 0.240685 0.675259
Si Si2 0.284845 0.617904 0.821511
Si Si3 0.342646 0.158193 0.821937
Si Si4 0.350079 0.404094 0.174029
Si Si5 0.934499 0.520963 0.821254
Si Si6 0.064136 0.031982 0.663392
O O1 0.628438 0.214716 0.500000
O O2 0.680237 0.279583 0.745631
O O3 0.592714 0.132892 0.754396
O O4 0.573294 0.338360 0.705757
O O5 0.219117 0.613933 0.772921
O O6 0.306860 0.497575 0.761023
O O7 0.292646 0.631634 0.000000
O O8 0.345776 0.282410 0.749471
O O9 0.394291 0.080753 0.762005
O O10 0.348068 0.163986 0.000000
O O11 0.412480 0.451381 0.207132
O O12 0.338383 0.389670 0.000000
O O13 0.000000 0.500000 0.767204
O O14 0.932630 0.531300 0.000000
O O15 0.093688 0.010490 0.500000
O O16 0.000000 0.000000 0.650083
#
# Coordination Sequence:
#
# PCOD8226970 Si02
#       6
#     8   8   8   8   8   8
#     4  10  21  37  56  80 111 144 182 229 277 333
#     4   9  18  34  58  82 105 140 179 224 280 331
#     4   9  19  34  56  83 110 140 179 228 277 329
#     4   9  18  32  52  81 107 131 173 224 269 320
#     4  10  22  38  57  83 115 153 193 232 278 334
#     4   9  19  35  54  75 103 141 178 217 268 322
#
# _framework density 19.244838999999999
#
# number of rings (size 3 to 8) (size 9 to 14) (size 15 to 20)
#    0.000    2.667    0.000    0.500    4.667    1.333 
#    0.000    2.500    0.000    0.000    0.000    0.000 
#    0.000    0.000    0.000    0.000    0.000    0.000 
#
# Total GULP energy -594751.568217 kJ/mol
# GULP energy per Si atom -12390.657671 kJ/mol
# Density = 1.920104 g / cm^3
# Si number density = 19.244839 Si / 1000 Ang^3
#
#
#
# Elastic Constant Matrix: (Units=GPa)
#
#
# Indices 1 2 3 4 5 6 
#
# 1 147.4481 84.2856 27.2625 0.0000 0.0000 0.0000
# 2 84.2856 162.3025 29.3066 0.0000 0.0000 0.0000
# 3 27.2625 29.3066 25.0219 0.0000 0.0000 0.0000
# 4 0.0000 0.0000 0.0000 17.3537 0.0000 0.0000
# 5 0.0000 0.0000 0.0000 0.0000 11.6408 0.0000
# 6 0.0000 0.0000 0.0000 0.0000 0.0000 23.9883
#
#
#
# Elastic Compliance Matrix: (Units=1/GPa)
#
#
# Indices 1 2 3 4 5 6 
#
# 1 0.010381 -0.004247 -0.006337 0.000000 0.000000 0.000000
# 2 -0.004247 0.009551 -0.006560 0.000000 0.000000 0.000000
# 3 -0.006337 -0.006560 0.054552 0.000000 0.000000 0.000000
# 4 0.000000 0.000000 0.000000 0.057625 0.000000 0.000000
# 5 0.000000 0.000000 0.000000 0.000000 0.085905 0.000000
# 6 0.000000 0.000000 0.000000 0.000000 0.000000 0.041687
#
#
# Mechanical properties :
#
#
# Convention : Reuss Voigt Hill
#
# Bulk Modulus (GPa) = 24.87677 68.49798 46.68738
# Shear Modulus (GPa) = 16.26613 23.52441 19.89527
#
# Velocity S-wave (km/s) = 2.91042 3.50004 3.21876
# Velocity P-wave (km/s) = 4.92429 7.21137 6.17465
#
# Compressibility (1/GPa) = 0.04019814
#
# Stress axis : x y z
#
# Youngs Moduli (GPa) = 96.32646 104.69808 18.33107
#
# Poissons Ratio (x) = 0.44465 0.11616
# Poissons Ratio (y) = 0.40909 0.12024
# Poissons Ratio (z) = 0.61040 0.68678
#
# Static dielectric constant tensor:
#      x y z
#    x 3.618560 0.000000 0.000000 
#    y 0.000000 3.810600 0.000000 
#    z 0.000000 0.000000 3.409860 
# 
# 
# High freq. dielectric constant tensor:
#      x y z
#    x 1.749480 0.000000 0.000000 
#    y 0.000000 1.759980 0.000000 
#    z 0.000000 0.000000 1.720960 
# 
# From -- ./inp_files/4041.got.cif
#   From: 2010.03.12/outbox.cif.g09.slc.cpg/sg55_3_cif.got.tgz:4041.got - 2010.04.16 15:19:21.
