data_PCOD8226637
_publ_section_title
;
Structure prediction by ZEFSAII (Michael W. Deem and Ramdas Pophale) SiO2 
 PCOD8226637
Probable space group: P B A M
;
_chemical_formula_sum "Si O2"
_cell_formula_units_Z 48
_cell_length_a 20.089936
_cell_length_b 13.848740
_cell_length_c 8.830108
_cell_angle_alpha 90.000000
_cell_angle_beta 90.000000
_cell_angle_gamma 90.000000
_cell_volume 2456.715299
_symmetry_space_group_name_H-M "P B A M"
_symmetry_group_IT_number 55
_symmetry_cell_setting 'orthorhombic'
loop_
_space_group_symop_operation_xyz
x,y,z
-x,-y,z
1/2+x,1/2-y,-z
1/2-x,1/2+y,-z
-x,-y,-z
x,y,-z
1/2-x,1/2+y,z
1/2+x,1/2-y,z
loop_
_atom_site_type_symbol
_atom_site_label
_atom_site_fract_x
_atom_site_fract_y
_atom_site_fract_z
Si Si1 0.433652 0.049838 0.828182
Si Si2 0.012330 0.758465 0.171731
Si Si3 0.433778 0.439717 0.672574
Si Si4 0.812793 0.549479 0.322229
Si Si5 0.860354 0.742684 0.821763
Si Si6 0.814941 0.954414 0.177486
O O1 0.442545 0.163883 0.822489
O O2 0.500000 0.000000 0.765201
O O3 0.373575 0.019154 0.722281
O O4 0.419543 0.013929 0.000000
O O5 0.050325 0.830808 0.281493
O O6 0.937425 0.738960 0.231307
O O7 0.008467 0.799262 0.000000
O O8 0.500000 0.500000 0.693886
O O9 0.407822 0.442364 0.500000
O O10 0.379346 0.482731 0.784536
O O11 0.809465 0.560378 0.500000
O O12 0.819422 0.656582 0.254549
O O13 0.746662 0.497749 0.266158
O O14 0.827386 0.843819 0.771680
O O15 0.855943 0.727731 0.000000
O O16 0.800616 0.960755 0.000000
#
# Coordination Sequence:
#
# PCOD8226637 Si02
#       6
#     8   8   8   8   8   8
#     4  10  20  39  65  91 121 159 208 260 302 358
#     4  10  20  37  65  95 123 162 214 262 302 358
#     4  11  23  38  60  93 131 163 198 252 314 372
#     4  12  26  41  62  93 132 167 201 254 319 381
#     4  10  21  41  67  92 119 162 214 259 307 366
#     4  11  24  43  68  91 121 165 215 261 304 366
#
# _framework density 19.538281999999999
#
# number of rings (size 3 to 8) (size 9 to 14) (size 15 to 20)
#    0.000    1.333    3.333    2.500    0.000    5.000 
#    0.000    1.667    0.000    0.000    0.000    0.000 
#    0.000    0.000    0.000    0.000    0.000    0.000 
#
# Total GULP energy -595434.117411 kJ/mol
# GULP energy per Si atom -12404.877446 kJ/mol
# Density = 1.949381 g / cm^3
# Si number density = 19.538282 Si / 1000 Ang^3
#
#
#
# Elastic Constant Matrix: (Units=GPa)
#
#
# Indices 1 2 3 4 5 6 
#
# 1 101.9698 62.0323 44.9480 0.0000 0.0000 0.0000
# 2 62.0323 127.5500 44.2647 0.0000 0.0000 0.0000
# 3 44.9480 44.2647 67.4506 0.0000 0.0000 0.0000
# 4 0.0000 0.0000 0.0000 14.0660 0.0000 0.0000
# 5 0.0000 0.0000 0.0000 0.0000 22.5003 0.0000
# 6 0.0000 0.0000 0.0000 0.0000 0.0000 33.4636
#
#
#
# Elastic Compliance Matrix: (Units=1/GPa)
#
#
# Indices 1 2 3 4 5 6 
#
# 1 0.016321 -0.005391 -0.007338 0.000000 0.000000 0.000000
# 2 -0.005391 0.011933 -0.004239 0.000000 0.000000 0.000000
# 3 -0.007338 -0.004239 0.022497 0.000000 0.000000 0.000000
# 4 0.000000 0.000000 0.000000 0.071093 0.000000 0.000000
# 5 0.000000 0.000000 0.000000 0.000000 0.044444 0.000000
# 6 0.000000 0.000000 0.000000 0.000000 0.000000 0.029883
#
#
# Mechanical properties :
#
#
# Convention : Reuss Voigt Hill
#
# Bulk Modulus (GPa) = 59.46809 66.60672 63.03740
# Shear Modulus (GPa) = 21.21230 23.72100 22.46665
#
# Velocity S-wave (km/s) = 3.29854 3.48814 3.39466
# Velocity P-wave (km/s) = 6.70894 7.09840 6.90642
#
# Compressibility (1/GPa) = 0.01681574
#
# Stress axis : x y z
#
# Youngs Moduli (GPa) = 61.27083 83.80290 44.44973
#
# Poissons Ratio (x) = 0.45177 0.32618
# Poissons Ratio (y) = 0.33030 0.18840
# Poissons Ratio (z) = 0.44962 0.35520
#
# Static dielectric constant tensor:
#      x y z
#    x 3.494720 0.000000 0.000000 
#    y 0.000000 3.654540 0.000000 
#    z 0.000000 0.000000 3.535550 
# 
# 
# High freq. dielectric constant tensor:
#      x y z
#    x 1.761280 0.000000 0.000000 
#    y 0.000000 1.775380 0.000000 
#    z 0.000000 0.000000 1.755960 
# 
# From -- ./inp_files/7422.got.cif
#   From: 2010.03.12/outbox.cif.g09.slc.cpg/sg55_4_cif.got.tgz:7422.got - 2010.04.16 15:19:21.
