data_PCOD8226167
_publ_section_title
;
Structure prediction by ZEFSAII (Michael W. Deem and Ramdas Pophale) SiO2 
 PCOD8226167
Probable space group: P B A M
;
_chemical_formula_sum "Si O2"
_cell_formula_units_Z 64
_cell_length_a 15.655444
_cell_length_b 22.185908
_cell_length_c 9.467940
_cell_angle_alpha 90.000000
_cell_angle_beta 90.000000
_cell_angle_gamma 90.000000
_cell_volume 3288.501875
_symmetry_space_group_name_H-M "P B A M"
_symmetry_group_IT_number 55
_symmetry_cell_setting 'orthorhombic'
loop_
_space_group_symop_operation_xyz
x,y,z
-x,-y,z
1/2+x,1/2-y,-z
1/2-x,1/2+y,-z
-x,-y,-z
x,y,-z
1/2-x,1/2+y,z
1/2+x,1/2-y,z
loop_
_atom_site_type_symbol
_atom_site_label
_atom_site_fract_x
_atom_site_fract_y
_atom_site_fract_z
Si Si1 0.058844 0.360000 0.657116
Si Si2 0.412533 0.466222 0.666076
Si Si3 0.392865 0.327767 0.334549
Si Si4 0.766633 0.965781 0.164193
Si Si5 0.255953 0.670048 0.158268
Si Si6 0.284225 0.774081 0.653460
Si Si7 0.091103 0.469701 0.160002
Si Si8 0.564155 0.783799 0.161301
O O1 0.022136 0.374491 0.500000
O O2 0.131210 0.311307 0.642302
O O3 0.102488 0.417890 0.725693
O O4 0.986830 0.336344 0.761421
O O5 0.500000 0.500000 0.710189
O O6 0.394996 0.473114 0.500000
O O7 0.419154 0.395690 0.708436
O O8 0.332457 0.494649 0.746749
O O9 0.411426 0.316843 0.500000
O O10 0.293579 0.316513 0.293575
O O11 0.447417 0.279792 0.243246
O O12 0.770766 0.896915 0.217760
O O13 0.668577 0.984681 0.188240
O O14 0.791506 0.971710 0.000000
O O15 0.308896 0.717677 0.249096
O O16 0.158965 0.691110 0.166392
O O17 0.290883 0.673215 0.000000
O O18 0.258117 0.748298 0.500000
O O19 0.000000 0.500000 0.186622
O O20 0.095784 0.444227 0.000000
O O21 0.532686 0.775505 0.000000
#
# Coordination Sequence:
#
# PCOD8226167 Si02
#       8
#     8   8   8   8   8   8   8   8
#     4  11  22  35  53  81 114 144 180 224 271 325
#     4  10  22  39  58  80 109 148 190 232 280 334
#     4   9  18  36  57  76 103 137 178 227 276 324
#     4  10  21  37  58  83 112 146 183 229 281 330
#     4   9  19  36  56  79 107 139 178 223 272 327
#     4   9  19  34  53  77 105 138 174 221 275 324
#     4  10  21  38  59  83 115 152 187 227 278 336
#     4  10  20  35  56  80 108 143 180 220 270 327
#
# _framework density 19.461749999999999
#
# number of rings (size 3 to 8) (size 9 to 14) (size 15 to 20)
#    0.000    2.250    0.000    2.250    0.000    7.500 
#    0.000    7.500    0.000    0.000    0.000    0.000 
#    0.000    0.000    0.000    0.000    0.000    0.000 
#
# Total GULP energy -793463.623852 kJ/mol
# GULP energy per Si atom -12397.869123 kJ/mol
# Density = 1.941745 g / cm^3
# Si number density = 19.461750 Si / 1000 Ang^3
#
#
#
# Elastic Constant Matrix: (Units=GPa)
#
#
# Indices 1 2 3 4 5 6 
#
# 1 52.3250 10.0383 23.5913 0.0000 0.0000 0.0000
# 2 10.0383 117.3575 55.6154 0.0000 0.0000 0.0000
# 3 23.5913 55.6154 94.1541 0.0000 0.0000 0.0000
# 4 0.0000 0.0000 0.0000 65.3899 0.0000 0.0000
# 5 0.0000 0.0000 0.0000 0.0000 27.6834 0.0000
# 6 0.0000 0.0000 0.0000 0.0000 0.0000 24.4137
#
#
#
# Elastic Compliance Matrix: (Units=1/GPa)
#
#
# Indices 1 2 3 4 5 6 
#
# 1 0.021629 0.000997 -0.006008 0.000000 0.000000 0.000000
# 2 0.000997 0.011879 -0.007267 0.000000 0.000000 0.000000
# 3 -0.006008 -0.007267 0.016419 0.000000 0.000000 0.000000
# 4 0.000000 0.000000 0.000000 0.015293 0.000000 0.000000
# 5 0.000000 0.000000 0.000000 0.000000 0.036123 0.000000
# 6 0.000000 0.000000 0.000000 0.000000 0.000000 0.040961
#
#
# Mechanical properties :
#
#
# Convention : Reuss Voigt Hill
#
# Bulk Modulus (GPa) = 39.41486 49.14743 44.28115
# Shear Modulus (GPa) = 28.51985 35.13684 31.82835
#
# Velocity S-wave (km/s) = 3.83225 4.25365 4.04843
# Velocity P-wave (km/s) = 6.31490 7.03085 6.68247
#
# Compressibility (1/GPa) = 0.02537114
#
# Stress axis : x y z
#
# Youngs Moduli (GPa) = 46.23429 84.17915 60.90570
#
# Poissons Ratio (x) = -0.08396 0.36595
# Poissons Ratio (y) = -0.04611 0.44260
# Poissons Ratio (z) = 0.27780 0.61172
#
# Static dielectric constant tensor:
#      x y z
#    x 3.387770 0.000000 0.000000 
#    y 0.000000 3.696950 0.000000 
#    z 0.000000 0.000000 3.899930 
# 
# 
# High freq. dielectric constant tensor:
#      x y z
#    x 1.749130 0.000000 0.000000 
#    y 0.000000 1.763600 0.000000 
#    z 0.000000 0.000000 1.759890 
# 
# From -- ./inp_files/8052.got.cif
#   From: 2010.03.12/outbox.cif.g09.slc.cpg/sg55_5_cif.got.tgz:8052.got - 2010.04.16 15:19:21.
