data_PCOD8226421
_publ_section_title
;
Structure prediction by ZEFSAII (Michael W. Deem and Ramdas Pophale) SiO2 
 PCOD8226421
Probable space group: P B A M
;
_chemical_formula_sum "Si O2"
_cell_formula_units_Z 64
_cell_length_a 23.486089
_cell_length_b 15.294839
_cell_length_c 9.042245
_cell_angle_alpha 90.000000
_cell_angle_beta 90.000000
_cell_angle_gamma 90.000000
_cell_volume 3248.118628
_symmetry_space_group_name_H-M "P B A M"
_symmetry_group_IT_number 55
_symmetry_cell_setting 'orthorhombic'
loop_
_space_group_symop_operation_xyz
x,y,z
-x,-y,z
1/2+x,1/2-y,-z
1/2-x,1/2+y,-z
-x,-y,-z
x,y,-z
1/2-x,1/2+y,z
1/2+x,1/2-y,z
loop_
_atom_site_type_symbol
_atom_site_label
_atom_site_fract_x
_atom_site_fract_y
_atom_site_fract_z
Si Si1 0.185722 0.678259 0.672283
Si Si2 0.078418 0.746678 0.827183
Si Si3 0.129971 0.354812 0.173169
Si Si4 0.667940 0.492114 0.668204
Si Si5 0.716326 0.999460 0.824023
Si Si6 0.687392 0.289021 0.662594
Si Si7 0.508121 0.098272 0.823788
Si Si8 0.444837 0.444137 0.172104
O O1 0.174415 0.658422 0.500000
O O2 0.137489 0.742076 0.737495
O O3 0.188184 0.588022 0.761089
O O4 0.245945 0.726151 0.694722
O O5 0.039437 0.666805 0.767884
O O6 0.047140 0.839940 0.798633
O O7 0.092174 0.735723 0.000000
O O8 0.174614 0.425062 0.232649
O O9 0.150513 0.258811 0.214699
O O10 0.068073 0.370405 0.242904
O O11 0.124710 0.362620 0.000000
O O12 0.672597 0.526624 0.500000
O O13 0.722036 0.525494 0.760691
O O14 0.669264 0.388518 0.673021
O O15 0.609610 0.524947 0.737558
O O16 0.720516 0.991743 0.000000
O O17 0.672846 0.252026 0.500000
O O18 0.500000 0.000000 0.762904
O O19 0.507577 0.098270 0.000000
O O20 0.500000 0.500000 0.225195
O O21 0.433597 0.462700 0.000000
#
# Coordination Sequence:
#
# PCOD8226421 Si02
#       8
#     8   8   8   8   8   8   8   8
#     4  10  21  38  58  84 117 155 196 236 292 355
#     4  10  21  37  60  87 118 155 197 247 297 351
#     4  10  21  34  58  89 114 146 191 235 289 351
#     4  10  22  40  60  83 115 158 198 237 297 360
#     4  10  20  36  59  90 120 151 191 242 294 351
#     4   9  21  38  55  80 114 150 187 232 287 350
#     4   9  18  35  58  85 116 150 188 234 289 347
#     4  10  23  40  60  87 116 152 202 256 305 354
#
# _framework density 19.703714000000002
#
# number of rings (size 3 to 8) (size 9 to 14) (size 15 to 20)
#    0.000    2.250    0.000    2.625    3.500    6.750 
#    0.000    0.625    0.000    1.500    0.000    0.000 
#    0.000    0.000    0.000    0.000    0.000    0.000 
#
# Total GULP energy -793533.182268 kJ/mol
# GULP energy per Si atom -12398.955973 kJ/mol
# Density = 1.965887 g / cm^3
# Si number density = 19.703714 Si / 1000 Ang^3
#
#
#
# Elastic Constant Matrix: (Units=GPa)
#
#
# Indices 1 2 3 4 5 6 
#
# 1 129.2742 60.2978 40.9025 0.0000 0.0000 0.0000
# 2 60.2978 83.6128 27.0204 0.0000 0.0000 0.0000
# 3 40.9025 27.0204 57.1801 0.0000 0.0000 0.0000
# 4 0.0000 0.0000 0.0000 16.6128 0.0000 0.0000
# 5 0.0000 0.0000 0.0000 0.0000 13.1064 0.0000
# 6 0.0000 0.0000 0.0000 0.0000 0.0000 31.9452
#
#
#
# Elastic Compliance Matrix: (Units=1/GPa)
#
#
# Indices 1 2 3 4 5 6 
#
# 1 0.013102 -0.007577 -0.005792 0.000000 0.000000 0.000000
# 2 -0.007577 0.018497 -0.003321 0.000000 0.000000 0.000000
# 3 -0.005792 -0.003321 0.023201 0.000000 0.000000 0.000000
# 4 0.000000 0.000000 0.000000 0.060195 0.000000 0.000000
# 5 0.000000 0.000000 0.000000 0.000000 0.076299 0.000000
# 6 0.000000 0.000000 0.000000 0.000000 0.000000 0.031304
#
#
# Mechanical properties :
#
#
# Convention : Reuss Voigt Hill
#
# Bulk Modulus (GPa) = 46.68313 58.50096 52.59205
# Shear Modulus (GPa) = 19.00294 21.78929 20.39612
#
# Velocity S-wave (km/s) = 3.10890 3.32904 3.22085
# Velocity P-wave (km/s) = 6.05236 6.67319 6.37034
#
# Compressibility (1/GPa) = 0.02142101
#
# Stress axis : x y z
#
# Youngs Moduli (GPa) = 76.32284 54.06199 43.10169
#
# Poissons Ratio (x) = 0.40963 0.24964
# Poissons Ratio (y) = 0.57830 0.14313
# Poissons Ratio (z) = 0.44205 0.17953
#
# Static dielectric constant tensor:
#      x y z
#    x 3.756800 0.000000 0.000000 
#    y 0.000000 3.627000 0.000000 
#    z 0.000000 0.000000 3.469960 
# 
# 
# High freq. dielectric constant tensor:
#      x y z
#    x 1.776580 0.000000 0.000000 
#    y 0.000000 1.772020 0.000000 
#    z 0.000000 0.000000 1.751880 
# 
# From -- ./inp_files/9634.got.cif
#   From: 2010.03.12/outbox.cif.g09.slc.cpg/sg55_5_cif.got.tgz:9634.got - 2010.04.16 15:19:21.
