data_PCOD8226773
_publ_section_title
;
Structure prediction by ZEFSAII (Michael W. Deem and Ramdas Pophale) SiO2 
 PCOD8226773
Probable space group: P B A M
;
_chemical_formula_sum "Si O2"
_cell_formula_units_Z 40
_cell_length_a 13.970843
_cell_length_b 9.182903
_cell_length_c 13.926297
_cell_angle_alpha 90.000000
_cell_angle_beta 90.000000
_cell_angle_gamma 90.000000
_cell_volume 1786.644974
_symmetry_space_group_name_H-M "P B A M"
_symmetry_group_IT_number 55
_symmetry_cell_setting 'orthorhombic'
loop_
_space_group_symop_operation_xyz
x,y,z
-x,-y,z
1/2+x,1/2-y,-z
1/2-x,1/2+y,-z
-x,-y,-z
x,y,-z
1/2-x,1/2+y,z
1/2+x,1/2-y,z
loop_
_atom_site_type_symbol
_atom_site_label
_atom_site_fract_x
_atom_site_fract_y
_atom_site_fract_z
Si Si1 0.500000 0.000000 0.338531
Si Si2 0.165657 0.516864 0.000000
Si Si3 0.669863 0.166683 0.707323
Si Si4 0.500000 0.500000 0.859415
Si Si5 0.623723 0.869476 0.500000
Si Si6 0.010175 0.263004 0.000000
Si Si7 0.724349 0.154935 0.500000
Si Si8 0.294582 0.544340 0.808801
O O1 0.436600 0.895857 0.270458
O O2 0.562750 0.893584 0.404581
O O3 0.236479 0.522362 0.091702
O O4 0.091177 0.651545 0.000000
O O5 0.102844 0.368857 0.000000
O O6 0.672809 0.218318 0.596065
O O7 0.698950 0.285608 0.784948
O O8 0.741681 0.032356 0.720816
O O9 0.401023 0.475853 0.803490
O O10 0.517430 0.347205 0.912009
O O11 0.665063 0.705626 0.500000
O O12 0.714323 0.980438 0.500000
#
# Coordination Sequence:
#
# PCOD8226773 Si02
#       8
#     4   4   8   4   4   4   4   8
#     4   9  20  38  62  95 130 170 222 267 324 391
#     4  11  24  45  68  95 127 168 216 262 319 389
#     4  11  24  42  67  95 129 176 220 270 330 392
#     4  11  24  40  60  97 132 162 212 269 324 387
#     4   9  18  36  66  91 126 173 214 270 326 386
#     4  10  22  42  70  92 125 171 210 263 325 384
#     4  10  20  40  64  92 126 166 216 264 320 382
#     4  12  26  42  66  96 131 172 217 270 330 390
#
# _framework density 22.388331999999998
#
# number of rings (size 3 to 8) (size 9 to 14) (size 15 to 20)
#    0.000    1.400    0.000    6.600    0.000    8.800 
#    0.000    0.000    0.000   11.400    0.000    0.000 
#    0.000    0.000    0.000    0.000    0.000    0.000 
#
# Total GULP energy -495653.118461 kJ/mol
# GULP energy per Si atom -12391.327962 kJ/mol
# Density = 2.233737 g / cm^3
# Si number density = 22.388332 Si / 1000 Ang^3
#
#
#
# Elastic Constant Matrix: (Units=GPa)
#
#
# Indices 1 2 3 4 5 6 
#
# 1 179.6302 73.3933 50.0746 0.0000 0.0000 0.0000
# 2 73.3933 123.9308 40.1051 0.0000 0.0000 0.0000
# 3 50.0746 40.1051 91.8240 0.0000 0.0000 0.0000
# 4 0.0000 0.0000 0.0000 19.1890 0.0000 0.0000
# 5 0.0000 0.0000 0.0000 0.0000 37.7831 0.0000
# 6 0.0000 0.0000 0.0000 0.0000 0.0000 52.8563
#
#
#
# Elastic Compliance Matrix: (Units=1/GPa)
#
#
# Indices 1 2 3 4 5 6 
#
# 1 0.007851 -0.003801 -0.002621 0.000000 0.000000 0.000000
# 2 -0.003801 0.011238 -0.002835 0.000000 0.000000 0.000000
# 3 -0.002621 -0.002835 0.013558 0.000000 0.000000 0.000000
# 4 0.000000 0.000000 0.000000 0.052113 0.000000 0.000000
# 5 0.000000 0.000000 0.000000 0.000000 0.026467 0.000000
# 6 0.000000 0.000000 0.000000 0.000000 0.000000 0.018919
#
#
# Mechanical properties :
#
#
# Convention : Reuss Voigt Hill
#
# Bulk Modulus (GPa) = 70.76388 80.28123 75.52256
# Shear Modulus (GPa) = 32.60067 37.41980 35.01024
#
# Velocity S-wave (km/s) = 3.82009 4.09271 3.95875
# Velocity P-wave (km/s) = 7.15077 7.63348 7.39607
#
# Compressibility (1/GPa) = 0.01413150
#
# Stress axis : x y z
#
# Youngs Moduli (GPa) = 127.37712 88.98708 73.75656
#
# Poissons Ratio (x) = 0.33825 0.19332
# Poissons Ratio (y) = 0.48417 0.20912
# Poissons Ratio (z) = 0.33387 0.25230
#
# Static dielectric constant tensor:
#      x y z
#    x 4.330380 0.000000 0.000000 
#    y 0.000000 4.031330 0.000000 
#    z 0.000000 0.000000 3.888940 
# 
# 
# High freq. dielectric constant tensor:
#      x y z
#    x 1.894100 0.000000 0.000000 
#    y 0.000000 1.879080 0.000000 
#    z 0.000000 0.000000 1.877760 
# 
# From -- ./inp_files/18814.got.cif
#   From: 2010.03.12/outbox.cif.g09.slc.cpg/sg55_10_cif.got.tgz:18814.got - 2010.04.16 15:19:21.
