data_PCOD8226959
_publ_section_title
;
Structure prediction by ZEFSAII (Michael W. Deem and Ramdas Pophale) SiO2 
 PCOD8226959
Probable space group: P B A M
;
_chemical_formula_sum "Si O2"
_cell_formula_units_Z 64
_cell_length_a 25.412580
_cell_length_b 14.295194
_cell_length_c 8.896205
_cell_angle_alpha 90.000000
_cell_angle_beta 90.000000
_cell_angle_gamma 90.000000
_cell_volume 3231.793435
_symmetry_space_group_name_H-M "P B A M"
_symmetry_group_IT_number 55
_symmetry_cell_setting 'orthorhombic'
loop_
_space_group_symop_operation_xyz
x,y,z
-x,-y,z
1/2+x,1/2-y,-z
1/2-x,1/2+y,-z
-x,-y,-z
x,y,-z
1/2-x,1/2+y,z
1/2+x,1/2-y,z
loop_
_atom_site_type_symbol
_atom_site_label
_atom_site_fract_x
_atom_site_fract_y
_atom_site_fract_z
Si Si1 0.395468 0.764579 0.322730
Si Si2 0.103699 0.651462 0.323843
Si Si3 0.988111 0.215019 0.679376
Si Si4 0.917655 0.081582 0.825637
Si Si5 0.647347 0.039138 0.321024
Si Si6 0.174804 0.812091 0.325764
Si Si7 0.257959 0.453770 0.176193
Si Si8 0.352849 0.590008 0.171093
O O1 0.393907 0.768356 0.500000
O O2 0.454420 0.745864 0.265243
O O3 0.375800 0.863795 0.257038
O O4 0.356269 0.682975 0.270137
O O5 0.094683 0.650210 0.500000
O O6 0.052451 0.705196 0.258927
O O7 0.109216 0.545180 0.264240
O O8 0.158997 0.704906 0.287077
O O9 0.985645 0.200830 0.500000
O O10 0.974330 0.116306 0.763485
O O11 0.876930 0.130093 0.714126
O O12 0.906911 0.970426 0.810308
O O13 0.909239 0.111201 0.000000
O O14 0.650861 0.040064 0.500000
O O15 0.704830 0.018445 0.257929
O O16 0.188971 0.825311 0.500000
O O17 0.223963 0.849746 0.228988
O O18 0.302639 0.528753 0.222625
O O19 0.248713 0.450955 0.000000
O O20 0.345562 0.621696 0.000000
#
# Coordination Sequence:
#
# PCOD8226959 Si02
#       8
#     8   8   8   8   8   8   8   8
#     4  10  22  36  53  79 109 139 178 221 264 313
#     4   8  16  32  55  78 102 133 173 216 261 309
#     4   9  18  34  54  79 108 140 176 219 267 314
#     4   9  17  31  52  80 108 138 175 213 254 309
#     4  10  21  37  54  76 104 138 179 222 263 311
#     4   9  16  30  54  82 106 131 165 212 263 311
#     4  10  21  37  55  78 106 139 174 213 262 318
#     4   9  20  37  55  76 107 142 176 213 264 322
#
# _framework density 19.803245
#
# number of rings (size 3 to 8) (size 9 to 14) (size 15 to 20)
#    0.000    2.750    0.000    2.625    0.000    6.000 
#    0.000   11.875    0.000    0.000    0.000    5.250 
#    0.000    0.000    0.000    0.000    0.000    0.000 
#
# Total GULP energy -793132.267175 kJ/mol
# GULP energy per Si atom -12392.691675 kJ/mol
# Density = 1.975817 g / cm^3
# Si number density = 19.803245 Si / 1000 Ang^3
#
#
#
# Elastic Constant Matrix: (Units=GPa)
#
#
# Indices 1 2 3 4 5 6 
#
# 1 73.0516 23.7564 12.0515 0.0000 0.0000 0.0000
# 2 23.7564 105.6660 22.5810 0.0000 0.0000 0.0000
# 3 12.0515 22.5810 22.0630 0.0000 0.0000 0.0000
# 4 0.0000 0.0000 0.0000 8.2887 0.0000 0.0000
# 5 0.0000 0.0000 0.0000 0.0000 19.7026 0.0000
# 6 0.0000 0.0000 0.0000 0.0000 0.0000 25.1222
#
#
#
# Elastic Compliance Matrix: (Units=1/GPa)
#
#
# Indices 1 2 3 4 5 6 
#
# 1 0.015411 -0.002132 -0.006236 0.000000 0.000000 0.000000
# 2 -0.002132 0.012408 -0.011535 0.000000 0.000000 0.000000
# 3 -0.006236 -0.011535 0.060537 0.000000 0.000000 0.000000
# 4 0.000000 0.000000 0.000000 0.120646 0.000000 0.000000
# 5 0.000000 0.000000 0.000000 0.000000 0.050755 0.000000
# 6 0.000000 0.000000 0.000000 0.000000 0.000000 0.039805
#
#
# Mechanical properties :
#
#
# Convention : Reuss Voigt Hill
#
# Bulk Modulus (GPa) = 20.59717 35.28425 27.94071
# Shear Modulus (GPa) = 14.06268 20.11550 17.08909
#
# Velocity S-wave (km/s) = 2.66770 3.19057 2.94078
# Velocity P-wave (km/s) = 4.46232 5.60616 5.06662
#
# Compressibility (1/GPa) = 0.04855036
#
# Stress axis : x y z
#
# Youngs Moduli (GPa) = 64.88841 80.59207 16.51890
#
# Poissons Ratio (x) = 0.17184 0.10301
# Poissons Ratio (y) = 0.13836 0.19054
# Poissons Ratio (z) = 0.40463 0.92962
#
# Static dielectric constant tensor:
#      x y z
#    x 3.639300 0.000000 0.000000 
#    y 0.000000 3.940070 0.000000 
#    z 0.000000 0.000000 3.370540 
# 
# 
# High freq. dielectric constant tensor:
#      x y z
#    x 1.761630 0.000000 0.000000 
#    y 0.000000 1.770970 0.000000 
#    z 0.000000 0.000000 1.751720 
# 
# From -- ./inp_files/9715.got.cif
#   From: 2010.03.12/outbox.cif.g09.slc.cpg/sg55_5_cif.got.tgz:9715.got - 2010.04.16 15:19:21.
