data_PCOD8226455
_publ_section_title
;
Structure prediction by ZEFSAII (Michael W. Deem and Ramdas Pophale) SiO2 
 PCOD8226455
Probable space group: P B A M
;
_chemical_formula_sum "Si O2"
_cell_formula_units_Z 64
_cell_length_a 31.808916
_cell_length_b 10.772656
_cell_length_c 9.232871
_cell_angle_alpha 90.000000
_cell_angle_beta 90.000000
_cell_angle_gamma 90.000000
_cell_volume 3163.795681
_symmetry_space_group_name_H-M "P B A M"
_symmetry_group_IT_number 55
_symmetry_cell_setting 'orthorhombic'
loop_
_space_group_symop_operation_xyz
x,y,z
-x,-y,z
1/2+x,1/2-y,-z
1/2-x,1/2+y,-z
-x,-y,-z
x,y,-z
1/2-x,1/2+y,z
1/2+x,1/2-y,z
loop_
_atom_site_type_symbol
_atom_site_label
_atom_site_fract_x
_atom_site_fract_y
_atom_site_fract_z
Si Si1 0.194666 0.738078 0.668580
Si Si2 0.479667 0.633185 0.832044
Si Si3 0.667785 0.533344 0.837775
Si Si4 0.837972 0.664659 0.661775
Si Si5 0.896901 0.900068 0.662145
Si Si6 0.226788 0.202382 0.161874
Si Si7 0.885599 0.425989 0.332035
Si Si8 0.028568 0.615675 0.169700
O O1 0.204963 0.750813 0.500000
O O2 0.232384 0.662416 0.745238
O O3 0.149929 0.675913 0.696594
O O4 0.194571 0.871458 0.743790
O O5 0.500000 0.500000 0.794529
O O6 0.438931 0.650110 0.734561
O O7 0.509195 0.749723 0.791645
O O8 0.466709 0.638909 0.000000
O O9 0.623065 0.509672 0.758932
O O10 0.695091 0.410630 0.846206
O O11 0.658400 0.583101 0.000000
O O12 0.822767 0.626049 0.500000
O O13 0.864201 0.789402 0.654021
O O14 0.796985 0.681884 0.761774
O O15 0.867496 0.556667 0.726004
O O16 0.906176 0.950432 0.500000
O O17 0.240216 0.243685 0.000000
O O18 0.897961 0.435145 0.500000
O O19 0.926515 0.389126 0.244408
O O20 0.000000 0.500000 0.225224
O O21 0.035831 0.602031 0.000000
#
# Coordination Sequence:
#
# PCOD8226455 Si02
#       8
#     8   8   8   8   8   8   8   8
#     4  11  24  39  58  86 121 157 196 245 297 352
#     4  10  22  38  57  84 118 156 196 243 300 359
#     4  10  22  40  61  85 118 156 197 244 294 353
#     4   9  19  38  61  87 118 154 194 239 293 353
#     4  10  20  36  61  89 116 151 196 242 293 351
#     4  10  22  39  60  88 116 152 201 247 293 348
#     4  10  23  40  60  89 121 155 196 242 299 355
#     4  10  22  40  62  89 120 157 201 247 301 363
#
# _framework density 20.228866
#
# number of rings (size 3 to 8) (size 9 to 14) (size 15 to 20)
#    0.000    2.000    0.000    2.250    3.500    4.500 
#    0.000    0.000    0.000    0.000    0.000    0.000 
#    0.000    0.000    0.000    0.000    0.000    0.000 
#
# Total GULP energy -793674.690395 kJ/mol
# GULP energy per Si atom -12401.167037 kJ/mol
# Density = 2.018282 g / cm^3
# Si number density = 20.228866 Si / 1000 Ang^3
#
#
#
# Elastic Constant Matrix: (Units=GPa)
#
#
# Indices 1 2 3 4 5 6 
#
# 1 108.5077 16.6603 64.9267 0.0000 0.0000 0.0000
# 2 16.6603 69.8047 26.5891 0.0000 0.0000 0.0000
# 3 64.9267 26.5891 124.5650 0.0000 0.0000 0.0000
# 4 0.0000 0.0000 0.0000 21.0679 0.0000 0.0000
# 5 0.0000 0.0000 0.0000 0.0000 39.7240 0.0000
# 6 0.0000 0.0000 0.0000 0.0000 0.0000 19.7388
#
#
#
# Elastic Compliance Matrix: (Units=1/GPa)
#
#
# Indices 1 2 3 4 5 6 
#
# 1 0.013415 -0.000586 -0.006867 0.000000 0.000000 0.000000
# 2 -0.000586 0.015619 -0.003029 0.000000 0.000000 0.000000
# 3 -0.006867 -0.003029 0.012254 0.000000 0.000000 0.000000
# 4 0.000000 0.000000 0.000000 0.047466 0.000000 0.000000
# 5 0.000000 0.000000 0.000000 0.000000 0.025174 0.000000
# 6 0.000000 0.000000 0.000000 0.000000 0.000000 0.050662
#
#
# Mechanical properties :
#
#
# Convention : Reuss Voigt Hill
#
# Bulk Modulus (GPa) = 49.20193 57.69218 53.44705
# Shear Modulus (GPa) = 25.99741 29.08624 27.54183
#
# Velocity S-wave (km/s) = 3.58881 3.79602 3.69387
# Velocity P-wave (km/s) = 6.44579 6.91337 6.68367
#
# Compressibility (1/GPa) = 0.02032441
#
# Stress axis : x y z
#
# Youngs Moduli (GPa) = 74.54377 64.02406 81.60772
#
# Poissons Ratio (x) = 0.03752 0.56041
# Poissons Ratio (y) = 0.04368 0.24715
# Poissons Ratio (z) = 0.51190 0.19390
#
# Static dielectric constant tensor:
#      x y z
#    x 3.627970 0.000000 0.000000 
#    y 0.000000 3.677330 0.000000 
#    z 0.000000 0.000000 3.925150 
# 
# 
# High freq. dielectric constant tensor:
#      x y z
#    x 1.792020 0.000000 0.000000 
#    y 0.000000 1.787740 0.000000 
#    z 0.000000 0.000000 1.795850 
# 
# From -- ./inp_files/10813.got.cif
#   From: 2010.03.12/outbox.cif.g09.slc.cpg/sg55_6_cif.got.tgz:10813.got - 2010.04.16 15:19:21.
