data_PCOD8226424
_publ_section_title
;
Structure prediction by ZEFSAII (Michael W. Deem and Ramdas Pophale) SiO2 
 PCOD8226424
Probable space group: P B A M
;
_chemical_formula_sum "Si O2"
_cell_formula_units_Z 56
_cell_length_a 22.820318
_cell_length_b 13.580730
_cell_length_c 9.300169
_cell_angle_alpha 90.000000
_cell_angle_beta 90.000000
_cell_angle_gamma 90.000000
_cell_volume 2882.276545
_symmetry_space_group_name_H-M "P B A M"
_symmetry_group_IT_number 55
_symmetry_cell_setting 'orthorhombic'
loop_
_space_group_symop_operation_xyz
x,y,z
-x,-y,z
1/2+x,1/2-y,-z
1/2-x,1/2+y,-z
-x,-y,-z
x,y,-z
1/2-x,1/2+y,z
1/2+x,1/2-y,z
loop_
_atom_site_type_symbol
_atom_site_label
_atom_site_fract_x
_atom_site_fract_y
_atom_site_fract_z
Si Si1 0.178461 0.992512 0.164634
Si Si2 0.620543 0.797617 0.335768
Si Si3 0.969032 0.403281 0.834968
Si Si4 0.546792 0.290419 0.161069
Si Si5 0.930442 0.125587 0.838593
Si Si6 0.231566 0.814390 0.663962
Si Si7 0.837539 0.817747 0.332921
O O1 0.107520 0.974539 0.175014
O O2 0.215662 0.902050 0.228147
O O3 0.192201 0.090953 0.251321
O O4 0.197887 0.006158 0.000000
O O5 0.604216 0.817618 0.500000
O O6 0.593329 0.887538 0.244802
O O7 0.592028 0.695661 0.286446
O O8 0.690203 0.782265 0.312990
O O9 0.010809 0.309680 0.812284
O O10 0.000000 0.500000 0.769346
O O11 0.953630 0.422009 0.000000
O O12 0.501167 0.383019 0.179937
O O13 0.597850 0.295273 0.276213
O O14 0.573791 0.292218 0.000000
O O15 0.919064 0.170687 0.000000
O O16 0.224319 0.852556 0.500000
O O17 0.297652 0.778554 0.693804
O O18 0.841438 0.844511 0.500000
#
# Coordination Sequence:
#
# PCOD8226424 Si02
#       7
#     8   8   8   8   8   8   8
#     4  10  20  36  60  85 106 137 185 232 275 327
#     4   9  16  29  52  77  99 131 178 223 261 312
#     4   9  18  34  54  77 109 145 177 220 279 331
#     4   9  18  34  54  77 109 143 180 225 272 325
#     4   8  16  32  54  78 106 137 167 212 272 324
#     4   9  20  39  57  75 107 148 183 224 275 328
#     4  11  23  38  55  78 115 153 183 223 278 331
#
# _framework density 19.429086999999999
#
# number of rings (size 3 to 8) (size 9 to 14) (size 15 to 20)
#    0.000    2.714    0.000    2.143    0.000    5.429 
#    2.571    2.857    0.000    0.000    0.000    0.000 
#    0.000    0.000    0.000    0.000    0.000    0.000 
#
# Total GULP energy -694021.452583 kJ/mol
# GULP energy per Si atom -12393.240225 kJ/mol
# Density = 1.938487 g / cm^3
# Si number density = 19.429087 Si / 1000 Ang^3
#
#
#
# Elastic Constant Matrix: (Units=GPa)
#
#
# Indices 1 2 3 4 5 6 
#
# 1 80.9175 12.9625 45.6009 0.0000 0.0000 0.0000
# 2 12.9625 45.0675 34.1580 0.0000 0.0000 0.0000
# 3 45.6009 34.1580 108.1289 0.0000 0.0000 0.0000
# 4 0.0000 0.0000 0.0000 27.2920 0.0000 0.0000
# 5 0.0000 0.0000 0.0000 0.0000 29.6415 0.0000
# 6 0.0000 0.0000 0.0000 0.0000 0.0000 23.0833
#
#
#
# Elastic Compliance Matrix: (Units=1/GPa)
#
#
# Indices 1 2 3 4 5 6 
#
# 1 0.016227 0.000683 -0.007059 0.000000 0.000000 0.000000
# 2 0.000683 0.029203 -0.009513 0.000000 0.000000 0.000000
# 3 -0.007059 -0.009513 0.015230 0.000000 0.000000 0.000000
# 4 0.000000 0.000000 0.000000 0.036641 0.000000 0.000000
# 5 0.000000 0.000000 0.000000 0.000000 0.033736 0.000000
# 6 0.000000 0.000000 0.000000 0.000000 0.000000 0.043321
#
#
# Mechanical properties :
#
#
# Convention : Reuss Voigt Hill
#
# Bulk Modulus (GPa) = 34.62408 46.61742 40.62075
# Shear Modulus (GPa) = 23.17338 25.42954 24.30146
#
# Velocity S-wave (km/s) = 3.45732 3.62171 3.54047
# Velocity P-wave (km/s) = 5.81350 6.44475 6.13725
#
# Compressibility (1/GPa) = 0.02888163
#
# Stress axis : x y z
#
# Youngs Moduli (GPa) = 61.62559 34.24328 65.65778
#
# Poissons Ratio (x) = -0.02339 0.46349
# Poissons Ratio (y) = -0.04209 0.62462
# Poissons Ratio (z) = 0.43502 0.32576
#
# Static dielectric constant tensor:
#      x y z
#    x 3.626070 0.000000 0.000000 
#    y 0.000000 3.318390 0.000000 
#    z 0.000000 0.000000 3.562230 
# 
# 
# High freq. dielectric constant tensor:
#      x y z
#    x 1.750390 0.000000 0.000000 
#    y 0.000000 1.734120 0.000000 
#    z 0.000000 0.000000 1.759840 
# 
# From -- ./inp_files/8700.got.cif
#   From: 2010.03.12/outbox.cif.g09.slc.cpg/sg55_5_cif.got.tgz:8700.got - 2010.04.16 15:19:21.
