data_PCOD8226880
_publ_section_title
;
Structure prediction by ZEFSAII (Michael W. Deem and Ramdas Pophale) SiO2 
 PCOD8226880
Probable space group: P B A M
;
_chemical_formula_sum "Si O2"
_cell_formula_units_Z 48
_cell_length_a 13.548097
_cell_length_b 13.961504
_cell_length_c 14.651695
_cell_angle_alpha 90.000000
_cell_angle_beta 90.000000
_cell_angle_gamma 90.000000
_cell_volume 2771.394636
_symmetry_space_group_name_H-M "P B A M"
_symmetry_group_IT_number 55
_symmetry_cell_setting 'orthorhombic'
loop_
_space_group_symop_operation_xyz
x,y,z
-x,-y,z
1/2+x,1/2-y,-z
1/2-x,1/2+y,-z
-x,-y,-z
x,y,-z
1/2-x,1/2+y,z
1/2+x,1/2-y,z
loop_
_atom_site_type_symbol
_atom_site_label
_atom_site_fract_x
_atom_site_fract_y
_atom_site_fract_z
Si Si1 0.885588 0.735984 0.213512
Si Si2 0.752960 0.103433 0.104139
Si Si3 0.733260 0.895805 0.171011
Si Si4 0.595362 0.957587 0.673564
Si Si5 0.570878 0.150154 0.601031
Si Si6 0.581815 0.749237 0.897422
O O1 0.831750 0.643634 0.170430
O O2 0.830337 0.833404 0.188277
O O3 0.890091 0.724802 0.323072
O O4 0.995738 0.740883 0.175375
O O5 0.857515 0.153077 0.126153
O O6 0.766374 0.990661 0.118480
O O7 0.721919 0.125410 0.000000
O O8 0.685882 0.920219 0.268304
O O9 0.655214 0.839495 0.109100
O O10 0.547500 0.870591 0.614065
O O11 0.500000 0.000000 0.733038
O O12 0.629234 0.047787 0.610556
O O13 0.589828 0.193034 0.500000
O O14 0.538596 0.745517 0.000000
#
# Coordination Sequence:
#
# PCOD8226880 Si02
#       6
#     8   8   8   8   8   8
#     4  11  21  35  55  80 113 141 183 227 270 320
#     4  10  21  36  55  80 112 145 183 223 263 322
#     4  11  20  34  56  81 108 145 180 223 269 318
#     4   8  15  31  56  75 100 132 170 223 270 312
#     4   9  17  33  56  80 106 137 176 225 275 323
#     4  10  21  36  54  79 111 147 180 217 269 320
#
# _framework density 17.319799
#
# number of rings (size 3 to 8) (size 9 to 14) (size 15 to 20)
#    1.000    1.000    3.333    2.000    0.000    2.667 
#    0.000    5.000    0.000    0.000    0.000    1.167 
#    0.000    0.000    0.000    0.000    0.000    0.000 
#
# Total GULP energy -594774.544622 kJ/mol
# GULP energy per Si atom -12391.136346 kJ/mol
# Density = 1.728038 g / cm^3
# Si number density = 17.319799 Si / 1000 Ang^3
#
#
#
# Elastic Constant Matrix: (Units=GPa)
#
#
# Indices 1 2 3 4 5 6 
#
# 1 62.7686 38.6907 37.3749 0.0000 0.0000 0.0000
# 2 38.6907 97.9757 29.6516 0.0000 0.0000 0.0000
# 3 37.3749 29.6516 112.8903 0.0000 0.0000 0.0000
# 4 0.0000 0.0000 0.0000 20.4873 0.0000 0.0000
# 5 0.0000 0.0000 0.0000 0.0000 12.7986 0.0000
# 6 0.0000 0.0000 0.0000 0.0000 0.0000 14.1492
#
#
#
# Elastic Compliance Matrix: (Units=1/GPa)
#
#
# Indices 1 2 3 4 5 6 
#
# 1 0.024301 -0.007780 -0.006002 0.000000 0.000000 0.000000
# 2 -0.007780 0.013579 -0.000991 0.000000 0.000000 0.000000
# 3 -0.006002 -0.000991 0.011105 0.000000 0.000000 0.000000
# 4 0.000000 0.000000 0.000000 0.048811 0.000000 0.000000
# 5 0.000000 0.000000 0.000000 0.000000 0.078133 0.000000
# 6 0.000000 0.000000 0.000000 0.000000 0.000000 0.070675
#
#
# Mechanical properties :
#
#
# Convention : Reuss Voigt Hill
#
# Bulk Modulus (GPa) = 51.44110 53.89656 52.66883
# Shear Modulus (GPa) = 17.69097 20.68151 19.18624
#
# Velocity S-wave (km/s) = 3.19945 3.45932 3.33192
# Velocity P-wave (km/s) = 6.58892 6.86599 6.72888
#
# Compressibility (1/GPa) = 0.01943971
#
# Stress axis : x y z
#
# Youngs Moduli (GPa) = 41.15068 73.64406 90.04569
#
# Poissons Ratio (x) = 0.57295 0.54044
# Poissons Ratio (y) = 0.32015 0.08922
# Poissons Ratio (z) = 0.24698 0.07297
#
# Static dielectric constant tensor:
#      x y z
#    x 2.971330 0.000000 0.000000 
#    y 0.000000 3.220570 0.000000 
#    z 0.000000 0.000000 3.031630 
# 
# 
# High freq. dielectric constant tensor:
#      x y z
#    x 1.646400 0.000000 0.000000 
#    y 0.000000 1.662050 0.000000 
#    z 0.000000 0.000000 1.657460 
# 
# From -- ./inp_files/18287.got.cif
#   From: 2010.03.12/outbox.cif.g09.slc.cpg/sg55_10_cif.got.tgz:18287.got - 2010.04.16 15:19:21.
