data_PCOD8226843
_publ_section_title
;
Structure prediction by ZEFSAII (Michael W. Deem and Ramdas Pophale) SiO2 
 PCOD8226843
Probable space group: P B A M
;
_chemical_formula_sum "Si O2"
_cell_formula_units_Z 64
_cell_length_a 15.514476
_cell_length_b 23.879279
_cell_length_c 9.325593
_cell_angle_alpha 90.000000
_cell_angle_beta 90.000000
_cell_angle_gamma 90.000000
_cell_volume 3454.894413
_symmetry_space_group_name_H-M "P B A M"
_symmetry_group_IT_number 55
_symmetry_cell_setting 'orthorhombic'
loop_
_space_group_symop_operation_xyz
x,y,z
-x,-y,z
1/2+x,1/2-y,-z
1/2-x,1/2+y,-z
-x,-y,-z
x,y,-z
1/2-x,1/2+y,z
1/2+x,1/2-y,z
loop_
_atom_site_type_symbol
_atom_site_label
_atom_site_fract_x
_atom_site_fract_y
_atom_site_fract_z
Si Si1 0.334668 0.285433 0.330873
Si Si2 0.993135 0.412889 0.670140
Si Si3 0.838920 0.777571 0.330808
Si Si4 0.360728 0.995846 0.669602
Si Si5 0.593718 0.614442 0.833674
Si Si6 0.493504 0.211578 0.329779
Si Si7 0.684576 0.499914 0.165732
Si Si8 0.103625 0.117547 0.831214
O O1 0.339967 0.295408 0.500000
O O2 0.245363 0.256892 0.286130
O O3 0.342862 0.345405 0.255225
O O4 0.411033 0.245552 0.274354
O O5 0.993835 0.410478 0.500000
O O6 0.080299 0.443758 0.720535
O O7 0.990199 0.350768 0.737166
O O8 0.908371 0.447013 0.719151
O O9 0.841620 0.788936 0.500000
O O10 0.920398 0.742000 0.276149
O O11 0.838618 0.837101 0.251594
O O12 0.346669 0.994990 0.500000
O O13 0.269811 0.990493 0.744072
O O14 0.619031 0.550427 0.803631
O O15 0.495561 0.622939 0.782113
O O16 0.603759 0.629491 0.000000
O O17 0.492801 0.207693 0.500000
O O18 0.637451 0.443332 0.214472
O O19 0.710844 0.497254 0.000000
O O20 0.113033 0.127274 0.000000
#
# Coordination Sequence:
#
# PCOD8226843 Si02
#       8
#     8   8   8   8   8   8   8   8
#     4  10  21  35  56  85 113 143 179 222 271 322
#     4   8  16  31  52  78 109 143 177 213 260 319
#     4  10  21  35  56  85 113 143 179 222 271 322
#     4   9  18  33  55  82 106 136 181 224 259 312
#     4  10  21  39  59  77 104 143 183 223 268 323
#     4   9  17  32  52  77 113 146 172 213 270 324
#     4  10  22  37  55  79 106 138 178 223 276 324
#     4  10  21  39  59  77 104 143 183 223 268 323
#
# _framework density 18.524445
#
# number of rings (size 3 to 8) (size 9 to 14) (size 15 to 20)
#    0.000    2.500    1.250    1.125    3.500    3.000 
#    0.000    1.250    0.000    3.750    0.000    0.000 
#    0.000    0.000    0.000    0.000    0.000    0.000 
#
# Total GULP energy -793676.268774 kJ/mol
# GULP energy per Si atom -12401.191700 kJ/mol
# Density = 1.848228 g / cm^3
# Si number density = 18.524445 Si / 1000 Ang^3
#
#
#
# Elastic Constant Matrix: (Units=GPa)
#
#
# Indices 1 2 3 4 5 6 
#
# 1 90.1049 13.7499 17.7503 0.0000 0.0000 0.0000
# 2 13.7499 108.1837 19.8607 0.0000 0.0000 0.0000
# 3 17.7503 19.8607 25.6437 0.0000 0.0000 0.0000
# 4 0.0000 0.0000 0.0000 27.8700 0.0000 0.0000
# 5 0.0000 0.0000 0.0000 0.0000 23.8167 0.0000
# 6 0.0000 0.0000 0.0000 0.0000 0.0000 25.9446
#
#
#
# Elastic Compliance Matrix: (Units=1/GPa)
#
#
# Indices 1 2 3 4 5 6 
#
# 1 0.012850 0.000000 -0.008895 0.000000 0.000000 0.000000
# 2 0.000000 0.010776 -0.008345 0.000000 0.000000 0.000000
# 3 -0.008895 -0.008345 0.051616 0.000000 0.000000 0.000000
# 4 0.000000 0.000000 0.000000 0.035881 0.000000 0.000000
# 5 0.000000 0.000000 0.000000 0.000000 0.041987 0.000000
# 6 0.000000 0.000000 0.000000 0.000000 0.000000 0.038544
#
#
# Mechanical properties :
#
#
# Convention : Reuss Voigt Hill
#
# Bulk Modulus (GPa) = 24.53299 36.29490 30.41394
# Shear Modulus (GPa) = 20.85749 27.03102 23.94426
#
# Velocity S-wave (km/s) = 3.35915 3.82410 3.59914
# Velocity P-wave (km/s) = 5.32142 6.25571 5.80738
#
# Compressibility (1/GPa) = 0.04076144
#
# Stress axis : x y z
#
# Youngs Moduli (GPa) = 77.81829 92.80182 19.37379
#
# Poissons Ratio (x) = 0.00003 0.17232
# Poissons Ratio (y) = 0.00003 0.16168
# Poissons Ratio (z) = 0.69217 0.77447
#
# Static dielectric constant tensor:
#      x y z
#    x 3.454240 0.000000 0.000000 
#    y 0.000000 3.692660 0.000000 
#    z 0.000000 0.000000 3.017010 
# 
# 
# High freq. dielectric constant tensor:
#      x y z
#    x 1.726860 0.000000 0.000000 
#    y 0.000000 1.733630 0.000000 
#    z 0.000000 0.000000 1.680910 
# 
# From -- ./inp_files/6596.got.cif
#   From: 2010.03.12/outbox.cif.g09.slc.cpg/sg55_4_cif.got.tgz:6596.got - 2010.04.16 15:19:21.
