data_PCOD8226296
_publ_section_title
;
Structure prediction by ZEFSAII (Michael W. Deem and Ramdas Pophale) SiO2 
 PCOD8226296
Probable space group: P B A M
;
_chemical_formula_sum "Si O2"
_cell_formula_units_Z 40
_cell_length_a 10.037399
_cell_length_b 17.937776
_cell_length_c 12.924430
_cell_angle_alpha 90.000000
_cell_angle_beta 90.000000
_cell_angle_gamma 90.000000
_cell_volume 2327.025720
_symmetry_space_group_name_H-M "P B A M"
_symmetry_group_IT_number 55
_symmetry_cell_setting 'orthorhombic'
loop_
_space_group_symop_operation_xyz
x,y,z
-x,-y,z
1/2+x,1/2-y,-z
1/2-x,1/2+y,-z
-x,-y,-z
x,y,-z
1/2-x,1/2+y,z
1/2+x,1/2-y,z
loop_
_atom_site_type_symbol
_atom_site_label
_atom_site_fract_x
_atom_site_fract_y
_atom_site_fract_z
Si Si1 0.728516 0.920265 0.294257
Si Si2 0.755993 0.584791 0.307814
Si Si3 0.489320 0.655690 0.622988
Si Si4 0.657968 0.010661 0.116585
Si Si5 0.496219 0.827037 0.382243
O O1 0.728326 0.938300 0.170472
O O2 0.592900 0.876675 0.314172
O O3 0.851263 0.871101 0.329301
O O4 0.727282 0.000568 0.353722
O O5 0.604004 0.609090 0.321198
O O6 0.798735 0.582937 0.185673
O O7 0.846018 0.643136 0.370336
O O8 0.491070 0.643024 0.500000
O O9 0.503933 0.741753 0.653405
O O10 0.500000 0.000000 0.118879
O O11 0.711220 0.020161 0.000000
O O12 0.542658 0.833615 0.500000
#
# Coordination Sequence:
#
# PCOD8226296 Si02
#       5
#     8   8   8   8   8
#     4  10  20  36  55  85 100 146 188 225 262 316
#     4  10  20  36  55  85 100 146 188 225 262 316
#     4  11  23  35  51  78 124 156 165 213 281 323
#     4   9  18  37  62  83 103 135 183 235 286 311
#     4  11  21  35  53  78 114 152 185 213 261 325
#
# _framework density 17.189325
#
# number of rings (size 3 to 8) (size 9 to 14) (size 15 to 20)
#    1.200    0.600    2.000    3.600    0.000    8.000 
#    0.000    2.000    0.000    7.200    0.000    0.000 
#    0.000    0.000    0.000    0.000    0.000    0.000 
#
# Total GULP energy -495719.271394 kJ/mol
# GULP energy per Si atom -12392.981785 kJ/mol
# Density = 1.715020 g / cm^3
# Si number density = 17.189325 Si / 1000 Ang^3
#
#
#
# Elastic Constant Matrix: (Units=GPa)
#
#
# Indices 1 2 3 4 5 6 
#
# 1 43.0679 6.7594 17.6757 0.0000 0.0000 0.0000
# 2 6.7594 91.6568 35.7097 0.0000 0.0000 0.0000
# 3 17.6757 35.7097 82.0464 0.0000 0.0000 0.0000
# 4 0.0000 0.0000 0.0000 -4.6018 0.0000 0.0000
# 5 0.0000 0.0000 0.0000 0.0000 20.8403 0.0000
# 6 0.0000 0.0000 0.0000 0.0000 0.0000 30.2408
#
#
#
# Elastic Compliance Matrix: (Units=1/GPa)
#
#
# Indices 1 2 3 4 5 6 
#
# 1 0.025479 0.000313 -0.005625 0.000000 0.000000 0.000000
# 2 0.000313 0.013142 -0.005787 0.000000 0.000000 0.000000
# 3 -0.005625 -0.005787 0.015919 0.000000 0.000000 0.000000
# 4 0.000000 0.000000 0.000000 -0.217307 0.000000 0.000000
# 5 0.000000 0.000000 0.000000 0.000000 0.047984 0.000000
# 6 0.000000 0.000000 0.000000 0.000000 0.000000 0.033068
#
#
# Mechanical properties :
#
#
# Convention : Reuss Voigt Hill
#
# Bulk Modulus (GPa) = 30.92135 37.45119 34.18627
# Shear Modulus (GPa) = -102.59366 19.73761 -41.42802
#
# Velocity S-wave (km/s) = -7.73396 3.39226 -4.91460
# Velocity P-wave (km/s) = 7.85649 6.09738 3.50331
#
# Compressibility (1/GPa) = 0.03234012
#
# Stress axis : x y z
#
# Youngs Moduli (GPa) = 39.24847 76.09231 62.81856
#
# Poissons Ratio (x) = -0.02378 0.35336
# Poissons Ratio (y) = -0.01227 0.36354
# Poissons Ratio (z) = 0.22077 0.44036
#
# Static dielectric constant tensor:
#      x y z
#    x 3.123810 0.000000 0.000000 
#    y 0.000000 3.208780 0.000000 
#    z 0.000000 0.000000 3.114120 
# 
# 
# High freq. dielectric constant tensor:
#      x y z
#    x 1.671990 0.000000 0.000000 
#    y 0.000000 1.661800 0.000000 
#    z 0.000000 0.000000 1.640960 
# 
# From -- ./inp_files/12051.got.cif
#   From: 2010.03.12/outbox.cif.g09.slc.cpg/sg55_7_cif.got.tgz:12051.got - 2010.04.16 15:19:21.
