data_PCOD8226569
_publ_section_title
;
Structure prediction by ZEFSAII (Michael W. Deem and Ramdas Pophale) SiO2 
 PCOD8226569
Probable space group: P B A M
;
_chemical_formula_sum "Si O2"
_cell_formula_units_Z 64
_cell_length_a 10.593961
_cell_length_b 25.326620
_cell_length_c 12.158088
_cell_angle_alpha 90.000000
_cell_angle_beta 90.000000
_cell_angle_gamma 90.000000
_cell_volume 3262.127163
_symmetry_space_group_name_H-M "P B A M"
_symmetry_group_IT_number 55
_symmetry_cell_setting 'orthorhombic'
loop_
_space_group_symop_operation_xyz
x,y,z
-x,-y,z
1/2+x,1/2-y,-z
1/2-x,1/2+y,-z
-x,-y,-z
x,y,-z
1/2-x,1/2+y,z
1/2+x,1/2-y,z
loop_
_atom_site_type_symbol
_atom_site_label
_atom_site_fract_x
_atom_site_fract_y
_atom_site_fract_z
Si Si1 0.043871 0.227897 0.374582
Si Si2 0.849700 0.123532 0.126360
Si Si3 0.709860 0.830765 0.874363
Si Si4 0.788453 0.229935 0.751095
Si Si5 0.810301 0.529976 0.805000
Si Si6 0.437310 0.069079 0.125924
Si Si7 0.084232 0.122635 0.272354
Si Si8 0.855154 0.984091 0.625868
O O1 0.057726 0.246568 0.500000
O O2 0.152700 0.258680 0.305369
O O3 0.053019 0.164139 0.368929
O O4 0.901754 0.240063 0.334720
O O5 0.785588 0.172623 0.191084
O O6 0.758917 0.072894 0.119189
O O7 0.966395 0.103568 0.199747
O O8 0.884557 0.139012 0.000000
O O9 0.675370 0.770708 0.848225
O O10 0.599990 0.871685 0.840376
O O11 0.835477 0.843788 0.811368
O O12 0.741667 0.838493 0.000000
O O13 0.819325 0.471889 0.861672
O O14 0.737421 0.524384 0.688942
O O15 0.952530 0.551891 0.790037
O O16 0.485961 0.066436 0.000000
O O17 0.159878 0.074386 0.325384
O O18 0.811977 0.985227 0.500000
O O19 0.000000 0.000000 0.639349
#
# Coordination Sequence:
#
# PCOD8226569 Si02
#       8
#     8   8   8   8   8   8   8   8
#     4  10  21  40  63  85 114 154 201 250 296 344
#     4  11  22  37  58  88 123 154 191 244 301 358
#     4  10  20  37  61  86 118 157 191 235 296 359
#     4  10  23  38  60  88 123 154 200 246 297 359
#     4  11  21  38  58  84 118 153 199 243 286 355
#     4  10  21  37  60  84 117 159 195 238 293 351
#     4  10  20  38  59  88 115 149 192 245 294 360
#     4  11  22  39  60  82 112 150 193 243 300 346
#
# _framework density 19.619098999999999
#
# number of rings (size 3 to 8) (size 9 to 14) (size 15 to 20)
#    0.000    1.625    2.500    3.000    1.750    0.000 
#    0.000    3.750    0.000    0.000    0.000    0.000 
#    0.000    0.000    0.000    0.000    0.000    0.000 
#
# Total GULP energy -793145.782190 kJ/mol
# GULP energy per Si atom -12392.902847 kJ/mol
# Density = 1.957445 g / cm^3
# Si number density = 19.619099 Si / 1000 Ang^3
#
#
#
# Elastic Constant Matrix: (Units=GPa)
#
#
# Indices 1 2 3 4 5 6 
#
# 1 83.5357 21.3947 39.1198 0.0000 0.0000 0.0000
# 2 21.3947 75.5309 33.5183 0.0000 0.0000 0.0000
# 3 39.1198 33.5183 94.6590 0.0000 0.0000 0.0000
# 4 0.0000 0.0000 0.0000 23.0715 0.0000 0.0000
# 5 0.0000 0.0000 0.0000 0.0000 18.6457 0.0000
# 6 0.0000 0.0000 0.0000 0.0000 0.0000 29.0545
#
#
#
# Elastic Compliance Matrix: (Units=1/GPa)
#
#
# Indices 1 2 3 4 5 6 
#
# 1 0.015043 -0.001782 -0.005586 0.000000 0.000000 0.000000
# 2 -0.001782 0.015919 -0.004900 0.000000 0.000000 0.000000
# 3 -0.005586 -0.004900 0.014608 0.000000 0.000000 0.000000
# 4 0.000000 0.000000 0.000000 0.043344 0.000000 0.000000
# 5 0.000000 0.000000 0.000000 0.000000 0.053632 0.000000
# 6 0.000000 0.000000 0.000000 0.000000 0.000000 0.034418
#
#
# Mechanical properties :
#
#
# Convention : Reuss Voigt Hill
#
# Bulk Modulus (GPa) = 47.54359 49.08794 48.31576
# Shear Modulus (GPa) = 23.97950 24.80052 24.39001
#
# Velocity S-wave (km/s) = 3.49987 3.55928 3.52970
# Velocity P-wave (km/s) = 6.37323 6.47812 6.42589
#
# Compressibility (1/GPa) = 0.02103333
#
# Stress axis : x y z
#
# Youngs Moduli (GPa) = 66.47499 62.81770 68.45624
#
# Poissons Ratio (x) = 0.11196 0.38239
# Poissons Ratio (y) = 0.11848 0.33546
# Poissons Ratio (z) = 0.37132 0.30783
#
# Static dielectric constant tensor:
#      x y z
#    x 3.533500 0.000000 0.000000 
#    y 0.000000 3.987280 0.000000 
#    z 0.000000 0.000000 3.457010 
# 
# 
# High freq. dielectric constant tensor:
#      x y z
#    x 1.761160 0.000000 0.000000 
#    y 0.000000 1.774720 0.000000 
#    z 0.000000 0.000000 1.753650 
# 
# From -- ./inp_files/12613.got.cif
#   From: 2010.03.12/outbox.cif.g09.slc.cpg/sg55_7_cif.got.tgz:12613.got - 2010.04.16 15:19:21.
