data_PCOD8226614
_publ_section_title
;
Structure prediction by ZEFSAII (Michael W. Deem and Ramdas Pophale) SiO2 
 PCOD8226614
Probable space group: P B A M
;
_chemical_formula_sum "Si O2"
_cell_formula_units_Z 56
_cell_length_a 11.869764
_cell_length_b 17.187910
_cell_length_c 14.218974
_cell_angle_alpha 90.000000
_cell_angle_beta 90.000000
_cell_angle_gamma 90.000000
_cell_volume 2900.904390
_symmetry_space_group_name_H-M "P B A M"
_symmetry_group_IT_number 55
_symmetry_cell_setting 'orthorhombic'
loop_
_space_group_symop_operation_xyz
x,y,z
-x,-y,z
1/2+x,1/2-y,-z
1/2-x,1/2+y,-z
-x,-y,-z
x,y,-z
1/2-x,1/2+y,z
1/2+x,1/2-y,z
loop_
_atom_site_type_symbol
_atom_site_label
_atom_site_fract_x
_atom_site_fract_y
_atom_site_fract_z
Si Si1 0.072921 0.818102 0.249756
Si Si2 0.123178 0.525767 0.599841
Si Si3 0.735102 0.541437 0.752576
Si Si4 0.832604 0.303581 0.611976
Si Si5 0.820003 0.863555 0.761733
Si Si6 0.069182 0.425746 0.110190
Si Si7 0.373467 0.193073 0.110226
O O1 0.136009 0.898621 0.268107
O O2 0.090295 0.764109 0.342545
O O3 0.123344 0.777340 0.157496
O O4 0.945117 0.834225 0.221645
O O5 0.189984 0.528004 0.500000
O O6 0.180421 0.461772 0.665115
O O7 0.111962 0.613452 0.638992
O O8 0.000000 0.500000 0.579531
O O9 0.677979 0.456837 0.755902
O O10 0.808608 0.572412 0.840750
O O11 0.816894 0.288577 0.500000
O O12 0.714598 0.313933 0.667948
O O13 0.736985 0.849042 0.849415
O O14 0.000000 0.500000 0.146709
O O15 0.990793 0.351519 0.134221
O O16 0.093954 0.431180 0.000000
O O17 0.355804 0.201750 0.000000
#
# Coordination Sequence:
#
# PCOD8226614 Si02
#       7
#     8   8   8   8   8   8   8
#     4  11  25  38  58  90 124 162 195 239 305 367
#     4   9  19  35  60  89 115 149 196 248 294 337
#     4  11  22  37  61  86 122 157 202 243 293 357
#     4   9  21  40  59  85 118 154 198 243 292 347
#     4  10  22  41  61  85 121 160 199 244 295 356
#     4  10  20  37  63  89 111 149 202 252 298 346
#     4  10  23  41  61  87 118 154 200 252 304 352
#
# _framework density 19.304324000000001
#
# number of rings (size 3 to 8) (size 9 to 14) (size 15 to 20)
#    0.000    2.000    1.429    0.857    8.000    2.286 
#    0.000    1.429    0.000    6.857    0.000    0.000 
#    0.000    0.000    0.000    0.000    0.000    0.000 
#
# Total GULP energy -693845.251274 kJ/mol
# GULP energy per Si atom -12390.093773 kJ/mol
# Density = 1.926039 g / cm^3
# Si number density = 19.304324 Si / 1000 Ang^3
#
#
#
# Elastic Constant Matrix: (Units=GPa)
#
#
# Indices 1 2 3 4 5 6 
#
# 1 76.7320 29.9780 28.5410 0.0000 0.0000 0.0000
# 2 29.9780 84.1848 33.5656 0.0000 0.0000 0.0000
# 3 28.5410 33.5656 112.5965 0.0000 0.0000 0.0000
# 4 0.0000 0.0000 0.0000 23.9556 0.0000 0.0000
# 5 0.0000 0.0000 0.0000 0.0000 13.6899 0.0000
# 6 0.0000 0.0000 0.0000 0.0000 0.0000 23.2989
#
#
#
# Elastic Compliance Matrix: (Units=1/GPa)
#
#
# Indices 1 2 3 4 5 6 
#
# 1 0.015802 -0.004574 -0.002642 0.000000 0.000000 0.000000
# 2 -0.004574 0.014805 -0.003254 0.000000 0.000000 0.000000
# 3 -0.002642 -0.003254 0.010521 0.000000 0.000000 0.000000
# 4 0.000000 0.000000 0.000000 0.041744 0.000000 0.000000
# 5 0.000000 0.000000 0.000000 0.000000 0.073046 0.000000
# 6 0.000000 0.000000 0.000000 0.000000 0.000000 0.042921
#
#
# Mechanical properties :
#
#
# Convention : Reuss Voigt Hill
#
# Bulk Modulus (GPa) = 49.53375 50.85361 50.19368
# Shear Modulus (GPa) = 22.07432 24.28412 23.17922
#
# Velocity S-wave (km/s) = 3.38522 3.55062 3.46891
# Velocity P-wave (km/s) = 6.40271 6.57340 6.48862
#
# Compressibility (1/GPa) = 0.02018826
#
# Stress axis : x y z
#
# Youngs Moduli (GPa) = 63.28337 67.54607 95.04779
#
# Poissons Ratio (x) = 0.30893 0.25112
# Poissons Ratio (y) = 0.28943 0.30929
# Poissons Ratio (z) = 0.16720 0.21980
#
# Static dielectric constant tensor:
#      x y z
#    x 3.370670 0.000000 0.000000 
#    y 0.000000 3.646450 0.000000 
#    z 0.000000 0.000000 3.688450 
# 
# 
# High freq. dielectric constant tensor:
#      x y z
#    x 1.737470 0.000000 0.000000 
#    y 0.000000 1.756870 0.000000 
#    z 0.000000 0.000000 1.756850 
# 
# From -- ./inp_files/18389.got.cif
#   From: 2010.03.12/outbox.cif.g09.slc.cpg/sg55_10_cif.got.tgz:18389.got - 2010.04.16 15:19:21.
