data_PCOD8226430
_publ_section_title
;
Structure prediction by ZEFSAII (Michael W. Deem and Ramdas Pophale) SiO2 
 PCOD8226430
Probable space group: P B A M
;
_chemical_formula_sum "Si O2"
_cell_formula_units_Z 56
_cell_length_a 13.647065
_cell_length_b 14.901746
_cell_length_c 13.877668
_cell_angle_alpha 90.000000
_cell_angle_beta 90.000000
_cell_angle_gamma 90.000000
_cell_volume 2822.233289
_symmetry_space_group_name_H-M "P B A M"
_symmetry_group_IT_number 55
_symmetry_cell_setting 'orthorhombic'
loop_
_space_group_symop_operation_xyz
x,y,z
-x,-y,z
1/2+x,1/2-y,-z
1/2-x,1/2+y,-z
-x,-y,-z
x,y,-z
1/2-x,1/2+y,z
1/2+x,1/2-y,z
loop_
_atom_site_type_symbol
_atom_site_label
_atom_site_fract_x
_atom_site_fract_y
_atom_site_fract_z
Si Si1 0.343478 0.665979 0.241441
Si Si2 0.071388 0.823185 0.248519
Si Si3 0.783491 0.028036 0.204883
Si Si4 0.180772 0.698485 0.611181
Si Si5 0.562050 0.836629 0.111739
Si Si6 0.104348 0.542671 0.284627
Si Si7 0.836296 0.669576 0.106523
O O1 0.456843 0.666680 0.269398
O O2 0.316839 0.574233 0.183894
O O3 0.285514 0.675794 0.341283
O O4 0.307949 0.749539 0.177129
O O5 0.118870 0.920819 0.237441
O O6 0.125082 0.781284 0.340456
O O7 0.084262 0.763649 0.151133
O O8 0.735382 0.083722 0.116798
O O9 0.695351 0.027593 0.285683
O O10 0.197054 0.720142 0.500000
O O11 0.112507 0.611299 0.626648
O O12 0.618088 0.906559 0.180851
O O13 0.447771 0.861522 0.123797
O O14 0.595809 0.844158 0.000000
O O15 0.000000 0.500000 0.297434
O O16 0.824716 0.708889 0.000000
#
# Coordination Sequence:
#
# PCOD8226430 Si02
#       7
#     8   8   8   8   8   8   8
#     4  10  22  41  62  85 127 163 198 254 311 363
#     4  10  21  39  61  88 120 163 200 250 306 361
#     4  11  21  37  58  89 121 164 204 244 300 367
#     4  10  22  40  63  91 118 155 205 253 309 373
#     4   9  19  36  57  84 121 162 203 247 299 362
#     4  10  20  36  60  86 125 156 198 258 308 355
#     4  10  20  36  60  89 120 161 209 248 297 362
#
# _framework density 19.842441999999998
#
# number of rings (size 3 to 8) (size 9 to 14) (size 15 to 20)
#    0.000    2.000    2.857    0.429    0.000    2.857 
#    0.000    2.857    0.000    8.571    0.000    0.000 
#    0.000    0.000    0.000    0.000    0.000    0.000 
#
# Total GULP energy -694047.820259 kJ/mol
# GULP energy per Si atom -12393.711076 kJ/mol
# Density = 1.979728 g / cm^3
# Si number density = 19.842442 Si / 1000 Ang^3
#
#
#
# Elastic Constant Matrix: (Units=GPa)
#
#
# Indices 1 2 3 4 5 6 
#
# 1 102.7790 42.2789 26.9218 0.0000 0.0000 0.0000
# 2 42.2789 86.8206 28.6924 0.0000 0.0000 0.0000
# 3 26.9218 28.6924 108.4900 0.0000 0.0000 0.0000
# 4 0.0000 0.0000 0.0000 13.2354 0.0000 0.0000
# 5 0.0000 0.0000 0.0000 0.0000 22.1582 0.0000
# 6 0.0000 0.0000 0.0000 0.0000 0.0000 37.9986
#
#
#
# Elastic Compliance Matrix: (Units=1/GPa)
#
#
# Indices 1 2 3 4 5 6 
#
# 1 0.012423 -0.005513 -0.001625 0.000000 0.000000 0.000000
# 2 -0.005513 0.015067 -0.002617 0.000000 0.000000 0.000000
# 3 -0.001625 -0.002617 0.010313 0.000000 0.000000 0.000000
# 4 0.000000 0.000000 0.000000 0.075555 0.000000 0.000000
# 5 0.000000 0.000000 0.000000 0.000000 0.045130 0.000000
# 6 0.000000 0.000000 0.000000 0.000000 0.000000 0.026317
#
#
# Mechanical properties :
#
#
# Convention : Reuss Voigt Hill
#
# Bulk Modulus (GPa) = 54.66190 54.87509 54.76850
# Shear Modulus (GPa) = 23.76296 28.02485 25.89391
#
# Velocity S-wave (km/s) = 3.46436 3.76223 3.61636
# Velocity P-wave (km/s) = 6.60380 6.82553 6.71558
#
# Compressibility (1/GPa) = 0.01829428
#
# Stress axis : x y z
#
# Youngs Moduli (GPa) = 80.49678 66.36890 96.96750
#
# Poissons Ratio (x) = 0.36586 0.15755
# Poissons Ratio (y) = 0.44374 0.25376
# Poissons Ratio (z) = 0.13079 0.17368
#
# Static dielectric constant tensor:
#      x y z
#    x 3.841950 0.000000 0.000000 
#    y 0.000000 3.686390 0.000000 
#    z 0.000000 0.000000 3.211650 
# 
# 
# High freq. dielectric constant tensor:
#      x y z
#    x 1.796590 0.000000 0.000000 
#    y 0.000000 1.777950 0.000000 
#    z 0.000000 0.000000 1.729570 
# 
# From -- ./inp_files/14227.got.cif
#   From: 2010.03.12/outbox.cif.g09.slc.cpg/sg55_8_cif.got.tgz:14227.got - 2010.04.16 15:19:21.
