data_PCOD8226284
_publ_section_title
;
Structure prediction by ZEFSAII (Michael W. Deem and Ramdas Pophale) SiO2 
 PCOD8226284
Probable space group: P B A M
;
_chemical_formula_sum "Si O2"
_cell_formula_units_Z 64
_cell_length_a 30.305123
_cell_length_b 11.919062
_cell_length_c 8.966520
_cell_angle_alpha 90.000000
_cell_angle_beta 90.000000
_cell_angle_gamma 90.000000
_cell_volume 3238.784494
_symmetry_space_group_name_H-M "P B A M"
_symmetry_group_IT_number 55
_symmetry_cell_setting 'orthorhombic'
loop_
_space_group_symop_operation_xyz
x,y,z
-x,-y,z
1/2+x,1/2-y,-z
1/2-x,1/2+y,-z
-x,-y,-z
x,y,-z
1/2-x,1/2+y,z
1/2+x,1/2-y,z
loop_
_atom_site_type_symbol
_atom_site_label
_atom_site_fract_x
_atom_site_fract_y
_atom_site_fract_z
Si Si1 0.705038 0.718453 0.324570
Si Si2 0.942371 0.759992 0.174326
Si Si3 0.674609 0.508539 0.831303
Si Si4 0.620794 0.860459 0.325279
Si Si5 0.457874 0.261710 0.173468
Si Si6 0.927135 0.005522 0.830157
Si Si7 0.294976 0.736766 0.825012
Si Si8 0.632703 0.117674 0.324151
O O1 0.712285 0.729356 0.500000
O O2 0.701783 0.587860 0.279815
O O3 0.661516 0.784305 0.269653
O O4 0.746282 0.772473 0.241188
O O5 0.937608 0.885359 0.244806
O O6 0.910886 0.676791 0.262307
O O7 0.992423 0.718136 0.197723
O O8 0.928488 0.759021 0.000000
O O9 0.623661 0.537772 0.813784
O O10 0.681085 0.379710 0.787307
O O11 0.691077 0.530491 0.000000
O O12 0.614499 0.846518 0.500000
O O13 0.575074 0.824000 0.251273
O O14 0.630649 0.987720 0.279774
O O15 0.453577 0.388898 0.240235
O O16 0.445141 0.265749 0.000000
O O17 0.942396 0.991402 0.000000
O O18 0.322742 0.834943 0.748017
O O19 0.292817 0.760829 0.000000
O O20 0.635078 0.135801 0.500000
#
# Coordination Sequence:
#
# PCOD8226284 Si02
#       8
#     8   8   8   8   8   8   8   8
#     4  11  24  41  62  89 121 157 197 245 296 355
#     4  10  20  37  60  90 121 153 195 244 296 351
#     4  10  20  38  64  91 120 155 195 242 297 354
#     4  10  24  43  59  81 119 160 199 243 294 350
#     4  10  20  35  62  91 117 153 198 244 293 351
#     4   9  16  33  59  88 121 151 186 237 296 351
#     4  11  24  42  64  92 121 153 196 248 297 352
#     4  11  24  42  61  84 117 161 203 243 296 354
#
# _framework density 19.7605
#
# number of rings (size 3 to 8) (size 9 to 14) (size 15 to 20)
#    0.000    1.750    2.500    1.500    1.750    5.000 
#    0.000    3.125    0.000    1.500    0.000    0.000 
#    0.000    0.000    0.000    0.000    0.000    0.000 
#
# Total GULP energy -793732.475848 kJ/mol
# GULP energy per Si atom -12402.069935 kJ/mol
# Density = 1.971552 g / cm^3
# Si number density = 19.760500 Si / 1000 Ang^3
#
#
#
# Elastic Constant Matrix: (Units=GPa)
#
#
# Indices 1 2 3 4 5 6 
#
# 1 93.9207 36.9133 34.8750 0.0000 0.0000 0.0000
# 2 36.9133 105.3545 46.0049 0.0000 0.0000 0.0000
# 3 34.8750 46.0049 60.5680 0.0000 0.0000 0.0000
# 4 0.0000 0.0000 0.0000 27.0601 0.0000 0.0000
# 5 0.0000 0.0000 0.0000 0.0000 30.0808 0.0000
# 6 0.0000 0.0000 0.0000 0.0000 0.0000 28.6009
#
#
#
# Elastic Compliance Matrix: (Units=1/GPa)
#
#
# Indices 1 2 3 4 5 6 
#
# 1 0.013832 -0.002048 -0.006409 0.000000 0.000000 0.000000
# 2 -0.002048 0.014505 -0.009839 0.000000 0.000000 0.000000
# 3 -0.006409 -0.009839 0.027674 0.000000 0.000000 0.000000
# 4 0.000000 0.000000 0.000000 0.036955 0.000000 0.000000
# 5 0.000000 0.000000 0.000000 0.000000 0.033244 0.000000
# 6 0.000000 0.000000 0.000000 0.000000 0.000000 0.034964
#
#
# Mechanical properties :
#
#
# Convention : Reuss Voigt Hill
#
# Bulk Modulus (GPa) = 51.49262 55.04774 53.27018
# Shear Modulus (GPa) = 24.48123 26.61833 25.54978
#
# Velocity S-wave (km/s) = 3.52362 3.67420 3.59969
# Velocity P-wave (km/s) = 6.53218 6.77625 6.65534
#
# Compressibility (1/GPa) = 0.01942026
#
# Stress axis : x y z
#
# Youngs Moduli (GPa) = 72.29647 68.93960 36.13528
#
# Poissons Ratio (x) = 0.14117 0.23159
# Poissons Ratio (y) = 0.14804 0.35552
# Poissons Ratio (z) = 0.46335 0.67827
#
# Static dielectric constant tensor:
#      x y z
#    x 3.647740 0.000000 0.000000 
#    y 0.000000 3.674810 0.000000 
#    z 0.000000 0.000000 3.398430 
# 
# 
# High freq. dielectric constant tensor:
#      x y z
#    x 1.781520 0.000000 0.000000 
#    y 0.000000 1.777690 0.000000 
#    z 0.000000 0.000000 1.748480 
# 
# From -- ./inp_files/4531.got.cif
#   From: 2010.03.12/outbox.cif.g09.slc.cpg/sg55_3_cif.got.tgz:4531.got - 2010.04.16 15:19:21.
