data_PCOD8226399
_publ_section_title
;
Structure prediction by ZEFSAII (Michael W. Deem and Ramdas Pophale) SiO2 
 PCOD8226399
Probable space group: P B A M
;
_chemical_formula_sum "Si O2"
_cell_formula_units_Z 64
_cell_length_a 21.607983
_cell_length_b 16.550599
_cell_length_c 9.072844
_cell_angle_alpha 90.000000
_cell_angle_beta 90.000000
_cell_angle_gamma 90.000000
_cell_volume 3244.676396
_symmetry_space_group_name_H-M "P B A M"
_symmetry_group_IT_number 55
_symmetry_cell_setting 'orthorhombic'
loop_
_space_group_symop_operation_xyz
x,y,z
-x,-y,z
1/2+x,1/2-y,-z
1/2-x,1/2+y,-z
-x,-y,-z
x,y,-z
1/2-x,1/2+y,z
1/2+x,1/2-y,z
loop_
_atom_site_type_symbol
_atom_site_label
_atom_site_fract_x
_atom_site_fract_y
_atom_site_fract_z
Si Si1 0.620215 0.683312 0.174480
Si Si2 0.971357 0.301865 0.324857
Si Si3 0.126292 0.568607 0.330754
Si Si4 0.401957 0.780257 0.172546
Si Si5 0.840926 0.879035 0.164995
Si Si6 0.709623 0.819920 0.163844
Si Si7 0.683124 0.541385 0.673542
Si Si8 0.179406 0.403034 0.328562
O O1 0.560311 0.724714 0.247497
O O2 0.680786 0.735616 0.219392
O O3 0.632141 0.596117 0.244859
O O4 0.609536 0.674701 0.000000
O O5 0.972432 0.288960 0.500000
O O6 0.935814 0.384988 0.278641
O O7 0.040018 0.312376 0.264332
O O8 0.136367 0.586706 0.500000
O O9 0.187195 0.604481 0.257164
O O10 0.127409 0.472839 0.299802
O O11 0.396661 0.683181 0.200110
O O12 0.341051 0.826874 0.231529
O O13 0.410166 0.798801 0.000000
O O14 0.783083 0.817517 0.171711
O O15 0.834219 0.950009 0.282203
O O16 0.847130 0.916081 0.000000
O O17 0.684361 0.834676 0.000000
O O18 0.674645 0.550055 0.500000
O O19 0.752823 0.565230 0.721915
O O20 0.181042 0.378369 0.500000
#
# Coordination Sequence:
#
# PCOD8226399 Si02
#       8
#     8   8   8   8   8   8   8   8
#     4  10  20  36  59  85 115 150 189 235 285 341
#     4  10  21  39  61  83 113 153 199 243 285 336
#     4   9  18  34  56  83 115 151 186 228 281 335
#     4  11  24  40  58  82 114 154 197 240 288 341
#     4  10  21  37  56  80 113 150 186 231 288 342
#     4   9  17  31  54  82 110 143 183 225 278 338
#     4  11  22  36  58  89 119 148 187 234 285 343
#     4  10  21  37  57  86 121 152 187 231 285 344
#
# _framework density 19.724618
#
# number of rings (size 3 to 8) (size 9 to 14) (size 15 to 20)
#    0.000    2.000    1.250    2.250    0.000    5.000 
#    0.000    3.125    0.000    3.750    0.000    0.000 
#    0.000    0.000    0.000    0.000    0.000    0.000 
#
# Total GULP energy -793426.240167 kJ/mol
# GULP energy per Si atom -12397.285003 kJ/mol
# Density = 1.967972 g / cm^3
# Si number density = 19.724618 Si / 1000 Ang^3
#
#
#
# Elastic Constant Matrix: (Units=GPa)
#
#
# Indices 1 2 3 4 5 6 
#
# 1 47.0357 21.2447 28.2444 0.0000 0.0000 0.0000
# 2 21.2447 87.9435 43.7734 0.0000 0.0000 0.0000
# 3 28.2444 43.7734 81.8688 0.0000 0.0000 0.0000
# 4 0.0000 0.0000 0.0000 33.5333 0.0000 0.0000
# 5 0.0000 0.0000 0.0000 0.0000 30.7602 0.0000
# 6 0.0000 0.0000 0.0000 0.0000 0.0000 23.9455
#
#
#
# Elastic Compliance Matrix: (Units=1/GPa)
#
#
# Indices 1 2 3 4 5 6 
#
# 1 0.027243 -0.002593 -0.008012 0.000000 0.000000 0.000000
# 2 -0.002593 0.015741 -0.007522 0.000000 0.000000 0.000000
# 3 -0.008012 -0.007522 0.019001 0.000000 0.000000 0.000000
# 4 0.000000 0.000000 0.000000 0.029821 0.000000 0.000000
# 5 0.000000 0.000000 0.000000 0.000000 0.032510 0.000000
# 6 0.000000 0.000000 0.000000 0.000000 0.000000 0.041761
#
#
# Mechanical properties :
#
#
# Convention : Reuss Voigt Hill
#
# Bulk Modulus (GPa) = 38.86451 44.81923 41.84187
# Shear Modulus (GPa) = 23.70696 25.88682 24.79689
#
# Velocity S-wave (km/s) = 3.47060 3.62665 3.54948
# Velocity P-wave (km/s) = 5.98385 6.34891 6.16908
#
# Compressibility (1/GPa) = 0.02573042
#
# Stress axis : x y z
#
# Youngs Moduli (GPa) = 36.70680 63.52684 52.62969
#
# Poissons Ratio (x) = 0.16473 0.42168
# Poissons Ratio (y) = 0.09518 0.39588
# Poissons Ratio (z) = 0.29410 0.47785
#
# Static dielectric constant tensor:
#      x y z
#    x 3.475900 0.000000 0.000000 
#    y 0.000000 3.550300 0.000000 
#    z 0.000000 0.000000 3.550870 
# 
# 
# High freq. dielectric constant tensor:
#      x y z
#    x 1.752520 0.000000 0.000000 
#    y 0.000000 1.767850 0.000000 
#    z 0.000000 0.000000 1.771260 
# 
# From -- ./inp_files/6686.got.cif
#   From: 2010.03.12/outbox.cif.g09.slc.cpg/sg55_4_cif.got.tgz:6686.got - 2010.04.16 15:19:21.
