data_PCOD8226818
_publ_section_title
;
Structure prediction by ZEFSAII (Michael W. Deem and Ramdas Pophale) SiO2 
 PCOD8226818
Probable space group: P B A M
;
_chemical_formula_sum "Si O2"
_cell_formula_units_Z 48
_cell_length_a 23.399947
_cell_length_b 11.957132
_cell_length_c 9.473359
_cell_angle_alpha 90.000000
_cell_angle_beta 90.000000
_cell_angle_gamma 90.000000
_cell_volume 2650.610371
_symmetry_space_group_name_H-M "P B A M"
_symmetry_group_IT_number 55
_symmetry_cell_setting 'orthorhombic'
loop_
_space_group_symop_operation_xyz
x,y,z
-x,-y,z
1/2+x,1/2-y,-z
1/2-x,1/2+y,-z
-x,-y,-z
x,y,-z
1/2-x,1/2+y,z
1/2+x,1/2-y,z
loop_
_atom_site_type_symbol
_atom_site_label
_atom_site_fract_x
_atom_site_fract_y
_atom_site_fract_z
Si Si1 0.935422 0.984874 0.667178
Si Si2 0.894000 0.739661 0.332628
Si Si3 0.159302 0.846047 0.666607
Si Si4 0.561163 0.051475 0.156365
Si Si5 0.358794 0.091816 0.660480
Si Si6 0.217293 0.388572 0.660488
O O1 0.939364 0.994817 0.500000
O O2 0.893099 0.080433 0.729683
O O3 0.907047 0.866758 0.710497
O O4 0.000000 0.000000 0.729362
O O5 0.900768 0.719882 0.500000
O O6 0.940156 0.663237 0.251725
O O7 0.831272 0.696830 0.279141
O O8 0.160002 0.867087 0.500000
O O9 0.152020 0.717686 0.706901
O O10 0.220707 0.879890 0.735150
O O11 0.500000 0.000000 0.140203
O O12 0.596329 0.954695 0.230743
O O13 0.585972 0.078447 0.000000
O O14 0.382396 0.085231 0.500000
O O15 0.301325 0.017894 0.672862
O O16 0.225969 0.350879 0.500000
#
# Coordination Sequence:
#
# PCOD8226818 Si02
#       6
#     8   8   8   8   8   8
#     4   9  18  29  43  71 107 138 163 198 252 300
#     4   9  18  32  52  76 102 130 167 210 249 298
#     4   9  17  27  46  74 106 134 160 203 251 299
#     4  10  21  35  52  72  97 131 168 209 257 301
#     4   9  18  31  50  77 102 128 166 207 249 296
#     4   8  15  27  44  72 100 127 163 205 250 288
#
# _framework density 18.109037000000001
#
# number of rings (size 3 to 8) (size 9 to 14) (size 15 to 20)
#    0.000    3.000    0.000    1.500    4.667    1.333 
#    0.000    0.000    0.000    5.500    0.000    0.000 
#    0.000    0.000    0.000    0.000    0.000    0.000 
#
# Total GULP energy -594754.657731 kJ/mol
# GULP energy per Si atom -12390.722036 kJ/mol
# Density = 1.806782 g / cm^3
# Si number density = 18.109037 Si / 1000 Ang^3
#
#
#
# Elastic Constant Matrix: (Units=GPa)
#
#
# Indices 1 2 3 4 5 6 
#
# 1 122.1893 75.9870 24.0394 0.0000 0.0000 0.0000
# 2 75.9870 161.1692 28.9186 0.0000 0.0000 0.0000
# 3 24.0394 28.9186 46.8501 0.0000 0.0000 0.0000
# 4 0.0000 0.0000 0.0000 -10.8016 0.0000 0.0000
# 5 0.0000 0.0000 0.0000 0.0000 33.6771 0.0000
# 6 0.0000 0.0000 0.0000 0.0000 0.0000 19.8785
#
#
#
# Elastic Compliance Matrix: (Units=1/GPa)
#
#
# Indices 1 2 3 4 5 6 
#
# 1 0.011938 -0.005094 -0.002982 0.000000 0.000000 0.000000
# 2 -0.005094 0.009151 -0.003035 0.000000 0.000000 0.000000
# 3 -0.002982 -0.003035 0.024748 0.000000 0.000000 0.000000
# 4 0.000000 0.000000 0.000000 -0.092579 0.000000 0.000000
# 5 0.000000 0.000000 0.000000 0.000000 0.029694 0.000000
# 6 0.000000 0.000000 0.000000 0.000000 0.000000 0.050305
#
#
# Mechanical properties :
#
#
# Convention : Reuss Voigt Hill
#
# Bulk Modulus (GPa) = 42.34268 65.34429 53.84348
# Shear Modulus (GPa) = 78.92755 21.96838 50.44796
#
# Velocity S-wave (km/s) = 6.60903 3.48676 5.28378
# Velocity P-wave (km/s) = 9.03725 7.23686 8.18670
#
# Compressibility (1/GPa) = 0.02361683
#
# Stress axis : x y z
#
# Youngs Moduli (GPa) = 83.76480 109.28175 40.40760
#
# Poissons Ratio (x) = 0.55663 0.12048
# Poissons Ratio (y) = 0.42666 0.12263
# Poissons Ratio (z) = 0.24975 0.33164
#
# Static dielectric constant tensor:
#      x y z
#    x 3.643150 0.000000 0.000000 
#    y 0.000000 3.452810 0.000000 
#    z 0.000000 0.000000 2.945350 
# 
# 
# High freq. dielectric constant tensor:
#      x y z
#    x 1.706820 0.000000 0.000000 
#    y 0.000000 1.710450 0.000000 
#    z 0.000000 0.000000 1.637300 
# 
# From -- ./inp_files/4077.got.cif
#   From: 2010.03.12/outbox.cif.g09.slc.cpg/sg55_3_cif.got.tgz:4077.got - 2010.04.16 15:19:21.
