data_PCOD8226263
_publ_section_title
;
Structure prediction by ZEFSAII (Michael W. Deem and Ramdas Pophale) SiO2 
 PCOD8226263
Probable space group: P B A M
;
_chemical_formula_sum "Si O2"
_cell_formula_units_Z 64
_cell_length_a 18.719751
_cell_length_b 14.369371
_cell_length_c 12.156798
_cell_angle_alpha 90.000000
_cell_angle_beta 90.000000
_cell_angle_gamma 90.000000
_cell_volume 3270.069824
_symmetry_space_group_name_H-M "P B A M"
_symmetry_group_IT_number 55
_symmetry_cell_setting 'orthorhombic'
loop_
_space_group_symop_operation_xyz
x,y,z
-x,-y,z
1/2+x,1/2-y,-z
1/2-x,1/2+y,-z
-x,-y,-z
x,y,-z
1/2-x,1/2+y,z
1/2+x,1/2-y,z
loop_
_atom_site_type_symbol
_atom_site_label
_atom_site_fract_x
_atom_site_fract_y
_atom_site_fract_z
Si Si1 0.494968 0.606541 0.125313
Si Si2 0.374241 0.344553 0.740335
Si Si3 0.180036 0.014993 0.375881
Si Si4 0.269963 0.844996 0.870082
Si Si5 0.602413 0.843225 0.629565
Si Si6 0.140301 0.183776 0.227534
Si Si7 0.169007 0.474626 0.696072
Si Si8 0.559976 0.172297 0.623949
O O1 0.500000 0.500000 0.161354
O O2 0.550103 0.665637 0.198443
O O3 0.413459 0.638873 0.139849
O O4 0.517708 0.620841 0.000000
O O5 0.375793 0.437733 0.666352
O O6 0.311438 0.350481 0.830136
O O7 0.364532 0.256707 0.660149
O O8 0.159927 0.044030 0.500000
O O9 0.180379 0.104961 0.297579
O O10 0.258302 0.968453 0.373921
O O11 0.301400 0.744588 0.836790
O O12 0.316906 0.928185 0.815706
O O13 0.273172 0.859336 0.000000
O O14 0.615265 0.861969 0.500000
O O15 0.519760 0.850527 0.663745
O O16 0.643831 0.918715 0.704105
O O17 0.093082 0.244844 0.307970
O O18 0.107314 0.420079 0.631776
O O19 0.556750 0.208457 0.500000
#
# Coordination Sequence:
#
# PCOD8226263 Si02
#       8
#     8   8   8   8   8   8   8   8
#     4  11  22  39  61  82 113 153 197 246 297 348
#     4  11  22  40  58  89 120 154 196 247 294 353
#     4  11  22  37  58  87 122 157 191 238 297 355
#     4  10  23  42  63  85 115 155 201 252 298 343
#     4  11  21  36  60  89 122 159 196 240 298 361
#     4  11  21  39  60  89 118 151 196 243 294 354
#     4  10  22  38  59  84 120 155 202 245 288 354
#     4  10  20  35  59  86 119 158 193 238 295 357
#
# _framework density 19.571446999999999
#
# number of rings (size 3 to 8) (size 9 to 14) (size 15 to 20)
#    0.000    1.375    2.500    3.750    0.000    1.000 
#    0.000    8.750    0.000    1.500    0.000    0.000 
#    0.000    0.000    0.000    0.000    0.000    0.000 
#
# Total GULP energy -793802.856241 kJ/mol
# GULP energy per Si atom -12403.169629 kJ/mol
# Density = 1.952690 g / cm^3
# Si number density = 19.571447 Si / 1000 Ang^3
#
#
#
# Elastic Constant Matrix: (Units=GPa)
#
#
# Indices 1 2 3 4 5 6 
#
# 1 71.9832 17.1490 39.4320 0.0000 0.0000 0.0000
# 2 17.1490 107.5164 45.1186 0.0000 0.0000 0.0000
# 3 39.4320 45.1186 93.6942 0.0000 0.0000 0.0000
# 4 0.0000 0.0000 0.0000 16.1803 0.0000 0.0000
# 5 0.0000 0.0000 0.0000 0.0000 25.8884 0.0000
# 6 0.0000 0.0000 0.0000 0.0000 0.0000 33.5167
#
#
#
# Elastic Compliance Matrix: (Units=1/GPa)
#
#
# Indices 1 2 3 4 5 6 
#
# 1 0.018067 0.000387 -0.007790 0.000000 0.000000 0.000000
# 2 0.000387 0.011665 -0.005780 0.000000 0.000000 0.000000
# 3 -0.007790 -0.005780 0.016735 0.000000 0.000000 0.000000
# 4 0.000000 0.000000 0.000000 0.061803 0.000000 0.000000
# 5 0.000000 0.000000 0.000000 0.000000 0.038627 0.000000
# 6 0.000000 0.000000 0.000000 0.000000 0.000000 0.029836
#
#
# Mechanical properties :
#
#
# Convention : Reuss Voigt Hill
#
# Bulk Modulus (GPa) = 49.74902 52.95477 51.35189
# Shear Modulus (GPa) = 23.83216 26.55003 25.19110
#
# Velocity S-wave (km/s) = 3.49334 3.68716 3.59156
# Velocity P-wave (km/s) = 6.46108 6.72627 6.59501
#
# Compressibility (1/GPa) = 0.02010090
#
# Stress axis : x y z
#
# Youngs Moduli (GPa) = 55.34840 85.72836 59.75444
#
# Poissons Ratio (x) = -0.03321 0.46551
# Poissons Ratio (y) = -0.02144 0.34539
# Poissons Ratio (z) = 0.43119 0.49553
#
# Static dielectric constant tensor:
#      x y z
#    x 3.649610 0.000000 0.000000 
#    y 0.000000 3.621270 0.000000 
#    z 0.000000 0.000000 3.387280 
# 
# 
# High freq. dielectric constant tensor:
#      x y z
#    x 1.772250 0.000000 0.000000 
#    y 0.000000 1.768760 0.000000 
#    z 0.000000 0.000000 1.750710 
# 
# From -- ./inp_files/14391.got.cif
#   From: 2010.03.12/outbox.cif.g09.slc.cpg/sg55_8_cif.got.tgz:14391.got - 2010.04.16 15:19:21.
