data_PCOD8226739
_publ_section_title
;
Structure prediction by ZEFSAII (Michael W. Deem and Ramdas Pophale) SiO2 
 PCOD8226739
Probable space group: P B A M
;
_chemical_formula_sum "Si O2"
_cell_formula_units_Z 64
_cell_length_a 23.676269
_cell_length_b 15.104242
_cell_length_c 9.160812
_cell_angle_alpha 90.000000
_cell_angle_beta 90.000000
_cell_angle_gamma 90.000000
_cell_volume 3276.017186
_symmetry_space_group_name_H-M "P B A M"
_symmetry_group_IT_number 55
_symmetry_cell_setting 'orthorhombic'
loop_
_space_group_symop_operation_xyz
x,y,z
-x,-y,z
1/2+x,1/2-y,-z
1/2-x,1/2+y,-z
-x,-y,-z
x,y,-z
1/2-x,1/2+y,z
1/2+x,1/2-y,z
loop_
_atom_site_type_symbol
_atom_site_label
_atom_site_fract_x
_atom_site_fract_y
_atom_site_fract_z
Si Si1 0.929119 0.252523 0.827926
Si Si2 0.380149 0.642569 0.338685
Si Si3 0.701381 0.737122 0.170295
Si Si4 0.510990 0.402196 0.172478
Si Si5 0.743059 0.400523 0.670233
Si Si6 0.122148 0.345178 0.337145
Si Si7 0.778835 0.573568 0.829763
Si Si8 0.497428 0.101392 0.329410
O O1 0.864399 0.233442 0.786207
O O2 0.965639 0.169131 0.767575
O O3 0.948913 0.344052 0.753948
O O4 0.937296 0.263455 0.000000
O O5 0.403609 0.617474 0.500000
O O6 0.426357 0.625030 0.216886
O O7 0.323798 0.588304 0.301108
O O8 0.360701 0.743564 0.337126
O O9 0.732672 0.811839 0.260519
O O10 0.729527 0.643006 0.210426
O O11 0.709347 0.758238 0.000000
O O12 0.500000 0.500000 0.237909
O O13 0.507386 0.404847 0.000000
O O14 0.757278 0.398100 0.500000
O O15 0.771789 0.484043 0.742374
O O16 0.131829 0.385744 0.500000
O O17 0.159786 0.392045 0.216095
O O18 0.056952 0.353668 0.292093
O O19 0.779305 0.552149 0.000000
O O20 0.482747 0.105373 0.500000
O O21 0.500000 0.000000 0.274552
#
# Coordination Sequence:
#
# PCOD8226739 Si02
#       8
#     8   8   8   8   8   8   8   8
#     4  10  22  40  59  85 120 155 195 243 293 347
#     4  10  21  39  62  87 117 154 198 250 297 347
#     4  10  23  42  61  86 122 160 199 245 297 357
#     4  10  22  38  61  89 119 158 199 242 296 354
#     4  11  24  41  62  88 120 158 202 248 300 355
#     4  10  20  39  62  85 120 155 197 250 295 352
#     4  11  24  40  63  91 121 158 200 246 301 358
#     4  10  22  39  60  87 117 155 197 238 293 353
#
# _framework density 19.535917000000001
#
# number of rings (size 3 to 8) (size 9 to 14) (size 15 to 20)
#    0.000    1.750    2.500    0.750    3.500    3.500 
#    0.000    0.000    0.000    0.000    0.000    0.000 
#    0.000    0.000    0.000    0.000    0.000    0.000 
#
# Total GULP energy -793752.917100 kJ/mol
# GULP energy per Si atom -12402.389330 kJ/mol
# Density = 1.949145 g / cm^3
# Si number density = 19.535917 Si / 1000 Ang^3
#
#
#
# Elastic Constant Matrix: (Units=GPa)
#
#
# Indices 1 2 3 4 5 6 
#
# 1 63.3266 5.5398 26.1685 0.0000 0.0000 0.0000
# 2 5.5398 72.5144 28.5723 0.0000 0.0000 0.0000
# 3 26.1685 28.5723 46.4551 0.0000 0.0000 0.0000
# 4 0.0000 0.0000 0.0000 21.0261 0.0000 0.0000
# 5 0.0000 0.0000 0.0000 0.0000 28.5511 0.0000
# 6 0.0000 0.0000 0.0000 0.0000 0.0000 25.8923
#
#
#
# Elastic Compliance Matrix: (Units=1/GPa)
#
#
# Indices 1 2 3 4 5 6 
#
# 1 0.021479 0.004126 -0.014637 0.000000 0.000000 0.000000
# 2 0.004126 0.018994 -0.014007 0.000000 0.000000 0.000000
# 3 -0.014637 -0.014007 0.038386 0.000000 0.000000 0.000000
# 4 0.000000 0.000000 0.000000 0.047560 0.000000 0.000000
# 5 0.000000 0.000000 0.000000 0.000000 0.035025 0.000000
# 6 0.000000 0.000000 0.000000 0.000000 0.000000 0.038622
#
#
# Mechanical properties :
#
#
# Convention : Reuss Voigt Hill
#
# Bulk Modulus (GPa) = 33.52988 33.65081 33.59035
# Shear Modulus (GPa) = 19.30191 23.22827 21.26509
#
# Velocity S-wave (km/s) = 3.14669 3.45193 3.30284
# Velocity P-wave (km/s) = 5.51386 5.75763 5.63706
#
# Compressibility (1/GPa) = 0.02982414
#
# Stress axis : x y z
#
# Youngs Moduli (GPa) = 46.55775 52.64783 26.05098
#
# Poissons Ratio (x) = -0.21725 0.38131
# Poissons Ratio (y) = -0.19212 0.36489
# Poissons Ratio (z) = 0.68147 0.73743
#
# Static dielectric constant tensor:
#      x y z
#    x 3.581560 0.000000 0.000000 
#    y 0.000000 3.661110 0.000000 
#    z 0.000000 0.000000 3.483860 
# 
# 
# High freq. dielectric constant tensor:
#      x y z
#    x 1.768270 0.000000 0.000000 
#    y 0.000000 1.767810 0.000000 
#    z 0.000000 0.000000 1.754300 
# 
# From -- ./inp_files/9692.got.cif
#   From: 2010.03.12/outbox.cif.g09.slc.cpg/sg55_5_cif.got.tgz:9692.got - 2010.04.16 15:19:21.
