data_PCOD8226527
_publ_section_title
;
Structure prediction by ZEFSAII (Michael W. Deem and Ramdas Pophale) SiO2 
 PCOD8226527
Probable space group: P B A M
;
_chemical_formula_sum "Si O2"
_cell_formula_units_Z 48
_cell_length_a 18.721612
_cell_length_b 14.705912
_cell_length_c 9.133706
_cell_angle_alpha 90.000000
_cell_angle_beta 90.000000
_cell_angle_gamma 90.000000
_cell_volume 2514.677126
_symmetry_space_group_name_H-M "P B A M"
_symmetry_group_IT_number 55
_symmetry_cell_setting 'orthorhombic'
loop_
_space_group_symop_operation_xyz
x,y,z
-x,-y,z
1/2+x,1/2-y,-z
1/2-x,1/2+y,-z
-x,-y,-z
x,y,-z
1/2-x,1/2+y,z
1/2+x,1/2-y,z
loop_
_atom_site_type_symbol
_atom_site_label
_atom_site_fract_x
_atom_site_fract_y
_atom_site_fract_z
Si Si1 0.188793 0.901536 0.170988
Si Si2 0.760392 0.787171 0.169301
Si Si3 0.921567 0.749000 0.171769
Si Si4 0.286556 0.039822 0.326962
Si Si5 0.973531 0.095966 0.826674
Si Si6 0.568354 0.057895 0.672470
O O1 0.232845 0.812288 0.211185
O O2 0.220376 0.985339 0.260073
O O3 0.107578 0.886481 0.221045
O O4 0.193650 0.925973 0.000000
O O5 0.844022 0.790489 0.206420
O O6 0.716684 0.857917 0.267140
O O7 0.745332 0.809445 0.000000
O O8 0.934980 0.654950 0.252053
O O9 0.978388 0.821635 0.234177
O O10 0.930564 0.730722 0.000000
O O11 0.279504 0.041295 0.500000
O O12 0.360999 0.995479 0.275973
O O13 0.982172 0.093520 0.000000
O O14 0.000000 0.000000 0.760122
O O15 0.568529 0.073878 0.500000
O O16 0.500000 0.000000 0.722898
#
# Coordination Sequence:
#
# PCOD8226527 Si02
#       6
#     8   8   8   8   8   8
#     4  10  20  37  59  85 114 146 187 236 286 333
#     4  10  21  36  58  86 114 146 188 239 290 336
#     4  10  20  37  61  88 113 148 192 234 284 337
#     4  11  23  38  59  84 113 152 193 232 282 342
#     4   9  18  33  56  84 115 147 180 227 283 337
#     4  10  23  41  57  79 115 157 192 231 284 338
#
# _framework density 19.087938999999999
#
# number of rings (size 3 to 8) (size 9 to 14) (size 15 to 20)
#    0.000    2.000    1.667    1.500    2.333    5.000 
#    0.000    0.833    0.000    2.000    0.000    0.000 
#    0.000    0.000    0.000    0.000    0.000    0.000 
#
# Total GULP energy -595404.953711 kJ/mol
# GULP energy per Si atom -12404.269869 kJ/mol
# Density = 1.904449 g / cm^3
# Si number density = 19.087939 Si / 1000 Ang^3
#
#
#
# Elastic Constant Matrix: (Units=GPa)
#
#
# Indices 1 2 3 4 5 6 
#
# 1 91.4030 21.6404 23.6346 0.0000 0.0000 0.0000
# 2 21.6404 93.3002 35.3058 0.0000 0.0000 0.0000
# 3 23.6346 35.3058 36.5684 0.0000 0.0000 0.0000
# 4 0.0000 0.0000 0.0000 11.7874 0.0000 0.0000
# 5 0.0000 0.0000 0.0000 0.0000 16.4979 0.0000
# 6 0.0000 0.0000 0.0000 0.0000 0.0000 39.3498
#
#
#
# Elastic Compliance Matrix: (Units=1/GPa)
#
#
# Indices 1 2 3 4 5 6 
#
# 1 0.013140 0.000261 -0.008745 0.000000 0.000000 0.000000
# 2 0.000261 0.016893 -0.016479 0.000000 0.000000 0.000000
# 3 -0.008745 -0.016479 0.048908 0.000000 0.000000 0.000000
# 4 0.000000 0.000000 0.000000 0.084836 0.000000 0.000000
# 5 0.000000 0.000000 0.000000 0.000000 0.060614 0.000000
# 6 0.000000 0.000000 0.000000 0.000000 0.000000 0.025413
#
#
# Mechanical properties :
#
#
# Convention : Reuss Voigt Hill
#
# Bulk Modulus (GPa) = 34.46339 42.49258 38.47798
# Shear Modulus (GPa) = 16.16024 22.90641 19.53333
#
# Velocity S-wave (km/s) = 2.91283 3.46793 3.20243
# Velocity P-wave (km/s) = 5.42283 6.19235 5.82032
#
# Compressibility (1/GPa) = 0.02901630
#
# Stress axis : x y z
#
# Youngs Moduli (GPa) = 76.10427 59.19510 20.44655
#
# Poissons Ratio (x) = -0.01548 0.17880
# Poissons Ratio (y) = -0.01990 0.33694
# Poissons Ratio (z) = 0.66552 0.97548
#
# Static dielectric constant tensor:
#      x y z
#    x 3.730240 0.000000 0.000000 
#    y 0.000000 3.540000 0.000000 
#    z 0.000000 0.000000 3.230480 
# 
# 
# High freq. dielectric constant tensor:
#      x y z
#    x 1.756740 0.000000 0.000000 
#    y 0.000000 1.755980 0.000000 
#    z 0.000000 0.000000 1.713360 
# 
# From -- ./inp_files/5600.got.cif
#   From: 2010.03.12/outbox.cif.g09.slc.cpg/sg55_3_cif.got.tgz:5600.got - 2010.04.16 15:19:21.
