data_PCOD8226538
_publ_section_title
;
Structure prediction by ZEFSAII (Michael W. Deem and Ramdas Pophale) SiO2 
 PCOD8226538
Probable space group: P B A M
;
_chemical_formula_sum "Si O2"
_cell_formula_units_Z 64
_cell_length_a 12.714135
_cell_length_b 28.743329
_cell_length_c 8.881145
_cell_angle_alpha 90.000000
_cell_angle_beta 90.000000
_cell_angle_gamma 90.000000
_cell_volume 3245.583936
_symmetry_space_group_name_H-M "P B A M"
_symmetry_group_IT_number 55
_symmetry_cell_setting 'orthorhombic'
loop_
_space_group_symop_operation_xyz
x,y,z
-x,-y,z
1/2+x,1/2-y,-z
1/2-x,1/2+y,-z
-x,-y,-z
x,y,-z
1/2-x,1/2+y,z
1/2+x,1/2-y,z
loop_
_atom_site_type_symbol
_atom_site_label
_atom_site_fract_x
_atom_site_fract_y
_atom_site_fract_z
Si Si1 0.290394 0.462071 0.175806
Si Si2 0.610060 0.893224 0.177175
Si Si3 0.665866 0.432957 0.824614
Si Si4 0.459768 0.396061 0.325920
Si Si5 0.671074 0.170457 0.831834
Si Si6 0.131266 0.797247 0.672194
Si Si7 0.448435 0.209501 0.168336
Si Si8 0.599902 0.079842 0.676877
O O1 0.339926 0.512313 0.208984
O O2 0.370076 0.423307 0.235956
O O3 0.175801 0.459742 0.254220
O O4 0.273718 0.454165 0.000000
O O5 0.721947 0.913040 0.229351
O O6 0.604090 0.838940 0.222999
O O7 0.517675 0.922813 0.256465
O O8 0.591395 0.898862 0.000000
O O9 0.575583 0.408062 0.730805
O O10 0.647905 0.422266 0.000000
O O11 0.449114 0.409870 0.500000
O O12 0.445050 0.341071 0.299738
O O13 0.769002 0.200669 0.780271
O O14 0.573381 0.204929 0.832961
O O15 0.654776 0.128676 0.715495
O O16 0.689106 0.149966 0.000000
O O17 0.168361 0.795481 0.500000
O O18 0.073561 0.749605 0.712443
O O19 0.408131 0.222258 0.000000
O O20 0.593306 0.072846 0.500000
#
# Coordination Sequence:
#
# PCOD8226538 Si02
#       8
#     8   8   8   8   8   8   8   8
#     4  11  22  38  62  89 116 155 202 247 296 353
#     4   9  20  41  62  84 118 158 200 247 298 356
#     4  10  23  41  62  87 118 158 202 246 296 356
#     4  11  24  40  58  85 121 157 197 247 302 358
#     4  10  20  37  60  83 111 151 194 242 292 345
#     4  11  23  37  57  87 119 153 193 240 297 355
#     4   9  20  37  59  86 113 149 196 240 292 350
#     4  11  21  35  59  89 119 151 193 244 296 351
#
# _framework density 19.719100000000001
#
# number of rings (size 3 to 8) (size 9 to 14) (size 15 to 20)
#    0.000    1.750    1.250    3.750    0.000    8.500 
#    0.000    6.250    0.000    0.000    0.000    0.000 
#    0.000    0.000    0.000    0.000    0.000    0.000 
#
# Total GULP energy -793785.142894 kJ/mol
# GULP energy per Si atom -12402.892858 kJ/mol
# Density = 1.967422 g / cm^3
# Si number density = 19.719100 Si / 1000 Ang^3
#
#
#
# Elastic Constant Matrix: (Units=GPa)
#
#
# Indices 1 2 3 4 5 6 
#
# 1 109.6469 33.2750 48.2679 0.0000 0.0000 0.0000
# 2 33.2750 57.9906 32.3383 0.0000 0.0000 0.0000
# 3 48.2679 32.3383 97.3152 0.0000 0.0000 0.0000
# 4 0.0000 0.0000 0.0000 25.0113 0.0000 0.0000
# 5 0.0000 0.0000 0.0000 0.0000 27.3812 0.0000
# 6 0.0000 0.0000 0.0000 0.0000 0.0000 21.6161
#
#
#
# Elastic Compliance Matrix: (Units=1/GPa)
#
#
# Indices 1 2 3 4 5 6 
#
# 1 0.012592 -0.004594 -0.004719 0.000000 0.000000 0.000000
# 2 -0.004594 0.022842 -0.005312 0.000000 0.000000 0.000000
# 3 -0.004719 -0.005312 0.014382 0.000000 0.000000 0.000000
# 4 0.000000 0.000000 0.000000 0.039982 0.000000 0.000000
# 5 0.000000 0.000000 0.000000 0.000000 0.036521 0.000000
# 6 0.000000 0.000000 0.000000 0.000000 0.000000 0.046262
#
#
# Mechanical properties :
#
#
# Convention : Reuss Voigt Hill
#
# Bulk Modulus (GPa) = 48.62339 54.74612 51.68475
# Shear Modulus (GPa) = 23.95952 24.87316 24.41634
#
# Velocity S-wave (km/s) = 3.48953 3.55544 3.52264
# Velocity P-wave (km/s) = 6.39901 6.68417 6.54314
#
# Compressibility (1/GPa) = 0.02056623
#
# Stress axis : x y z
#
# Youngs Moduli (GPa) = 79.41858 43.77841 69.53281
#
# Poissons Ratio (x) = 0.20110 0.32812
# Poissons Ratio (y) = 0.36481 0.36937
# Poissons Ratio (z) = 0.37477 0.23256
#
# Static dielectric constant tensor:
#      x y z
#    x 3.693390 0.000000 0.000000 
#    y 0.000000 3.527040 0.000000 
#    z 0.000000 0.000000 3.573770 
# 
# 
# High freq. dielectric constant tensor:
#      x y z
#    x 1.775250 0.000000 0.000000 
#    y 0.000000 1.763250 0.000000 
#    z 0.000000 0.000000 1.771360 
# 
# From -- ./inp_files/4642.got.cif
#   From: 2010.03.12/outbox.cif.g09.slc.cpg/sg55_3_cif.got.tgz:4642.got - 2010.04.16 15:19:21.
