data_PCOD8226140
_publ_section_title
;
Structure prediction by ZEFSAII (Michael W. Deem and Ramdas Pophale) SiO2 
 PCOD8226140
Probable space group: P B A M
;
_chemical_formula_sum "Si O2"
_cell_formula_units_Z 48
_cell_length_a 20.290924
_cell_length_b 14.675871
_cell_length_c 8.868433
_cell_angle_alpha 90.000000
_cell_angle_beta 90.000000
_cell_angle_gamma 90.000000
_cell_volume 2640.903908
_symmetry_space_group_name_H-M "P B A M"
_symmetry_group_IT_number 55
_symmetry_cell_setting 'orthorhombic'
loop_
_space_group_symop_operation_xyz
x,y,z
-x,-y,z
1/2+x,1/2-y,-z
1/2-x,1/2+y,-z
-x,-y,-z
x,y,-z
1/2-x,1/2+y,z
1/2+x,1/2-y,z
loop_
_atom_site_type_symbol
_atom_site_label
_atom_site_fract_x
_atom_site_fract_y
_atom_site_fract_z
Si Si1 0.051310 0.075056 0.675406
Si Si2 0.186975 0.107485 0.823046
Si Si3 0.558153 0.938059 0.675959
Si Si4 0.837300 0.686455 0.176314
Si Si5 0.802852 0.505907 0.321072
Si Si6 0.529021 0.221491 0.327038
O O1 0.068639 0.061214 0.500000
O O2 0.117670 0.065429 0.770623
O O3 0.016903 0.172449 0.705719
O O4 0.000000 0.000000 0.733379
O O5 0.191116 0.214310 0.779628
O O6 0.244342 0.055975 0.737856
O O7 0.194076 0.092261 0.000000
O O8 0.563189 0.959537 0.500000
O O9 0.629254 0.962531 0.745478
O O10 0.538963 0.832417 0.707616
O O11 0.500000 0.000000 0.746890
O O12 0.795143 0.609282 0.261642
O O13 0.913399 0.680134 0.224685
O O14 0.831947 0.668518 0.000000
O O15 0.800279 0.506566 0.500000
O O16 0.550859 0.205313 0.500000
#
# Coordination Sequence:
#
# PCOD8226140 Si02
#       6
#     8   8   8   8   8   8
#     4   9  18  34  57  83 108 137 183 231 271 322
#     4  10  22  39  56  77 111 148 184 225 275 335
#     4   9  16  29  51  80 107 134 171 217 272 321
#     4  10  20  35  55  77 106 144 182 219 273 331
#     4  11  21  35  57  81 108 143 186 230 274 327
#     4   9  16  31  54  76 105 139 175 220 269 323
#
# _framework density 18.175595000000001
#
# number of rings (size 3 to 8) (size 9 to 14) (size 15 to 20)
#    0.000    2.333    1.667    1.500    0.000    2.333 
#    3.000    2.500    0.000    0.000    0.000    0.000 
#    0.000    0.000    0.000    0.000    0.000    0.000 
#
# Total GULP energy -595155.388013 kJ/mol
# GULP energy per Si atom -12399.070584 kJ/mol
# Density = 1.813423 g / cm^3
# Si number density = 18.175595 Si / 1000 Ang^3
#
#
#
# Elastic Constant Matrix: (Units=GPa)
#
#
# Indices 1 2 3 4 5 6 
#
# 1 113.8133 85.5665 45.3735 0.0000 0.0000 0.0000
# 2 85.5665 132.2981 48.7627 0.0000 0.0000 0.0000
# 3 45.3735 48.7627 66.0113 0.0000 0.0000 0.0000
# 4 0.0000 0.0000 0.0000 25.5400 0.0000 0.0000
# 5 0.0000 0.0000 0.0000 0.0000 15.8347 0.0000
# 6 0.0000 0.0000 0.0000 0.0000 0.0000 34.0321
#
#
#
# Elastic Compliance Matrix: (Units=1/GPa)
#
#
# Indices 1 2 3 4 5 6 
#
# 1 0.018353 -0.009922 -0.005286 0.000000 0.000000 0.000000
# 2 -0.009922 0.015751 -0.004815 0.000000 0.000000 0.000000
# 3 -0.005286 -0.004815 0.022339 0.000000 0.000000 0.000000
# 4 0.000000 0.000000 0.000000 0.039154 0.000000 0.000000
# 5 0.000000 0.000000 0.000000 0.000000 0.063153 0.000000
# 6 0.000000 0.000000 0.000000 0.000000 0.000000 0.029384
#
#
# Mechanical properties :
#
#
# Convention : Reuss Voigt Hill
#
# Bulk Modulus (GPa) = 60.98627 74.61423 67.80025
# Shear Modulus (GPa) = 21.39996 23.90935 22.65466
#
# Velocity S-wave (km/s) = 3.43505 3.63087 3.53432
# Velocity P-wave (km/s) = 7.02563 7.66281 7.35113
#
# Compressibility (1/GPa) = 0.01639713
#
# Stress axis : x y z
#
# Youngs Moduli (GPa) = 54.48672 63.48921 44.76459
#
# Poissons Ratio (x) = 0.62994 0.23662
# Poissons Ratio (y) = 0.54062 0.21555
# Poissons Ratio (z) = 0.28800 0.30571
#
# Static dielectric constant tensor:
#      x y z
#    x 3.289880 0.000000 0.000000 
#    y 0.000000 3.570050 0.000000 
#    z 0.000000 0.000000 3.226300 
# 
# 
# High freq. dielectric constant tensor:
#      x y z
#    x 1.688040 0.000000 0.000000 
#    y 0.000000 1.715080 0.000000 
#    z 0.000000 0.000000 1.690650 
# 
# From -- ./inp_files/8562.got.cif
#   From: 2010.03.12/outbox.cif.g09.slc.cpg/sg55_5_cif.got.tgz:8562.got - 2010.04.16 15:19:21.
