data_PCOD8226162
_publ_section_title
;
Structure prediction by ZEFSAII (Michael W. Deem and Ramdas Pophale) SiO2 
 PCOD8226162
Probable space group: P B A M
;
_chemical_formula_sum "Si O2"
_cell_formula_units_Z 56
_cell_length_a 20.012261
_cell_length_b 9.986083
_cell_length_c 15.489448
_cell_angle_alpha 90.000000
_cell_angle_beta 90.000000
_cell_angle_gamma 90.000000
_cell_volume 3095.474785
_symmetry_space_group_name_H-M "P B A M"
_symmetry_group_IT_number 55
_symmetry_cell_setting 'orthorhombic'
loop_
_space_group_symop_operation_xyz
x,y,z
-x,-y,z
1/2+x,1/2-y,-z
1/2-x,1/2+y,-z
-x,-y,-z
x,y,-z
1/2-x,1/2+y,z
1/2+x,1/2-y,z
loop_
_atom_site_type_symbol
_atom_site_label
_atom_site_fract_x
_atom_site_fract_y
_atom_site_fract_z
Si Si1 0.989466 0.346848 0.268756
Si Si2 0.262780 0.689443 0.697992
Si Si3 0.046107 0.875883 0.398906
Si Si4 0.199125 0.593601 0.000000
Si Si5 0.800310 0.075357 0.601158
Si Si6 0.372686 0.808230 0.186398
Si Si7 0.853604 0.387232 0.817423
Si Si8 0.178128 0.287671 0.000000
O O1 0.980617 0.258163 0.353863
O O2 0.925776 0.331609 0.207231
O O3 0.000000 0.500000 0.299211
O O4 0.050366 0.293047 0.211690
O O5 0.246451 0.799932 0.625953
O O6 0.269856 0.550160 0.650079
O O7 0.330225 0.713054 0.751428
O O8 0.202257 0.692404 0.765350
O O9 0.039112 0.849204 0.500000
O O10 0.122588 0.902904 0.372349
O O11 0.000000 0.000000 0.369740
O O12 0.155571 0.639032 0.918562
O O13 0.269157 0.668476 0.000000
O O14 0.213416 0.433768 0.000000
O O15 0.794113 0.049659 0.500000
O O16 0.345858 0.956792 0.204122
O O17 0.366962 0.770183 0.085452
#
# Coordination Sequence:
#
# PCOD8226162 Si02
#       8
#     8   8   8   4   8   8   8   4
#     4  10  21  38  58  84 114 153 196 236 286 343
#     4  12  20  37  60  84 115 150 194 236 289 342
#     4  10  21  39  58  83 116 152 193 238 295 351
#     4  10  20  35  57  85 117 149 190 238 287 343
#     4  11  24  38  58  85 117 151 191 245 291 342
#     4  10  21  36  59  86 116 149 189 240 286 341
#     4  10  20  36  58  85 114 151 193 235 283 342
#     4  10  20  35  55  87 117 147 190 236 291 341
#
# _framework density 18.090924999999999
#
# number of rings (size 3 to 8) (size 9 to 14) (size 15 to 20)
#    0.000    1.571    4.286    1.286    0.000    0.857 
#    0.000    3.571    0.000    0.000    0.000    3.000 
#    0.000    0.000    0.000    0.000    0.000    0.000 
#
# Total GULP energy -694572.701429 kJ/mol
# GULP energy per Si atom -12403.083954 kJ/mol
# Density = 1.804975 g / cm^3
# Si number density = 18.090925 Si / 1000 Ang^3
#
#
#
# Elastic Constant Matrix: (Units=GPa)
#
#
# Indices 1 2 3 4 5 6 
#
# 1 112.5376 46.9145 50.7450 0.0000 0.0000 0.0000
# 2 46.9145 84.6886 45.9101 0.0000 0.0000 0.0000
# 3 50.7450 45.9101 99.7335 0.0000 0.0000 0.0000
# 4 0.0000 0.0000 0.0000 8.1932 0.0000 0.0000
# 5 0.0000 0.0000 0.0000 0.0000 28.5649 0.0000
# 6 0.0000 0.0000 0.0000 0.0000 0.0000 28.9738
#
#
#
# Elastic Compliance Matrix: (Units=1/GPa)
#
#
# Indices 1 2 3 4 5 6 
#
# 1 0.012822 -0.004752 -0.004337 0.000000 0.000000 0.000000
# 2 -0.004752 0.017496 -0.005636 0.000000 0.000000 0.000000
# 3 -0.004337 -0.005636 0.014827 0.000000 0.000000 0.000000
# 4 0.000000 0.000000 0.000000 0.122053 0.000000 0.000000
# 5 0.000000 0.000000 0.000000 0.000000 0.035008 0.000000
# 6 0.000000 0.000000 0.000000 0.000000 0.000000 0.034514
#
#
# Mechanical properties :
#
#
# Convention : Reuss Voigt Hill
#
# Bulk Modulus (GPa) = 63.70867 64.89989 64.30428
# Shear Modulus (GPa) = 18.42284 23.37237 20.89760
#
# Velocity S-wave (km/s) = 3.19462 3.59825 3.40243
# Velocity P-wave (km/s) = 6.99283 7.29489 7.14546
#
# Compressibility (1/GPa) = 0.01569645
#
# Stress axis : x y z
#
# Youngs Moduli (GPa) = 77.98807 57.15668 67.44250
#
# Poissons Ratio (x) = 0.27163 0.29246
# Poissons Ratio (y) = 0.37063 0.38009
# Poissons Ratio (z) = 0.33820 0.32212
#
# Static dielectric constant tensor:
#      x y z
#    x 3.375240 0.000000 0.000000 
#    y 0.000000 3.302490 0.000000 
#    z 0.000000 0.000000 3.396770 
# 
# 
# High freq. dielectric constant tensor:
#      x y z
#    x 1.704590 0.000000 0.000000 
#    y 0.000000 1.698830 0.000000 
#    z 0.000000 0.000000 1.707710 
# 
# From -- ./inp_files/17684.got.cif
#   From: 2010.03.12/outbox.cif.g09.slc.cpg/sg55_9_cif.got.tgz:17684.got - 2010.04.16 15:19:21.
