data_PCOD8226875
_publ_section_title
;
Structure prediction by ZEFSAII (Michael W. Deem and Ramdas Pophale) SiO2 
 PCOD8226875
Probable space group: P B A M
;
_chemical_formula_sum "Si O2"
_cell_formula_units_Z 56
_cell_length_a 8.765169
_cell_length_b 25.434901
_cell_length_c 13.239639
_cell_angle_alpha 90.000000
_cell_angle_beta 90.000000
_cell_angle_gamma 90.000000
_cell_volume 2951.661083
_symmetry_space_group_name_H-M "P B A M"
_symmetry_group_IT_number 55
_symmetry_cell_setting 'orthorhombic'
loop_
_space_group_symop_operation_xyz
x,y,z
-x,-y,z
1/2+x,1/2-y,-z
1/2-x,1/2+y,-z
-x,-y,-z
x,y,-z
1/2-x,1/2+y,z
1/2+x,1/2-y,z
loop_
_atom_site_type_symbol
_atom_site_label
_atom_site_fract_x
_atom_site_fract_y
_atom_site_fract_z
Si Si1 0.613363 0.701360 0.681260
Si Si2 0.677687 0.510660 0.381651
Si Si3 0.284454 0.698878 0.614179
Si Si4 0.925220 0.673797 0.888463
Si Si5 0.344827 0.092291 0.616378
Si Si6 0.829768 0.609390 0.697916
Si Si7 0.124645 0.766495 0.111703
O O1 0.467486 0.702367 0.609807
O O2 0.708626 0.755138 0.677978
O O3 0.728431 0.655362 0.648013
O O4 0.555296 0.696992 0.798196
O O5 0.500000 0.500000 0.367450
O O6 0.714425 0.523411 0.500000
O O7 0.773752 0.461058 0.338834
O O8 0.723816 0.557868 0.306020
O O9 0.222949 0.703678 0.500000
O O10 0.234500 0.643672 0.664782
O O11 0.887973 0.627182 0.809216
O O12 0.805968 0.722531 0.882497
O O13 0.085677 0.704372 0.869223
O O14 0.922869 0.647471 0.000000
O O15 0.300692 0.091585 0.500000
O O16 0.525558 0.095713 0.629576
O O17 0.063192 0.783335 0.000000
#
# Coordination Sequence:
#
# PCOD8226875 Si02
#       7
#     8   8   8   8   8   8   8
#     4  11  21  33  50  76 107 140 175 210 262 322
#     4  10  21  38  58  78 100 132 179 227 265 308
#     4  11  22  34  48  71 107 144 174 208 253 314
#     4   9  18  32  52  78 107 140 176 214 257 309
#     4  10  21  36  54  76 101 134 178 221 260 307
#     4  11  21  33  54  79 105 135 169 217 269 314
#     4   9  17  31  50  72 100 134 172 213 253 295
#
# _framework density 18.972366999999998
#
# number of rings (size 3 to 8) (size 9 to 14) (size 15 to 20)
#    0.000    1.857    0.000    5.571    0.000    5.714 
#    0.000    0.000    0.000    2.143    0.000    0.000 
#    0.000    0.000    0.000    0.000    0.000    0.000 
#
# Total GULP energy -693938.225019 kJ/mol
# GULP energy per Si atom -12391.754018 kJ/mol
# Density = 1.892919 g / cm^3
# Si number density = 18.972367 Si / 1000 Ang^3
#
#
#
# Elastic Constant Matrix: (Units=GPa)
#
#
# Indices 1 2 3 4 5 6 
#
# 1 90.1496 52.7074 20.0877 0.0000 0.0000 0.0000
# 2 52.7074 146.2731 38.0772 0.0000 0.0000 0.0000
# 3 20.0877 38.0772 54.6571 0.0000 0.0000 0.0000
# 4 0.0000 0.0000 0.0000 22.7369 0.0000 0.0000
# 5 0.0000 0.0000 0.0000 0.0000 19.1189 0.0000
# 6 0.0000 0.0000 0.0000 0.0000 0.0000 40.9004
#
#
#
# Elastic Compliance Matrix: (Units=1/GPa)
#
#
# Indices 1 2 3 4 5 6 
#
# 1 0.014235 -0.004602 -0.002026 0.000000 0.000000 0.000000
# 2 -0.004602 0.009839 -0.005163 0.000000 0.000000 0.000000
# 3 -0.002026 -0.005163 0.022637 0.000000 0.000000 0.000000
# 4 0.000000 0.000000 0.000000 0.043981 0.000000 0.000000
# 5 0.000000 0.000000 0.000000 0.000000 0.052304 0.000000
# 6 0.000000 0.000000 0.000000 0.000000 0.000000 0.024450
#
#
# Mechanical properties :
#
#
# Convention : Reuss Voigt Hill
#
# Bulk Modulus (GPa) = 43.23461 56.98049 50.10755
# Shear Modulus (GPa) = 25.15895 28.56508 26.86201
#
# Velocity S-wave (km/s) = 3.64549 3.88443 3.76686
# Velocity P-wave (km/s) = 6.36845 7.08640 6.73700
#
# Compressibility (1/GPa) = 0.02312962
#
# Stress axis : x y z
#
# Youngs Moduli (GPa) = 70.25124 101.63876 44.17533
#
# Poissons Ratio (x) = 0.46774 0.08948
# Poissons Ratio (y) = 0.32329 0.22807
# Poissons Ratio (z) = 0.14230 0.52475
#
# Static dielectric constant tensor:
#      x y z
#    x 3.475060 0.000000 0.000000 
#    y 0.000000 3.477890 0.000000 
#    z 0.000000 0.000000 3.451560 
# 
# 
# High freq. dielectric constant tensor:
#      x y z
#    x 1.745600 0.000000 0.000000 
#    y 0.000000 1.718250 0.000000 
#    z 0.000000 0.000000 1.722470 
# 
# From -- ./inp_files/17628.got.cif
#   From: 2010.03.12/outbox.cif.g09.slc.cpg/sg55_9_cif.got.tgz:17628.got - 2010.04.16 15:19:21.
