data_PCOD8226798
_publ_section_title
;
Structure prediction by ZEFSAII (Michael W. Deem and Ramdas Pophale) SiO2 
 PCOD8226798
Probable space group: P B A M
;
_chemical_formula_sum "Si O2"
_cell_formula_units_Z 40
_cell_length_a 28.389190
_cell_length_b 5.172226
_cell_length_c 14.113280
_cell_angle_alpha 90.000000
_cell_angle_beta 90.000000
_cell_angle_gamma 90.000000
_cell_volume 2072.327796
_symmetry_space_group_name_H-M "P B A M"
_symmetry_group_IT_number 55
_symmetry_cell_setting 'orthorhombic'
loop_
_space_group_symop_operation_xyz
x,y,z
-x,-y,z
1/2+x,1/2-y,-z
1/2-x,1/2+y,-z
-x,-y,-z
x,y,-z
1/2-x,1/2+y,z
1/2+x,1/2-y,z
loop_
_atom_site_type_symbol
_atom_site_label
_atom_site_fract_x
_atom_site_fract_y
_atom_site_fract_z
Si Si1 0.720054 0.238022 0.609974
Si Si2 0.051409 0.524740 0.191840
Si Si3 0.780124 0.432524 0.109698
Si Si4 0.355118 0.835798 0.237932
Si Si5 0.586819 0.461233 0.893135
O O1 0.706343 0.244439 0.500000
O O2 0.752413 0.479055 0.637953
O O3 0.671496 0.251102 0.667517
O O4 0.094842 0.474508 0.265754
O O5 0.055022 0.299630 0.111649
O O6 0.000000 0.500000 0.241723
O O7 0.055827 0.802609 0.143952
O O8 0.744673 0.664498 0.135758
O O9 0.826154 0.459884 0.174364
O O10 0.795369 0.444420 0.000000
O O11 0.366532 0.583494 0.172521
O O12 0.603813 0.512843 0.000000
#
# Coordination Sequence:
#
# PCOD8226798 Si02
#       5
#     8   8   8   8   8
#     4  10  22  39  62  89 114 141 182 231 283 345
#     4  10  23  37  54  80 111 153 193 237 276 322
#     4  10  21  33  47  71 104 141 177 213 259 324
#     4  10  23  35  58  79 111 146 183 230 282 330
#     4  10  22  35  53  79 110 149 190 228 272 324
#
# _framework density 19.301966
#
# number of rings (size 3 to 8) (size 9 to 14) (size 15 to 20)
#    1.200    0.800    0.000    3.000    5.600    2.400 
#    0.000    0.000    0.000    0.600    0.000    1.400 
#    0.000    0.000    0.000    0.000    0.000    0.000 
#
# Total GULP energy -495711.438430 kJ/mol
# GULP energy per Si atom -12392.785961 kJ/mol
# Density = 1.925803 g / cm^3
# Si number density = 19.301966 Si / 1000 Ang^3
#
#
#
# Elastic Constant Matrix: (Units=GPa)
#
#
# Indices 1 2 3 4 5 6 
#
# 1 141.7086 12.5848 56.5651 0.0000 0.0000 0.0000
# 2 12.5848 81.1328 13.4444 0.0000 0.0000 0.0000
# 3 56.5651 13.4444 60.5125 0.0000 0.0000 0.0000
# 4 0.0000 0.0000 0.0000 10.3390 0.0000 0.0000
# 5 0.0000 0.0000 0.0000 0.0000 19.9355 0.0000
# 6 0.0000 0.0000 0.0000 0.0000 0.0000 20.5217
#
#
#
# Elastic Compliance Matrix: (Units=1/GPa)
#
#
# Indices 1 2 3 4 5 6 
#
# 1 0.011257 -0.000003 -0.010522 0.000000 0.000000 0.000000
# 2 -0.000003 0.012797 -0.002841 0.000000 0.000000 0.000000
# 3 -0.010522 -0.002841 0.026992 0.000000 0.000000 0.000000
# 4 0.000000 0.000000 0.000000 0.096722 0.000000 0.000000
# 5 0.000000 0.000000 0.000000 0.000000 0.050162 0.000000
# 6 0.000000 0.000000 0.000000 0.000000 0.000000 0.048729
#
#
# Mechanical properties :
#
#
# Convention : Reuss Voigt Hill
#
# Bulk Modulus (GPa) = 41.12648 49.83806 45.48227
# Shear Modulus (GPa) = 17.76237 23.54321 20.65279
#
# Velocity S-wave (km/s) = 3.03683 3.49625 3.27461
# Velocity P-wave (km/s) = 5.80083 6.49420 6.15728
#
# Compressibility (1/GPa) = 0.02431524
#
# Stress axis : x y z
#
# Youngs Moduli (GPa) = 88.83340 78.14577 37.04748
#
# Poissons Ratio (x) = 0.00020 0.38982
# Poissons Ratio (y) = 0.00022 0.10524
# Poissons Ratio (z) = 0.93472 0.22199
#
# Static dielectric constant tensor:
#      x y z
#    x 3.489950 0.000000 0.000000 
#    y 0.000000 3.631630 0.000000 
#    z 0.000000 0.000000 3.191610 
# 
# 
# High freq. dielectric constant tensor:
#      x y z
#    x 1.749020 0.000000 0.000000 
#    y 0.000000 1.769610 0.000000 
#    z 0.000000 0.000000 1.702790 
# 
# From -- ./inp_files/16552.got.cif
#   From: 2010.03.12/outbox.cif.g09.slc.cpg/sg55_9_cif.got.tgz:16552.got - 2010.04.16 15:19:21.
