data_PCOD8226649
_publ_section_title
;
Structure prediction by ZEFSAII (Michael W. Deem and Ramdas Pophale) SiO2 
 PCOD8226649
Probable space group: P B A M
;
_chemical_formula_sum "Si O2"
_cell_formula_units_Z 56
_cell_length_a 8.646128
_cell_length_b 25.073575
_cell_length_c 13.576446
_cell_angle_alpha 90.000000
_cell_angle_beta 90.000000
_cell_angle_gamma 90.000000
_cell_volume 2943.228753
_symmetry_space_group_name_H-M "P B A M"
_symmetry_group_IT_number 55
_symmetry_cell_setting 'orthorhombic'
loop_
_space_group_symop_operation_xyz
x,y,z
-x,-y,z
1/2+x,1/2-y,-z
1/2-x,1/2+y,-z
-x,-y,-z
x,y,-z
1/2-x,1/2+y,z
1/2+x,1/2-y,z
loop_
_atom_site_type_symbol
_atom_site_label
_atom_site_fract_x
_atom_site_fract_y
_atom_site_fract_z
Si Si1 0.193845 0.285709 0.388789
Si Si2 0.339842 0.712380 0.885667
Si Si3 0.167764 0.616454 0.199496
Si Si4 0.331227 0.517533 0.885765
Si Si5 0.843211 0.589777 0.886523
Si Si6 0.331398 0.314225 0.806216
Si Si7 0.349377 0.177142 0.610030
O O1 0.242080 0.302889 0.500000
O O2 0.297006 0.318549 0.310694
O O3 0.220782 0.222616 0.373780
O O4 0.014320 0.295849 0.368375
O O5 0.208689 0.668352 0.865251
O O6 0.490165 0.698977 0.821808
O O7 0.278295 0.769899 0.854759
O O8 0.384981 0.713006 0.000000
O O9 0.283644 0.568479 0.177442
O O10 0.182995 0.629149 0.315232
O O11 0.992592 0.600380 0.178727
O O12 0.500000 0.500000 0.850105
O O13 0.210579 0.470329 0.866814
O O14 0.333861 0.534359 0.000000
O O15 0.704909 0.629424 0.857181
O O16 0.887389 0.597757 0.000000
O O17 0.341963 0.153339 0.500000
#
# Coordination Sequence:
#
# PCOD8226649 Si02
#       7
#     8   8   8   8   8   8   8
#     4  10  20  38  59  84 117 154 198 242 289 347
#     4  12  24  35  53  82 122 160 190 233 296 360
#     4  12  22  38  60  86 117 152 198 247 298 350
#     4  10  22  41  62  85 114 155 204 247 290 350
#     4  11  22  37  59  84 115 156 201 242 289 355
#     4  12  22  38  54  84 118 157 193 241 293 355
#     4  10  21  38  61  88 119 155 197 246 295 352
#
# _framework density 19.026724000000002
#
# number of rings (size 3 to 8) (size 9 to 14) (size 15 to 20)
#    0.000    1.000    2.857    5.571    0.000    2.286 
#    0.000    0.000    0.000    3.000    0.000    0.000 
#    0.000    0.000    0.000    0.000    0.000    0.000 
#
# Total GULP energy -694733.228413 kJ/mol
# GULP energy per Si atom -12405.950507 kJ/mol
# Density = 1.898342 g / cm^3
# Si number density = 19.026724 Si / 1000 Ang^3
#
#
#
# Elastic Constant Matrix: (Units=GPa)
#
#
# Indices 1 2 3 4 5 6 
#
# 1 81.8899 13.3456 32.5852 0.0000 0.0000 0.0000
# 2 13.3456 67.4516 55.9954 0.0000 0.0000 0.0000
# 3 32.5852 55.9954 118.6402 0.0000 0.0000 0.0000
# 4 0.0000 0.0000 0.0000 29.6885 0.0000 0.0000
# 5 0.0000 0.0000 0.0000 0.0000 27.8390 0.0000
# 6 0.0000 0.0000 0.0000 0.0000 0.0000 27.5598
#
#
#
# Elastic Compliance Matrix: (Units=1/GPa)
#
#
# Indices 1 2 3 4 5 6 
#
# 1 0.013729 0.000681 -0.004092 0.000000 0.000000 0.000000
# 2 0.000681 0.024410 -0.011708 0.000000 0.000000 0.000000
# 3 -0.004092 -0.011708 0.015079 0.000000 0.000000 0.000000
# 4 0.000000 0.000000 0.000000 0.033683 0.000000 0.000000
# 5 0.000000 0.000000 0.000000 0.000000 0.035921 0.000000
# 6 0.000000 0.000000 0.000000 0.000000 0.000000 0.036285
#
#
# Mechanical properties :
#
#
# Convention : Reuss Voigt Hill
#
# Bulk Modulus (GPa) = 43.51780 52.42602 47.97191
# Shear Modulus (GPa) = 25.38009 28.08781 26.73395
#
# Velocity S-wave (km/s) = 3.65625 3.84634 3.75250
# Velocity P-wave (km/s) = 6.38324 6.88037 6.63646
#
# Compressibility (1/GPa) = 0.02297910
#
# Stress axis : x y z
#
# Youngs Moduli (GPa) = 72.83932 40.96640 66.31896
#
# Poissons Ratio (x) = -0.02788 0.27138
# Poissons Ratio (y) = -0.04958 0.77646
# Poissons Ratio (z) = 0.29806 0.47964
#
# Static dielectric constant tensor:
#      x y z
#    x 3.527740 0.000000 0.000000 
#    y 0.000000 3.428120 0.000000 
#    z 0.000000 0.000000 3.642230 
# 
# 
# High freq. dielectric constant tensor:
#      x y z
#    x 1.753120 0.000000 0.000000 
#    y 0.000000 1.723420 0.000000 
#    z 0.000000 0.000000 1.739220 
# 
# From -- ./inp_files/17629.got.cif
#   From: 2010.03.12/outbox.cif.g09.slc.cpg/sg55_9_cif.got.tgz:17629.got - 2010.04.16 15:19:21.
