data_PCOD8226936
_publ_section_title
;
Structure prediction by ZEFSAII (Michael W. Deem and Ramdas Pophale) SiO2 
 PCOD8226936
Probable space group: P B A M
;
_chemical_formula_sum "Si O2"
_cell_formula_units_Z 64
_cell_length_a 15.060083
_cell_length_b 24.535561
_cell_length_c 9.011749
_cell_angle_alpha 90.000000
_cell_angle_beta 90.000000
_cell_angle_gamma 90.000000
_cell_volume 3329.909611
_symmetry_space_group_name_H-M "P B A M"
_symmetry_group_IT_number 55
_symmetry_cell_setting 'orthorhombic'
loop_
_space_group_symop_operation_xyz
x,y,z
-x,-y,z
1/2+x,1/2-y,-z
1/2-x,1/2+y,-z
-x,-y,-z
x,y,-z
1/2-x,1/2+y,z
1/2+x,1/2-y,z
loop_
_atom_site_type_symbol
_atom_site_label
_atom_site_fract_x
_atom_site_fract_y
_atom_site_fract_z
Si Si1 0.808517 0.061880 0.674134
Si Si2 0.337217 0.863655 0.827139
Si Si3 0.994732 0.897116 0.328462
Si Si4 0.806634 0.356109 0.173152
Si Si5 0.832168 0.948878 0.825468
Si Si6 0.453583 0.280813 0.327763
Si Si7 0.778380 0.235071 0.169668
Si Si8 0.512439 0.839799 0.675693
O O1 0.788485 0.062068 0.500000
O O2 0.734852 0.097081 0.756084
O O3 0.905460 0.085357 0.709440
O O4 0.800779 0.001201 0.736183
O O5 0.309411 0.800528 0.800448
O O6 0.431753 0.872735 0.749013
O O7 0.345993 0.877728 0.000000
O O8 0.971927 0.909699 0.500000
O O9 0.930383 0.931318 0.223839
O O10 0.983261 0.832478 0.292539
O O11 0.736029 0.401431 0.218340
O O12 0.762873 0.297839 0.216785
O O13 0.896070 0.365770 0.266413
O O14 0.830924 0.358870 0.000000
O O15 0.833085 0.960979 0.000000
O O16 0.434284 0.276824 0.500000
O O17 0.358312 0.292396 0.257698
O O18 0.494547 0.223634 0.271835
O O19 0.807369 0.231977 0.000000
O O20 0.507169 0.846203 0.500000
#
# Coordination Sequence:
#
# PCOD8226936 Si02
#       8
#     8   8   8   8   8   8   8   8
#     4  11  23  41  62  83 117 156 198 246 291 345
#     4  11  22  36  59  88 119 154 194 240 293 350
#     4  10  21  37  57  84 118 157 194 234 288 345
#     4   9  20  40  59  82 117 154 192 240 293 343
#     4  11  24  39  60  86 116 153 198 246 293 348
#     4   9  18  34  54  82 118 153 189 230 281 339
#     4   9  18  33  55  82 113 150 188 229 283 343
#     4  10  21  36  58  87 119 155 194 239 289 346
#
# _framework density 19.219740999999999
#
# number of rings (size 3 to 8) (size 9 to 14) (size 15 to 20)
#    0.000    2.000    1.250    1.875    1.750    5.000 
#    0.000    0.625    0.000    3.750    0.000    0.000 
#    0.000    0.000    0.000    0.000    0.000    0.000 
#
# Total GULP energy -793660.743186 kJ/mol
# GULP energy per Si atom -12400.949112 kJ/mol
# Density = 1.917600 g / cm^3
# Si number density = 19.219741 Si / 1000 Ang^3
#
#
#
# Elastic Constant Matrix: (Units=GPa)
#
#
# Indices 1 2 3 4 5 6 
#
# 1 91.0846 44.4478 45.5397 0.0000 0.0000 0.0000
# 2 44.4478 88.1771 36.3863 0.0000 0.0000 0.0000
# 3 45.5397 36.3863 72.3917 0.0000 0.0000 0.0000
# 4 0.0000 0.0000 0.0000 30.2800 0.0000 0.0000
# 5 0.0000 0.0000 0.0000 0.0000 47.8461 0.0000
# 6 0.0000 0.0000 0.0000 0.0000 0.0000 24.5569
#
#
#
# Elastic Compliance Matrix: (Units=1/GPa)
#
#
# Indices 1 2 3 4 5 6 
#
# 1 0.017925 -0.005529 -0.008497 0.000000 0.000000 0.000000
# 2 -0.005529 0.016014 -0.004571 0.000000 0.000000 0.000000
# 3 -0.008497 -0.004571 0.021456 0.000000 0.000000 0.000000
# 4 0.000000 0.000000 0.000000 0.033025 0.000000 0.000000
# 5 0.000000 0.000000 0.000000 0.000000 0.020900 0.000000
# 6 0.000000 0.000000 0.000000 0.000000 0.000000 0.040722
#
#
# Mechanical properties :
#
#
# Convention : Reuss Voigt Hill
#
# Bulk Modulus (GPa) = 54.94098 56.04457 55.49278
# Shear Modulus (GPa) = 25.86584 28.88857 27.37721
#
# Velocity S-wave (km/s) = 3.67249 3.88115 3.77826
# Velocity P-wave (km/s) = 6.82866 7.02194 6.92598
#
# Compressibility (1/GPa) = 0.01820135
#
# Stress axis : x y z
#
# Youngs Moduli (GPa) = 55.78682 62.44470 46.60593
#
# Poissons Ratio (x) = 0.34528 0.39602
# Poissons Ratio (y) = 0.30847 0.21303
# Poissons Ratio (z) = 0.47403 0.28542
#
# Static dielectric constant tensor:
#      x y z
#    x 3.350510 0.000000 0.000000 
#    y 0.000000 3.744840 0.000000 
#    z 0.000000 0.000000 3.518030 
# 
# 
# High freq. dielectric constant tensor:
#      x y z
#    x 1.739750 0.000000 0.000000 
#    y 0.000000 1.747080 0.000000 
#    z 0.000000 0.000000 1.752230 
# 
# From -- ./inp_files/6698.got.cif
#   From: 2010.03.12/outbox.cif.g09.slc.cpg/sg55_4_cif.got.tgz:6698.got - 2010.04.16 15:19:21.
