data_PCOD8226547
_publ_section_title
;
Structure prediction by ZEFSAII (Michael W. Deem and Ramdas Pophale) SiO2 
 PCOD8226547
Probable space group: P B A M
;
_chemical_formula_sum "Si O2"
_cell_formula_units_Z 56
_cell_length_a 21.720561
_cell_length_b 14.650214
_cell_length_c 8.392994
_cell_angle_alpha 90.000000
_cell_angle_beta 90.000000
_cell_angle_gamma 90.000000
_cell_volume 2670.741896
_symmetry_space_group_name_H-M "P B A M"
_symmetry_group_IT_number 55
_symmetry_cell_setting 'orthorhombic'
loop_
_space_group_symop_operation_xyz
x,y,z
-x,-y,z
1/2+x,1/2-y,-z
1/2-x,1/2+y,-z
-x,-y,-z
x,y,-z
1/2-x,1/2+y,z
1/2+x,1/2-y,z
loop_
_atom_site_type_symbol
_atom_site_label
_atom_site_fract_x
_atom_site_fract_y
_atom_site_fract_z
Si Si1 0.118087 0.799556 0.312899
Si Si2 0.641694 0.969799 0.680378
Si Si3 0.540567 0.857086 0.817361
Si Si4 0.276387 0.177498 0.182936
Si Si5 0.570265 0.514104 0.814773
Si Si6 0.856248 0.847255 0.684322
Si Si7 0.088860 0.344719 0.315925
O O1 0.118403 0.782723 0.500000
O O2 0.062379 0.743849 0.233535
O O3 0.183691 0.763754 0.245270
O O4 0.105846 0.905474 0.277275
O O5 0.662665 0.948518 0.500000
O O6 0.572572 0.932835 0.706824
O O7 0.685716 0.916750 0.801827
O O8 0.641385 0.078351 0.712702
O O9 0.468078 0.866166 0.797208
O O10 0.558545 0.874293 0.000000
O O11 0.215947 0.161551 0.286041
O O12 0.259016 0.194405 0.000000
O O13 0.500000 0.500000 0.751416
O O14 0.610489 0.423682 0.789217
O O15 0.568591 0.539212 0.000000
O O16 0.868098 0.869782 0.500000
O O17 0.884480 0.751423 0.736742
O O18 0.067801 0.344938 0.500000
#
# Coordination Sequence:
#
# PCOD8226547 Si02
#       7
#     8   8   8   8   8   8   8
#     4  11  22  39  64  89 118 159 203 246 297 360
#     4  10  20  37  60  85 116 154 196 239 287 348
#     4  11  21  34  56  88 123 154 189 236 289 347
#     4  11  23  41  62  87 120 155 198 250 303 356
#     4  11  24  42  64  93 126 160 203 255 311 366
#     4  11  24  42  62  86 118 157 203 249 297 356
#     4  10  22  38  58  84 115 152 192 236 286 343
#
# _framework density 20.967956000000001
#
# number of rings (size 3 to 8) (size 9 to 14) (size 15 to 20)
#    0.000    1.286    0.000    8.143    0.000    8.571 
#    0.000    4.286    0.000    0.000    0.000    0.000 
#    0.000    0.000    0.000    0.000    0.000    0.000 
#
# Total GULP energy -694568.466696 kJ/mol
# GULP energy per Si atom -12403.008334 kJ/mol
# Density = 2.092023 g / cm^3
# Si number density = 20.967956 Si / 1000 Ang^3
#
#
#
# Elastic Constant Matrix: (Units=GPa)
#
#
# Indices 1 2 3 4 5 6 
#
# 1 68.6052 -4.1725 -15.9069 0.0000 0.0000 0.0000
# 2 -4.1725 88.7686 -9.7157 0.0000 0.0000 0.0000
# 3 -15.9069 -9.7157 58.2352 0.0000 0.0000 0.0000
# 4 0.0000 0.0000 0.0000 25.2963 0.0000 0.0000
# 5 0.0000 0.0000 0.0000 0.0000 29.1377 0.0000
# 6 0.0000 0.0000 0.0000 0.0000 0.0000 18.9366
#
#
#
# Elastic Compliance Matrix: (Units=1/GPa)
#
#
# Indices 1 2 3 4 5 6 
#
# 1 0.015692 0.001229 0.004491 0.000000 0.000000 0.000000
# 2 0.001229 0.011571 0.002266 0.000000 0.000000 0.000000
# 3 0.004491 0.002266 0.018777 0.000000 0.000000 0.000000
# 4 0.000000 0.000000 0.000000 0.039531 0.000000 0.000000
# 5 0.000000 0.000000 0.000000 0.000000 0.034320 0.000000
# 6 0.000000 0.000000 0.000000 0.000000 0.000000 0.052808
#
#
# Mechanical properties :
#
#
# Convention : Reuss Voigt Hill
#
# Bulk Modulus (GPa) = 16.12548 17.33541 16.73045
# Shear Modulus (GPa) = 28.18544 31.03441 29.60992
#
# Velocity S-wave (km/s) = 3.67033 3.85136 3.76194
# Velocity P-wave (km/s) = 5.06646 5.29744 5.18324
#
# Compressibility (1/GPa) = 0.06201366
#
# Stress axis : x y z
#
# Youngs Moduli (GPa) = 63.72554 86.42250 53.25765
#
# Poissons Ratio (x) = -0.10623 -0.23920
# Poissons Ratio (y) = -0.07833 -0.12069
# Poissons Ratio (z) = -0.28622 -0.19585
#
# Static dielectric constant tensor:
#      x y z
#    x 3.703710 0.000000 0.000000 
#    y 0.000000 3.852390 0.000000 
#    z 0.000000 0.000000 3.935380 
# 
# 
# High freq. dielectric constant tensor:
#      x y z
#    x 1.813830 0.000000 0.000000 
#    y 0.000000 1.828670 0.000000 
#    z 0.000000 0.000000 1.827150 
# 
# From -- ./inp_files/8768.got.cif
#   From: 2010.03.12/outbox.cif.g09.slc.cpg/sg55_5_cif.got.tgz:8768.got - 2010.04.16 15:19:21.
