data_PCOD8226950
_publ_section_title
;
Structure prediction by ZEFSAII (Michael W. Deem and Ramdas Pophale) SiO2 
 PCOD8226950
Probable space group: P B A M
;
_chemical_formula_sum "Si O2"
_cell_formula_units_Z 64
_cell_length_a 18.223288
_cell_length_b 8.997733
_cell_length_c 18.612475
_cell_angle_alpha 90.000000
_cell_angle_beta 90.000000
_cell_angle_gamma 90.000000
_cell_volume 3051.855509
_symmetry_space_group_name_H-M "P B A M"
_symmetry_group_IT_number 55
_symmetry_cell_setting 'orthorhombic'
loop_
_space_group_symop_operation_xyz
x,y,z
-x,-y,z
1/2+x,1/2-y,-z
1/2-x,1/2+y,-z
-x,-y,-z
x,y,-z
1/2-x,1/2+y,z
1/2+x,1/2-y,z
loop_
_atom_site_type_symbol
_atom_site_label
_atom_site_fract_x
_atom_site_fract_y
_atom_site_fract_z
Si Si1 0.679309 0.285876 0.318549
Si Si2 0.416619 0.988992 0.298882
Si Si3 0.933470 0.407221 0.140966
Si Si4 0.696960 0.060201 0.082222
Si Si5 0.180319 0.125481 0.157706
Si Si6 0.084586 0.003815 0.418115
Si Si7 0.569162 0.590688 0.795403
Si Si8 0.157273 0.774646 0.338635
O O1 0.612382 0.172969 0.314495
O O2 0.700873 0.349939 0.240874
O O3 0.644300 0.406988 0.370936
O O4 0.754674 0.211375 0.346749
O O5 0.500000 0.000000 0.327176
O O6 0.411665 0.012758 0.214470
O O7 0.363696 0.102597 0.339111
O O8 0.866798 0.435387 0.086490
O O9 0.952002 0.233789 0.155571
O O10 0.000000 0.500000 0.106542
O O11 0.674650 0.220055 0.115039
O O12 0.763025 0.991031 0.125730
O O13 0.719305 0.085529 0.000000
O O14 0.104723 0.033959 0.153075
O O15 0.087264 0.060048 0.500000
O O16 0.117177 0.838362 0.409530
O O17 0.000000 0.000000 0.390732
O O18 0.500000 0.500000 0.762194
O O19 0.623937 0.642161 0.732007
#
# Coordination Sequence:
#
# PCOD8226950 Si02
#       8
#     8   8   8   8   8   8   8   8
#     4  12  23  40  67  99 133 173 228 291 337 405
#     4  10  21  36  62  95 131 167 220 283 341 396
#     4  10  21  39  62  94 128 169 223 277 339 413
#     4  12  25  43  65  93 135 177 221 285 360 427
#     4  12  24  40  66  97 130 174 232 283 341 415
#     4  11  25  44  67  97 139 188 229 273 348 432
#     4  11  23  38  66 100 131 171 224 286 347 408
#     4  11  22  38  63  96 133 171 224 284 345 400
#
# _framework density 20.970849000000001
#
# number of rings (size 3 to 8) (size 9 to 14) (size 15 to 20)
#    0.000    0.875    2.500    6.000    3.500    0.750 
#    0.000    1.250    0.000    4.875    0.000    0.000 
#    0.000    0.000    0.000    0.000    0.000    0.000 
#
# Total GULP energy -793192.562139 kJ/mol
# GULP energy per Si atom -12393.633783 kJ/mol
# Density = 2.092312 g / cm^3
# Si number density = 20.970849 Si / 1000 Ang^3
#
#
#
# Elastic Constant Matrix: (Units=GPa)
#
#
# Indices 1 2 3 4 5 6 
#
# 1 138.8411 31.6746 37.9049 0.0000 0.0000 0.0000
# 2 31.6746 98.6889 30.6649 0.0000 0.0000 0.0000
# 3 37.9049 30.6649 85.5779 0.0000 0.0000 0.0000
# 4 0.0000 0.0000 0.0000 -110.3245 0.0000 0.0000
# 5 0.0000 0.0000 0.0000 0.0000 152.1970 0.0000
# 6 0.0000 0.0000 0.0000 0.0000 0.0000 45.1065
#
#
#
# Elastic Compliance Matrix: (Units=1/GPa)
#
#
# Indices 1 2 3 4 5 6 
#
# 1 0.008452 -0.001744 -0.003119 0.000000 0.000000 0.000000
# 2 -0.001744 0.011762 -0.003442 0.000000 0.000000 0.000000
# 3 -0.003119 -0.003442 0.014300 0.000000 0.000000 0.000000
# 4 0.000000 0.000000 0.000000 -0.009064 0.000000 0.000000
# 5 0.000000 0.000000 0.000000 0.000000 0.006570 0.000000
# 6 0.000000 0.000000 0.000000 0.000000 0.000000 0.022170
#
#
# Mechanical properties :
#
#
# Convention : Reuss Voigt Hill
#
# Bulk Modulus (GPa) = 55.85174 58.17741 57.01458
# Shear Modulus (GPa) = 65.13173 32.25335 48.69254
#
# Velocity S-wave (km/s) = 5.57904 3.92600 4.82385
# Velocity P-wave (km/s) = 8.25783 6.95367 7.63365
#
# Compressibility (1/GPa) = 0.01790454
#
# Stress axis : x y z
#
# Youngs Moduli (GPa) = 118.31960 85.01892 69.92932
#
# Poissons Ratio (x) = 0.14823 0.21809
# Poissons Ratio (y) = 0.20630 0.24073
# Poissons Ratio (z) = 0.36901 0.29267
#
# Static dielectric constant tensor:
#      x y z
#    x 4.149120 0.000000 0.000000 
#    y 0.000000 3.957590 0.000000 
#    z 0.000000 0.000000 3.488380 
# 
# 
# High freq. dielectric constant tensor:
#      x y z
#    x 1.836900 0.000000 0.000000 
#    y 0.000000 1.839630 0.000000 
#    z 0.000000 0.000000 1.780510 
# 
# From -- ./inp_files/23065.got.cif
#   From: 2010.03.12/outbox.cif.g09.slc.cpg/sg55_12_cif.got.tgz:23065.got - 2010.04.16 15:19:21.
