data_PCOD8226733
_publ_section_title
;
Structure prediction by ZEFSAII (Michael W. Deem and Ramdas Pophale) SiO2 
 PCOD8226733
Probable space group: P B A M
;
_chemical_formula_sum "Si O2"
_cell_formula_units_Z 64
_cell_length_a 14.639640
_cell_length_b 25.449377
_cell_length_c 9.131856
_cell_angle_alpha 90.000000
_cell_angle_beta 90.000000
_cell_angle_gamma 90.000000
_cell_volume 3402.253010
_symmetry_space_group_name_H-M "P B A M"
_symmetry_group_IT_number 55
_symmetry_cell_setting 'orthorhombic'
loop_
_space_group_symop_operation_xyz
x,y,z
-x,-y,z
1/2+x,1/2-y,-z
1/2-x,1/2+y,-z
-x,-y,-z
x,y,-z
1/2-x,1/2+y,z
1/2+x,1/2-y,z
loop_
_atom_site_type_symbol
_atom_site_label
_atom_site_fract_x
_atom_site_fract_y
_atom_site_fract_z
Si Si1 0.506531 0.938570 0.331785
Si Si2 0.828799 0.888488 0.330201
Si Si3 0.353435 0.129979 0.170178
Si Si4 0.997152 0.280828 0.833428
Si Si5 0.105054 0.996073 0.670789
Si Si6 0.132093 0.371553 0.833271
Si Si7 0.661108 0.606681 0.170428
Si Si8 0.009895 0.826434 0.327991
O O1 0.518780 0.922658 0.500000
O O2 0.594594 0.918338 0.245072
O O3 0.412877 0.914019 0.272990
O O4 0.500000 0.000000 0.309100
O O5 0.806258 0.880141 0.500000
O O6 0.746968 0.864445 0.236464
O O7 0.918633 0.857015 0.283584
O O8 0.843360 0.949784 0.294882
O O9 0.408159 0.183779 0.198084
O O10 0.345663 0.117131 0.000000
O O11 0.088917 0.314270 0.804534
O O12 0.997953 0.233599 0.719899
O O13 0.994914 0.259550 0.000000
O O14 0.109377 0.981325 0.500000
O O15 0.155849 0.951229 0.761487
O O16 0.000000 0.000000 0.721243
O O17 0.239152 0.369206 0.802142
O O18 0.110643 0.388736 0.000000
O O19 0.593316 0.646686 0.246686
O O20 0.637390 0.602753 0.000000
O O21 0.027944 0.829688 0.500000
#
# Coordination Sequence:
#
# PCOD8226733 Si02
#       8
#     8   8   8   8   8   8   8   8
#     4  10  21  36  56  84 115 151 194 237 285 342
#     4  10  22  39  59  85 119 155 196 240 288 346
#     4  10  22  39  60  85 117 154 192 237 293 346
#     4   9  20  41  62  82 113 152 190 238 295 346
#     4  10  20  39  60  80 118 161 192 239 295 342
#     4   9  21  40  59  83 117 153 189 236 291 342
#     4  11  23  38  59  90 121 152 196 241 286 350
#     4  11  23  40  61  86 115 153 196 242 295 344
#
# _framework density 18.811063000000001
#
# number of rings (size 3 to 8) (size 9 to 14) (size 15 to 20)
#    0.000    2.000    1.250    2.250    1.750    7.250 
#    0.000    3.750    0.000    0.000    0.000    0.000 
#    0.000    0.000    0.000    0.000    0.000    0.000 
#
# Total GULP energy -793892.926520 kJ/mol
# GULP energy per Si atom -12404.576977 kJ/mol
# Density = 1.876825 g / cm^3
# Si number density = 18.811063 Si / 1000 Ang^3
#
#
#
# Elastic Constant Matrix: (Units=GPa)
#
#
# Indices 1 2 3 4 5 6 
#
# 1 137.2150 62.0367 66.9315 0.0000 0.0000 0.0000
# 2 62.0367 108.7346 62.7062 0.0000 0.0000 0.0000
# 3 66.9315 62.7062 95.8935 0.0000 0.0000 0.0000
# 4 0.0000 0.0000 0.0000 32.2391 0.0000 0.0000
# 5 0.0000 0.0000 0.0000 0.0000 34.2646 0.0000
# 6 0.0000 0.0000 0.0000 0.0000 0.0000 346.1986
#
#
#
# Elastic Compliance Matrix: (Units=1/GPa)
#
#
# Indices 1 2 3 4 5 6 
#
# 1 0.011686 -0.003152 -0.006095 0.000000 0.000000 0.000000
# 2 -0.003152 0.015615 -0.008011 0.000000 0.000000 0.000000
# 3 -0.006095 -0.008011 0.019921 0.000000 0.000000 0.000000
# 4 0.000000 0.000000 0.000000 0.031018 0.000000 0.000000
# 5 0.000000 0.000000 0.000000 0.000000 0.029185 0.000000
# 6 0.000000 0.000000 0.000000 0.000000 0.000000 0.002889
#
#
# Mechanical properties :
#
#
# Convention : Reuss Voigt Hill
#
# Bulk Modulus (GPa) = 78.70599 80.57689 79.64144
# Shear Modulus (GPa) = 33.54239 92.55169 63.04704
#
# Velocity S-wave (km/s) = 4.22728 7.02193 5.79558
# Velocity P-wave (km/s) = 8.10911 10.42455 9.33886
#
# Compressibility (1/GPa) = 0.01270551
#
# Stress axis : x y z
#
# Youngs Moduli (GPa) = 85.57045 64.04203 50.19839
#
# Poissons Ratio (x) = 0.20187 0.30598
# Poissons Ratio (y) = 0.26974 0.40212
# Poissons Ratio (z) = 0.52159 0.51301
#
# Static dielectric constant tensor:
#      x y z
#    x 3.570510 0.000000 0.000000 
#    y 0.000000 3.392640 0.000000 
#    z 0.000000 0.000000 3.521060 
# 
# 
# High freq. dielectric constant tensor:
#      x y z
#    x 1.738260 0.000000 0.000000 
#    y 0.000000 1.731020 0.000000 
#    z 0.000000 0.000000 1.737270 
# 
# From -- ./inp_files/6534.got.cif
#   From: 2010.03.12/outbox.cif.g09.slc.cpg/sg55_4_cif.got.tgz:6534.got - 2010.04.16 15:19:21.
