data_PCOD8226545
_publ_section_title
;
Structure prediction by ZEFSAII (Michael W. Deem and Ramdas Pophale) SiO2 
 PCOD8226545
Probable space group: P B A M
;
_chemical_formula_sum "Si O2"
_cell_formula_units_Z 48
_cell_length_a 30.881807
_cell_length_b 9.272853
_cell_length_c 8.421795
_cell_angle_alpha 90.000000
_cell_angle_beta 90.000000
_cell_angle_gamma 90.000000
_cell_volume 2411.685906
_symmetry_space_group_name_H-M "P B A M"
_symmetry_group_IT_number 55
_symmetry_cell_setting 'orthorhombic'
loop_
_space_group_symop_operation_xyz
x,y,z
-x,-y,z
1/2+x,1/2-y,-z
1/2-x,1/2+y,-z
-x,-y,-z
x,y,-z
1/2-x,1/2+y,z
1/2+x,1/2-y,z
loop_
_atom_site_type_symbol
_atom_site_label
_atom_site_fract_x
_atom_site_fract_y
_atom_site_fract_z
Si Si1 0.885195 0.415143 0.814679
Si Si2 0.543054 0.416048 0.815728
Si Si3 0.539301 0.100402 0.315690
Si Si4 0.381673 0.400186 0.683740
Si Si5 0.791237 0.083269 0.189293
Si Si6 0.711191 0.905977 0.812816
O O1 0.916405 0.514380 0.711614
O O2 0.892024 0.245580 0.780732
O O3 0.836444 0.464574 0.766957
O O4 0.894351 0.440966 0.000000
O O5 0.500000 0.500000 0.763297
O O6 0.537792 0.246838 0.783637
O O7 0.582195 0.479789 0.713832
O O8 0.553140 0.440656 0.000000
O O9 0.534453 0.139206 0.500000
O O10 0.500000 0.000000 0.256791
O O11 0.380273 0.359195 0.500000
O O12 0.336384 0.472566 0.738146
O O13 0.784021 0.244738 0.250434
O O14 0.750427 0.997137 0.261778
O O15 0.794258 0.071914 0.000000
O O16 0.716285 0.908848 0.000000
#
# Coordination Sequence:
#
# PCOD8226545 Si02
#       6
#     8   8   8   8   8   8
#     4  10  20  37  60  85 113 149 194 236 277 330
#     4  11  24  41  62  86 111 145 191 236 276 328
#     4  11  24  40  59  86 119 151 182 224 282 339
#     4  11  22  37  57  83 116 151 187 232 288 338
#     4   9  17  33  54  77 107 144 187 230 276 331
#     4   8  16  30  52  79 106 141 185 233 277 322
#
# _framework density 19.903089999999999
#
# number of rings (size 3 to 8) (size 9 to 14) (size 15 to 20)
#    0.000    2.000    0.000    5.000    0.000    6.667 
#    0.000    7.500    0.000    0.000    0.000    0.000 
#    0.000    0.000    0.000    0.000    0.000    0.000 
#
# Total GULP energy -595270.565361 kJ/mol
# GULP energy per Si atom -12401.470112 kJ/mol
# Density = 1.985779 g / cm^3
# Si number density = 19.903090 Si / 1000 Ang^3
#
#
#
# Elastic Constant Matrix: (Units=GPa)
#
#
# Indices 1 2 3 4 5 6 
#
# 1 158.4228 64.0441 24.3978 0.0000 0.0000 0.0000
# 2 64.0441 81.5696 6.6174 0.0000 0.0000 0.0000
# 3 24.3978 6.6174 45.5250 0.0000 0.0000 0.0000
# 4 0.0000 0.0000 0.0000 23.8407 0.0000 0.0000
# 5 0.0000 0.0000 0.0000 0.0000 20.2209 0.0000
# 6 0.0000 0.0000 0.0000 0.0000 0.0000 42.6834
#
#
#
# Elastic Compliance Matrix: (Units=1/GPa)
#
#
# Indices 1 2 3 4 5 6 
#
# 1 0.010006 -0.007509 -0.004271 0.000000 0.000000 0.000000
# 2 -0.007509 0.018042 0.001402 0.000000 0.000000 0.000000
# 3 -0.004271 0.001402 0.024051 0.000000 0.000000 0.000000
# 4 0.000000 0.000000 0.000000 0.041945 0.000000 0.000000
# 5 0.000000 0.000000 0.000000 0.000000 0.049454 0.000000
# 6 0.000000 0.000000 0.000000 0.000000 0.000000 0.023428
#
#
# Mechanical properties :
#
#
# Convention : Reuss Voigt Hill
#
# Bulk Modulus (GPa) = 31.90606 52.84842 42.37724
# Shear Modulus (GPa) = 25.23603 30.04620 27.64112
#
# Velocity S-wave (km/s) = 3.56468 3.88960 3.73068
# Velocity P-wave (km/s) = 5.74527 6.83978 6.31628
#
# Compressibility (1/GPa) = 0.03134200
#
# Stress axis : x y z
#
# Youngs Moduli (GPa) = 99.94284 55.42691 41.57843
#
# Poissons Ratio (x) = 0.41623 0.17757
# Poissons Ratio (y) = 0.75052 -0.05829
# Poissons Ratio (z) = 0.42683 -0.07771
#
# Static dielectric constant tensor:
#      x y z
#    x 3.936060 0.000000 0.000000 
#    y 0.000000 3.620280 0.000000 
#    z 0.000000 0.000000 3.361220 
# 
# 
# High freq. dielectric constant tensor:
#      x y z
#    x 1.793690 0.000000 0.000000 
#    y 0.000000 1.768740 0.000000 
#    z 0.000000 0.000000 1.762090 
# 
# From -- ./inp_files/10508.got.cif
#   From: 2010.03.12/outbox.cif.g09.slc.cpg/sg55_6_cif.got.tgz:10508.got - 2010.04.16 15:19:21.
