data_PCOD8226365
_publ_section_title
;
Structure prediction by ZEFSAII (Michael W. Deem and Ramdas Pophale) SiO2 
 PCOD8226365
Probable space group: P B A M
;
_chemical_formula_sum "Si O2"
_cell_formula_units_Z 56
_cell_length_a 9.249208
_cell_length_b 13.170563
_cell_length_c 21.984637
_cell_angle_alpha 90.000000
_cell_angle_beta 90.000000
_cell_angle_gamma 90.000000
_cell_volume 2678.108608
_symmetry_space_group_name_H-M "P B A M"
_symmetry_group_IT_number 55
_symmetry_cell_setting 'orthorhombic'
loop_
_space_group_symop_operation_xyz
x,y,z
-x,-y,z
1/2+x,1/2-y,-z
1/2-x,1/2+y,-z
-x,-y,-z
x,y,-z
1/2-x,1/2+y,z
1/2+x,1/2-y,z
loop_
_atom_site_type_symbol
_atom_site_label
_atom_site_fract_x
_atom_site_fract_y
_atom_site_fract_z
Si Si1 0.495718 0.738975 0.570260
Si Si2 0.591861 0.899484 0.069675
Si Si3 0.254730 0.868311 0.772711
Si Si4 0.727846 0.131908 0.369809
Si Si5 0.855526 0.949920 0.146762
Si Si6 0.998811 0.254640 0.172890
Si Si7 0.348192 0.540403 0.568465
O O1 0.522054 0.772249 0.500000
O O2 0.644674 0.694249 0.596125
O O3 0.432797 0.829546 0.611879
O O4 0.358303 0.661334 0.573277
O O5 0.750690 0.932066 0.090530
O O6 0.530570 0.802596 0.106420
O O7 0.500000 0.000000 0.079817
O O8 0.595317 0.864474 0.000000
O O9 0.239886 0.867479 0.700951
O O10 0.421178 0.842691 0.788730
O O11 0.152663 0.778525 0.798120
O O12 0.212650 0.978066 0.800721
O O13 0.727051 0.013199 0.390195
O O14 0.893874 0.840880 0.174195
O O15 0.000000 0.000000 0.119445
O O16 0.500000 0.500000 0.593143
O O17 0.321241 0.502566 0.500000
#
# Coordination Sequence:
#
# PCOD8226365 Si02
#       7
#     8   8   8   8   8   8   8
#     4  10  20  36  58  84 117 154 204 263 317 367
#     4  11  23  42  69  97 126 167 216 260 317 384
#     4  11  23  38  62  89 128 170 218 267 322 395
#     4  11  21  35  58  89 114 159 208 254 309 384
#     4  10  23  42  65  95 131 170 211 265 321 378
#     4  11  22  42  62  91 128 172 206 266 330 371
#     4   8  16  32  53  76 109 150 191 241 300 361
#
# _framework density 20.91028
#
# number of rings (size 3 to 8) (size 9 to 14) (size 15 to 20)
#    0.000    1.714    2.857    3.000    0.000    7.143 
#    0.000    2.857    0.000    2.571    0.000    0.000 
#    0.000    0.000    0.000    0.000    0.000    0.000 
#
# Total GULP energy -693982.007219 kJ/mol
# GULP energy per Si atom -12392.535843 kJ/mol
# Density = 2.086269 g / cm^3
# Si number density = 20.910280 Si / 1000 Ang^3
#
#
#
# Elastic Constant Matrix: (Units=GPa)
#
#
# Indices 1 2 3 4 5 6 
#
# 1 56.6796 21.4495 23.0134 0.0000 0.0000 0.0000
# 2 21.4495 70.9530 31.3565 0.0000 0.0000 0.0000
# 3 23.0134 31.3565 111.1837 0.0000 0.0000 0.0000
# 4 0.0000 0.0000 0.0000 14.7340 0.0000 0.0000
# 5 0.0000 0.0000 0.0000 0.0000 24.7852 0.0000
# 6 0.0000 0.0000 0.0000 0.0000 0.0000 30.5778
#
#
#
# Elastic Compliance Matrix: (Units=1/GPa)
#
#
# Indices 1 2 3 4 5 6 
#
# 1 0.020698 -0.004985 -0.002878 0.000000 0.000000 0.000000
# 2 -0.004985 0.017301 -0.003848 0.000000 0.000000 0.000000
# 3 -0.002878 -0.003848 0.010675 0.000000 0.000000 0.000000
# 4 0.000000 0.000000 0.000000 0.067870 0.000000 0.000000
# 5 0.000000 0.000000 0.000000 0.000000 0.040347 0.000000
# 6 0.000000 0.000000 0.000000 0.000000 0.000000 0.032703
#
#
# Mechanical properties :
#
#
# Convention : Reuss Voigt Hill
#
# Bulk Modulus (GPa) = 39.60005 43.38391 41.49198
# Shear Modulus (GPa) = 22.58007 24.88586 23.73297
#
# Velocity S-wave (km/s) = 3.28968 3.45356 3.37262
# Velocity P-wave (km/s) = 5.78001 6.05768 5.92047
#
# Compressibility (1/GPa) = 0.02525249
#
# Stress axis : x y z
#
# Youngs Moduli (GPa) = 48.31317 57.79936 93.67697
#
# Poissons Ratio (x) = 0.28814 0.26963
# Poissons Ratio (y) = 0.24085 0.36042
# Poissons Ratio (z) = 0.13906 0.22238
#
# Static dielectric constant tensor:
#      x y z
#    x 3.901670 0.000000 0.000000 
#    y 0.000000 4.120410 0.000000 
#    z 0.000000 0.000000 3.541180 
# 
# 
# High freq. dielectric constant tensor:
#      x y z
#    x 1.820480 0.000000 0.000000 
#    y 0.000000 1.825420 0.000000 
#    z 0.000000 0.000000 1.802680 
# 
# From -- ./inp_files/22624.got.cif
#   From: 2010.03.12/outbox.cif.g09.slc.cpg/sg55_12_cif.got.tgz:22624.got - 2010.04.16 15:19:21.
