data_PCOD8226572
_publ_section_title
;
Structure prediction by ZEFSAII (Michael W. Deem and Ramdas Pophale) SiO2 
 PCOD8226572
Probable space group: P B A M
;
_chemical_formula_sum "Si O2"
_cell_formula_units_Z 64
_cell_length_a 16.082174
_cell_length_b 22.783175
_cell_length_c 8.938889
_cell_angle_alpha 90.000000
_cell_angle_beta 90.000000
_cell_angle_gamma 90.000000
_cell_volume 3275.235609
_symmetry_space_group_name_H-M "P B A M"
_symmetry_group_IT_number 55
_symmetry_cell_setting 'orthorhombic'
loop_
_space_group_symop_operation_xyz
x,y,z
-x,-y,z
1/2+x,1/2-y,-z
1/2-x,1/2+y,-z
-x,-y,-z
x,y,-z
1/2-x,1/2+y,z
1/2+x,1/2-y,z
loop_
_atom_site_type_symbol
_atom_site_label
_atom_site_fract_x
_atom_site_fract_y
_atom_site_fract_z
Si Si1 0.464246 0.725142 0.172656
Si Si2 0.303549 0.243516 0.338810
Si Si3 0.904091 0.151620 0.331621
Si Si4 0.090946 0.981171 0.676231
Si Si5 0.528604 0.830263 0.668518
Si Si6 0.254067 0.049498 0.323012
Si Si7 0.200630 0.163716 0.170118
Si Si8 0.070640 0.547614 0.176930
O O1 0.543594 0.686745 0.211080
O O2 0.458005 0.787266 0.260981
O O3 0.392933 0.678515 0.213106
O O4 0.463285 0.742448 0.000000
O O5 0.261653 0.228479 0.500000
O O6 0.316440 0.313954 0.332684
O O7 0.389839 0.208986 0.328834
O O8 0.248435 0.224837 0.198063
O O9 0.943741 0.152882 0.500000
O O10 0.891511 0.085508 0.277572
O O11 0.088743 0.991342 0.500000
O O12 0.170847 0.016797 0.739988
O O13 0.000000 0.000000 0.742922
O O14 0.502814 0.847616 0.500000
O O15 0.540850 0.889514 0.762208
O O16 0.264132 0.041423 0.500000
O O17 0.240423 0.117314 0.283314
O O18 0.340315 0.027861 0.247575
O O19 0.211766 0.142382 0.000000
O O20 0.000000 0.500000 0.218852
O O21 0.082816 0.552491 0.000000
#
# Coordination Sequence:
#
# PCOD8226572 Si02
#       8
#     8   8   8   8   8   8   8   8
#     4  10  21  35  54  84 118 152 189 235 293 356
#     4   9  18  32  54  80 108 140 181 234 289 344
#     4   9  18  35  56  79 110 146 188 234 286 346
#     4   9  18  34  58  88 121 157 195 242 297 351
#     4  10  20  37  61  87 111 144 191 244 296 350
#     4  11  22  37  62  91 120 157 206 255 297 352
#     4  11  22  35  54  81 115 151 191 238 291 354
#     4  11  24  42  63  85 117 160 201 250 308 364
#
# _framework density 19.540579000000001
#
# number of rings (size 3 to 8) (size 9 to 14) (size 15 to 20)
#    0.000    2.000    1.250    3.375    0.000    6.000 
#    2.250    1.250    0.000    3.375    0.000    0.000 
#    0.000    0.000    0.000    0.000    0.000    0.000 
#
# Total GULP energy -793040.873793 kJ/mol
# GULP energy per Si atom -12391.263653 kJ/mol
# Density = 1.949610 g / cm^3
# Si number density = 19.540579 Si / 1000 Ang^3
#
#
#
# Elastic Constant Matrix: (Units=GPa)
#
#
# Indices 1 2 3 4 5 6 
#
# 1 98.2766 44.5608 44.8318 0.0000 0.0000 0.0000
# 2 44.5608 113.6476 31.6180 0.0000 0.0000 0.0000
# 3 44.8318 31.6180 62.0197 0.0000 0.0000 0.0000
# 4 0.0000 0.0000 0.0000 23.5841 0.0000 0.0000
# 5 0.0000 0.0000 0.0000 0.0000 28.8146 0.0000
# 6 0.0000 0.0000 0.0000 0.0000 0.0000 24.3276
#
#
#
# Elastic Compliance Matrix: (Units=1/GPa)
#
#
# Indices 1 2 3 4 5 6 
#
# 1 0.016383 -0.003646 -0.009984 0.000000 0.000000 0.000000
# 2 -0.003646 0.011065 -0.003005 0.000000 0.000000 0.000000
# 3 -0.009984 -0.003005 0.024873 0.000000 0.000000 0.000000
# 4 0.000000 0.000000 0.000000 0.042401 0.000000 0.000000
# 5 0.000000 0.000000 0.000000 0.000000 0.034705 0.000000
# 6 0.000000 0.000000 0.000000 0.000000 0.000000 0.041106
#
#
# Mechanical properties :
#
#
# Convention : Reuss Voigt Hill
#
# Bulk Modulus (GPa) = 52.49254 57.32946 54.91100
# Shear Modulus (GPa) = 23.79216 25.54081 24.66648
#
# Velocity S-wave (km/s) = 3.49316 3.61926 3.55677
# Velocity P-wave (km/s) = 6.57201 6.84600 6.71040
#
# Compressibility (1/GPa) = 0.01905033
#
# Stress axis : x y z
#
# Youngs Moduli (GPa) = 61.03873 90.37621 40.20419
#
# Poissons Ratio (x) = 0.32952 0.40139
# Poissons Ratio (y) = 0.22255 0.12083
# Poissons Ratio (z) = 0.60941 0.27161
#
# Static dielectric constant tensor:
#      x y z
#    x 3.701670 0.000000 0.000000 
#    y 0.000000 3.759840 0.000000 
#    z 0.000000 0.000000 3.501750 
# 
# 
# High freq. dielectric constant tensor:
#      x y z
#    x 1.749130 0.000000 0.000000 
#    y 0.000000 1.763030 0.000000 
#    z 0.000000 0.000000 1.753100 
# 
# From -- ./inp_files/6605.got.cif
#   From: 2010.03.12/outbox.cif.g09.slc.cpg/sg55_4_cif.got.tgz:6605.got - 2010.04.16 15:19:21.
