data_PCOD8226602
_publ_section_title
;
Structure prediction by ZEFSAII (Michael W. Deem and Ramdas Pophale) SiO2 
 PCOD8226602
Probable space group: P B A M
;
_chemical_formula_sum "Si O2"
_cell_formula_units_Z 48
_cell_length_a 21.833946
_cell_length_b 12.247992
_cell_length_c 8.777373
_cell_angle_alpha 90.000000
_cell_angle_beta 90.000000
_cell_angle_gamma 90.000000
_cell_volume 2347.262607
_symmetry_space_group_name_H-M "P B A M"
_symmetry_group_IT_number 55
_symmetry_cell_setting 'orthorhombic'
loop_
_space_group_symop_operation_xyz
x,y,z
-x,-y,z
1/2+x,1/2-y,-z
1/2-x,1/2+y,-z
-x,-y,-z
x,y,-z
1/2-x,1/2+y,z
1/2+x,1/2-y,z
loop_
_atom_site_type_symbol
_atom_site_label
_atom_site_fract_x
_atom_site_fract_y
_atom_site_fract_z
Si Si1 0.697381 0.580679 0.318863
Si Si2 0.430580 0.017434 0.820138
Si Si3 0.631133 0.363847 0.326732
Si Si4 0.830991 0.626548 0.673508
Si Si5 0.399648 0.244182 0.679026
Si Si6 0.993405 0.872953 0.825066
O O1 0.699299 0.584099 0.500000
O O2 0.667891 0.467633 0.261044
O O3 0.766678 0.585225 0.255648
O O4 0.657385 0.683435 0.259416
O O5 0.399446 0.127038 0.758016
O O6 0.500000 0.000000 0.757216
O O7 0.388470 0.916465 0.769640
O O8 0.432382 0.024024 0.000000
O O9 0.609010 0.387554 0.500000
O O10 0.673699 0.257619 0.320938
O O11 0.574674 0.338017 0.217346
O O12 0.839488 0.585757 0.500000
O O13 0.395068 0.225663 0.500000
O O14 0.461645 0.307604 0.716143
O O15 0.007119 0.842425 0.000000
O O16 0.000000 0.000000 0.792052
#
# Coordination Sequence:
#
# PCOD8226602 Si02
#       6
#     8   8   8   8   8   8
#     4   9  20  37  60  92 123 154 195 252 306 350
#     4  11  25  44  63  87 125 164 202 253 311 367
#     4  10  20  37  62  89 120 155 199 249 296 355
#     4  10  22  39  64  92 119 156 204 249 299 362
#     4  11  22  38  65  92 121 159 206 256 305 362
#     4  11  22  36  56  86 125 161 197 246 302 358
#
# _framework density 20.449352000000001
#
# number of rings (size 3 to 8) (size 9 to 14) (size 15 to 20)
#    0.000    1.667    1.667    2.500    2.333    5.333 
#    0.000    2.500    0.000    0.000    0.000    0.000 
#    0.000    0.000    0.000    0.000    0.000    0.000 
#
# Total GULP energy -595329.613667 kJ/mol
# GULP energy per Si atom -12402.700285 kJ/mol
# Density = 2.040281 g / cm^3
# Si number density = 20.449352 Si / 1000 Ang^3
#
#
#
# Elastic Constant Matrix: (Units=GPa)
#
#
# Indices 1 2 3 4 5 6 
#
# 1 143.7874 50.6958 20.7579 0.0000 0.0000 0.0000
# 2 50.6958 113.5306 31.2311 0.0000 0.0000 0.0000
# 3 20.7579 31.2311 43.7310 0.0000 0.0000 0.0000
# 4 0.0000 0.0000 0.0000 26.7119 0.0000 0.0000
# 5 0.0000 0.0000 0.0000 0.0000 4.4695 0.0000
# 6 0.0000 0.0000 0.0000 0.0000 0.0000 27.3726
#
#
#
# Elastic Compliance Matrix: (Units=1/GPa)
#
#
# Indices 1 2 3 4 5 6 
#
# 1 0.008345 -0.003281 -0.001618 0.000000 0.000000 0.000000
# 2 -0.003281 0.012252 -0.007192 0.000000 0.000000 0.000000
# 3 -0.001618 -0.007192 0.028772 0.000000 0.000000 0.000000
# 4 0.000000 0.000000 0.000000 0.037436 0.000000 0.000000
# 5 0.000000 0.000000 0.000000 0.000000 0.223738 0.000000
# 6 0.000000 0.000000 0.000000 0.000000 0.000000 0.036533
#
#
# Mechanical properties :
#
#
# Convention : Reuss Voigt Hill
#
# Bulk Modulus (GPa) = 39.70512 56.26874 47.98693
# Shear Modulus (GPa) = 13.16988 24.93508 19.05248
#
# Velocity S-wave (km/s) = 2.54052 3.49572 3.05567
# Velocity P-wave (km/s) = 5.29756 6.62339 5.99722
#
# Compressibility (1/GPa) = 0.02518567
#
# Stress axis : x y z
#
# Youngs Moduli (GPa) = 119.82919 81.61908 34.75656
#
# Poissons Ratio (x) = 0.26783 0.05623
# Poissons Ratio (y) = 0.39321 0.24998
# Poissons Ratio (z) = 0.19385 0.58704
#
# Static dielectric constant tensor:
#      x y z
#    x 3.854380 0.000000 0.000000 
#    y 0.000000 3.656460 0.000000 
#    z 0.000000 0.000000 3.466700 
# 
# 
# High freq. dielectric constant tensor:
#      x y z
#    x 1.803580 0.000000 0.000000 
#    y 0.000000 1.813420 0.000000 
#    z 0.000000 0.000000 1.774380 
# 
# From -- ./inp_files/9426.got.cif
#   From: 2010.03.12/outbox.cif.g09.slc.cpg/sg55_5_cif.got.tgz:9426.got - 2010.04.16 15:19:21.
