data_PCOD8226573
_publ_section_title
;
Structure prediction by ZEFSAII (Michael W. Deem and Ramdas Pophale) SiO2 
 PCOD8226573
Probable space group: P B A M
;
_chemical_formula_sum "Si O2"
_cell_formula_units_Z 48
_cell_length_a 9.345378
_cell_length_b 28.211504
_cell_length_c 9.159102
_cell_angle_alpha 90.000000
_cell_angle_beta 90.000000
_cell_angle_gamma 90.000000
_cell_volume 2414.771311
_symmetry_space_group_name_H-M "P B A M"
_symmetry_group_IT_number 55
_symmetry_cell_setting 'orthorhombic'
loop_
_space_group_symop_operation_xyz
x,y,z
-x,-y,z
1/2+x,1/2-y,-z
1/2-x,1/2+y,-z
-x,-y,-z
x,y,-z
1/2-x,1/2+y,z
1/2+x,1/2-y,z
loop_
_atom_site_type_symbol
_atom_site_label
_atom_site_fract_x
_atom_site_fract_y
_atom_site_fract_z
Si Si1 0.094958 0.457362 0.664587
Si Si2 0.644026 0.478860 0.665231
Si Si3 0.204261 0.285937 0.669994
Si Si4 0.700077 0.383946 0.829176
Si Si5 0.528985 0.306472 0.669983
Si Si6 0.521916 0.135703 0.170269
O O1 0.043736 0.443852 0.500000
O O2 0.255887 0.475317 0.664948
O O3 0.084491 0.412857 0.768784
O O4 0.000000 0.500000 0.727926
O O5 0.500000 0.500000 0.733598
O O6 0.621886 0.459773 0.500000
O O7 0.704163 0.436406 0.762578
O O8 0.187283 0.297866 0.500000
O O9 0.370095 0.289837 0.718985
O O10 0.146019 0.233665 0.705507
O O11 0.104500 0.321411 0.757001
O O12 0.573172 0.353195 0.758554
O O13 0.853099 0.359775 0.796176
O O14 0.670199 0.388091 0.000000
O O15 0.529084 0.319399 0.500000
O O16 0.553394 0.136884 0.000000
#
# Coordination Sequence:
#
# PCOD8226573 Si02
#       6
#     8   8   8   8   8   8
#     4  10  20  37  61  87 115 155 203 248 292 342
#     4  10  22  39  60  86 118 156 201 250 296 346
#     4  10  22  41  66  93 118 151 196 246 297 352
#     4  11  24  40  59  87 123 163 200 240 295 355
#     4  10  22  41  66  92 118 151 196 247 297 351
#     4  11  24  39  59  88 124 162 198 241 295 354
#
# _framework density 19.877659000000001
#
# number of rings (size 3 to 8) (size 9 to 14) (size 15 to 20)
#    0.000    1.667    1.667    2.000    2.333    6.000 
#    0.000    0.000    0.000    0.000    0.000    0.000 
#    0.000    0.000    0.000    0.000    0.000    0.000 
#
# Total GULP energy -595335.397884 kJ/mol
# GULP energy per Si atom -12402.820789 kJ/mol
# Density = 1.983242 g / cm^3
# Si number density = 19.877659 Si / 1000 Ang^3
#
#
#
# Elastic Constant Matrix: (Units=GPa)
#
#
# Indices 1 2 3 4 5 6 
#
# 1 98.8762 17.7026 38.1189 0.0000 0.0000 0.0000
# 2 17.7026 69.5982 43.9951 0.0000 0.0000 0.0000
# 3 38.1189 43.9951 70.3944 0.0000 0.0000 0.0000
# 4 0.0000 0.0000 0.0000 54.5377 0.0000 0.0000
# 5 0.0000 0.0000 0.0000 0.0000 28.8474 0.0000
# 6 0.0000 0.0000 0.0000 0.0000 0.0000 39.6366
#
#
#
# Elastic Compliance Matrix: (Units=1/GPa)
#
#
# Indices 1 2 3 4 5 6 
#
# 1 0.012929 0.001880 -0.008176 0.000000 0.000000 0.000000
# 2 0.001880 0.024025 -0.016033 0.000000 0.000000 0.000000
# 3 -0.008176 -0.016033 0.028653 0.000000 0.000000 0.000000
# 4 0.000000 0.000000 0.000000 0.018336 0.000000 0.000000
# 5 0.000000 0.000000 0.000000 0.000000 0.034665 0.000000
# 6 0.000000 0.000000 0.000000 0.000000 0.000000 0.025229
#
#
# Mechanical properties :
#
#
# Convention : Reuss Voigt Hill
#
# Bulk Modulus (GPa) = 47.73524 48.72246 48.22885
# Shear Modulus (GPa) = 25.57813 33.87447 29.72630
#
# Velocity S-wave (km/s) = 3.59106 4.13261 3.87132
# Velocity P-wave (km/s) = 6.42347 6.88009 6.65570
#
# Compressibility (1/GPa) = 0.02094889
#
# Stress axis : x y z
#
# Youngs Moduli (GPa) = 77.34475 41.62321 34.89997
#
# Poissons Ratio (x) = -0.07824 0.28534
# Poissons Ratio (y) = -0.14538 0.55955
# Poissons Ratio (z) = 0.63237 0.66735
#
# Static dielectric constant tensor:
#      x y z
#    x 3.802940 0.000000 0.000000 
#    y 0.000000 3.867910 0.000000 
#    z 0.000000 0.000000 3.543180 
# 
# 
# High freq. dielectric constant tensor:
#      x y z
#    x 1.790450 0.000000 0.000000 
#    y 0.000000 1.776900 0.000000 
#    z 0.000000 0.000000 1.765560 
# 
# From -- ./inp_files/2781.got.cif
#   From: 2010.03.12/outbox.cif.g09.slc.cpg/sg55_2_cif.got.tgz:2781.got - 2010.04.16 15:19:21.
