data_PCOD8226953
_publ_section_title
;
Structure prediction by ZEFSAII (Michael W. Deem and Ramdas Pophale) SiO2 
 PCOD8226953
Probable space group: P B A M
;
_chemical_formula_sum "Si O2"
_cell_formula_units_Z 56
_cell_length_a 16.042359
_cell_length_b 8.406147
_cell_length_c 19.655640
_cell_angle_alpha 90.000000
_cell_angle_beta 90.000000
_cell_angle_gamma 90.000000
_cell_volume 2650.650089
_symmetry_space_group_name_H-M "P B A M"
_symmetry_group_IT_number 55
_symmetry_cell_setting 'orthorhombic'
loop_
_space_group_symop_operation_xyz
x,y,z
-x,-y,z
1/2+x,1/2-y,-z
1/2-x,1/2+y,-z
-x,-y,-z
x,y,-z
1/2-x,1/2+y,z
1/2+x,1/2-y,z
loop_
_atom_site_type_symbol
_atom_site_label
_atom_site_fract_x
_atom_site_fract_y
_atom_site_fract_z
Si Si1 0.638200 0.068482 0.424809
Si Si2 0.722804 0.354163 0.370816
Si Si3 0.667937 0.367471 0.077558
Si Si4 0.204439 0.890394 0.727557
Si Si5 0.500000 0.000000 0.684113
Si Si6 0.500000 0.500000 0.879943
Si Si7 0.938808 0.281801 0.202181
Si Si8 0.819069 0.541070 0.847184
O O1 0.599296 0.041465 0.500000
O O2 0.658059 0.256046 0.416808
O O3 0.578920 0.016699 0.364231
O O4 0.723109 0.967969 0.419269
O O5 0.674185 0.452008 0.312174
O O6 0.784292 0.237991 0.330960
O O7 0.585354 0.479984 0.077226
O O8 0.652302 0.200178 0.115057
O O9 0.744635 0.456134 0.112858
O O10 0.692659 0.332261 0.000000
O O11 0.135920 0.836961 0.780353
O O12 0.289667 0.923669 0.769677
O O13 0.512353 0.845520 0.731604
O O14 0.500200 0.333330 0.838753
O O15 0.901062 0.428498 0.158154
#
# Coordination Sequence:
#
# PCOD8226953 Si02
#       8
#     8   8   8   8   4   4   8   8
#     4  11  23  41  62  88 129 174 214 255 310 388
#     4  10  21  36  65  93 119 158 217 264 306 367
#     4  12  25  43  65  95 133 176 218 261 314 394
#     4  11  18  37  64  97 116 151 204 275 315 356
#     4  12  25  42  60  98 131 168 206 264 342 388
#     4  12  27  42  64  96 137 170 206 270 338 378
#     4  12  24  41  66  97 128 161 210 273 332 379
#     4  12  22  43  70  96 124 170 223 268 319 382
#
# _framework density 21.126892000000002
#
# number of rings (size 3 to 8) (size 9 to 14) (size 15 to 20)
#    0.000    0.571    5.714    3.000    2.000    0.000 
#    0.000    2.857    0.000    0.857    0.000    0.000 
#    0.000    0.000    0.000    0.000    0.000    0.000 
#
# Total GULP energy -694289.000074 kJ/mol
# GULP energy per Si atom -12398.017858 kJ/mol
# Density = 2.107881 g / cm^3
# Si number density = 21.126892 Si / 1000 Ang^3
#
#
#
# Elastic Constant Matrix: (Units=GPa)
#
#
# Indices 1 2 3 4 5 6 
#
# 1 51.3161 17.0833 21.0482 0.0000 0.0000 0.0000
# 2 17.0833 113.0293 40.0067 0.0000 0.0000 0.0000
# 3 21.0482 40.0067 113.8518 0.0000 0.0000 0.0000
# 4 0.0000 0.0000 0.0000 22.4837 0.0000 0.0000
# 5 0.0000 0.0000 0.0000 0.0000 7.2606 0.0000
# 6 0.0000 0.0000 0.0000 0.0000 0.0000 36.4079
#
#
#
# Elastic Compliance Matrix: (Units=1/GPa)
#
#
# Indices 1 2 3 4 5 6 
#
# 1 0.021516 -0.002106 -0.003238 0.000000 0.000000 0.000000
# 2 -0.002106 0.010310 -0.003234 0.000000 0.000000 0.000000
# 3 -0.003238 -0.003234 0.010518 0.000000 0.000000 0.000000
# 4 0.000000 0.000000 0.000000 0.044477 0.000000 0.000000
# 5 0.000000 0.000000 0.000000 0.000000 0.137730 0.000000
# 6 0.000000 0.000000 0.000000 0.000000 0.000000 0.027467
#
#
# Mechanical properties :
#
#
# Convention : Reuss Voigt Hill
#
# Bulk Modulus (GPa) = 39.69849 48.27485 43.98667
# Shear Modulus (GPa) = 18.01355 26.56771 22.29063
#
# Velocity S-wave (km/s) = 2.92316 3.55001 3.25173
# Velocity P-wave (km/s) = 5.49768 6.30103 5.91301
#
# Compressibility (1/GPa) = 0.02518988
#
# Stress axis : x y z
#
# Youngs Moduli (GPa) = 46.47668 96.99257 95.07363
#
# Poissons Ratio (x) = 0.20426 0.30782
# Poissons Ratio (y) = 0.09788 0.30742
# Poissons Ratio (z) = 0.15048 0.31363
#
# Static dielectric constant tensor:
#      x y z
#    x 3.729350 0.000000 0.000000 
#    y 0.000000 4.179790 0.000000 
#    z 0.000000 0.000000 3.779550 
# 
# 
# High freq. dielectric constant tensor:
#      x y z
#    x 1.814010 0.000000 0.000000 
#    y 0.000000 1.843250 0.000000 
#    z 0.000000 0.000000 1.825320 
# 
# From -- ./inp_files/23010.got.cif
#   From: 2010.03.12/outbox.cif.g09.slc.cpg/sg55_12_cif.got.tgz:23010.got - 2010.04.16 15:19:21.
