data_PCOD8226482
_publ_section_title
;
Structure prediction by ZEFSAII (Michael W. Deem and Ramdas Pophale) SiO2 
 PCOD8226482
Probable space group: P B A M
;
_chemical_formula_sum "Si O2"
_cell_formula_units_Z 64
_cell_length_a 32.278918
_cell_length_b 11.091512
_cell_length_c 8.780955
_cell_angle_alpha 90.000000
_cell_angle_beta 90.000000
_cell_angle_gamma 90.000000
_cell_volume 3143.775127
_symmetry_space_group_name_H-M "P B A M"
_symmetry_group_IT_number 55
_symmetry_cell_setting 'orthorhombic'
loop_
_space_group_symop_operation_xyz
x,y,z
-x,-y,z
1/2+x,1/2-y,-z
1/2-x,1/2+y,-z
-x,-y,-z
x,y,-z
1/2-x,1/2+y,z
1/2+x,1/2-y,z
loop_
_atom_site_type_symbol
_atom_site_label
_atom_site_fract_x
_atom_site_fract_y
_atom_site_fract_z
Si Si1 0.024587 0.880792 0.823489
Si Si2 0.406904 0.884916 0.170115
Si Si3 0.010183 0.363353 0.322153
Si Si4 0.778256 0.521826 0.673518
Si Si5 0.140331 0.598823 0.676963
Si Si6 0.176445 0.270654 0.172392
Si Si7 0.118614 0.843907 0.822563
Si Si8 0.692595 0.491125 0.821264
O O1 0.073594 0.904463 0.798535
O O2 0.014284 0.750295 0.749519
O O3 0.013048 0.867637 0.000000
O O4 0.000000 0.000000 0.757969
O O5 0.441811 0.842325 0.286735
O O6 0.373139 0.779058 0.169178
O O7 0.385694 0.008474 0.220101
O O8 0.425332 0.902636 0.000000
O O9 0.000772 0.359441 0.500000
O O10 0.000000 0.500000 0.259232
O O11 0.763436 0.516750 0.500000
O O12 0.809885 0.411007 0.711854
O O13 0.805106 0.639520 0.704444
O O14 0.738074 0.534830 0.777141
O O15 0.132175 0.569864 0.500000
O O16 0.122704 0.727805 0.717864
O O17 0.188217 0.142699 0.242114
O O18 0.193837 0.292332 0.000000
O O19 0.154855 0.929652 0.757320
O O20 0.125464 0.810733 0.000000
O O21 0.688192 0.490398 0.000000
#
# Coordination Sequence:
#
# PCOD8226482 Si02
#       8
#     8   8   8   8   8   8   8   8
#     4  10  23  42  66  92 123 161 205 257 310 367
#     4  10  20  36  63  91 117 151 197 245 296 350
#     4  11  24  40  61  91 127 162 201 251 306 366
#     4  10  22  38  57  84 118 154 193 238 291 345
#     4  10  21  38  59  86 124 161 195 241 294 351
#     4   9  20  38  60  85 114 149 192 242 291 343
#     4  10  22  39  61  88 117 153 198 243 294 353
#     4  10  22  38  59  85 115 150 194 241 288 346
#
# _framework density 20.357692
#
# number of rings (size 3 to 8) (size 9 to 14) (size 15 to 20)
#    0.000    2.000    0.000    2.250    3.500    6.750 
#    0.000    0.000    0.000    0.000    0.000    0.000 
#    0.000    0.000    0.000    0.000    0.000    0.000 
#
# Total GULP energy -793258.553231 kJ/mol
# GULP energy per Si atom -12394.664894 kJ/mol
# Density = 2.031136 g / cm^3
# Si number density = 20.357692 Si / 1000 Ang^3
#
#
#
# Elastic Constant Matrix: (Units=GPa)
#
#
# Indices 1 2 3 4 5 6 
#
# 1 109.1216 28.1514 11.0630 0.0000 0.0000 0.0000
# 2 28.1514 78.8928 16.0824 0.0000 0.0000 0.0000
# 3 11.0630 16.0824 29.5469 0.0000 0.0000 0.0000
# 4 0.0000 0.0000 0.0000 22.9974 0.0000 0.0000
# 5 0.0000 0.0000 0.0000 0.0000 24.2993 0.0000
# 6 0.0000 0.0000 0.0000 0.0000 0.0000 26.5874
#
#
#
# Elastic Compliance Matrix: (Units=1/GPa)
#
#
# Indices 1 2 3 4 5 6 
#
# 1 0.010204 -0.003220 -0.002068 0.000000 0.000000 0.000000
# 2 -0.003220 0.015273 -0.007108 0.000000 0.000000 0.000000
# 3 -0.002068 -0.007108 0.038488 0.000000 0.000000 0.000000
# 4 0.000000 0.000000 0.000000 0.043483 0.000000 0.000000
# 5 0.000000 0.000000 0.000000 0.000000 0.041154 0.000000
# 6 0.000000 0.000000 0.000000 0.000000 0.000000 0.037612
#
#
# Mechanical properties :
#
#
# Convention : Reuss Voigt Hill
#
# Bulk Modulus (GPa) = 25.52716 36.46163 30.99440
# Shear Modulus (GPa) = 22.31516 25.59445 23.95481
#
# Velocity S-wave (km/s) = 3.31441 3.54960 3.43402
# Velocity P-wave (km/s) = 5.21667 5.89482 5.56608
#
# Compressibility (1/GPa) = 0.03917396
#
# Stress axis : x y z
#
# Youngs Moduli (GPa) = 97.99713 65.47418 25.98237
#
# Poissons Ratio (x) = 0.21080 0.05374
# Poissons Ratio (y) = 0.31551 0.18468
# Poissons Ratio (z) = 0.20269 0.46537
#
# Static dielectric constant tensor:
#      x y z
#    x 3.854230 0.000000 0.000000 
#    y 0.000000 3.824080 0.000000 
#    z 0.000000 0.000000 3.533620 
# 
# 
# High freq. dielectric constant tensor:
#      x y z
#    x 1.805260 0.000000 0.000000 
#    y 0.000000 1.793090 0.000000 
#    z 0.000000 0.000000 1.784960 
# 
# From -- ./inp_files/10805.got.cif
#   From: 2010.03.12/outbox.cif.g09.slc.cpg/sg55_6_cif.got.tgz:10805.got - 2010.04.16 15:19:21.
