data_PCOD8226828
_publ_section_title
;
Structure prediction by ZEFSAII (Michael W. Deem and Ramdas Pophale) SiO2 
 PCOD8226828
Probable space group: P B A M
;
_chemical_formula_sum "Si O2"
_cell_formula_units_Z 48
_cell_length_a 30.583619
_cell_length_b 9.240453
_cell_length_c 8.682946
_cell_angle_alpha 90.000000
_cell_angle_beta 90.000000
_cell_angle_gamma 90.000000
_cell_volume 2453.856926
_symmetry_space_group_name_H-M "P B A M"
_symmetry_group_IT_number 55
_symmetry_cell_setting 'orthorhombic'
loop_
_space_group_symop_operation_xyz
x,y,z
-x,-y,z
1/2+x,1/2-y,-z
1/2-x,1/2+y,-z
-x,-y,-z
x,y,-z
1/2-x,1/2+y,z
1/2+x,1/2-y,z
loop_
_atom_site_type_symbol
_atom_site_label
_atom_site_fract_x
_atom_site_fract_y
_atom_site_fract_z
Si Si1 0.635118 0.916834 0.676192
Si Si2 0.536772 0.889339 0.324045
Si Si3 0.631826 0.587976 0.680966
Si Si4 0.784330 0.907939 0.681409
Si Si5 0.208640 0.404520 0.820406
Si Si6 0.541150 0.586107 0.820580
O O1 0.651661 0.931369 0.500000
O O2 0.584423 0.962632 0.690034
O O3 0.641802 0.751978 0.735825
O O4 0.661834 0.024840 0.784245
O O5 0.528780 0.838976 0.500000
O O6 0.533689 0.753882 0.212420
O O7 0.500000 0.000000 0.268310
O O8 0.625674 0.589003 0.500000
O O9 0.670581 0.482855 0.734483
O O10 0.586531 0.528718 0.749609
O O11 0.776324 0.927702 0.500000
O O12 0.785467 0.739604 0.721140
O O13 0.745397 0.980809 0.774663
O O14 0.211680 0.366878 0.000000
O O15 0.500000 0.500000 0.749074
O O16 0.544207 0.557609 0.000000
#
# Coordination Sequence:
#
# PCOD8226828 Si02
#       6
#     8   8   8   8   8   8
#     4   9  18  36  59  83 112 146 187 233 281 332
#     4   9  19  36  58  82 108 144 191 236 274 321
#     4   9  20  38  61  84 106 142 191 235 274 324
#     4  11  23  41  63  85 112 149 190 231 279 334
#     4  12  25  39  58  87 118 148 185 230 281 335
#     4  10  21  35  53  81 116 150 182 223 279 336
#
# _framework density 19.561042
#
# number of rings (size 3 to 8) (size 9 to 14) (size 15 to 20)
#    0.000    2.000    0.000    4.500    0.000    8.333 
#    0.000    5.000    0.000    0.000    0.000    0.000 
#    0.000    0.000    0.000    0.000    0.000    0.000 
#
# Total GULP energy -595352.635498 kJ/mol
# GULP energy per Si atom -12403.179906 kJ/mol
# Density = 1.951652 g / cm^3
# Si number density = 19.561042 Si / 1000 Ang^3
#
#
#
# Elastic Constant Matrix: (Units=GPa)
#
#
# Indices 1 2 3 4 5 6 
#
# 1 125.6919 51.6177 24.7972 0.0000 0.0000 0.0000
# 2 51.6177 78.7874 8.8071 0.0000 0.0000 0.0000
# 3 24.7972 8.8071 46.6125 0.0000 0.0000 0.0000
# 4 0.0000 0.0000 0.0000 23.7334 0.0000 0.0000
# 5 0.0000 0.0000 0.0000 0.0000 28.7733 0.0000
# 6 0.0000 0.0000 0.0000 0.0000 0.0000 42.0640
#
#
#
# Elastic Compliance Matrix: (Units=1/GPa)
#
#
# Indices 1 2 3 4 5 6 
#
# 1 0.011913 -0.007250 -0.004968 0.000000 0.000000 0.000000
# 2 -0.007250 0.017378 0.000573 0.000000 0.000000 0.000000
# 3 -0.004968 0.000573 0.023988 0.000000 0.000000 0.000000
# 4 0.000000 0.000000 0.000000 0.042135 0.000000 0.000000
# 5 0.000000 0.000000 0.000000 0.000000 0.034754 0.000000
# 6 0.000000 0.000000 0.000000 0.000000 0.000000 0.023773
#
#
# Mechanical properties :
#
#
# Convention : Reuss Voigt Hill
#
# Bulk Modulus (GPa) = 33.34375 46.83731 40.09053
# Shear Modulus (GPa) = 26.70551 29.97211 28.33881
#
# Velocity S-wave (km/s) = 3.69892 3.91862 3.81036
# Velocity P-wave (km/s) = 5.94354 6.66861 6.31649
#
# Compressibility (1/GPa) = 0.02999063
#
# Stress axis : x y z
#
# Youngs Moduli (GPa) = 83.93998 57.54426 41.68746
#
# Poissons Ratio (x) = 0.41718 0.20710
# Poissons Ratio (y) = 0.60854 -0.02390
# Poissons Ratio (z) = 0.41701 -0.03299
#
# Static dielectric constant tensor:
#      x y z
#    x 3.866930 0.000000 0.000000 
#    y 0.000000 3.560960 0.000000 
#    z 0.000000 0.000000 3.424840 
# 
# 
# High freq. dielectric constant tensor:
#      x y z
#    x 1.778440 0.000000 0.000000 
#    y 0.000000 1.754360 0.000000 
#    z 0.000000 0.000000 1.754480 
# 
# From -- ./inp_files/2874.got.cif
#   From: 2010.03.12/outbox.cif.g09.slc.cpg/sg55_2_cif.got.tgz:2874.got - 2010.04.16 15:19:21.
