data_PCOD8226381
_publ_section_title
;
Structure prediction by ZEFSAII (Michael W. Deem and Ramdas Pophale) SiO2 
 PCOD8226381
Probable space group: P B A M
;
_chemical_formula_sum "Si O2"
_cell_formula_units_Z 40
_cell_length_a 17.978962
_cell_length_b 14.482780
_cell_length_c 7.461067
_cell_angle_alpha 90.000000
_cell_angle_beta 90.000000
_cell_angle_gamma 90.000000
_cell_volume 1942.752552
_symmetry_space_group_name_H-M "P B A M"
_symmetry_group_IT_number 55
_symmetry_cell_setting 'orthorhombic'
loop_
_space_group_symop_operation_xyz
x,y,z
-x,-y,z
1/2+x,1/2-y,-z
1/2-x,1/2+y,-z
-x,-y,-z
x,y,-z
1/2-x,1/2+y,z
1/2+x,1/2-y,z
loop_
_atom_site_type_symbol
_atom_site_label
_atom_site_fract_x
_atom_site_fract_y
_atom_site_fract_z
Si Si1 0.573282 0.388239 0.700843
Si Si2 0.333761 0.233160 0.786604
Si Si3 0.332276 0.776566 0.199517
Si Si4 0.588454 0.107674 0.500000
Si Si5 0.413299 0.111254 0.500000
Si Si6 0.908390 0.082721 0.799262
O O1 0.563173 0.349915 0.500000
O O2 0.620039 0.316200 0.813573
O O3 0.612070 0.489430 0.691808
O O4 0.495807 0.398520 0.800514
O O5 0.247769 0.242024 0.731672
O O6 0.374021 0.151015 0.678781
O O7 0.368515 0.328854 0.715388
O O8 0.345795 0.216687 0.000000
O O9 0.370593 0.852352 0.325023
O O10 0.326116 0.819773 0.000000
O O11 0.501260 0.135629 0.500000
O O12 0.598483 0.998161 0.500000
O O13 0.879589 0.068117 0.000000
#
# Coordination Sequence:
#
# PCOD8226381 Si02
#       6
#     8   8   8   4   4   8
#     4  11  21  34  57  92 122 155 197 242 306 369
#     4  10  24  42  64  92 123 165 205 253 317 370
#     4  11  23  43  64  89 128 163 205 258 311 376
#     4  11  25  44  61  97 119 171 222 257 316 352
#     4  11  25  42  67  87 131 163 218 273 294 372
#     4  10  20  36  58  89 121 157 198 240 302 371
#
# _framework density 20.589344000000001
#
# number of rings (size 3 to 8) (size 9 to 14) (size 15 to 20)
#    0.000    1.400    1.000    5.400    2.800    4.800 
#    0.000    6.000    0.000    0.000    0.000    0.000 
#    0.000    0.000    0.000    0.000    0.000    0.000 
#
# Total GULP energy -495945.732268 kJ/mol
# GULP energy per Si atom -12398.643307 kJ/mol
# Density = 2.054248 g / cm^3
# Si number density = 20.589344 Si / 1000 Ang^3
#
#
#
# Elastic Constant Matrix: (Units=GPa)
#
#
# Indices 1 2 3 4 5 6 
#
# 1 90.1352 46.5481 42.1364 0.0000 0.0000 0.0000
# 2 46.5481 110.6453 35.2315 0.0000 0.0000 0.0000
# 3 42.1364 35.2315 108.8464 0.0000 0.0000 0.0000
# 4 0.0000 0.0000 0.0000 28.4242 0.0000 0.0000
# 5 0.0000 0.0000 0.0000 0.0000 36.4575 0.0000
# 6 0.0000 0.0000 0.0000 0.0000 0.0000 12.3236
#
#
#
# Elastic Compliance Matrix: (Units=1/GPa)
#
#
# Indices 1 2 3 4 5 6 
#
# 1 0.015896 -0.005271 -0.004447 0.000000 0.000000 0.000000
# 2 -0.005271 0.011824 -0.001787 0.000000 0.000000 0.000000
# 3 -0.004447 -0.001787 0.011487 0.000000 0.000000 0.000000
# 4 0.000000 0.000000 0.000000 0.035181 0.000000 0.000000
# 5 0.000000 0.000000 0.000000 0.000000 0.027429 0.000000
# 6 0.000000 0.000000 0.000000 0.000000 0.000000 0.081145
#
#
# Mechanical properties :
#
#
# Convention : Reuss Voigt Hill
#
# Bulk Modulus (GPa) = 61.74060 61.93987 61.84024
# Shear Modulus (GPa) = 23.65494 27.82178 25.73836
#
# Velocity S-wave (km/s) = 3.39321 3.67995 3.53948
# Velocity P-wave (km/s) = 6.73822 6.94297 6.84136
#
# Compressibility (1/GPa) = 0.01619680
#
# Stress axis : x y z
#
# Youngs Moduli (GPa) = 62.91045 84.57102 87.05317
#
# Poissons Ratio (x) = 0.44578 0.38715
# Poissons Ratio (y) = 0.33161 0.15554
# Poissons Ratio (z) = 0.27978 0.15111
#
# Static dielectric constant tensor:
#      x y z
#    x 3.748980 0.000000 0.000000 
#    y 0.000000 3.866860 0.000000 
#    z 0.000000 0.000000 3.666930 
# 
# 
# High freq. dielectric constant tensor:
#      x y z
#    x 1.802720 0.000000 0.000000 
#    y 0.000000 1.807500 0.000000 
#    z 0.000000 0.000000 1.814420 
# 
# From -- ./inp_files/7287.got.cif
#   From: 2010.03.12/outbox.cif.g09.slc.cpg/sg55_4_cif.got.tgz:7287.got - 2010.04.16 15:19:21.
