data_PCOD8226566
_publ_section_title
;
Structure prediction by ZEFSAII (Michael W. Deem and Ramdas Pophale) SiO2 
 PCOD8226566
Probable space group: P B A M
;
_chemical_formula_sum "Si O2"
_cell_formula_units_Z 56
_cell_length_a 14.249481
_cell_length_b 22.114218
_cell_length_c 8.675686
_cell_angle_alpha 90.000000
_cell_angle_beta 90.000000
_cell_angle_gamma 90.000000
_cell_volume 2733.848591
_symmetry_space_group_name_H-M "P B A M"
_symmetry_group_IT_number 55
_symmetry_cell_setting 'orthorhombic'
loop_
_space_group_symop_operation_xyz
x,y,z
-x,-y,z
1/2+x,1/2-y,-z
1/2-x,1/2+y,-z
-x,-y,-z
x,y,-z
1/2-x,1/2+y,z
1/2+x,1/2-y,z
loop_
_atom_site_type_symbol
_atom_site_label
_atom_site_fract_x
_atom_site_fract_y
_atom_site_fract_z
Si Si1 0.903193 0.474396 0.318620
Si Si2 0.426524 0.381734 0.821724
Si Si3 0.271863 0.468399 0.175813
Si Si4 0.187746 0.180457 0.821563
Si Si5 0.601280 0.434652 0.321573
Si Si6 0.875825 0.338126 0.319337
Si Si7 0.496614 0.746479 0.177041
O O1 0.913189 0.470470 0.500000
O O2 0.819694 0.520716 0.278731
O O3 0.882836 0.406909 0.255295
O O4 0.000000 0.500000 0.246671
O O5 0.317659 0.401582 0.797015
O O6 0.492293 0.425599 0.719863
O O7 0.442935 0.312456 0.772269
O O8 0.456900 0.389316 0.000000
O O9 0.355325 0.513853 0.215485
O O10 0.240721 0.477108 0.000000
O O11 0.158847 0.125981 0.710971
O O12 0.292930 0.197834 0.770417
O O13 0.114578 0.235420 0.795346
O O14 0.184703 0.160452 0.000000
O O15 0.612059 0.452352 0.500000
O O16 0.856325 0.337178 0.500000
O O17 0.972070 0.302877 0.281627
O O18 0.516619 0.762658 0.000000
#
# Coordination Sequence:
#
# PCOD8226566 Si02
#       7
#     8   8   8   8   8   8   8
#     4  10  23  43  62  83 117 155 195 246 301 355
#     4   9  20  37  55  82 120 155 191 237 289 347
#     4  11  21  35  58  85 114 152 196 242 288 346
#     4  10  20  37  61  85 114 155 198 242 293 350
#     4  11  20  31  53  86 119 151 189 233 288 352
#     4  11  22  38  63  90 117 153 196 245 296 353
#     4   9  20  39  60  84 118 157 196 243 295 350
#
# _framework density 20.483941999999999
#
# number of rings (size 3 to 8) (size 9 to 14) (size 15 to 20)
#    0.000    1.857    1.429    3.857    0.000    6.571 
#    2.571    0.000    0.000    0.000    0.000    0.000 
#    0.000    0.000    0.000    0.000    0.000    0.000 
#
# Total GULP energy -694357.854952 kJ/mol
# GULP energy per Si atom -12399.247410 kJ/mol
# Density = 2.043732 g / cm^3
# Si number density = 20.483942 Si / 1000 Ang^3
#
#
#
# Elastic Constant Matrix: (Units=GPa)
#
#
# Indices 1 2 3 4 5 6 
#
# 1 117.8301 48.2300 29.8506 0.0000 0.0000 0.0000
# 2 48.2300 49.3306 18.7757 0.0000 0.0000 0.0000
# 3 29.8506 18.7757 38.0706 0.0000 0.0000 0.0000
# 4 0.0000 0.0000 0.0000 21.0960 0.0000 0.0000
# 5 0.0000 0.0000 0.0000 0.0000 33.0918 0.0000
# 6 0.0000 0.0000 0.0000 0.0000 0.0000 30.4239
#
#
#
# Elastic Compliance Matrix: (Units=1/GPa)
#
#
# Indices 1 2 3 4 5 6 
#
# 1 0.015059 -0.012593 -0.005597 0.000000 0.000000 0.000000
# 2 -0.012593 0.035486 -0.007627 0.000000 0.000000 0.000000
# 3 -0.005597 -0.007627 0.034417 0.000000 0.000000 0.000000
# 4 0.000000 0.000000 0.000000 0.047402 0.000000 0.000000
# 5 0.000000 0.000000 0.000000 0.000000 0.030219 0.000000
# 6 0.000000 0.000000 0.000000 0.000000 0.000000 0.032869
#
#
# Mechanical properties :
#
#
# Convention : Reuss Voigt Hill
#
# Bulk Modulus (GPa) = 30.00466 44.32708 37.16587
# Shear Modulus (GPa) = 19.36503 24.14734 21.75619
#
# Velocity S-wave (km/s) = 3.07803 3.43715 3.26254
# Velocity P-wave (km/s) = 5.22610 6.11873 5.68995
#
# Compressibility (1/GPa) = 0.03332816
#
# Stress axis : x y z
#
# Youngs Moduli (GPa) = 66.40422 28.17977 29.05523
#
# Poissons Ratio (x) = 0.35487 0.16263
# Poissons Ratio (y) = 0.83623 0.22161
# Poissons Ratio (z) = 0.37167 0.21494
#
# Static dielectric constant tensor:
#      x y z
#    x 3.783310 0.000000 0.000000 
#    y 0.000000 3.618290 0.000000 
#    z 0.000000 0.000000 3.525690 
# 
# 
# High freq. dielectric constant tensor:
#      x y z
#    x 1.802240 0.000000 0.000000 
#    y 0.000000 1.780960 0.000000 
#    z 0.000000 0.000000 1.793620 
# 
# From -- ./inp_files/6054.got.cif
#   From: 2010.03.12/outbox.cif.g09.slc.cpg/sg55_4_cif.got.tgz:6054.got - 2010.04.16 15:19:21.
