data_PCOD8226720
_publ_section_title
;
Structure prediction by ZEFSAII (Michael W. Deem and Ramdas Pophale) SiO2 
 PCOD8226720
Probable space group: P B A M
;
_chemical_formula_sum "Si O2"
_cell_formula_units_Z 48
_cell_length_a 8.727604
_cell_length_b 20.255027
_cell_length_c 13.379464
_cell_angle_alpha 90.000000
_cell_angle_beta 90.000000
_cell_angle_gamma 90.000000
_cell_volume 2365.192942
_symmetry_space_group_name_H-M "P B A M"
_symmetry_group_IT_number 55
_symmetry_cell_setting 'orthorhombic'
loop_
_space_group_symop_operation_xyz
x,y,z
-x,-y,z
1/2+x,1/2-y,-z
1/2-x,1/2+y,-z
-x,-y,-z
x,y,-z
1/2-x,1/2+y,z
1/2+x,1/2-y,z
loop_
_atom_site_type_symbol
_atom_site_label
_atom_site_fract_x
_atom_site_fract_y
_atom_site_fract_z
Si Si1 0.918051 0.658889 0.111485
Si Si2 0.425769 0.929003 0.296597
Si Si3 0.902506 0.312595 0.614779
Si Si4 0.570080 0.315536 0.691612
Si Si5 0.098877 0.938200 0.385699
Si Si6 0.916677 0.209750 0.887264
O O1 0.950236 0.598556 0.185146
O O2 0.760689 0.697016 0.138245
O O3 0.054620 0.711801 0.121876
O O4 0.911096 0.629270 0.000000
O O5 0.504804 0.880853 0.376877
O O6 0.246132 0.933330 0.316251
O O7 0.500000 0.000000 0.306412
O O8 0.857013 0.300174 0.500000
O O9 0.752290 0.315771 0.682896
O O10 0.010265 0.255048 0.655258
O O11 0.501292 0.372246 0.621754
O O12 0.521948 0.328841 0.806923
O O13 0.150080 0.948712 0.500000
O O14 0.000000 0.000000 0.347419
O O15 0.958382 0.185557 0.000000
#
# Coordination Sequence:
#
# PCOD8226720 Si02
#       6
#     8   8   8   8   8   8
#     4  10  21  40  65  95 126 160 203 258 317 378
#     4  12  25  42  62  89 126 172 212 260 317 375
#     4  12  25  39  62  94 127 166 210 261 313 372
#     4  12  22  41  64  94 126 161 206 262 318 371
#     4  11  24  43  65  89 122 167 215 262 315 378
#     4  10  20  38  66  95 124 156 200 253 313 371
#
# _framework density 20.294329999999999
#
# number of rings (size 3 to 8) (size 9 to 14) (size 15 to 20)
#    0.000    0.833    3.333    5.000    0.000    3.000 
#    0.000    0.000    0.000    4.000    0.000    0.000 
#    0.000    0.000    0.000    0.000    0.000    0.000 
#
# Total GULP energy -595471.308872 kJ/mol
# GULP energy per Si atom -12405.652268 kJ/mol
# Density = 2.024814 g / cm^3
# Si number density = 20.294330 Si / 1000 Ang^3
#
#
#
# Elastic Constant Matrix: (Units=GPa)
#
#
# Indices 1 2 3 4 5 6 
#
# 1 91.7091 43.2318 8.7056 0.0000 0.0000 0.0000
# 2 43.2318 115.9957 18.1597 0.0000 0.0000 0.0000
# 3 8.7056 18.1597 90.4184 0.0000 0.0000 0.0000
# 4 0.0000 0.0000 0.0000 37.7682 0.0000 0.0000
# 5 0.0000 0.0000 0.0000 0.0000 47.9208 0.0000
# 6 0.0000 0.0000 0.0000 0.0000 0.0000 35.1381
#
#
#
# Elastic Compliance Matrix: (Units=1/GPa)
#
#
# Indices 1 2 3 4 5 6 
#
# 1 0.013236 -0.004887 -0.000293 0.000000 0.000000 0.000000
# 2 -0.004887 0.010705 -0.001680 0.000000 0.000000 0.000000
# 3 -0.000293 -0.001680 0.011425 0.000000 0.000000 0.000000
# 4 0.000000 0.000000 0.000000 0.026477 0.000000 0.000000
# 5 0.000000 0.000000 0.000000 0.000000 0.020868 0.000000
# 6 0.000000 0.000000 0.000000 0.000000 0.000000 0.028459
#
#
# Mechanical properties :
#
#
# Convention : Reuss Voigt Hill
#
# Bulk Modulus (GPa) = 46.19513 48.70193 47.44853
# Shear Modulus (GPa) = 37.84865 39.36716 38.60790
#
# Velocity S-wave (km/s) = 4.32323 4.40911 4.36638
# Velocity P-wave (km/s) = 6.90887 7.06896 6.98937
#
# Compressibility (1/GPa) = 0.02164730
#
# Stress axis : x y z
#
# Youngs Moduli (GPa) = 75.55369 93.41100 87.52577
#
# Poissons Ratio (x) = 0.45651 0.02563
# Poissons Ratio (y) = 0.36924 0.14700
# Poissons Ratio (z) = 0.02212 0.15689
#
# Static dielectric constant tensor:
#      x y z
#    x 3.931930 0.000000 0.000000 
#    y 0.000000 3.496840 0.000000 
#    z 0.000000 0.000000 3.922490 
# 
# 
# High freq. dielectric constant tensor:
#      x y z
#    x 1.802220 0.000000 0.000000 
#    y 0.000000 1.776330 0.000000 
#    z 0.000000 0.000000 1.806590 
# 
# From -- ./inp_files/17332.got.cif
#   From: 2010.03.12/outbox.cif.g09.slc.cpg/sg55_9_cif.got.tgz:17332.got - 2010.04.16 15:19:21.
