data_PCOD8226746
_publ_section_title
;
Structure prediction by ZEFSAII (Michael W. Deem and Ramdas Pophale) SiO2 
 PCOD8226746
Probable space group: P B A M
;
_chemical_formula_sum "Si O2"
_cell_formula_units_Z 64
_cell_length_a 23.657217
_cell_length_b 15.316921
_cell_length_c 9.050343
_cell_angle_alpha 90.000000
_cell_angle_beta 90.000000
_cell_angle_gamma 90.000000
_cell_volume 3279.443589
_symmetry_space_group_name_H-M "P B A M"
_symmetry_group_IT_number 55
_symmetry_cell_setting 'orthorhombic'
loop_
_space_group_symop_operation_xyz
x,y,z
-x,-y,z
1/2+x,1/2-y,-z
1/2-x,1/2+y,-z
-x,-y,-z
x,y,-z
1/2-x,1/2+y,z
1/2+x,1/2-y,z
loop_
_atom_site_type_symbol
_atom_site_label
_atom_site_fract_x
_atom_site_fract_y
_atom_site_fract_z
Si Si1 0.899759 0.422120 0.671413
Si Si2 0.913488 0.985321 0.674647
Si Si3 0.496636 0.176857 0.173504
Si Si4 0.991271 0.141188 0.674900
Si Si5 0.883430 0.599540 0.170703
Si Si6 0.783727 0.338014 0.329612
Si Si7 0.287812 0.495945 0.325564
Si Si8 0.737008 0.169993 0.171671
O O1 0.915254 0.431248 0.500000
O O2 0.955619 0.396608 0.760561
O O3 0.877042 0.514537 0.728617
O O4 0.850878 0.349513 0.694279
O O5 0.915776 0.983124 0.500000
O O6 0.849940 0.978195 0.734212
O O7 0.949820 0.902228 0.729941
O O8 0.940969 0.076734 0.725228
O O9 0.480853 0.268981 0.242754
O O10 0.560718 0.152790 0.215144
O O11 0.486933 0.180618 0.000000
O O12 0.990808 0.158548 0.500000
O O13 0.830045 0.662169 0.202147
O O14 0.885603 0.570002 0.000000
O O15 0.769492 0.317703 0.500000
O O16 0.754204 0.427434 0.278307
O O17 0.759575 0.261421 0.230536
O O18 0.288005 0.480459 0.500000
O O19 0.270180 0.406643 0.251153
O O20 0.750835 0.164241 0.000000
#
# Coordination Sequence:
#
# PCOD8226746 Si02
#       8
#     8   8   8   8   8   8   8   8
#     4  11  23  41  63  88 114 148 197 249 293 343
#     4   8  17  34  59  84 115 150 187 235 291 341
#     4  11  24  39  58  85 118 154 191 237 296 352
#     4   9  18  36  58  86 115 149 193 238 283 339
#     4  10  23  43  61  82 118 157 191 237 296 351
#     4  10  23  40  61  89 121 156 197 245 298 350
#     4  10  20  39  63  89 119 157 198 246 300 350
#     4  11  24  40  61  89 121 160 201 242 293 356
#
# _framework density 19.515505000000001
#
# number of rings (size 3 to 8) (size 9 to 14) (size 15 to 20)
#    0.000    2.000    1.250    2.250    3.500    4.500 
#    0.000    1.875    0.000    0.000    0.000    0.000 
#    0.000    0.000    0.000    0.000    0.000    0.000 
#
# Total GULP energy -793763.959539 kJ/mol
# GULP energy per Si atom -12402.561868 kJ/mol
# Density = 1.947109 g / cm^3
# Si number density = 19.515505 Si / 1000 Ang^3
#
#
#
# Elastic Constant Matrix: (Units=GPa)
#
#
# Indices 1 2 3 4 5 6 
#
# 1 87.6050 7.0111 30.2035 0.0000 0.0000 0.0000
# 2 7.0111 83.8598 37.6594 0.0000 0.0000 0.0000
# 3 30.2035 37.6594 65.7475 0.0000 0.0000 0.0000
# 4 0.0000 0.0000 0.0000 -522.9359 0.0000 0.0000
# 5 0.0000 0.0000 0.0000 0.0000 26.6115 0.0000
# 6 0.0000 0.0000 0.0000 0.0000 0.0000 27.1207
#
#
#
# Elastic Compliance Matrix: (Units=1/GPa)
#
#
# Indices 1 2 3 4 5 6 
#
# 1 0.013883 0.002293 -0.007691 0.000000 0.000000 0.000000
# 2 0.002293 0.016433 -0.010466 0.000000 0.000000 0.000000
# 3 -0.007691 -0.010466 0.024738 0.000000 0.000000 0.000000
# 4 0.000000 0.000000 0.000000 -0.001912 0.000000 0.000000
# 5 0.000000 0.000000 0.000000 0.000000 0.037578 0.000000
# 6 0.000000 0.000000 0.000000 0.000000 0.000000 0.036872
#
#
# Mechanical properties :
#
#
# Convention : Reuss Voigt Hill
#
# Bulk Modulus (GPa) = 42.87120 42.99557 42.93339
# Shear Modulus (GPa) = 29.92307 -83.01821 -26.54757
#
# Velocity S-wave (km/s) = 3.91998 -6.52932 -3.69227
# Velocity P-wave (km/s) = 6.51949 5.89604 1.96730
#
# Compressibility (1/GPa) = 0.02332568
#
# Stress axis : x y z
#
# Youngs Moduli (GPa) = 72.03035 60.85297 40.42386
#
# Poissons Ratio (x) = -0.13955 0.31091
# Poissons Ratio (y) = -0.16518 0.42308
# Poissons Ratio (z) = 0.55400 0.63690
#
# Static dielectric constant tensor:
#      x y z
#    x 3.990160 0.000000 0.000000 
#    y 0.000000 3.502080 0.000000 
#    z 0.000000 0.000000 3.403710 
# 
# 
# High freq. dielectric constant tensor:
#      x y z
#    x 1.775920 0.000000 0.000000 
#    y 0.000000 1.762660 0.000000 
#    z 0.000000 0.000000 1.744700 
# 
# From -- ./inp_files/9642.got.cif
#   From: 2010.03.12/outbox.cif.g09.slc.cpg/sg55_5_cif.got.tgz:9642.got - 2010.04.16 15:19:21.
