data_PCOD8226033
_publ_section_title
;
Structure prediction by ZEFSAII (Michael W. Deem and Ramdas Pophale) SiO2 
 PCOD8226033
Probable space group: P B A M
;
_chemical_formula_sum "Si O2"
_cell_formula_units_Z 40
_cell_length_a 28.955998
_cell_length_b 7.814788
_cell_length_c 8.797426
_cell_angle_alpha 90.000000
_cell_angle_beta 90.000000
_cell_angle_gamma 90.000000
_cell_volume 1990.725417
_symmetry_space_group_name_H-M "P B A M"
_symmetry_group_IT_number 55
_symmetry_cell_setting 'orthorhombic'
loop_
_space_group_symop_operation_xyz
x,y,z
-x,-y,z
1/2+x,1/2-y,-z
1/2-x,1/2+y,-z
-x,-y,-z
x,y,-z
1/2-x,1/2+y,z
1/2+x,1/2-y,z
loop_
_atom_site_type_symbol
_atom_site_label
_atom_site_fract_x
_atom_site_fract_y
_atom_site_fract_z
Si Si1 0.705957 0.311009 0.328109
Si Si2 0.288804 0.352949 0.828639
Si Si3 0.609967 0.710511 0.826413
Si Si4 0.446905 0.968224 0.177796
Si Si5 0.396829 0.658357 0.677209
O O1 0.720331 0.261754 0.500000
O O2 0.741811 0.247323 0.202325
O O3 0.707004 0.513612 0.307766
O O4 0.653503 0.255465 0.291284
O O5 0.335488 0.240126 0.815001
O O6 0.285986 0.430465 0.000000
O O7 0.597993 0.530595 0.747298
O O8 0.581924 0.870195 0.754648
O O9 0.594499 0.686400 0.000000
O O10 0.433734 0.789108 0.254877
O O11 0.500000 0.000000 0.214866
O O12 0.436909 0.949347 0.000000
O O13 0.405720 0.637004 0.500000
#
# Coordination Sequence:
#
# PCOD8226033 Si02
#       5
#     8   8   8   8   8
#     4  10  21  36  53  80 115 153 190 231 290 351
#     4  10  20  34  54  82 111 148 194 238 282 338
#     4   9  20  39  60  84 115 153 195 240 290 346
#     4  10  22  40  63  89 116 152 198 247 299 352
#     4  10  22  39  59  85 118 156 193 239 296 350
#
# _framework density 20.093178000000002
#
# number of rings (size 3 to 8) (size 9 to 14) (size 15 to 20)
#    0.000    2.200    0.000    1.800    2.800    5.200 
#    0.000    4.000    0.000    0.000    0.000    0.000 
#    0.000    0.000    0.000    0.000    0.000    0.000 
#
# Total GULP energy -495725.602820 kJ/mol
# GULP energy per Si atom -12393.140071 kJ/mol
# Density = 2.004744 g / cm^3
# Si number density = 20.093178 Si / 1000 Ang^3
#
#
#
# Elastic Constant Matrix: (Units=GPa)
#
#
# Indices 1 2 3 4 5 6 
#
# 1 70.0165 18.9836 28.1677 0.0000 0.0000 0.0000
# 2 18.9836 65.6837 19.0909 0.0000 0.0000 0.0000
# 3 28.1677 19.0909 58.6972 0.0000 0.0000 0.0000
# 4 0.0000 0.0000 0.0000 22.7955 0.0000 0.0000
# 5 0.0000 0.0000 0.0000 0.0000 23.7710 0.0000
# 6 0.0000 0.0000 0.0000 0.0000 0.0000 35.7586
#
#
#
# Elastic Compliance Matrix: (Units=1/GPa)
#
#
# Indices 1 2 3 4 5 6 
#
# 1 0.018222 -0.003009 -0.007766 0.000000 0.000000 0.000000
# 2 -0.003009 0.017311 -0.004186 0.000000 0.000000 0.000000
# 3 -0.007766 -0.004186 0.022125 0.000000 0.000000 0.000000
# 4 0.000000 0.000000 0.000000 0.043868 0.000000 0.000000
# 5 0.000000 0.000000 0.000000 0.000000 0.042068 0.000000
# 6 0.000000 0.000000 0.000000 0.000000 0.000000 0.027965
#
#
# Mechanical properties :
#
#
# Convention : Reuss Voigt Hill
#
# Bulk Modulus (GPa) = 36.05493 36.32018 36.18755
# Shear Modulus (GPa) = 23.72731 25.00871 24.36801
#
# Velocity S-wave (km/s) = 3.44010 3.53177 3.48623
# Velocity P-wave (km/s) = 5.81050 5.89460 5.85270
#
# Compressibility (1/GPa) = 0.02773546
#
# Stress axis : x y z
#
# Youngs Moduli (GPa) = 54.87721 57.76699 45.19827
#
# Poissons Ratio (x) = 0.17385 0.35100
# Poissons Ratio (y) = 0.16515 0.18920
# Poissons Ratio (z) = 0.42617 0.24182
#
# Static dielectric constant tensor:
#      x y z
#    x 3.913160 0.000000 0.000000 
#    y 0.000000 3.531770 0.000000 
#    z 0.000000 0.000000 3.496970 
# 
# 
# High freq. dielectric constant tensor:
#      x y z
#    x 1.788330 0.000000 0.000000 
#    y 0.000000 1.772610 0.000000 
#    z 0.000000 0.000000 1.781970 
# 
# From -- ./inp_files/2308.got.cif
#   From: 2010.03.12/outbox.cif.g09.slc.cpg/sg55_2_cif.got.tgz:2308.got - 2010.04.16 15:19:21.
