data_PCOD8226230
_publ_section_title
;
Structure prediction by ZEFSAII (Michael W. Deem and Ramdas Pophale) SiO2 
 PCOD8226230
Probable space group: P B A M
;
_chemical_formula_sum "Si O2"
_cell_formula_units_Z 48
_cell_length_a 24.660734
_cell_length_b 11.596970
_cell_length_c 7.697991
_cell_angle_alpha 90.000000
_cell_angle_beta 90.000000
_cell_angle_gamma 90.000000
_cell_volume 2201.546848
_symmetry_space_group_name_H-M "P B A M"
_symmetry_group_IT_number 55
_symmetry_cell_setting 'orthorhombic'
loop_
_space_group_symop_operation_xyz
x,y,z
-x,-y,z
1/2+x,1/2-y,-z
1/2-x,1/2+y,-z
-x,-y,-z
x,y,-z
1/2-x,1/2+y,z
1/2+x,1/2-y,z
loop_
_atom_site_type_symbol
_atom_site_label
_atom_site_fract_x
_atom_site_fract_y
_atom_site_fract_z
Si Si1 0.278604 0.536425 0.500000
Si Si2 0.624968 0.154472 0.802753
Si Si3 0.043311 0.153344 0.199921
Si Si4 0.071819 0.800640 0.696458
Si Si5 0.793082 0.698302 0.500000
Si Si6 0.639617 0.504837 0.196243
Si Si7 0.056508 0.547261 0.293485
O O1 0.236804 0.427398 0.500000
O O2 0.260042 0.675500 0.500000
O O3 0.310695 0.517660 0.322248
O O4 0.568242 0.220188 0.768209
O O5 0.670920 0.200630 0.673940
O O6 0.609394 0.022089 0.770626
O O7 0.645792 0.174619 0.000000
O O8 0.986782 0.136481 0.298928
O O9 0.088413 0.065503 0.270921
O O10 0.031357 0.127285 0.000000
O O11 0.092462 0.794650 0.500000
O O12 0.119427 0.863141 0.803576
O O13 0.064881 0.675126 0.780482
O O14 0.656020 0.467888 0.000000
O O15 0.054203 0.546383 0.500000
O O16 0.000000 0.500000 0.215574
#
# Coordination Sequence:
#
# PCOD8226230 Si02
#       7
#     4   8   8   8   4   8   8
#     4  12  28  50  76 101 126 175 218 288 359 408
#     4  11  23  41  69  98 130 179 223 266 331 398
#     4  10  21  36  60  95 133 176 221 260 312 390
#     4  11  22  33  60 100 141 184 226 267 321 385
#     4  12  28  50  76 100 134 161 228 295 349 410
#     4  11  24  44  67  96 134 175 222 272 332 405
#     4  10  20  35  57  91 138 184 223 266 316 385
#
# _framework density 21.802851
#
# number of rings (size 3 to 8) (size 9 to 14) (size 15 to 20)
#    0.000    1.167    5.000    1.000    2.333    5.667 
#    0.000    0.000    0.000    0.000    0.000    0.000 
#    0.000    0.000    0.000    0.000    0.000    0.000 
#
# Total GULP energy -594832.900325 kJ/mol
# GULP energy per Si atom -12392.352090 kJ/mol
# Density = 2.175323 g / cm^3
# Si number density = 21.802851 Si / 1000 Ang^3
#
#
#
# Elastic Constant Matrix: (Units=GPa)
#
#
# Indices 1 2 3 4 5 6 
#
# 1 48.6790 28.1308 22.5793 0.0000 0.0000 0.0000
# 2 28.1308 111.8800 12.6558 0.0000 0.0000 0.0000
# 3 22.5793 12.6558 82.1465 0.0000 0.0000 0.0000
# 4 0.0000 0.0000 0.0000 20.1320 0.0000 0.0000
# 5 0.0000 0.0000 0.0000 0.0000 10.5395 0.0000
# 6 0.0000 0.0000 0.0000 0.0000 0.0000 37.3293
#
#
#
# Elastic Compliance Matrix: (Units=1/GPa)
#
#
# Indices 1 2 3 4 5 6 
#
# 1 0.027068 -0.006070 -0.006505 0.000000 0.000000 0.000000
# 2 -0.006070 0.010458 0.000057 0.000000 0.000000 0.000000
# 3 -0.006505 0.000057 0.013953 0.000000 0.000000 0.000000
# 4 0.000000 0.000000 0.000000 0.049672 0.000000 0.000000
# 5 0.000000 0.000000 0.000000 0.000000 0.094881 0.000000
# 6 0.000000 0.000000 0.000000 0.000000 0.000000 0.026789
#
#
# Mechanical properties :
#
#
# Convention : Reuss Voigt Hill
#
# Bulk Modulus (GPa) = 37.81728 41.04862 39.43295
# Shear Modulus (GPa) = 19.48033 25.55613 22.51823
#
# Velocity S-wave (km/s) = 2.99235 3.42738 3.21722
# Velocity P-wave (km/s) = 5.41495 5.87627 5.65032
#
# Compressibility (1/GPa) = 0.02644294
#
# Stress axis : x y z
#
# Youngs Moduli (GPa) = 36.94438 95.62149 71.67171
#
# Poissons Ratio (x) = 0.58042 0.46621
# Poissons Ratio (y) = 0.22425 -0.00410
# Poissons Ratio (z) = 0.24032 -0.00547
#
# Static dielectric constant tensor:
#      x y z
#    x 3.551970 0.000000 0.000000 
#    y 0.000000 4.478240 0.000000 
#    z 0.000000 0.000000 3.751940 
# 
# 
# High freq. dielectric constant tensor:
#      x y z
#    x 1.811090 0.000000 0.000000 
#    y 0.000000 1.879850 0.000000 
#    z 0.000000 0.000000 1.855770 
# 
# From -- ./inp_files/9481.got.cif
#   From: 2010.03.12/outbox.cif.g09.slc.cpg/sg55_5_cif.got.tgz:9481.got - 2010.04.16 15:19:21.
