data_PCOD8226867
_publ_section_title
;
Structure prediction by ZEFSAII (Michael W. Deem and Ramdas Pophale) SiO2 
 PCOD8226867
Probable space group: P B A M
;
_chemical_formula_sum "Si O2"
_cell_formula_units_Z 56
_cell_length_a 24.044654
_cell_length_b 13.252482
_cell_length_c 9.562372
_cell_angle_alpha 90.000000
_cell_angle_beta 90.000000
_cell_angle_gamma 90.000000
_cell_volume 3047.062693
_symmetry_space_group_name_H-M "P B A M"
_symmetry_group_IT_number 55
_symmetry_cell_setting 'orthorhombic'
loop_
_space_group_symop_operation_xyz
x,y,z
-x,-y,z
1/2+x,1/2-y,-z
1/2-x,1/2+y,-z
-x,-y,-z
x,y,-z
1/2-x,1/2+y,z
1/2+x,1/2-y,z
loop_
_atom_site_type_symbol
_atom_site_label
_atom_site_fract_x
_atom_site_fract_y
_atom_site_fract_z
Si Si1 0.052898 0.218220 0.834307
Si Si2 0.159088 0.525051 0.340155
Si Si3 0.942114 0.552769 0.834890
Si Si4 0.157285 0.753242 0.658383
Si Si5 0.724247 0.554112 0.337441
Si Si6 0.066210 0.846582 0.837954
Si Si7 0.867760 0.953820 0.837493
O O1 0.057839 0.332310 0.778752
O O2 0.105413 0.151390 0.784229
O O3 0.996108 0.167005 0.779437
O O4 0.051327 0.217626 0.000000
O O5 0.141373 0.502793 0.500000
O O6 0.107276 0.505654 0.240615
O O7 0.179682 0.640303 0.322932
O O8 0.211273 0.456162 0.294358
O O9 0.000000 0.500000 0.794247
O O10 0.931695 0.547314 0.000000
O O11 0.137735 0.773908 0.500000
O O12 0.206319 0.831461 0.698849
O O13 0.104575 0.767559 0.757281
O O14 0.716332 0.527451 0.500000
O O15 0.687360 0.474766 0.250961
O O16 0.085760 0.960597 0.811324
O O17 0.069885 0.816872 0.000000
O O18 0.850873 0.949469 0.000000
#
# Coordination Sequence:
#
# PCOD8226867 Si02
#       7
#     8   8   8   8   8   8   8
#     4   9  17  30  49  74 104 133 160 199 249 291
#     4  10  21  36  54  74  97 129 166 202 243 292
#     4  10  21  36  53  74 101 131 163 201 245 292
#     4   9  18  33  51  71  98 130 163 203 247 288
#     4   9  19  35  52  72 100 131 163 201 245 291
#     4   9  16  29  51  75  99 131 168 199 235 290
#     4   9  17  30  50  76 102 129 164 203 241 286
#
# _framework density 18.378354000000002
#
# number of rings (size 3 to 8) (size 9 to 14) (size 15 to 20)
#    0.000    2.714    0.000    1.286    0.000    5.429 
#    0.000    3.571    0.000    3.429    0.000    0.000 
#    0.000    0.000    0.000    0.000    0.000    0.000 
#
# Total GULP energy -694381.243817 kJ/mol
# GULP energy per Si atom -12399.665068 kJ/mol
# Density = 1.833652 g / cm^3
# Si number density = 18.378354 Si / 1000 Ang^3
#
#
#
# Elastic Constant Matrix: (Units=GPa)
#
#
# Indices 1 2 3 4 5 6 
#
# 1 130.9530 54.0557 49.1265 0.0000 0.0000 0.0000
# 2 54.0557 97.8696 30.6023 0.0000 0.0000 0.0000
# 3 49.1265 30.6023 46.8518 0.0000 0.0000 0.0000
# 4 0.0000 0.0000 0.0000 16.7665 0.0000 0.0000
# 5 0.0000 0.0000 0.0000 0.0000 25.3839 0.0000
# 6 0.0000 0.0000 0.0000 0.0000 0.0000 25.7793
#
#
#
# Elastic Compliance Matrix: (Units=1/GPa)
#
#
# Indices 1 2 3 4 5 6 
#
# 1 0.013653 -0.003851 -0.011800 0.000000 0.000000 0.000000
# 2 -0.003851 0.013926 -0.005058 0.000000 0.000000 0.000000
# 3 -0.011800 -0.005058 0.037021 0.000000 0.000000 0.000000
# 4 0.000000 0.000000 0.000000 0.059643 0.000000 0.000000
# 5 0.000000 0.000000 0.000000 0.000000 0.039395 0.000000
# 6 0.000000 0.000000 0.000000 0.000000 0.000000 0.038791
#
#
# Mechanical properties :
#
#
# Convention : Reuss Voigt Hill
#
# Bulk Modulus (GPa) = 43.13888 60.36036 51.74962
# Shear Modulus (GPa) = 19.87480 23.04528 21.46004
#
# Velocity S-wave (km/s) = 3.29207 3.54494 3.42084
# Velocity P-wave (km/s) = 6.16230 7.04769 6.61981
#
# Compressibility (1/GPa) = 0.02318095
#
# Stress axis : x y z
#
# Youngs Moduli (GPa) = 73.24508 71.80648 27.01170
#
# Poissons Ratio (x) = 0.27653 0.31875
# Poissons Ratio (y) = 0.28207 0.13663
# Poissons Ratio (z) = 0.86431 0.36322
#
# Static dielectric constant tensor:
#      x y z
#    x 3.329200 0.000000 0.000000 
#    y 0.000000 3.564720 0.000000 
#    z 0.000000 0.000000 3.217880 
# 
# 
# High freq. dielectric constant tensor:
#      x y z
#    x 1.708000 0.000000 0.000000 
#    y 0.000000 1.719160 0.000000 
#    z 0.000000 0.000000 1.691340 
# 
# From -- ./inp_files/6014.got.cif
#   From: 2010.03.12/outbox.cif.g09.slc.cpg/sg55_4_cif.got.tgz:6014.got - 2010.04.16 15:19:21.
