data_PCOD8226662
_publ_section_title
;
Structure prediction by ZEFSAII (Michael W. Deem and Ramdas Pophale) SiO2 
 PCOD8226662
Probable space group: P B A M
;
_chemical_formula_sum "Si O2"
_cell_formula_units_Z 64
_cell_length_a 29.071449
_cell_length_b 12.367192
_cell_length_c 9.209753
_cell_angle_alpha 90.000000
_cell_angle_beta 90.000000
_cell_angle_gamma 90.000000
_cell_volume 3311.202679
_symmetry_space_group_name_H-M "P B A M"
_symmetry_group_IT_number 55
_symmetry_cell_setting 'orthorhombic'
loop_
_space_group_symop_operation_xyz
x,y,z
-x,-y,z
1/2+x,1/2-y,-z
1/2-x,1/2+y,-z
-x,-y,-z
x,y,-z
1/2-x,1/2+y,z
1/2+x,1/2-y,z
loop_
_atom_site_type_symbol
_atom_site_label
_atom_site_fract_x
_atom_site_fract_y
_atom_site_fract_z
Si Si1 0.258372 0.088824 0.842517
Si Si2 0.824006 0.208529 0.164026
Si Si3 0.180256 0.244599 0.837692
Si Si4 0.575893 0.225654 0.169644
Si Si5 0.003394 0.125952 0.330637
Si Si6 0.554054 0.007643 0.332808
Si Si7 0.585496 0.769411 0.330787
Si Si8 0.745505 0.106647 0.667984
O O1 0.295017 0.183070 0.831835
O O2 0.205895 0.129899 0.829595
O O3 0.270365 0.013942 0.706420
O O4 0.264145 0.030577 0.000000
O O5 0.872511 0.223938 0.239905
O O6 0.793727 0.120689 0.248547
O O7 0.832485 0.168656 0.000000
O O8 0.126906 0.229139 0.802046
O O9 0.203667 0.319349 0.718007
O O10 0.186653 0.294513 0.000000
O O11 0.543024 0.313314 0.242839
O O12 0.573088 0.105419 0.236286
O O13 0.563857 0.217378 0.000000
O O14 0.015941 0.133403 0.500000
O O15 0.956558 0.189392 0.296662
O O16 0.000000 0.000000 0.282001
O O17 0.566545 0.031726 0.500000
O O18 0.574925 0.892660 0.281766
O O19 0.500000 0.000000 0.311550
O O20 0.597851 0.766978 0.500000
O O21 0.754168 0.124125 0.500000
#
# Coordination Sequence:
#
# PCOD8226662 Si02
#       8
#     8   8   8   8   8   8   8   8
#     4   9  19  38  59  78 110 152 190 229 282 340
#     4  10  22  39  59  83 115 154 192 234 287 346
#     4   9  21  40  58  82 116 153 190 233 287 343
#     4  11  23  38  60  90 121 152 197 246 292 352
#     4  10  22  42  64  85 116 158 199 241 294 351
#     4  10  20  38  61  85 120 159 193 239 298 350
#     4  10  21  38  60  88 120 152 195 246 294 348
#     4  11  22  36  58  86 115 148 191 239 285 336
#
# _framework density 19.328325
#
# number of rings (size 3 to 8) (size 9 to 14) (size 15 to 20)
#    0.000    2.000    1.250    2.625    1.750    6.000 
#    0.000    2.500    0.000    0.000    0.000    0.000 
#    0.000    0.000    0.000    0.000    0.000    0.000 
#
# Total GULP energy -793460.626199 kJ/mol
# GULP energy per Si atom -12397.822284 kJ/mol
# Density = 1.928433 g / cm^3
# Si number density = 19.328325 Si / 1000 Ang^3
#
#
#
# Elastic Constant Matrix: (Units=GPa)
#
#
# Indices 1 2 3 4 5 6 
#
# 1 100.8191 22.7659 53.8809 0.0000 0.0000 0.0000
# 2 22.7659 85.9256 43.6799 0.0000 0.0000 0.0000
# 3 53.8809 43.6799 108.4464 0.0000 0.0000 0.0000
# 4 0.0000 0.0000 0.0000 9.4793 0.0000 0.0000
# 5 0.0000 0.0000 0.0000 0.0000 32.6093 0.0000
# 6 0.0000 0.0000 0.0000 0.0000 0.0000 5.7784
#
#
#
# Elastic Compliance Matrix: (Units=1/GPa)
#
#
# Indices 1 2 3 4 5 6 
#
# 1 0.013508 -0.000210 -0.006626 0.000000 0.000000 0.000000
# 2 -0.000210 0.014638 -0.005791 0.000000 0.000000 0.000000
# 3 -0.006626 -0.005791 0.014846 0.000000 0.000000 0.000000
# 4 0.000000 0.000000 0.000000 0.105493 0.000000 0.000000
# 5 0.000000 0.000000 0.000000 0.000000 0.030666 0.000000
# 6 0.000000 0.000000 0.000000 0.000000 0.000000 0.173057
#
#
# Mechanical properties :
#
#
# Convention : Reuss Voigt Hill
#
# Bulk Modulus (GPa) = 56.38473 59.53827 57.96150
# Shear Modulus (GPa) = 13.04207 21.23105 17.13656
#
# Velocity S-wave (km/s) = 2.60044 3.31787 2.98082
# Velocity P-wave (km/s) = 6.18480 6.74894 6.47302
#
# Compressibility (1/GPa) = 0.01773530
#
# Stress axis : x y z
#
# Youngs Moduli (GPa) = 74.03221 68.31704 67.35797
#
# Poissons Ratio (x) = 0.01437 0.44635
# Poissons Ratio (y) = 0.01557 0.39009
# Poissons Ratio (z) = 0.49057 0.39564
#
# Static dielectric constant tensor:
#      x y z
#    x 3.632410 0.000000 0.000000 
#    y 0.000000 3.687130 0.000000 
#    z 0.000000 0.000000 3.555900 
# 
# 
# High freq. dielectric constant tensor:
#      x y z
#    x 1.756850 0.000000 0.000000 
#    y 0.000000 1.751990 0.000000 
#    z 0.000000 0.000000 1.752360 
# 
# From -- ./inp_files/10759.got.cif
#   From: 2010.03.12/outbox.cif.g09.slc.cpg/sg55_6_cif.got.tgz:10759.got - 2010.04.16 15:19:21.
