data_PCOD8226585
_publ_section_title
;
Structure prediction by ZEFSAII (Michael W. Deem and Ramdas Pophale) SiO2 
 PCOD8226585
Probable space group: P B A M
;
_chemical_formula_sum "Si O2"
_cell_formula_units_Z 64
_cell_length_a 16.617094
_cell_length_b 22.261490
_cell_length_c 9.012046
_cell_angle_alpha 90.000000
_cell_angle_beta 90.000000
_cell_angle_gamma 90.000000
_cell_volume 3333.747519
_symmetry_space_group_name_H-M "P B A M"
_symmetry_group_IT_number 55
_symmetry_cell_setting 'orthorhombic'
loop_
_space_group_symop_operation_xyz
x,y,z
-x,-y,z
1/2+x,1/2-y,-z
1/2-x,1/2+y,-z
-x,-y,-z
x,y,-z
1/2-x,1/2+y,z
1/2+x,1/2-y,z
loop_
_atom_site_type_symbol
_atom_site_label
_atom_site_fract_x
_atom_site_fract_y
_atom_site_fract_z
Si Si1 0.857781 0.361789 0.326816
Si Si2 0.092958 0.000000 0.175233
Si Si3 0.175221 0.112553 0.325875
Si Si4 0.590435 0.267701 0.675890
Si Si5 0.642219 0.138211 0.326817
Si Si6 0.175220 0.887448 0.325875
Si Si7 0.500000 0.930973 0.174371
Si Si8 0.409566 0.267701 0.324110
O O1 0.879079 0.366076 0.500000
O O2 0.769772 0.387001 0.292351
O O3 0.863834 0.292635 0.273013
O O4 0.920079 0.401706 0.238275
O O5 0.135283 0.058472 0.239183
O O6 0.135284 0.941529 0.239181
O O7 0.102822 0.000001 0.000000
O O8 0.000000 0.000000 0.223848
O O9 0.158027 0.104589 0.500000
O O10 0.137637 0.174412 0.263373
O O11 0.588506 0.270862 0.500000
O O12 0.636166 0.207364 0.726987
O O13 0.500000 0.267397 0.740790
O O14 0.620919 0.133924 0.500000
O O15 0.730228 0.112999 0.292356
O O16 0.579923 0.098293 0.238273
O O17 0.158023 0.895412 0.500000
O O18 0.137637 0.825588 0.263373
O O19 0.500000 0.000000 0.221566
O O20 0.500000 0.921943 0.000000
O O21 0.411495 0.270863 0.500000
#
# Coordination Sequence:
#
# PCOD8226585 Si02
#       8
#     8   8   8   8   8   8   8   8
#     4  10  20  37  61  90 119 148 189 242 296 346
#     4  11  25  43  59  80 117 162 199 235 284 341
#     4  10  21  36  61  92 117 147 192 244 293 345
#     4   9  16  31  58  90 120 148 181 233 295 344
#     4  10  20  37  61  90 119 148 189 242 296 346
#     4  10  21  36  61  92 117 147 192 244 293 345
#     4  11  25  41  57  81 117 162 201 236 283 341
#     4   9  16  31  58  90 120 148 181 233 295 344
#
# _framework density 19.197614000000002
#
# number of rings (size 3 to 8) (size 9 to 14) (size 15 to 20)
#    0.000    2.000    1.250    2.250    1.750    7.000 
#    0.000    1.250    0.000    3.000    0.000    0.000 
#    0.000    0.000    0.000    0.000    0.000    0.000 
#
# Total GULP energy -793733.078631 kJ/mol
# GULP energy per Si atom -12402.079354 kJ/mol
# Density = 1.915392 g / cm^3
# Si number density = 19.197614 Si / 1000 Ang^3
#
#
#
# Elastic Constant Matrix: (Units=GPa)
#
#
# Indices 1 2 3 4 5 6 
#
# 1 129.2767 92.2467 45.0308 0.0000 0.0000 0.0000
# 2 92.2467 195.2934 61.6412 0.0000 0.0000 0.0000
# 3 45.0308 61.6412 44.2243 0.0000 0.0000 0.0000
# 4 0.0000 0.0000 0.0000 -20.2345 0.0000 0.0000
# 5 0.0000 0.0000 0.0000 0.0000 18.7065 0.0000
# 6 0.0000 0.0000 0.0000 0.0000 0.0000 27.7254
#
#
#
# Elastic Compliance Matrix: (Units=1/GPa)
#
#
# Indices 1 2 3 4 5 6 
#
# 1 0.013249 -0.003571 -0.008513 0.000000 0.000000 0.000000
# 2 -0.003571 0.010105 -0.010449 0.000000 0.000000 0.000000
# 3 -0.008513 -0.010449 0.045844 0.000000 0.000000 0.000000
# 4 0.000000 0.000000 0.000000 -0.049421 0.000000 0.000000
# 5 0.000000 0.000000 0.000000 0.000000 0.053457 0.000000
# 6 0.000000 0.000000 0.000000 0.000000 0.000000 0.036068
#
#
# Mechanical properties :
#
#
# Convention : Reuss Voigt Hill
#
# Bulk Modulus (GPa) = 41.43799 85.18131 63.30965
# Shear Modulus (GPa) = 30.78574 16.56455 23.67514
#
# Velocity S-wave (km/s) = 4.00887 2.94061 3.51555
# Velocity P-wave (km/s) = 6.56200 7.48309 7.03763
#
# Compressibility (1/GPa) = 0.02413244
#
# Stress axis : x y z
#
# Youngs Moduli (GPa) = 75.47818 98.95771 21.81307
#
# Poissons Ratio (x) = 0.35339 0.18569
# Poissons Ratio (y) = 0.26954 0.22792
# Poissons Ratio (z) = 0.64254 1.03399
#
# Static dielectric constant tensor:
#      x y z
#    x 3.692090 0.000000 0.000000 
#    y 0.000000 3.776190 0.000000 
#    z 0.000000 0.000000 3.180880 
# 
# 
# High freq. dielectric constant tensor:
#      x y z
#    x 1.764300 0.000000 0.000000 
#    y 0.000000 1.765200 0.000000 
#    z 0.000000 0.000000 1.709610 
# 
# From -- ./inp_files/6512.got.cif
#   From: 2010.03.12/outbox.cif.g09.slc.cpg/sg55_4_cif.got.tgz:6512.got - 2010.04.16 15:19:21.
