data_PCOD8226745
_publ_section_title
;
Structure prediction by ZEFSAII (Michael W. Deem and Ramdas Pophale) SiO2 
 PCOD8226745
Probable space group: P B A M
;
_chemical_formula_sum "Si O2"
_cell_formula_units_Z 48
_cell_length_a 18.475100
_cell_length_b 15.142441
_cell_length_c 8.410039
_cell_angle_alpha 90.000000
_cell_angle_beta 90.000000
_cell_angle_gamma 90.000000
_cell_volume 2352.776630
_symmetry_space_group_name_H-M "P B A M"
_symmetry_group_IT_number 55
_symmetry_cell_setting 'orthorhombic'
loop_
_space_group_symop_operation_xyz
x,y,z
-x,-y,z
1/2+x,1/2-y,-z
1/2-x,1/2+y,-z
-x,-y,-z
x,y,-z
1/2-x,1/2+y,z
1/2+x,1/2-y,z
loop_
_atom_site_type_symbol
_atom_site_label
_atom_site_fract_x
_atom_site_fract_y
_atom_site_fract_z
Si Si1 0.924451 0.246381 0.184857
Si Si2 0.184998 0.890974 0.314647
Si Si3 0.651470 0.914721 0.312068
Si Si4 0.421939 0.736818 0.687495
Si Si5 0.840770 0.602246 0.184574
Si Si6 0.186138 0.089010 0.687765
O O1 0.861185 0.176143 0.210925
O O2 0.904099 0.340310 0.259279
O O3 0.996150 0.210802 0.271383
O O4 0.939422 0.258535 0.000000
O O5 0.168211 0.875272 0.500000
O O6 0.269778 0.873496 0.286428
O O7 0.165092 0.990057 0.257301
O O8 0.648699 0.928070 0.500000
O O9 0.732521 0.887843 0.255238
O O10 0.628556 0.006203 0.230111
O O11 0.411781 0.747216 0.500000
O O12 0.403051 0.828068 0.774010
O O13 0.370155 0.659677 0.758177
O O14 0.820964 0.605532 0.000000
O O15 0.183034 0.091939 0.500000
#
# Coordination Sequence:
#
# PCOD8226745 Si02
#       6
#     8   8   8   8   8   8
#     4  12  25  39  55  85 122 155 191 242 299 348
#     4  10  20  39  63  87 114 153 199 240 283 345
#     4  10  20  39  64  88 112 150 197 240 287 351
#     4  11  22  39  60  84 115 157 199 238 287 352
#     4  11  22  38  60  90 121 150 187 242 297 343
#     4   8  18  36  62  88 110 141 193 244 279 327
#
# _framework density 20.401427000000002
#
# number of rings (size 3 to 8) (size 9 to 14) (size 15 to 20)
#    0.000    1.667    0.000    6.500    0.000    2.667 
#    0.000   15.833    0.000    0.000    0.000    0.000 
#    0.000    0.000    0.000    0.000    0.000    0.000 
#
# Total GULP energy -595427.295036 kJ/mol
# GULP energy per Si atom -12404.735313 kJ/mol
# Density = 2.035499 g / cm^3
# Si number density = 20.401427 Si / 1000 Ang^3
#
#
#
# Elastic Constant Matrix: (Units=GPa)
#
#
# Indices 1 2 3 4 5 6 
#
# 1 56.2701 29.3659 12.7935 0.0000 0.0000 0.0000
# 2 29.3659 63.8040 16.3100 0.0000 0.0000 0.0000
# 3 12.7935 16.3100 71.7034 0.0000 0.0000 0.0000
# 4 0.0000 0.0000 0.0000 22.9166 0.0000 0.0000
# 5 0.0000 0.0000 0.0000 0.0000 27.0468 0.0000
# 6 0.0000 0.0000 0.0000 0.0000 0.0000 9.5359
#
#
#
# Elastic Compliance Matrix: (Units=1/GPa)
#
#
# Indices 1 2 3 4 5 6 
#
# 1 0.023618 -0.010398 -0.001849 0.000000 0.000000 0.000000
# 2 -0.010398 0.021218 -0.002971 0.000000 0.000000 0.000000
# 3 -0.001849 -0.002971 0.014952 0.000000 0.000000 0.000000
# 4 0.000000 0.000000 0.000000 0.043637 0.000000 0.000000
# 5 0.000000 0.000000 0.000000 0.000000 0.036973 0.000000
# 6 0.000000 0.000000 0.000000 0.000000 0.000000 0.104866
#
#
# Mechanical properties :
#
#
# Convention : Reuss Voigt Hill
#
# Bulk Modulus (GPa) = 34.06838 34.30181 34.18509
# Shear Modulus (GPa) = 17.51414 20.78707 19.15061
#
# Velocity S-wave (km/s) = 2.93316 3.19549 3.06713
# Velocity P-wave (km/s) = 5.31098 5.51949 5.41624
#
# Compressibility (1/GPa) = 0.02935273
#
# Stress axis : x y z
#
# Youngs Moduli (GPa) = 42.34058 47.12972 66.88038
#
# Poissons Ratio (x) = 0.49004 0.12365
# Poissons Ratio (y) = 0.44024 0.19872
# Poissons Ratio (z) = 0.07828 0.14003
#
# Static dielectric constant tensor:
#      x y z
#    x 3.807370 0.000000 0.000000 
#    y 0.000000 3.914050 0.000000 
#    z 0.000000 0.000000 3.522670 
# 
# 
# High freq. dielectric constant tensor:
#      x y z
#    x 1.790850 0.000000 0.000000 
#    y 0.000000 1.807790 0.000000 
#    z 0.000000 0.000000 1.790990 
# 
# From -- ./inp_files/5645.got.cif
#   From: 2010.03.12/outbox.cif.g09.slc.cpg/sg55_3_cif.got.tgz:5645.got - 2010.04.16 15:19:21.
