data_PCOD8226388
_publ_section_title
;
Structure prediction by ZEFSAII (Michael W. Deem and Ramdas Pophale) SiO2 
 PCOD8226388
Probable space group: P B A M
;
_chemical_formula_sum "Si O2"
_cell_formula_units_Z 64
_cell_length_a 10.925773
_cell_length_b 31.968374
_cell_length_c 9.424238
_cell_angle_alpha 90.000000
_cell_angle_beta 90.000000
_cell_angle_gamma 90.000000
_cell_volume 3291.690286
_symmetry_space_group_name_H-M "P B A M"
_symmetry_group_IT_number 55
_symmetry_cell_setting 'orthorhombic'
loop_
_space_group_symop_operation_xyz
x,y,z
-x,-y,z
1/2+x,1/2-y,-z
1/2-x,1/2+y,-z
-x,-y,-z
x,y,-z
1/2-x,1/2+y,z
1/2+x,1/2-y,z
loop_
_atom_site_type_symbol
_atom_site_label
_atom_site_fract_x
_atom_site_fract_y
_atom_site_fract_z
Si Si1 0.763551 0.680473 0.841038
Si Si2 0.402534 0.884261 0.668128
Si Si3 0.886230 0.530782 0.163519
Si Si4 0.719614 0.273178 0.833845
Si Si5 0.864975 0.981914 0.163449
Si Si6 0.868898 0.899594 0.337472
Si Si7 0.987235 0.836135 0.157149
Si Si8 0.646051 0.836903 0.661469
O O1 0.794422 0.643363 0.733600
O O2 0.806234 0.725748 0.782994
O O3 0.618852 0.683842 0.845958
O O4 0.815307 0.671369 0.000000
O O5 0.386609 0.888616 0.500000
O O6 0.403145 0.930003 0.734570
O O7 0.524369 0.859860 0.712883
O O8 0.749849 0.512639 0.193341
O O9 0.000000 0.500000 0.198429
O O10 0.894596 0.545043 0.000000
O O11 0.599845 0.298921 0.790465
O O12 0.833706 0.295298 0.754903
O O13 0.749887 0.273360 0.000000
O O14 0.840170 0.943156 0.264370
O O15 0.862947 0.967597 0.000000
O O16 0.000000 0.000000 0.200758
O O17 0.903920 0.907598 0.500000
O O18 0.981704 0.876196 0.260851
O O19 0.751473 0.870788 0.318041
O O20 0.947443 0.851435 0.000000
O O21 0.635843 0.821925 0.500000
#
# Coordination Sequence:
#
# PCOD8226388 Si02
#       8
#     8   8   8   8   8   8   8   8
#     4  10  22  37  57  83 115 151 190 240 289 336
#     4  11  24  39  58  86 120 155 191 233 289 346
#     4  10  22  41  64  89 116 151 196 242 292 351
#     4   9  19  35  59  86 109 145 195 240 282 333
#     4  10  22  38  58  84 115 149 185 233 291 344
#     4  10  20  36  59  84 111 146 190 231 275 337
#     4   9  19  36  56  81 114 148 185 234 289 337
#     4   9  20  38  57  82 116 152 187 230 281 336
#
# _framework density 19.442898
#
# number of rings (size 3 to 8) (size 9 to 14) (size 15 to 20)
#    0.000    2.250    0.000    1.500    3.500    3.500 
#    0.000    0.000    0.000    0.000    0.000    0.000 
#    0.000    0.000    0.000    0.000    0.000    0.000 
#
# Total GULP energy -793487.187195 kJ/mol
# GULP energy per Si atom -12398.237300 kJ/mol
# Density = 1.939864 g / cm^3
# Si number density = 19.442898 Si / 1000 Ang^3
#
#
#
# Elastic Constant Matrix: (Units=GPa)
#
#
# Indices 1 2 3 4 5 6 
#
# 1 88.7715 34.6812 28.8865 0.0000 0.0000 0.0000
# 2 34.6812 124.8781 70.7529 0.0000 0.0000 0.0000
# 3 28.8865 70.7529 92.0624 0.0000 0.0000 0.0000
# 4 0.0000 0.0000 0.0000 24.8393 0.0000 0.0000
# 5 0.0000 0.0000 0.0000 0.0000 23.5984 0.0000
# 6 0.0000 0.0000 0.0000 0.0000 0.0000 21.7784
#
#
#
# Elastic Compliance Matrix: (Units=1/GPa)
#
#
# Indices 1 2 3 4 5 6 
#
# 1 0.012904 -0.002284 -0.002293 0.000000 0.000000 0.000000
# 2 -0.002284 0.014588 -0.010495 0.000000 0.000000 0.000000
# 3 -0.002293 -0.010495 0.019647 0.000000 0.000000 0.000000
# 4 0.000000 0.000000 0.000000 0.040259 0.000000 0.000000
# 5 0.000000 0.000000 0.000000 0.000000 0.042376 0.000000
# 6 0.000000 0.000000 0.000000 0.000000 0.000000 0.045917
#
#
# Mechanical properties :
#
#
# Convention : Reuss Voigt Hill
#
# Bulk Modulus (GPa) = 58.84246 63.81700 61.32973
# Shear Modulus (GPa) = 23.64060 25.46930 24.55495
#
# Velocity S-wave (km/s) = 3.49076 3.62325 3.55762
# Velocity P-wave (km/s) = 6.82474 7.09916 6.96330
#
# Compressibility (1/GPa) = 0.01699453
#
# Stress axis : x y z
#
# Youngs Moduli (GPa) = 77.49827 68.54790 50.89741
#
# Poissons Ratio (x) = 0.15658 0.11672
# Poissons Ratio (y) = 0.17703 0.53416
# Poissons Ratio (z) = 0.17772 0.71940
#
# Static dielectric constant tensor:
#      x y z
#    x 3.638860 0.000000 0.000000 
#    y 0.000000 3.520210 0.000000 
#    z 0.000000 0.000000 3.600770 
# 
# 
# High freq. dielectric constant tensor:
#      x y z
#    x 1.759730 0.000000 0.000000 
#    y 0.000000 1.759870 0.000000 
#    z 0.000000 0.000000 1.754170 
# 
# From -- ./inp_files/4627.got.cif
#   From: 2010.03.12/outbox.cif.g09.slc.cpg/sg55_3_cif.got.tgz:4627.got - 2010.04.16 15:19:21.
