data_PCOD8226654
_publ_section_title
;
Structure prediction by ZEFSAII (Michael W. Deem and Ramdas Pophale) SiO2 
 PCOD8226654
Probable space group: P B A M
;
_chemical_formula_sum "Si O2"
_cell_formula_units_Z 64
_cell_length_a 10.917400
_cell_length_b 19.448473
_cell_length_c 14.686850
_cell_angle_alpha 90.000000
_cell_angle_beta 90.000000
_cell_angle_gamma 90.000000
_cell_volume 3118.411262
_symmetry_space_group_name_H-M "P B A M"
_symmetry_group_IT_number 55
_symmetry_cell_setting 'orthorhombic'
loop_
_space_group_symop_operation_xyz
x,y,z
-x,-y,z
1/2+x,1/2-y,-z
1/2-x,1/2+y,-z
-x,-y,-z
x,y,-z
1/2-x,1/2+y,z
1/2+x,1/2-y,z
loop_
_atom_site_type_symbol
_atom_site_label
_atom_site_fract_x
_atom_site_fract_y
_atom_site_fract_z
Si Si1 0.177018 0.014684 0.756815
Si Si2 0.363916 0.292586 0.606263
Si Si3 0.298160 0.104865 0.101243
Si Si4 0.525923 0.612857 0.250972
Si Si5 0.572302 0.136640 0.894615
Si Si6 0.918675 0.793563 0.102924
Si Si7 0.896739 0.556926 0.721554
Si Si8 0.415213 0.809218 0.605933
O O1 0.256669 0.040166 0.841252
O O2 0.104206 0.080324 0.714726
O O3 0.092000 0.952871 0.793173
O O4 0.274345 0.982184 0.685174
O O5 0.378563 0.309469 0.500000
O O6 0.397898 0.360415 0.662900
O O7 0.467054 0.236541 0.635873
O O8 0.219565 0.274120 0.627823
O O9 0.430097 0.131110 0.130550
O O10 0.211323 0.170345 0.111357
O O11 0.299948 0.075866 0.000000
O O12 0.512654 0.671372 0.173810
O O13 0.608430 0.214880 0.872177
O O14 0.638722 0.086978 0.822355
O O15 0.601751 0.117030 0.000000
O O16 0.973129 0.799462 0.000000
O O17 0.932963 0.618299 0.655015
O O18 0.000000 0.500000 0.727332
O O19 0.423352 0.824712 0.500000
#
# Coordination Sequence:
#
# PCOD8226654 Si02
#       8
#     8   8   8   8   8   8   8   8
#     4  10  21  36  54  84 117 155 197 239 292 353
#     4  10  21  42  69  94 122 156 198 250 304 360
#     4   9  18  35  55  77 113 156 200 251 297 350
#     4  10  20  38  60  83 118 154 197 246 290 355
#     4  10  21  36  55  82 115 154 199 245 299 358
#     4   9  19  35  55  82 113 150 197 250 301 349
#     4  12  23  38  59  87 121 158 199 244 302 359
#     4  10  23  43  67  95 123 155 200 251 304 364
#
# _framework density 20.52327
#
# number of rings (size 3 to 8) (size 9 to 14) (size 15 to 20)
#    0.000    2.000    2.500    0.750    0.000    3.500 
#    6.750    5.625    0.000    0.000    0.000    0.000 
#    0.000    0.000    0.000    0.000    0.000    0.000 
#
# Total GULP energy -792964.039047 kJ/mol
# GULP energy per Si atom -12390.063110 kJ/mol
# Density = 2.047656 g / cm^3
# Si number density = 20.523270 Si / 1000 Ang^3
#
#
#
# Elastic Constant Matrix: (Units=GPa)
#
#
# Indices 1 2 3 4 5 6 
#
# 1 65.2405 42.4592 18.6024 0.0000 0.0000 0.0000
# 2 42.4592 115.1123 39.7077 0.0000 0.0000 0.0000
# 3 18.6024 39.7077 51.9562 0.0000 0.0000 0.0000
# 4 0.0000 0.0000 0.0000 19.6832 0.0000 0.0000
# 5 0.0000 0.0000 0.0000 0.0000 21.6034 0.0000
# 6 0.0000 0.0000 0.0000 0.0000 0.0000 31.2427
#
#
#
# Elastic Compliance Matrix: (Units=1/GPa)
#
#
# Indices 1 2 3 4 5 6 
#
# 1 0.020337 -0.006776 -0.002103 0.000000 0.000000 0.000000
# 2 -0.006776 0.014055 -0.008315 0.000000 0.000000 0.000000
# 3 -0.002103 -0.008315 0.026355 0.000000 0.000000 0.000000
# 4 0.000000 0.000000 0.000000 0.050805 0.000000 0.000000
# 5 0.000000 0.000000 0.000000 0.000000 0.046289 0.000000
# 6 0.000000 0.000000 0.000000 0.000000 0.000000 0.032007
#
#
# Mechanical properties :
#
#
# Convention : Reuss Voigt Hill
#
# Bulk Modulus (GPa) = 37.93847 48.20527 43.07187
# Shear Modulus (GPa) = 21.45704 23.27517 22.36611
#
# Velocity S-wave (km/s) = 3.23692 3.37127 3.30478
# Velocity P-wave (km/s) = 5.70052 6.22038 5.96611
#
# Compressibility (1/GPa) = 0.02635847
#
# Stress axis : x y z
#
# Youngs Moduli (GPa) = 49.17036 71.14956 37.94342
#
# Poissons Ratio (x) = 0.48211 0.07979
# Poissons Ratio (y) = 0.33318 0.31552
# Poissons Ratio (z) = 0.10340 0.59164
#
# Static dielectric constant tensor:
#      x y z
#    x 4.084070 0.000000 0.000000 
#    y 0.000000 3.740110 0.000000 
#    z 0.000000 0.000000 3.591740 
# 
# 
# High freq. dielectric constant tensor:
#      x y z
#    x 1.814580 0.000000 0.000000 
#    y 0.000000 1.809970 0.000000 
#    z 0.000000 0.000000 1.779400 
# 
# From -- ./inp_files/18582.got.cif
#   From: 2010.03.12/outbox.cif.g09.slc.cpg/sg55_10_cif.got.tgz:18582.got - 2010.04.16 15:19:21.
