data_PCOD8226450
_publ_section_title
;
Structure prediction by ZEFSAII (Michael W. Deem and Ramdas Pophale) SiO2 
 PCOD8226450
Probable space group: P B A M
;
_chemical_formula_sum "Si O2"
_cell_formula_units_Z 48
_cell_length_a 14.896991
_cell_length_b 18.907667
_cell_length_c 8.608183
_cell_angle_alpha 90.000000
_cell_angle_beta 90.000000
_cell_angle_gamma 90.000000
_cell_volume 2424.644052
_symmetry_space_group_name_H-M "P B A M"
_symmetry_group_IT_number 55
_symmetry_cell_setting 'orthorhombic'
loop_
_space_group_symop_operation_xyz
x,y,z
-x,-y,z
1/2+x,1/2-y,-z
1/2-x,1/2+y,-z
-x,-y,-z
x,y,-z
1/2-x,1/2+y,z
1/2+x,1/2-y,z
loop_
_atom_site_type_symbol
_atom_site_label
_atom_site_fract_x
_atom_site_fract_y
_atom_site_fract_z
Si Si1 0.017160 0.793386 0.679384
Si Si2 0.443929 0.565477 0.183434
Si Si3 0.244290 0.582229 0.814973
Si Si4 0.304470 0.238668 0.820333
Si Si5 0.882100 0.685347 0.179625
Si Si6 0.095895 0.474546 0.815387
O O1 0.007966 0.812746 0.500000
O O2 0.992690 0.861630 0.779179
O O3 0.951634 0.729112 0.718961
O O4 0.118339 0.771757 0.716233
O O5 0.500000 0.500000 0.255194
O O6 0.342983 0.564590 0.252732
O O7 0.438702 0.557655 0.000000
O O8 0.215336 0.659920 0.758799
O O9 0.173766 0.525306 0.747977
O O10 0.247284 0.580737 0.000000
O O11 0.217527 0.286515 0.795951
O O12 0.334657 0.237619 0.000000
O O13 0.885062 0.604964 0.239756
O O14 0.911606 0.690991 0.000000
O O15 0.000000 0.500000 0.749275
O O16 0.096386 0.479564 0.000000
#
# Coordination Sequence:
#
# PCOD8226450 Si02
#       6
#     8   8   8   8   8   8
#     4  12  25  39  58  84 123 162 197 238 296 368
#     4  10  21  38  63  89 115 150 201 253 293 343
#     4   9  17  33  57  88 117 146 187 243 303 347
#     4  10  20  36  61  87 114 149 200 253 296 349
#     4  10  20  37  62  89 114 148 199 251 297 345
#     4   9  17  29  53  88 119 143 178 239 302 349
#
# _framework density 19.796721000000002
#
# number of rings (size 3 to 8) (size 9 to 14) (size 15 to 20)
#    0.000    2.000    1.667    2.500    2.333    3.667 
#    0.000    0.000    0.000    4.500    0.000    0.000 
#    0.000    0.000    0.000    0.000    0.000    0.000 
#
# Total GULP energy -595332.565932 kJ/mol
# GULP energy per Si atom -12402.761790 kJ/mol
# Density = 1.975166 g / cm^3
# Si number density = 19.796721 Si / 1000 Ang^3
#
#
#
# Elastic Constant Matrix: (Units=GPa)
#
#
# Indices 1 2 3 4 5 6 
#
# 1 146.6682 76.0658 11.9726 0.0000 0.0000 0.0000
# 2 76.0658 171.6430 -0.6950 0.0000 0.0000 0.0000
# 3 11.9726 -0.6950 15.1895 0.0000 0.0000 0.0000
# 4 0.0000 0.0000 0.0000 5.3441 0.0000 0.0000
# 5 0.0000 0.0000 0.0000 0.0000 -15.1237 0.0000
# 6 0.0000 0.0000 0.0000 0.0000 0.0000 43.7066
#
#
#
# Elastic Compliance Matrix: (Units=1/GPa)
#
#
# Indices 1 2 3 4 5 6 
#
# 1 0.009706 -0.004333 -0.007849 0.000000 0.000000 0.000000
# 2 -0.004333 0.007762 0.003771 0.000000 0.000000 0.000000
# 3 -0.007849 0.003771 0.072194 0.000000 0.000000 0.000000
# 4 0.000000 0.000000 0.000000 0.187121 0.000000 0.000000
# 5 0.000000 0.000000 0.000000 0.000000 -0.066121 0.000000
# 6 0.000000 0.000000 0.000000 0.000000 0.000000 0.022880
#
#
# Mechanical properties :
#
#
# Convention : Reuss Voigt Hill
#
# Bulk Modulus (GPa) = 13.72891 56.46525 35.09708
# Shear Modulus (GPa) = 18.20546 23.19591 20.70069
#
# Velocity S-wave (km/s) = 3.03581 3.42673 3.23718
# Velocity P-wave (km/s) = 4.38614 6.65140 5.63380
#
# Compressibility (1/GPa) = 0.07283901
#
# Stress axis : x y z
#
# Youngs Moduli (GPa) = 103.02814 128.83932 13.85159
#
# Poissons Ratio (x) = 0.55828 0.10872
# Poissons Ratio (y) = 0.44644 -0.05223
# Poissons Ratio (z) = 0.80864 -0.48580
#
# Static dielectric constant tensor:
#      x y z
#    x 3.841950 0.000000 0.000000 
#    y 0.000000 3.788200 0.000000 
#    z 0.000000 0.000000 3.636930 
# 
# 
# High freq. dielectric constant tensor:
#      x y z
#    x 1.789860 0.000000 0.000000 
#    y 0.000000 1.787500 0.000000 
#    z 0.000000 0.000000 1.717150 
# 
# From -- ./inp_files/5610.got.cif
#   From: 2010.03.12/outbox.cif.g09.slc.cpg/sg55_3_cif.got.tgz:5610.got - 2010.04.16 15:19:21.
