data_PCOD8226120
_publ_section_title
;
Structure prediction by ZEFSAII (Michael W. Deem and Ramdas Pophale) SiO2 
 PCOD8226120
Probable space group: P B A M
;
_chemical_formula_sum "Si O2"
_cell_formula_units_Z 64
_cell_length_a 18.998498
_cell_length_b 23.041601
_cell_length_c 8.877030
_cell_angle_alpha 90.000000
_cell_angle_beta 90.000000
_cell_angle_gamma 90.000000
_cell_volume 3885.971463
_symmetry_space_group_name_H-M "P B A M"
_symmetry_group_IT_number 55
_symmetry_cell_setting 'orthorhombic'
loop_
_space_group_symop_operation_xyz
x,y,z
-x,-y,z
1/2+x,1/2-y,-z
1/2-x,1/2+y,-z
-x,-y,-z
x,y,-z
1/2-x,1/2+y,z
1/2+x,1/2-y,z
loop_
_atom_site_type_symbol
_atom_site_label
_atom_site_fract_x
_atom_site_fract_y
_atom_site_fract_z
Si Si1 0.265916 0.161326 0.677494
Si Si2 0.992821 0.254086 0.822934
Si Si3 0.145376 0.553558 0.324438
Si Si4 0.632734 0.066581 0.176008
Si Si5 0.002451 0.620161 0.676425
Si Si6 0.146802 0.768866 0.676308
Si Si7 0.281833 0.839181 0.671120
Si Si8 0.869080 0.777152 0.326479
O O1 0.265673 0.172154 0.500000
O O2 0.290810 0.096888 0.719826
O O3 0.320931 0.208684 0.741218
O O4 0.186459 0.174307 0.734191
O O5 0.061258 0.217875 0.773340
O O6 0.994369 0.317984 0.754237
O O7 0.924834 0.218654 0.765912
O O8 0.991454 0.259616 0.000000
O O9 0.148595 0.536467 0.500000
O O10 0.155949 0.497800 0.221408
O O11 0.072018 0.584151 0.285604
O O12 0.562965 0.082932 0.266643
O O13 0.696578 0.109581 0.216491
O O14 0.616777 0.069802 0.000000
O O15 0.994068 0.631230 0.500000
O O16 0.129226 0.763707 0.500000
O O17 0.201878 0.820636 0.707664
O O18 0.287383 0.861826 0.500000
O O19 0.334580 0.785811 0.694530
O O20 0.889272 0.787953 0.500000
#
# Coordination Sequence:
#
# PCOD8226120 Si02
#       8
#     8   8   8   8   8   8   8   8
#     4   8  15  31  53  75  92 120 168 213 244 281
#     4  12  22  30  46  76 108 136 161 197 252 306
#     4  10  20  35  54  71  93 130 175 210 242 288
#     4  12  24  34  47  71 105 135 166 206 249 295
#     4  11  21  35  52  68  94 136 180 213 238 280
#     4   9  17  33  54  74  95 126 168 208 246 291
#     4   9  18  33  54  73  93 128 172 209 242 287
#     4   9  17  31  53  73  95 127 164 206 247 291
#
# _framework density 16.469498999999999
#
# number of rings (size 3 to 8) (size 9 to 14) (size 15 to 20)
#    0.000    2.000    2.500    4.500    0.000    3.000 
#    0.000    2.500    0.000    0.000    0.000    0.875 
#    0.000    7.000    0.000    0.000    0.000    0.000 
#
# Total GULP energy -793612.444530 kJ/mol
# GULP energy per Si atom -12400.194446 kJ/mol
# Density = 1.643201 g / cm^3
# Si number density = 16.469499 Si / 1000 Ang^3
#
#
#
# Elastic Constant Matrix: (Units=GPa)
#
#
# Indices 1 2 3 4 5 6 
#
# 1 115.1945 44.5857 45.7516 0.0000 0.0000 0.0000
# 2 44.5857 60.0540 29.7028 0.0000 0.0000 0.0000
# 3 45.7516 29.7028 73.8343 0.0000 0.0000 0.0000
# 4 0.0000 0.0000 0.0000 12.7514 0.0000 0.0000
# 5 0.0000 0.0000 0.0000 0.0000 9.3149 0.0000
# 6 0.0000 0.0000 0.0000 0.0000 0.0000 20.3253
#
#
#
# Elastic Compliance Matrix: (Units=1/GPa)
#
#
# Indices 1 2 3 4 5 6 
#
# 1 0.013775 -0.007497 -0.005520 0.000000 0.000000 0.000000
# 2 -0.007497 0.024868 -0.005359 0.000000 0.000000 0.000000
# 3 -0.005520 -0.005359 0.019120 0.000000 0.000000 0.000000
# 4 0.000000 0.000000 0.000000 0.078423 0.000000 0.000000
# 5 0.000000 0.000000 0.000000 0.000000 0.107354 0.000000
# 6 0.000000 0.000000 0.000000 0.000000 0.000000 0.049200
#
#
# Mechanical properties :
#
#
# Convention : Reuss Voigt Hill
#
# Bulk Modulus (GPa) = 47.59134 54.35145 50.97140
# Shear Modulus (GPa) = 14.85910 17.08118 15.97014
#
# Velocity S-wave (km/s) = 3.00696 3.22396 3.11735
# Velocity P-wave (km/s) = 6.40430 6.85065 6.63124
#
# Compressibility (1/GPa) = 0.02101222
#
# Stress axis : x y z
#
# Youngs Moduli (GPa) = 72.59615 40.21250 52.30149
#
# Poissons Ratio (x) = 0.30146 0.28869
# Poissons Ratio (y) = 0.54423 0.28027
# Poissons Ratio (z) = 0.40071 0.21549
#
# Static dielectric constant tensor:
#      x y z
#    x 3.296760 0.000000 0.000000 
#    y 0.000000 2.986240 0.000000 
#    z 0.000000 0.000000 2.944180 
# 
# 
# High freq. dielectric constant tensor:
#      x y z
#    x 1.635740 0.000000 0.000000 
#    y 0.000000 1.606870 0.000000 
#    z 0.000000 0.000000 1.621910 
# 
# From -- ./inp_files/8207.got.cif
#   From: 2010.03.12/outbox.cif.g09.slc.cpg/sg55_5_cif.got.tgz:8207.got - 2010.04.16 15:19:21.
