data_PCOD8226345
_publ_section_title
;
Structure prediction by ZEFSAII (Michael W. Deem and Ramdas Pophale) SiO2 
 PCOD8226345
Probable space group: P B A M
;
_chemical_formula_sum "Si O2"
_cell_formula_units_Z 40
_cell_length_a 13.536512
_cell_length_b 18.246056
_cell_length_c 8.393988
_cell_angle_alpha 90.000000
_cell_angle_beta 90.000000
_cell_angle_gamma 90.000000
_cell_volume 2073.213939
_symmetry_space_group_name_H-M "P B A M"
_symmetry_group_IT_number 55
_symmetry_cell_setting 'orthorhombic'
loop_
_space_group_symop_operation_xyz
x,y,z
-x,-y,z
1/2+x,1/2-y,-z
1/2-x,1/2+y,-z
-x,-y,-z
x,y,-z
1/2-x,1/2+y,z
1/2+x,1/2-y,z
loop_
_atom_site_type_symbol
_atom_site_label
_atom_site_fract_x
_atom_site_fract_y
_atom_site_fract_z
Si Si1 0.112764 0.494864 0.316006
Si Si2 0.614825 0.288414 0.685282
Si Si3 0.792288 0.646727 0.185391
Si Si4 0.200277 0.638556 0.817024
Si Si5 0.891717 0.217437 0.313804
O O1 0.117698 0.471519 0.500000
O O2 0.168361 0.434656 0.211114
O O3 0.166344 0.572062 0.293219
O O4 0.000000 0.500000 0.257091
O O5 0.637629 0.298981 0.500000
O O6 0.634348 0.204038 0.730532
O O7 0.685304 0.342946 0.782740
O O8 0.502214 0.308380 0.727630
O O9 0.682586 0.653264 0.260071
O O10 0.786918 0.665530 0.000000
O O11 0.132754 0.708620 0.780738
O O12 0.187476 0.615874 0.000000
O O13 0.879731 0.234112 0.500000
#
# Coordination Sequence:
#
# PCOD8226345 Si02
#       5
#     8   8   8   8   8
#     4  11  23  39  58  79 108 145 181 220 268 323
#     4  10  20  36  58  81 108 145 185 222 263 317
#     4  11  22  35  55  83 113 142 177 225 273 319
#     4  11  22  35  55  83 113 142 177 225 273 319
#     4  10  20  36  58  81 108 145 185 222 263 317
#
# _framework density 19.293716
#
# number of rings (size 3 to 8) (size 9 to 14) (size 15 to 20)
#    0.000    1.400    0.000    9.000    0.000    9.600 
#    0.000    1.000    0.000    6.000    0.000    0.000 
#    0.000    0.000    0.000    0.000    0.000    0.000 
#
# Total GULP energy -496232.438662 kJ/mol
# GULP energy per Si atom -12405.810967 kJ/mol
# Density = 1.924980 g / cm^3
# Si number density = 19.293716 Si / 1000 Ang^3
#
#
#
# Elastic Constant Matrix: (Units=GPa)
#
#
# Indices 1 2 3 4 5 6 
#
# 1 144.0843 48.4855 33.7108 0.0000 0.0000 0.0000
# 2 48.4855 87.2464 1.6634 0.0000 0.0000 0.0000
# 3 33.7108 1.6634 77.1742 0.0000 0.0000 0.0000
# 4 0.0000 0.0000 0.0000 31.4389 0.0000 0.0000
# 5 0.0000 0.0000 0.0000 0.0000 11.6634 0.0000
# 6 0.0000 0.0000 0.0000 0.0000 0.0000 19.7702
#
#
#
# Elastic Compliance Matrix: (Units=1/GPa)
#
#
# Indices 1 2 3 4 5 6 
#
# 1 0.009689 -0.005306 -0.004118 0.000000 0.000000 0.000000
# 2 -0.005306 0.014372 0.002008 0.000000 0.000000 0.000000
# 3 -0.004118 0.002008 0.014713 0.000000 0.000000 0.000000
# 4 0.000000 0.000000 0.000000 0.031808 0.000000 0.000000
# 5 0.000000 0.000000 0.000000 0.000000 0.085738 0.000000
# 6 0.000000 0.000000 0.000000 0.000000 0.000000 0.050581
#
#
# Mechanical properties :
#
#
# Convention : Reuss Voigt Hill
#
# Bulk Modulus (GPa) = 41.76676 52.91382 47.34029
# Shear Modulus (GPa) = 21.76606 27.55085 24.65845
#
# Velocity S-wave (km/s) = 3.36243 3.78295 3.57887
# Velocity P-wave (km/s) = 6.06378 6.82392 6.45505
#
# Compressibility (1/GPa) = 0.02394248
#
# Stress axis : x y z
#
# Youngs Moduli (GPa) = 103.20490 69.57811 67.96583
#
# Poissons Ratio (x) = 0.36920 0.27989
# Poissons Ratio (y) = 0.54763 -0.13648
# Poissons Ratio (z) = 0.42501 -0.13972
#
# Static dielectric constant tensor:
#      x y z
#    x 3.700290 0.000000 0.000000 
#    y 0.000000 3.241790 0.000000 
#    z 0.000000 0.000000 3.539410 
# 
# 
# High freq. dielectric constant tensor:
#      x y z
#    x 1.760090 0.000000 0.000000 
#    y 0.000000 1.731160 0.000000 
#    z 0.000000 0.000000 1.765720 
# 
# From -- ./inp_files/5194.got.cif
#   From: 2010.03.12/outbox.cif.g09.slc.cpg/sg55_3_cif.got.tgz:5194.got - 2010.04.16 15:19:21.
