data_PCOD8226902
_publ_section_title
;
Structure prediction by ZEFSAII (Michael W. Deem and Ramdas Pophale) SiO2 
 PCOD8226902
Probable space group: P B A M
;
_chemical_formula_sum "Si O2"
_cell_formula_units_Z 64
_cell_length_a 32.827336
_cell_length_b 11.548655
_cell_length_c 9.204562
_cell_angle_alpha 90.000000
_cell_angle_beta 90.000000
_cell_angle_gamma 90.000000
_cell_volume 3489.556025
_symmetry_space_group_name_H-M "P B A M"
_symmetry_group_IT_number 55
_symmetry_cell_setting 'orthorhombic'
loop_
_space_group_symop_operation_xyz
x,y,z
-x,-y,z
1/2+x,1/2-y,-z
1/2-x,1/2+y,-z
-x,-y,-z
x,y,-z
1/2-x,1/2+y,z
1/2+x,1/2-y,z
loop_
_atom_site_type_symbol
_atom_site_label
_atom_site_fract_x
_atom_site_fract_y
_atom_site_fract_z
Si Si1 0.591318 0.807735 0.333756
Si Si2 0.629401 0.286183 0.332116
Si Si3 0.205226 0.060066 0.666318
Si Si4 0.969577 0.162419 0.829390
Si Si5 0.825255 0.192944 0.332958
Si Si6 0.442632 0.588307 0.171132
Si Si7 0.286806 0.103683 0.172747
Si Si8 0.142421 0.474723 0.330250
O O1 0.578733 0.794596 0.500000
O O2 0.551822 0.773676 0.241482
O O3 0.628247 0.721757 0.293033
O O4 0.604733 0.939218 0.298057
O O5 0.617857 0.299007 0.500000
O O6 0.674343 0.335450 0.301613
O O7 0.596529 0.356986 0.243459
O O8 0.628848 0.152828 0.282225
O O9 0.221133 0.065151 0.500000
O O10 0.242011 0.067066 0.778105
O O11 0.181374 0.941415 0.696451
O O12 0.017124 0.161232 0.785271
O O13 0.948252 0.043822 0.775257
O O14 0.964843 0.173649 0.000000
O O15 0.816400 0.227729 0.500000
O O16 0.795313 0.267482 0.231953
O O17 0.436334 0.590821 0.000000
O O18 0.318538 0.011644 0.237424
O O19 0.289643 0.102742 0.000000
O O20 0.154715 0.479479 0.500000
#
# Coordination Sequence:
#
# PCOD8226902 Si02
#       8
#     8   8   8   8   8   8   8   8
#     4   9  17  32  55  80 103 133 178 227 263 303
#     4  10  21  37  58  81 104 138 182 223 267 320
#     4  10  21  36  56  79 103 137 178 220 268 322
#     4   9  18  33  54  79 110 146 178 211 266 329
#     4   9  19  36  55  75 104 137 173 217 265 318
#     4   9  19  35  53  78 113 146 174 216 270 323
#     4  11  23  36  53  79 108 136 176 223 266 316
#     4   9  20  39  57  75 106 145 181 218 268 326
#
# _framework density 18.340441999999999
#
# number of rings (size 3 to 8) (size 9 to 14) (size 15 to 20)
#    0.000    2.500    0.000    3.375    1.750    5.500 
#    0.000    1.875    0.000    3.750    0.000    0.000 
#    0.000    0.000    0.000    0.000    0.000    0.000 
#
# Total GULP energy -793676.780230 kJ/mol
# GULP energy per Si atom -12401.199691 kJ/mol
# Density = 1.829870 g / cm^3
# Si number density = 18.340442 Si / 1000 Ang^3
#
#
#
# Elastic Constant Matrix: (Units=GPa)
#
#
# Indices 1 2 3 4 5 6 
#
# 1 56.3739 10.9792 27.8294 0.0000 0.0000 0.0000
# 2 10.9792 68.9770 20.5530 0.0000 0.0000 0.0000
# 3 27.8294 20.5530 61.8698 0.0000 0.0000 0.0000
# 4 0.0000 0.0000 0.0000 19.8719 0.0000 0.0000
# 5 0.0000 0.0000 0.0000 0.0000 34.3145 0.0000
# 6 0.0000 0.0000 0.0000 0.0000 0.0000 22.0709
#
#
#
# Elastic Compliance Matrix: (Units=1/GPa)
#
#
# Indices 1 2 3 4 5 6 
#
# 1 0.022827 -0.000637 -0.010056 0.000000 0.000000 0.000000
# 2 -0.000637 0.016108 -0.005065 0.000000 0.000000 0.000000
# 3 -0.010056 -0.005065 0.022369 0.000000 0.000000 0.000000
# 4 0.000000 0.000000 0.000000 0.050322 0.000000 0.000000
# 5 0.000000 0.000000 0.000000 0.000000 0.029142 0.000000
# 6 0.000000 0.000000 0.000000 0.000000 0.000000 0.045308
#
#
# Mechanical properties :
#
#
# Convention : Reuss Voigt Hill
#
# Bulk Modulus (GPa) = 33.57002 33.99376 33.78189
# Shear Modulus (GPa) = 21.97594 23.77542 22.87568
#
# Velocity S-wave (km/s) = 3.46529 3.60438 3.53552
# Velocity P-wave (km/s) = 5.86128 5.99142 5.92671
#
# Compressibility (1/GPa) = 0.02978848
#
# Stress axis : x y z
#
# Youngs Moduli (GPa) = 43.80765 62.08079 44.70527
#
# Poissons Ratio (x) = 0.03954 0.44956
# Poissons Ratio (y) = 0.02791 0.22641
# Poissons Ratio (z) = 0.44054 0.31441
#
# Static dielectric constant tensor:
#      x y z
#    x 3.272870 0.000000 0.000000 
#    y 0.000000 3.500830 0.000000 
#    z 0.000000 0.000000 3.228980 
# 
# 
# High freq. dielectric constant tensor:
#      x y z
#    x 1.706860 0.000000 0.000000 
#    y 0.000000 1.712660 0.000000 
#    z 0.000000 0.000000 1.700150 
# 
# From -- ./inp_files/10845.got.cif
#   From: 2010.03.12/outbox.cif.g09.slc.cpg/sg55_6_cif.got.tgz:10845.got - 2010.04.16 15:19:21.
