data_PCOD8226218
_publ_section_title
;
Structure prediction by ZEFSAII (Michael W. Deem and Ramdas Pophale) SiO2 
 PCOD8226218
Probable space group: P B A M
;
_chemical_formula_sum "Si O2"
_cell_formula_units_Z 36
_cell_length_a 9.833882
_cell_length_b 15.696070
_cell_length_c 12.341484
_cell_angle_alpha 90.000000
_cell_angle_beta 90.000000
_cell_angle_gamma 90.000000
_cell_volume 1904.948785
_symmetry_space_group_name_H-M "P B A M"
_symmetry_group_IT_number 55
_symmetry_cell_setting 'orthorhombic'
loop_
_space_group_symop_operation_xyz
x,y,z
-x,-y,z
1/2+x,1/2-y,-z
1/2-x,1/2+y,-z
-x,-y,-z
x,y,-z
1/2-x,1/2+y,z
1/2+x,1/2-y,z
loop_
_atom_site_type_symbol
_atom_site_label
_atom_site_fract_x
_atom_site_fract_y
_atom_site_fract_z
Si Si1 0.489806 0.901856 0.621232
Si Si2 0.175023 0.884333 0.622865
Si Si3 0.500000 0.500000 0.235425
Si Si4 0.903928 0.828412 0.124811
Si Si5 0.871787 0.271057 0.233325
O O1 0.546276 0.881879 0.500000
O O2 0.335164 0.873960 0.630404
O O3 0.576715 0.858140 0.714636
O O4 0.500000 0.000000 0.647193
O O5 0.124021 0.894440 0.500000
O O6 0.115028 0.797974 0.671262
O O7 0.122471 0.965840 0.689672
O O8 0.560401 0.424032 0.162742
O O9 0.779049 0.787365 0.190324
O O10 0.031336 0.763985 0.137568
O O11 0.862709 0.833633 0.000000
#
# Coordination Sequence:
#
# PCOD8226218 Si02
#       5
#     8   8   4   8   8
#     4  10  20  35  57  85 120 154 186 233 293 354
#     4  10  20  36  58  90 120 153 192 232 291 359
#     4  10  22  38  62  88 120 156 194 250 292 354
#     4  11  23  40  62  84 116 158 205 250 295 340
#     4  11  21  39  60  86 118 156 196 243 293 348
#
# _framework density 18.898145
#
# number of rings (size 3 to 8) (size 9 to 14) (size 15 to 20)
#    0.000    1.556    2.222    3.333    0.000    0.000 
#    0.000    2.222    0.000    2.667    0.000    0.000 
#    0.000    0.000    0.000    0.000    0.000    0.000 
#
# Total GULP energy -446435.130244 kJ/mol
# GULP energy per Si atom -12400.975840 kJ/mol
# Density = 1.885513 g / cm^3
# Si number density = 18.898145 Si / 1000 Ang^3
#
#
#
# Elastic Constant Matrix: (Units=GPa)
#
#
# Indices 1 2 3 4 5 6 
#
# 1 74.7195 30.2096 21.9182 0.0000 0.0000 0.0000
# 2 30.2096 87.3496 41.9037 0.0000 0.0000 0.0000
# 3 21.9182 41.9037 100.6362 0.0000 0.0000 0.0000
# 4 0.0000 0.0000 0.0000 23.2452 0.0000 0.0000
# 5 0.0000 0.0000 0.0000 0.0000 26.4537 0.0000
# 6 0.0000 0.0000 0.0000 0.0000 0.0000 33.2740
#
#
#
# Elastic Compliance Matrix: (Units=1/GPa)
#
#
# Indices 1 2 3 4 5 6 
#
# 1 0.015727 -0.004743 -0.001450 0.000000 0.000000 0.000000
# 2 -0.004743 0.015737 -0.005519 0.000000 0.000000 0.000000
# 3 -0.001450 -0.005519 0.012551 0.000000 0.000000 0.000000
# 4 0.000000 0.000000 0.000000 0.043020 0.000000 0.000000
# 5 0.000000 0.000000 0.000000 0.000000 0.037802 0.000000
# 6 0.000000 0.000000 0.000000 0.000000 0.000000 0.030053
#
#
# Mechanical properties :
#
#
# Convention : Reuss Voigt Hill
#
# Bulk Modulus (GPa) = 48.57160 50.08536 49.32848
# Shear Modulus (GPa) = 27.00117 27.83952 27.42034
#
# Velocity S-wave (km/s) = 3.78401 3.84231 3.81327
# Velocity P-wave (km/s) = 6.69696 6.80035 6.74885
#
# Compressibility (1/GPa) = 0.02058816
#
# Stress axis : x y z
#
# Youngs Moduli (GPa) = 63.58692 63.54652 79.67603
#
# Poissons Ratio (x) = 0.30142 0.11554
# Poissons Ratio (y) = 0.30161 0.43977
# Poissons Ratio (z) = 0.09221 0.35074
#
# Static dielectric constant tensor:
#      x y z
#    x 3.337970 0.000000 0.000000 
#    y 0.000000 2.706000 0.000000 
#    z 0.000000 0.000000 3.428350 
# 
# 
# High freq. dielectric constant tensor:
#      x y z
#    x 1.737820 0.000000 0.000000 
#    y 0.000000 1.744600 0.000000 
#    z 0.000000 0.000000 1.732900 
# 
# From -- ./inp_files/13902.got.cif
#   From: 2010.03.12/outbox.cif.g09.slc.cpg/sg55_7_cif.got.tgz:13902.got - 2010.04.16 15:19:21.
