data_PCOD8226921
_publ_section_title
;
Structure prediction by ZEFSAII (Michael W. Deem and Ramdas Pophale) SiO2 
 PCOD8226921
Probable space group: P B A M
;
_chemical_formula_sum "Si O2"
_cell_formula_units_Z 48
_cell_length_a 14.394350
_cell_length_b 8.634778
_cell_length_c 17.030631
_cell_angle_alpha 90.000000
_cell_angle_beta 90.000000
_cell_angle_gamma 90.000000
_cell_volume 2116.771473
_symmetry_space_group_name_H-M "P B A M"
_symmetry_group_IT_number 55
_symmetry_cell_setting 'orthorhombic'
loop_
_space_group_symop_operation_xyz
x,y,z
-x,-y,z
1/2+x,1/2-y,-z
1/2-x,1/2+y,-z
-x,-y,-z
x,y,-z
1/2-x,1/2+y,z
1/2+x,1/2-y,z
loop_
_atom_site_type_symbol
_atom_site_label
_atom_site_fract_x
_atom_site_fract_y
_atom_site_fract_z
Si Si1 0.960004 0.345488 0.087434
Si Si2 0.952074 0.834694 0.687373
Si Si3 0.125902 0.195624 0.144813
Si Si4 0.291457 0.539013 0.590013
Si Si5 0.616804 0.785151 0.409074
Si Si6 0.801110 0.130132 0.094106
O O1 0.040111 0.214441 0.084936
O O2 0.000000 0.500000 0.131547
O O3 0.868262 0.268326 0.125303
O O4 0.930777 0.394835 0.000000
O O5 0.918149 0.769262 0.770351
O O6 0.860830 0.846765 0.634734
O O7 0.025893 0.718050 0.646194
O O8 0.000000 0.000000 0.699106
O O9 0.198851 0.329729 0.123330
O O10 0.170096 0.027124 0.137107
O O11 0.304219 0.585181 0.500000
O O12 0.183223 0.569730 0.613692
O O13 0.317292 0.362507 0.606649
O O14 0.583725 0.789963 0.500000
O O15 0.805501 0.108928 0.000000
#
# Coordination Sequence:
#
# PCOD8226921 Si02
#       6
#     8   8   8   8   8   8
#     4  10  21  39  62  87 116 152 197 246 298 362
#     4  10  21  36  57  85 121 159 197 241 296 357
#     4  12  24  39  61  89 121 156 198 249 308 365
#     4   9  18  34  58  85 115 156 201 241 284 343
#     4   9  18  36  61  87 116 154 200 244 289 346
#     4  11  23  40  63  88 117 156 202 252 305 366
#
# _framework density 22.676043
#
# number of rings (size 3 to 8) (size 9 to 14) (size 15 to 20)
#    0.000    1.833    0.000    4.500    0.000    8.667 
#    0.000    2.500    0.000    6.000    0.000    0.000 
#    0.000    0.000    0.000    0.000    0.000    0.000 
#
# Total GULP energy -595020.847585 kJ/mol
# GULP energy per Si atom -12396.267658 kJ/mol
# Density = 2.262443 g / cm^3
# Si number density = 22.676043 Si / 1000 Ang^3
#
#
#
# Elastic Constant Matrix: (Units=GPa)
#
#
# Indices 1 2 3 4 5 6 
#
# 1 107.9379 7.0816 47.9138 0.0000 0.0000 0.0000
# 2 7.0816 42.1086 27.7733 0.0000 0.0000 0.0000
# 3 47.9138 27.7733 86.7184 0.0000 0.0000 0.0000
# 4 0.0000 0.0000 0.0000 17.3790 0.0000 0.0000
# 5 0.0000 0.0000 0.0000 0.0000 38.2962 0.0000
# 6 0.0000 0.0000 0.0000 0.0000 0.0000 43.6350
#
#
#
# Elastic Compliance Matrix: (Units=1/GPa)
#
#
# Indices 1 2 3 4 5 6 
#
# 1 0.012593 0.003133 -0.007961 0.000000 0.000000 0.000000
# 2 0.003133 0.030888 -0.011624 0.000000 0.000000 0.000000
# 3 -0.007961 -0.011624 0.019653 0.000000 0.000000 0.000000
# 4 0.000000 0.000000 0.000000 0.057541 0.000000 0.000000
# 5 0.000000 0.000000 0.000000 0.000000 0.026112 0.000000
# 6 0.000000 0.000000 0.000000 0.000000 0.000000 0.022917
#
#
# Mechanical properties :
#
#
# Convention : Reuss Voigt Hill
#
# Bulk Modulus (GPa) = 33.07936 44.70027 38.88981
# Shear Modulus (GPa) = 23.50899 30.12844 26.81871
#
# Velocity S-wave (km/s) = 3.22333 3.64901 3.44276
# Velocity P-wave (km/s) = 5.33597 6.12447 5.74376
#
# Compressibility (1/GPa) = 0.03023033
#
# Stress axis : x y z
#
# Youngs Moduli (GPa) = 79.40848 32.37538 50.88253
#
# Poissons Ratio (x) = -0.10144 0.40510
# Poissons Ratio (y) = -0.24880 0.59144
# Poissons Ratio (z) = 0.63221 0.37632
#
# Static dielectric constant tensor:
#      x y z
#    x 4.341230 0.000000 0.000000 
#    y 0.000000 3.978180 0.000000 
#    z 0.000000 0.000000 3.865030 
# 
# 
# High freq. dielectric constant tensor:
#      x y z
#    x 1.912570 0.000000 0.000000 
#    y 0.000000 1.884320 0.000000 
#    z 0.000000 0.000000 1.872590 
# 
# From -- ./inp_files/21512.got.cif
#   From: 2010.03.12/outbox.cif.g09.slc.cpg/sg55_11_cif.got.tgz:21512.got - 2010.04.16 15:19:21.
