data_PCOD8226188
_publ_section_title
;
Structure prediction by ZEFSAII (Michael W. Deem and Ramdas Pophale) SiO2 
 PCOD8226188
Probable space group: P B A M
;
_chemical_formula_sum "Si O2"
_cell_formula_units_Z 64
_cell_length_a 12.743275
_cell_length_b 28.176639
_cell_length_c 8.927091
_cell_angle_alpha 90.000000
_cell_angle_beta 90.000000
_cell_angle_gamma 90.000000
_cell_volume 3205.385035
_symmetry_space_group_name_H-M "P B A M"
_symmetry_group_IT_number 55
_symmetry_cell_setting 'orthorhombic'
loop_
_space_group_symop_operation_xyz
x,y,z
-x,-y,z
1/2+x,1/2-y,-z
1/2-x,1/2+y,-z
-x,-y,-z
x,y,-z
1/2-x,1/2+y,z
1/2+x,1/2-y,z
loop_
_atom_site_type_symbol
_atom_site_label
_atom_site_fract_x
_atom_site_fract_y
_atom_site_fract_z
Si Si1 0.463884 0.796524 0.672707
Si Si2 0.874736 0.803949 0.326631
Si Si3 0.888861 0.600017 0.675083
Si Si4 0.662325 0.565402 0.328060
Si Si5 0.836996 0.321750 0.167925
Si Si6 0.908417 0.429435 0.168842
Si Si7 0.207249 0.042310 0.672239
Si Si8 0.037658 0.108879 0.823015
O O1 0.499424 0.798127 0.500000
O O2 0.392412 0.751347 0.708338
O O3 0.400361 0.844254 0.713946
O O4 0.566247 0.790444 0.774875
O O5 0.891851 0.815714 0.500000
O O6 0.756692 0.814771 0.282027
O O7 0.954653 0.836904 0.233336
O O8 0.902005 0.589903 0.500000
O O9 0.774402 0.584040 0.730856
O O10 0.976267 0.568001 0.757763
O O11 0.644178 0.580952 0.500000
O O12 0.654489 0.508948 0.312315
O O13 0.573005 0.587767 0.225962
O O14 0.868955 0.376041 0.172229
O O15 0.805626 0.305936 0.000000
O O16 0.824616 0.460601 0.260704
O O17 0.915754 0.449072 0.000000
O O18 0.214703 0.058239 0.500000
O O19 0.135585 0.079715 0.758580
O O20 0.046762 0.107479 0.000000
#
# Coordination Sequence:
#
# PCOD8226188 Si02
#       8
#     8   8   8   8   8   8   8   8
#     4   9  20  37  59  86 113 150 196 238 289 350
#     4  11  22  37  60  87 115 152 200 248 292 352
#     4   9  19  39  62  84 117 156 197 244 294 353
#     4  10  23  41  61  87 120 159 200 245 299 358
#     4  10  20  35  56  83 116 151 188 239 297 347
#     4  10  20  35  58  87 119 152 194 244 292 347
#     4  11  22  38  62  88 116 156 202 247 297 355
#     4  12  25  40  59  86 119 155 198 249 307 362
#
# _framework density 19.966398999999999
#
# number of rings (size 3 to 8) (size 9 to 14) (size 15 to 20)
#    0.000    1.750    1.250    3.000    0.000    6.500 
#    0.000    5.000    0.000    0.000    0.000    0.000 
#    0.000    0.000    0.000    0.000    0.000    0.000 
#
# Total GULP energy -793836.426154 kJ/mol
# GULP energy per Si atom -12403.694159 kJ/mol
# Density = 1.992095 g / cm^3
# Si number density = 19.966399 Si / 1000 Ang^3
#
#
#
# Elastic Constant Matrix: (Units=GPa)
#
#
# Indices 1 2 3 4 5 6 
#
# 1 107.6695 19.1068 46.7501 0.0000 0.0000 0.0000
# 2 19.1068 41.6792 26.2066 0.0000 0.0000 0.0000
# 3 46.7501 26.2066 112.2838 0.0000 0.0000 0.0000
# 4 0.0000 0.0000 0.0000 16.6731 0.0000 0.0000
# 5 0.0000 0.0000 0.0000 0.0000 25.2996 0.0000
# 6 0.0000 0.0000 0.0000 0.0000 0.0000 18.8658
#
#
#
# Elastic Compliance Matrix: (Units=1/GPa)
#
#
# Indices 1 2 3 4 5 6 
#
# 1 0.011585 -0.002670 -0.004200 0.000000 0.000000 0.000000
# 2 -0.002670 0.028735 -0.005595 0.000000 0.000000 0.000000
# 3 -0.004200 -0.005595 0.011961 0.000000 0.000000 0.000000
# 4 0.000000 0.000000 0.000000 0.059977 0.000000 0.000000
# 5 0.000000 0.000000 0.000000 0.000000 0.039526 0.000000
# 6 0.000000 0.000000 0.000000 0.000000 0.000000 0.053006
#
#
# Mechanical properties :
#
#
# Convention : Reuss Voigt Hill
#
# Bulk Modulus (GPa) = 36.56293 49.52883 43.04588
# Shear Modulus (GPa) = 20.93479 23.47231 22.20355
#
# Velocity S-wave (km/s) = 3.24157 3.43241 3.33835
# Velocity P-wave (km/s) = 5.68879 6.36934 6.03866
#
# Compressibility (1/GPa) = 0.02735011
#
# Stress axis : x y z
#
# Youngs Moduli (GPa) = 86.31612 34.80127 83.60684
#
# Poissons Ratio (x) = 0.09291 0.35119
# Poissons Ratio (y) = 0.23045 0.46777
# Poissons Ratio (z) = 0.36257 0.19471
#
# Static dielectric constant tensor:
#      x y z
#    x 3.706400 0.000000 0.000000 
#    y 0.000000 3.669560 0.000000 
#    z 0.000000 0.000000 3.730060 
# 
# 
# High freq. dielectric constant tensor:
#      x y z
#    x 1.783310 0.000000 0.000000 
#    y 0.000000 1.775470 0.000000 
#    z 0.000000 0.000000 1.782070 
# 
# From -- ./inp_files/4509.got.cif
#   From: 2010.03.12/outbox.cif.g09.slc.cpg/sg55_3_cif.got.tgz:4509.got - 2010.04.16 15:19:21.
