data_PCOD8226350
_publ_section_title
;
Structure prediction by ZEFSAII (Michael W. Deem and Ramdas Pophale) SiO2 
 PCOD8226350
Probable space group: P B A M
;
_chemical_formula_sum "Si O2"
_cell_formula_units_Z 64
_cell_length_a 25.212099
_cell_length_b 14.246920
_cell_length_c 8.859789
_cell_angle_alpha 90.000000
_cell_angle_beta 90.000000
_cell_angle_gamma 90.000000
_cell_volume 3182.389761
_symmetry_space_group_name_H-M "P B A M"
_symmetry_group_IT_number 55
_symmetry_cell_setting 'orthorhombic'
loop_
_space_group_symop_operation_xyz
x,y,z
-x,-y,z
1/2+x,1/2-y,-z
1/2-x,1/2+y,-z
-x,-y,-z
x,y,-z
1/2-x,1/2+y,z
1/2+x,1/2-y,z
loop_
_atom_site_type_symbol
_atom_site_label
_atom_site_fract_x
_atom_site_fract_y
_atom_site_fract_z
Si Si1 0.511966 0.770342 0.324996
Si Si2 0.143979 0.032088 0.323288
Si Si3 0.735315 0.958162 0.677940
Si Si4 0.582350 0.935068 0.323944
Si Si5 0.355887 0.916578 0.821111
Si Si6 0.672751 0.812354 0.176294
Si Si7 0.397853 0.352686 0.175412
Si Si8 0.392790 0.736425 0.678632
O O1 0.517082 0.744650 0.500000
O O2 0.526135 0.881707 0.300439
O O3 0.551567 0.701094 0.240112
O O4 0.452918 0.752803 0.266080
O O5 0.135636 0.022368 0.500000
O O6 0.204962 0.015601 0.277694
O O7 0.125088 0.133839 0.268056
O O8 0.106917 0.955106 0.246131
O O9 0.726009 0.961816 0.500000
O O10 0.724779 0.850763 0.736543
O O11 0.696212 0.031005 0.759200
O O12 0.595262 0.947830 0.500000
O O13 0.624530 0.869842 0.243692
O O14 0.589393 0.036141 0.243574
O O15 0.354663 0.809877 0.763400
O O16 0.355488 0.920179 0.000000
O O17 0.657710 0.703569 0.206057
O O18 0.679098 0.833922 0.000000
O O19 0.408203 0.363603 0.000000
O O20 0.386615 0.750468 0.500000
#
# Coordination Sequence:
#
# PCOD8226350 Si02
#       8
#     8   8   8   8   8   8   8   8
#     4   9  19  36  60  84 110 146 187 230 278 326
#     4  10  23  40  58  79 106 143 190 234 274 322
#     4  10  20  36  58  83 109 142 181 226 274 326
#     4   9  16  30  54  83 110 141 180 220 262 319
#     4  11  22  36  56  84 116 150 181 221 279 339
#     4   9  17  31  52  80 109 138 171 216 270 321
#     4  10  21  36  57  83 113 145 182 228 277 329
#     4  10  22  41  59  80 111 147 188 234 277 325
#
# _framework density 20.110673999999999
#
# number of rings (size 3 to 8) (size 9 to 14) (size 15 to 20)
#    0.000    2.250    0.000    4.125    0.000    6.000 
#    0.000    8.750    0.000    0.000    0.000    0.000 
#    0.000    0.000    0.000    0.000    0.000    0.000 
#
# Total GULP energy -793257.336307 kJ/mol
# GULP energy per Si atom -12394.645880 kJ/mol
# Density = 2.006490 g / cm^3
# Si number density = 20.110674 Si / 1000 Ang^3
#
#
#
# Elastic Constant Matrix: (Units=GPa)
#
#
# Indices 1 2 3 4 5 6 
#
# 1 67.7256 29.0618 25.3119 0.0000 0.0000 0.0000
# 2 29.0618 119.6080 41.6154 0.0000 0.0000 0.0000
# 3 25.3119 41.6154 88.4085 0.0000 0.0000 0.0000
# 4 0.0000 0.0000 0.0000 27.3705 0.0000 0.0000
# 5 0.0000 0.0000 0.0000 0.0000 -4.2103 0.0000
# 6 0.0000 0.0000 0.0000 0.0000 0.0000 25.9954
#
#
#
# Elastic Compliance Matrix: (Units=1/GPa)
#
#
# Indices 1 2 3 4 5 6 
#
# 1 0.017380 -0.002980 -0.003573 0.000000 0.000000 0.000000
# 2 -0.002980 0.010509 -0.004094 0.000000 0.000000 0.000000
# 3 -0.003573 -0.004094 0.014261 0.000000 0.000000 0.000000
# 4 0.000000 0.000000 0.000000 0.036536 0.000000 0.000000
# 5 0.000000 0.000000 0.000000 0.000000 -0.237515 0.000000
# 6 0.000000 0.000000 0.000000 0.000000 0.000000 0.038468
#
#
# Mechanical properties :
#
#
# Convention : Reuss Voigt Hill
#
# Bulk Modulus (GPa) = 47.94662 51.96889 49.95776
# Shear Modulus (GPa) = -54.27952 21.81466 -16.23243
#
# Velocity S-wave (km/s) = -5.20087 3.29710 -2.84413
# Velocity P-wave (km/s) = 3.48887 6.35547 3.75632
#
# Compressibility (1/GPa) = 0.02085653
#
# Stress axis : x y z
#
# Youngs Moduli (GPa) = 57.53898 95.15733 70.12051
#
# Poissons Ratio (x) = 0.28352 0.25057
# Poissons Ratio (y) = 0.17144 0.28705
# Poissons Ratio (z) = 0.20561 0.38954
#
# Static dielectric constant tensor:
#      x y z
#    x 3.710750 0.000000 0.000000 
#    y 0.000000 4.045230 0.000000 
#    z 0.000000 0.000000 3.606760 
# 
# 
# High freq. dielectric constant tensor:
#      x y z
#    x 1.772450 0.000000 0.000000 
#    y 0.000000 1.788020 0.000000 
#    z 0.000000 0.000000 1.785800 
# 
# From -- ./inp_files/9791.got.cif
#   From: 2010.03.12/outbox.cif.g09.slc.cpg/sg55_5_cif.got.tgz:9791.got - 2010.04.16 15:19:21.
