data_PCOD8226737
_publ_section_title
;
Structure prediction by ZEFSAII (Michael W. Deem and Ramdas Pophale) SiO2 
 PCOD8226737
Probable space group: P B A M
;
_chemical_formula_sum "Si O2"
_cell_formula_units_Z 56
_cell_length_a 9.768532
_cell_length_b 17.691860
_cell_length_c 17.013894
_cell_angle_alpha 90.000000
_cell_angle_beta 90.000000
_cell_angle_gamma 90.000000
_cell_volume 2940.400719
_symmetry_space_group_name_H-M "P B A M"
_symmetry_group_IT_number 55
_symmetry_cell_setting 'orthorhombic'
loop_
_space_group_symop_operation_xyz
x,y,z
-x,-y,z
1/2+x,1/2-y,-z
1/2-x,1/2+y,-z
-x,-y,-z
x,y,-z
1/2-x,1/2+y,z
1/2+x,1/2-y,z
loop_
_atom_site_type_symbol
_atom_site_label
_atom_site_fract_x
_atom_site_fract_y
_atom_site_fract_z
Si Si1 0.953090 0.178491 0.500000
Si Si2 0.962619 0.309336 0.909855
Si Si3 0.132863 0.962366 0.196224
Si Si4 0.391396 0.059645 0.794318
Si Si5 0.112402 0.941667 0.372002
Si Si6 0.720107 0.832033 0.500000
Si Si7 0.773284 0.170325 0.089006
Si Si8 0.872972 0.456168 0.618302
O O1 0.902886 0.134809 0.421855
O O2 0.875651 0.258383 0.500000
O O3 0.118317 0.189519 0.500000
O O4 0.898917 0.367556 0.848757
O O5 0.888356 0.231158 0.891734
O O6 0.123079 0.295900 0.894314
O O7 0.934991 0.335693 0.000000
O O8 0.089493 0.924570 0.279481
O O9 0.203929 0.901105 0.142794
O O10 0.237427 0.030618 0.205712
O O11 0.000000 0.000000 0.155869
O O12 0.424681 0.075287 0.702899
O O13 0.500000 0.000000 0.829348
O O14 0.259705 0.978725 0.381408
O O15 0.000000 0.000000 0.404510
O O16 0.682265 0.882219 0.424830
O O17 0.784741 0.142013 0.000000
O O18 0.000000 0.500000 0.577454
#
# Coordination Sequence:
#
# PCOD8226737 Si02
#       8
#     4   8   8   8   8   4   8   8
#     4  12  26  41  62  87 121 154 197 243 287 346
#     4  10  22  39  60  83 118 161 198 236 291 351
#     4  10  22  37  61  92 117 146 197 247 290 345
#     4  10  20  39  61  90 116 148 195 244 292 340
#     4  10  20  42  65  84 113 159 195 234 294 348
#     4  12  26  42  58  91 121 153 197 239 291 344
#     4  10  22  40  58  84 119 159 197 236 292 352
#     4  10  22  39  65  88 118 152 194 241 289 353
#
# _framework density 19.045021999999999
#
# number of rings (size 3 to 8) (size 9 to 14) (size 15 to 20)
#    0.000    1.714    2.857    0.857    4.000    2.286 
#    0.000    2.857    0.000    0.000    0.000    0.000 
#    0.000    0.000    0.000    0.000    0.000    0.000 
#
# Total GULP energy -694316.873363 kJ/mol
# GULP energy per Si atom -12398.515596 kJ/mol
# Density = 1.900167 g / cm^3
# Si number density = 19.045022 Si / 1000 Ang^3
#
#
#
# Elastic Constant Matrix: (Units=GPa)
#
#
# Indices 1 2 3 4 5 6 
#
# 1 124.9281 38.1079 25.2332 0.0000 0.0000 0.0000
# 2 38.1079 86.3610 41.0858 0.0000 0.0000 0.0000
# 3 25.2332 41.0858 75.8733 0.0000 0.0000 0.0000
# 4 0.0000 0.0000 0.0000 32.5626 0.0000 0.0000
# 5 0.0000 0.0000 0.0000 0.0000 25.3091 0.0000
# 6 0.0000 0.0000 0.0000 0.0000 0.0000 36.8390
#
#
#
# Elastic Compliance Matrix: (Units=1/GPa)
#
#
# Indices 1 2 3 4 5 6 
#
# 1 0.009327 -0.003556 -0.001176 0.000000 0.000000 0.000000
# 2 -0.003556 0.016953 -0.007998 0.000000 0.000000 0.000000
# 3 -0.001176 -0.007998 0.017902 0.000000 0.000000 0.000000
# 4 0.000000 0.000000 0.000000 0.030710 0.000000 0.000000
# 5 0.000000 0.000000 0.000000 0.000000 0.039511 0.000000
# 6 0.000000 0.000000 0.000000 0.000000 0.000000 0.027145
#
#
# Mechanical properties :
#
#
# Convention : Reuss Voigt Hill
#
# Bulk Modulus (GPa) = 53.41266 55.11291 54.26279
# Shear Modulus (GPa) = 28.86016 31.12453 29.99235
#
# Velocity S-wave (km/s) = 3.89699 4.04698 3.97270
# Velocity P-wave (km/s) = 6.95378 7.13011 7.04250
#
# Compressibility (1/GPa) = 0.01872215
#
# Stress axis : x y z
#
# Youngs Moduli (GPa) = 107.21669 58.98561 55.86026
#
# Poissons Ratio (x) = 0.20975 0.06571
# Poissons Ratio (y) = 0.38127 0.44675
# Poissons Ratio (z) = 0.12611 0.47175
#
# Static dielectric constant tensor:
#      x y z
#    x 3.742550 0.000000 0.000000 
#    y 0.000000 3.234110 0.000000 
#    z 0.000000 0.000000 3.617970 
# 
# 
# High freq. dielectric constant tensor:
#      x y z
#    x 1.763940 0.000000 0.000000 
#    y 0.000000 1.720740 0.000000 
#    z 0.000000 0.000000 1.743910 
# 
# From -- ./inp_files/22652.got.cif
#   From: 2010.03.12/outbox.cif.g09.slc.cpg/sg55_12_cif.got.tgz:22652.got - 2010.04.16 15:19:21.
