data_PCOD8226340
_publ_section_title
;
Structure prediction by ZEFSAII (Michael W. Deem and Ramdas Pophale) SiO2 
 PCOD8226340
Probable space group: P B A M
;
_chemical_formula_sum "Si O2"
_cell_formula_units_Z 64
_cell_length_a 19.715309
_cell_length_b 18.414341
_cell_length_c 9.169715
_cell_angle_alpha 90.000000
_cell_angle_beta 90.000000
_cell_angle_gamma 90.000000
_cell_volume 3329.013890
_symmetry_space_group_name_H-M "P B A M"
_symmetry_group_IT_number 55
_symmetry_cell_setting 'orthorhombic'
loop_
_space_group_symop_operation_xyz
x,y,z
-x,-y,z
1/2+x,1/2-y,-z
1/2-x,1/2+y,-z
-x,-y,-z
x,y,-z
1/2-x,1/2+y,z
1/2+x,1/2-y,z
loop_
_atom_site_type_symbol
_atom_site_label
_atom_site_fract_x
_atom_site_fract_y
_atom_site_fract_z
Si Si1 0.122084 0.752829 0.327785
Si Si2 0.926137 0.521050 0.327309
Si Si3 0.623898 0.161469 0.167414
Si Si4 0.202176 0.022404 0.828890
Si Si5 0.484680 0.717727 0.170135
Si Si6 0.180892 0.597701 0.328776
Si Si7 0.223425 0.856550 0.831013
Si Si8 0.052960 0.058087 0.826627
O O1 0.115213 0.762018 0.500000
O O2 0.158034 0.677952 0.284406
O O3 0.166307 0.818526 0.265198
O O4 0.047473 0.750948 0.259708
O O5 0.926612 0.527154 0.500000
O O6 0.905135 0.598384 0.266569
O O7 0.875202 0.459029 0.272359
O O8 0.000000 0.500000 0.267157
O O9 0.581930 0.234164 0.199344
O O10 0.702764 0.177022 0.204411
O O11 0.617332 0.136533 0.000000
O O12 0.249050 0.081257 0.750918
O O13 0.126771 0.035977 0.768682
O O14 0.225290 0.941239 0.788517
O O15 0.206915 0.036782 0.000000
O O16 0.467661 0.637620 0.229131
O O17 0.504210 0.716987 0.000000
O O18 0.192119 0.590142 0.500000
O O19 0.203386 0.846592 0.000000
O O20 0.052258 0.056148 0.000000
O O21 0.000000 0.000000 0.762034
#
# Coordination Sequence:
#
# PCOD8226340 Si02
#       8
#     8   8   8   8   8   8   8   8
#     4  11  24  40  59  84 115 156 200 238 289 353
#     4  10  20  36  58  80 110 155 194 230 281 339
#     4  10  21  36  56  87 118 148 190 240 291 347
#     4  10  20  36  62  89 114 150 193 238 290 351
#     4  10  21  38  59  85 117 150 189 245 299 344
#     4  10  22  38  55  82 118 152 192 240 285 341
#     4  10  21  38  60  88 119 151 192 241 294 353
#     4   9  18  34  59  86 111 145 190 235 286 343
#
# _framework density 19.224910999999999
#
# number of rings (size 3 to 8) (size 9 to 14) (size 15 to 20)
#    0.000    2.000    1.250    1.875    1.750    5.750 
#    0.000    0.625    0.000    1.500    0.000    0.000 
#    0.000    0.000    0.000    0.000    0.000    0.000 
#
# Total GULP energy -793873.534799 kJ/mol
# GULP energy per Si atom -12404.273981 kJ/mol
# Density = 1.918115 g / cm^3
# Si number density = 19.224911 Si / 1000 Ang^3
#
#
#
# Elastic Constant Matrix: (Units=GPa)
#
#
# Indices 1 2 3 4 5 6 
#
# 1 150.1606 50.7501 38.5616 0.0000 0.0000 0.0000
# 2 50.7501 109.9181 35.2370 0.0000 0.0000 0.0000
# 3 38.5616 35.2370 36.5721 0.0000 0.0000 0.0000
# 4 0.0000 0.0000 0.0000 26.4074 0.0000 0.0000
# 5 0.0000 0.0000 0.0000 0.0000 20.9650 0.0000
# 6 0.0000 0.0000 0.0000 0.0000 0.0000 38.9417
#
#
#
# Elastic Compliance Matrix: (Units=1/GPa)
#
#
# Indices 1 2 3 4 5 6 
#
# 1 0.009340 -0.001672 -0.008237 0.000000 0.000000 0.000000
# 2 -0.001672 0.013463 -0.011209 0.000000 0.000000 0.000000
# 3 -0.008237 -0.011209 0.046828 0.000000 0.000000 0.000000
# 4 0.000000 0.000000 0.000000 0.037868 0.000000 0.000000
# 5 0.000000 0.000000 0.000000 0.000000 0.047699 0.000000
# 6 0.000000 0.000000 0.000000 0.000000 0.000000 0.025679
#
#
# Mechanical properties :
#
#
# Convention : Reuss Voigt Hill
#
# Bulk Modulus (GPa) = 36.50237 60.63871 48.57054
# Shear Modulus (GPa) = 21.52907 28.73629 25.13268
#
# Velocity S-wave (km/s) = 3.35005 3.87038 3.61958
# Velocity P-wave (km/s) = 5.83027 7.18216 6.54123
#
# Compressibility (1/GPa) = 0.02739548
#
# Stress axis : x y z
#
# Youngs Moduli (GPa) = 107.06784 74.27932 21.35461
#
# Poissons Ratio (x) = 0.12416 0.17591
# Poissons Ratio (y) = 0.17897 0.23936
# Poissons Ratio (z) = 0.88196 0.83257
#
# Static dielectric constant tensor:
#      x y z
#    x 3.711360 0.000000 0.000000 
#    y 0.000000 3.585390 0.000000 
#    z 0.000000 0.000000 3.254130 
# 
# 
# High freq. dielectric constant tensor:
#      x y z
#    x 1.765160 0.000000 0.000000 
#    y 0.000000 1.756940 0.000000 
#    z 0.000000 0.000000 1.723270 
# 
# From -- ./inp_files/8944.got.cif
#   From: 2010.03.12/outbox.cif.g09.slc.cpg/sg55_5_cif.got.tgz:8944.got - 2010.04.16 15:19:21.
