data_PCOD8226281
_publ_section_title
;
Structure prediction by ZEFSAII (Michael W. Deem and Ramdas Pophale) SiO2 
 PCOD8226281
Probable space group: P B A M
;
_chemical_formula_sum "Si O2"
_cell_formula_units_Z 64
_cell_length_a 15.354191
_cell_length_b 10.989174
_cell_length_c 17.988928
_cell_angle_alpha 90.000000
_cell_angle_beta 90.000000
_cell_angle_gamma 90.000000
_cell_volume 3035.269600
_symmetry_space_group_name_H-M "P B A M"
_symmetry_group_IT_number 55
_symmetry_cell_setting 'orthorhombic'
loop_
_space_group_symop_operation_xyz
x,y,z
-x,-y,z
1/2+x,1/2-y,-z
1/2-x,1/2+y,-z
-x,-y,-z
x,y,-z
1/2-x,1/2+y,z
1/2+x,1/2-y,z
loop_
_atom_site_type_symbol
_atom_site_label
_atom_site_fract_x
_atom_site_fract_y
_atom_site_fract_z
Si Si1 0.218507 0.029606 0.659437
Si Si2 0.026988 0.365755 0.860240
Si Si3 0.887568 0.960307 0.193134
Si Si4 0.609749 0.676244 0.916439
Si Si5 0.205868 0.260178 0.144039
Si Si6 0.489883 0.279999 0.274119
Si Si7 0.711243 0.723021 0.300810
Si Si8 0.556507 0.381384 0.583313
O O1 0.176849 0.006447 0.740240
O O2 0.288674 0.140079 0.663099
O O3 0.154937 0.076316 0.595119
O O4 0.246210 0.887278 0.643511
O O5 0.962532 0.280043 0.906699
O O6 0.015204 0.341145 0.771269
O O7 0.000000 0.500000 0.880640
O O8 0.129021 0.352059 0.881939
O O9 0.835064 0.873837 0.135872
O O10 0.972132 0.895473 0.228845
O O11 0.914658 0.074226 0.143107
O O12 0.707686 0.726844 0.904624
O O13 0.603550 0.625552 0.000000
O O14 0.224115 0.280378 0.231294
O O15 0.387299 0.300941 0.275881
O O16 0.529467 0.276602 0.357711
O O17 0.500000 0.500000 0.598497
O O18 0.544028 0.330025 0.500000
#
# Coordination Sequence:
#
# PCOD8226281 Si02
#       8
#     8   8   8   8   8   8   8   8
#     4  10  20  35  61  93 127 167 210 273 319 391
#     4  11  26  43  66  97 132 174 225 270 333 408
#     4   9  21  40  65  89 121 164 220 266 322 385
#     4  12  26  43  67  95 127 174 220 279 347 398
#     4  10  23  41  63  91 128 164 211 278 335 394
#     4  10  20  39  68  94 124 167 217 281 316 386
#     4  11  20  35  66  95 125 161 220 270 337 379
#     4  10  20  37  63  95 128 173 221 266 329 391
#
# _framework density 21.085442
#
# number of rings (size 3 to 8) (size 9 to 14) (size 15 to 20)
#    0.000    1.625    3.750    0.750    5.250    4.750 
#    0.000    5.625    0.000    0.375    0.000    0.000 
#    0.000    0.000    0.000    0.000    0.000    0.000 
#
# Total GULP energy -792949.090257 kJ/mol
# GULP energy per Si atom -12389.829535 kJ/mol
# Density = 2.103745 g / cm^3
# Si number density = 21.085442 Si / 1000 Ang^3
#
#
#
# Elastic Constant Matrix: (Units=GPa)
#
#
# Indices 1 2 3 4 5 6 
#
# 1 108.6456 28.8911 21.0994 0.0000 0.0000 0.0000
# 2 28.8911 106.4572 11.7384 0.0000 0.0000 0.0000
# 3 21.0994 11.7384 94.4709 0.0000 0.0000 0.0000
# 4 0.0000 0.0000 0.0000 7.6286 0.0000 0.0000
# 5 0.0000 0.0000 0.0000 0.0000 15.1638 0.0000
# 6 0.0000 0.0000 0.0000 0.0000 0.0000 24.4646
#
#
#
# Elastic Compliance Matrix: (Units=1/GPa)
#
#
# Indices 1 2 3 4 5 6 
#
# 1 0.010271 -0.002570 -0.001975 0.000000 0.000000 0.000000
# 2 -0.002570 0.010167 -0.000689 0.000000 0.000000 0.000000
# 3 -0.001975 -0.000689 0.011112 0.000000 0.000000 0.000000
# 4 0.000000 0.000000 0.000000 0.131085 0.000000 0.000000
# 5 0.000000 0.000000 0.000000 0.000000 0.065946 0.000000
# 6 0.000000 0.000000 0.000000 0.000000 0.000000 0.040875
#
#
# Mechanical properties :
#
#
# Convention : Reuss Voigt Hill
#
# Bulk Modulus (GPa) = 47.43290 48.11463 47.77377
# Shear Modulus (GPa) = 17.42453 25.97440 21.69946
#
# Velocity S-wave (km/s) = 2.87780 3.51360 3.21147
# Velocity P-wave (km/s) = 5.79540 6.27128 6.03803
#
# Compressibility (1/GPa) = 0.02108241
#
# Stress axis : x y z
#
# Youngs Moduli (GPa) = 97.36094 98.35898 89.99320
#
# Poissons Ratio (x) = 0.25275 0.17771
# Poissons Ratio (y) = 0.25019 0.06204
# Poissons Ratio (z) = 0.19226 0.06780
#
# Static dielectric constant tensor:
#      x y z
#    x 3.967970 0.000000 0.000000 
#    y 0.000000 4.080300 0.000000 
#    z 0.000000 0.000000 3.584800 
# 
# 
# High freq. dielectric constant tensor:
#      x y z
#    x 1.834550 0.000000 0.000000 
#    y 0.000000 1.823460 0.000000 
#    z 0.000000 0.000000 1.789940 
# 
# From -- ./inp_files/21643.got.cif
#   From: 2010.03.12/outbox.cif.g09.slc.cpg/sg55_11_cif.got.tgz:21643.got - 2010.04.16 15:19:21.
