data_PCOD8226885
_publ_section_title
;
Structure prediction by ZEFSAII (Michael W. Deem and Ramdas Pophale) SiO2 
 PCOD8226885
Probable space group: P B A M
;
_chemical_formula_sum "Si O2"
_cell_formula_units_Z 56
_cell_length_a 16.522942
_cell_length_b 5.228701
_cell_length_c 29.732762
_cell_angle_alpha 90.000000
_cell_angle_beta 90.000000
_cell_angle_gamma 90.000000
_cell_volume 2568.718068
_symmetry_space_group_name_H-M "P B A M"
_symmetry_group_IT_number 55
_symmetry_cell_setting 'orthorhombic'
loop_
_space_group_symop_operation_xyz
x,y,z
-x,-y,z
1/2+x,1/2-y,-z
1/2-x,1/2+y,-z
-x,-y,-z
x,y,-z
1/2-x,1/2+y,z
1/2+x,1/2-y,z
loop_
_atom_site_type_symbol
_atom_site_label
_atom_site_fract_x
_atom_site_fract_y
_atom_site_fract_z
Si Si1 0.724765 0.211840 0.771188
Si Si2 0.548999 0.252216 0.887278
Si Si3 0.706681 0.668596 0.673909
Si Si4 0.047682 0.247883 0.218159
Si Si5 0.699471 0.839537 0.552520
Si Si6 0.199885 0.204774 0.050676
Si Si7 0.945250 0.250213 0.618946
O O1 0.760268 0.451303 0.799785
O O2 0.781963 0.161493 0.727779
O O3 0.632523 0.243868 0.755874
O O4 0.500000 0.500000 0.903300
O O5 0.568031 0.266174 0.834487
O O6 0.631993 0.238861 0.913268
O O7 0.500000 0.000000 0.899764
O O8 0.744926 0.410046 0.652779
O O9 0.611637 0.692383 0.662355
O O10 0.000000 0.500000 0.231636
O O11 0.000000 0.000000 0.234855
O O12 0.679484 0.833295 0.500000
O O13 0.758246 0.605981 0.566261
O O14 0.613270 0.807454 0.576923
O O15 0.268215 0.418520 0.058548
O O16 0.165145 0.231075 0.000000
O O17 0.000000 0.500000 0.628674
O O18 0.000000 0.000000 0.609283
#
# Coordination Sequence:
#
# PCOD8226885 Si02
#       7
#     8   8   8   8   8   8   8
#     4  10  21  38  59  83 109 146 187 228 280 340
#     4  10  21  36  56  82 112 146 184 228 280 338
#     4  10  21  41  60  80 112 150 192 232 275 341
#     4  10  21  38  58  84 114 142 182 235 285 333
#     4  10  21  39  63  88 118 158 196 231 278 338
#     4  10  21  36  54  80 113 147 187 232 273 321
#     4  12  24  38  60  89 120 153 190 240 289 327
#
# _framework density 21.800757000000001
#
# number of rings (size 3 to 8) (size 9 to 14) (size 15 to 20)
#    0.000    1.714    0.000    4.286    0.000    2.286 
#    0.000   17.143    0.000    0.000    0.000    0.000 
#    0.000    0.000    0.000    0.000    0.000    0.000 
#
# Total GULP energy -694291.178755 kJ/mol
# GULP energy per Si atom -12398.056763 kJ/mol
# Density = 2.175114 g / cm^3
# Si number density = 21.800757 Si / 1000 Ang^3
#
#
#
# Elastic Constant Matrix: (Units=GPa)
#
#
# Indices 1 2 3 4 5 6 
#
# 1 134.7394 65.7162 15.7871 0.0000 0.0000 0.0000
# 2 65.7162 201.8572 6.0998 0.0000 0.0000 0.0000
# 3 15.7871 6.0998 28.1180 0.0000 0.0000 0.0000
# 4 0.0000 0.0000 0.0000 27.5183 0.0000 0.0000
# 5 0.0000 0.0000 0.0000 0.0000 61.5290 0.0000
# 6 0.0000 0.0000 0.0000 0.0000 0.0000 44.8716
#
#
#
# Elastic Compliance Matrix: (Units=1/GPa)
#
#
# Indices 1 2 3 4 5 6 
#
# 1 0.009387 -0.002916 -0.004638 0.000000 0.000000 0.000000
# 2 -0.002916 0.005892 0.000359 0.000000 0.000000 0.000000
# 3 -0.004638 0.000359 0.038091 0.000000 0.000000 0.000000
# 4 0.000000 0.000000 0.000000 0.036339 0.000000 0.000000
# 5 0.000000 0.000000 0.000000 0.000000 0.016253 0.000000
# 6 0.000000 0.000000 0.000000 0.000000 0.000000 0.022286
#
#
# Mechanical properties :
#
#
# Convention : Reuss Voigt Hill
#
# Bulk Modulus (GPa) = 25.65405 59.99119 42.82262
# Shear Modulus (GPa) = 32.12711 45.25787 38.69249
#
# Velocity S-wave (km/s) = 3.84301 4.56123 4.21744
# Velocity P-wave (km/s) = 5.61112 7.43757 6.58795
#
# Compressibility (1/GPa) = 0.03898021
#
# Stress axis : x y z
#
# Youngs Moduli (GPa) = 106.52615 169.70815 26.25323
#
# Poissons Ratio (x) = 0.49486 0.12176
# Poissons Ratio (y) = 0.31063 -0.00942
# Poissons Ratio (z) = 0.49407 -0.06091
#
# Static dielectric constant tensor:
#      x y z
#    x 3.762900 0.000000 0.000000 
#    y 0.000000 5.101520 0.000000 
#    z 0.000000 0.000000 3.730210 
# 
# 
# High freq. dielectric constant tensor:
#      x y z
#    x 1.855000 0.000000 0.000000 
#    y 0.000000 1.893750 0.000000 
#    z 0.000000 0.000000 1.837430 
# 
# From -- ./inp_files/24071.got.cif
#   From: 2010.03.12/outbox.cif.g09.slc.cpg/sg55_13_cif.got.tgz:24071.got - 2010.04.16 15:19:21.
