data_PCOD8226922
_publ_section_title
;
Structure prediction by ZEFSAII (Michael W. Deem and Ramdas Pophale) SiO2 
 PCOD8226922
Probable space group: P B A M
;
_chemical_formula_sum "Si O2"
_cell_formula_units_Z 36
_cell_length_a 12.952551
_cell_length_b 5.113972
_cell_length_c 23.928343
_cell_angle_alpha 90.000000
_cell_angle_beta 90.000000
_cell_angle_gamma 90.000000
_cell_volume 1584.989109
_symmetry_space_group_name_H-M "P B A M"
_symmetry_group_IT_number 55
_symmetry_cell_setting 'orthorhombic'
loop_
_space_group_symop_operation_xyz
x,y,z
-x,-y,z
1/2+x,1/2-y,-z
1/2-x,1/2+y,-z
-x,-y,-z
x,y,-z
1/2-x,1/2+y,z
1/2+x,1/2-y,z
loop_
_atom_site_type_symbol
_atom_site_label
_atom_site_fract_x
_atom_site_fract_y
_atom_site_fract_z
Si Si1 0.068611 0.751570 0.060452
Si Si2 0.000000 0.500000 0.634713
Si Si3 0.683488 0.172918 0.565564
Si Si4 0.821456 0.304160 0.708151
Si Si5 0.692089 0.871614 0.169086
O O1 0.140906 0.727669 0.113034
O O2 0.000000 0.500000 0.056538
O O3 0.127224 0.783417 0.000000
O O4 0.000000 0.000000 0.072262
O O5 0.927266 0.683375 0.596126
O O6 0.925688 0.315062 0.671647
O O7 0.660829 0.179103 0.500000
O O8 0.754657 0.413933 0.584061
O O9 0.744834 0.546023 0.695234
O O10 0.863676 0.303534 0.772304
O O11 0.793489 0.684461 0.168694
#
# Coordination Sequence:
#
# PCOD8226922 Si02
#       5
#     8   4   8   8   8
#     4  10  21  36  57  86 116 147 193 248 299 360
#     4  12  23  40  68  92 121 174 208 248 314 374
#     4  10  23  42  64  94 130 162 204 260 306 363
#     4  10  24  42  58  89 126 157 207 260 299 358
#     4  10  21  39  58  81 115 153 194 245 300 356
#
# _framework density 22.713089
#
# number of rings (size 3 to 8) (size 9 to 14) (size 15 to 20)
#    0.000    1.778    0.000    3.000    1.556    4.444 
#    0.000    3.333    0.000    0.000    0.000    0.000 
#    0.000    0.000    0.000    0.000    0.000    0.000 
#
# Total GULP energy -446065.220664 kJ/mol
# GULP energy per Si atom -12390.700574 kJ/mol
# Density = 2.266139 g / cm^3
# Si number density = 22.713089 Si / 1000 Ang^3
#
#
#
# Elastic Constant Matrix: (Units=GPa)
#
#
# Indices 1 2 3 4 5 6 
#
# 1 99.0659 15.0914 87.4085 0.0000 0.0000 0.0000
# 2 15.0914 108.0123 30.8329 0.0000 0.0000 0.0000
# 3 87.4085 30.8329 152.9077 0.0000 0.0000 0.0000
# 4 0.0000 0.0000 0.0000 27.2716 0.0000 0.0000
# 5 0.0000 0.0000 0.0000 0.0000 40.4639 0.0000
# 6 0.0000 0.0000 0.0000 0.0000 0.0000 21.6634
#
#
#
# Elastic Compliance Matrix: (Units=1/GPa)
#
#
# Indices 1 2 3 4 5 6 
#
# 1 0.020393 0.000508 -0.011760 0.000000 0.000000 0.000000
# 2 0.000508 0.009836 -0.002274 0.000000 0.000000 0.000000
# 3 -0.011760 -0.002274 0.013721 0.000000 0.000000 0.000000
# 4 0.000000 0.000000 0.000000 0.036668 0.000000 0.000000
# 5 0.000000 0.000000 0.000000 0.000000 0.024713 0.000000
# 6 0.000000 0.000000 0.000000 0.000000 0.000000 0.046161
#
#
# Mechanical properties :
#
#
# Convention : Reuss Voigt Hill
#
# Bulk Modulus (GPa) = 59.17716 69.62795 64.40256
# Shear Modulus (GPa) = 27.14779 32.98998 30.06888
#
# Velocity S-wave (km/s) = 3.46099 3.81526 3.64243
# Velocity P-wave (km/s) = 6.48707 7.08027 6.79015
#
# Compressibility (1/GPa) = 0.01689841
#
# Stress axis : x y z
#
# Youngs Moduli (GPa) = 49.03635 101.66427 72.88201
#
# Poissons Ratio (x) = -0.05161 0.85708
# Poissons Ratio (y) = -0.02489 0.16571
# Poissons Ratio (z) = 0.57666 0.23115
#
# Static dielectric constant tensor:
#      x y z
#    x 3.709120 0.000000 0.000000 
#    y 0.000000 4.330600 0.000000 
#    z 0.000000 0.000000 5.180350 
# 
# 
# High freq. dielectric constant tensor:
#      x y z
#    x 1.856920 0.000000 0.000000 
#    y 0.000000 1.906930 0.000000 
#    z 0.000000 0.000000 1.941850 
# 
# From -- ./inp_files/23525.got.cif
#   From: 2010.03.12/outbox.cif.g09.slc.cpg/sg55_12_cif.got.tgz:23525.got - 2010.04.16 15:19:21.
