data_PCOD8226665
_publ_section_title
;
Structure prediction by ZEFSAII (Michael W. Deem and Ramdas Pophale) SiO2 
 PCOD8226665
Probable space group: P B A M
;
_chemical_formula_sum "Si O2"
_cell_formula_units_Z 64
_cell_length_a 18.017664
_cell_length_b 19.178693
_cell_length_c 8.993113
_cell_angle_alpha 90.000000
_cell_angle_beta 90.000000
_cell_angle_gamma 90.000000
_cell_volume 3107.617379
_symmetry_space_group_name_H-M "P B A M"
_symmetry_group_IT_number 55
_symmetry_cell_setting 'orthorhombic'
loop_
_space_group_symop_operation_xyz
x,y,z
-x,-y,z
1/2+x,1/2-y,-z
1/2-x,1/2+y,-z
-x,-y,-z
x,y,-z
1/2-x,1/2+y,z
1/2+x,1/2-y,z
loop_
_atom_site_type_symbol
_atom_site_label
_atom_site_fract_x
_atom_site_fract_y
_atom_site_fract_z
Si Si1 0.909694 0.086925 0.171462
Si Si2 0.360107 0.544173 0.670234
Si Si3 0.563960 0.336830 0.171977
Si Si4 0.780305 0.188704 0.824850
Si Si5 0.521589 0.198985 0.675903
Si Si6 0.148004 0.684219 0.675034
Si Si7 0.811296 0.470318 0.329260
Si Si8 0.134359 0.394528 0.824418
O O1 0.912586 0.016262 0.265548
O O2 0.844059 0.136127 0.230686
O O3 0.986026 0.126015 0.197632
O O4 0.897353 0.066445 0.000000
O O5 0.381521 0.558310 0.500000
O O6 0.371321 0.615065 0.762176
O O7 0.276168 0.519616 0.688885
O O8 0.565358 0.264702 0.259332
O O9 0.580352 0.321416 0.000000
O O10 0.793222 0.263605 0.750005
O O11 0.701557 0.156668 0.775974
O O12 0.785346 0.199351 0.000000
O O13 0.529796 0.196459 0.500000
O O14 0.435679 0.202520 0.724551
O O15 0.559048 0.130366 0.745318
O O16 0.158975 0.691133 0.500000
O O17 0.165530 0.606003 0.727996
O O18 0.835957 0.481069 0.500000
O O19 0.851348 0.526757 0.226941
O O20 0.123467 0.394072 0.000000
#
# Coordination Sequence:
#
# PCOD8226665 Si02
#       8
#     8   8   8   8   8   8   8   8
#     4  10  20  38  61  86 122 165 203 248 304 363
#     4  11  23  37  58  90 126 162 204 252 303 367
#     4  11  23  39  60  87 124 164 203 251 304 365
#     4  10  21  39  63  91 123 158 200 248 303 363
#     4  11  24  42  64  90 122 161 204 255 308 363
#     4  10  23  42  65  91 122 161 205 251 306 363
#     4  10  23  43  63  89 122 160 203 252 306 361
#     4  11  24  42  65  93 123 161 206 252 306 364
#
# _framework density 20.594556000000001
#
# number of rings (size 3 to 8) (size 9 to 14) (size 15 to 20)
#    0.000    1.500    2.500    1.875    1.750    6.000 
#    0.000    2.500    0.000    0.000    0.000    0.000 
#    0.000    0.000    0.000    0.000    0.000    0.000 
#
# Total GULP energy -794005.226012 kJ/mol
# GULP energy per Si atom -12406.331656 kJ/mol
# Density = 2.054768 g / cm^3
# Si number density = 20.594556 Si / 1000 Ang^3
#
#
#
# Elastic Constant Matrix: (Units=GPa)
#
#
# Indices 1 2 3 4 5 6 
#
# 1 26.1971 17.3156 20.6281 0.0000 0.0000 0.0000
# 2 17.3156 126.3176 40.4292 0.0000 0.0000 0.0000
# 3 20.6281 40.4292 71.4390 0.0000 0.0000 0.0000
# 4 0.0000 0.0000 0.0000 34.4734 0.0000 0.0000
# 5 0.0000 0.0000 0.0000 0.0000 26.7256 0.0000
# 6 0.0000 0.0000 0.0000 0.0000 0.0000 35.7882
#
#
#
# Elastic Compliance Matrix: (Units=1/GPa)
#
#
# Indices 1 2 3 4 5 6 
#
# 1 0.050168 -0.002736 -0.012938 0.000000 0.000000 0.000000
# 2 -0.002736 0.009817 -0.004766 0.000000 0.000000 0.000000
# 3 -0.012938 -0.004766 0.020431 0.000000 0.000000 0.000000
# 4 0.000000 0.000000 0.000000 0.029008 0.000000 0.000000
# 5 0.000000 0.000000 0.000000 0.000000 0.037417 0.000000
# 6 0.000000 0.000000 0.000000 0.000000 0.000000 0.027942
#
#
# Mechanical properties :
#
#
# Convention : Reuss Voigt Hill
#
# Bulk Modulus (GPa) = 25.29287 42.29994 33.79640
# Shear Modulus (GPa) = 21.84929 29.10282 25.47606
#
# Velocity S-wave (km/s) = 3.26072 3.76324 3.52096
# Velocity P-wave (km/s) = 5.14630 6.28225 5.74243
#
# Compressibility (1/GPa) = 0.03953684
#
# Stress axis : x y z
#
# Youngs Moduli (GPa) = 19.93305 101.86512 48.94613
#
# Poissons Ratio (x) = 0.27873 0.63324
# Poissons Ratio (y) = 0.05454 0.23326
# Poissons Ratio (z) = 0.25788 0.48544
#
# Static dielectric constant tensor:
#      x y z
#    x 3.747430 0.000000 0.000000 
#    y 0.000000 3.753850 0.000000 
#    z 0.000000 0.000000 3.653380 
# 
# 
# High freq. dielectric constant tensor:
#      x y z
#    x 1.805820 0.000000 0.000000 
#    y 0.000000 1.815530 0.000000 
#    z 0.000000 0.000000 1.802210 
# 
# From -- ./inp_files/9060.got.cif
#   From: 2010.03.12/outbox.cif.g09.slc.cpg/sg55_5_cif.got.tgz:9060.got - 2010.04.16 15:19:21.
