data_PCOD8226147
_publ_section_title
;
Structure prediction by ZEFSAII (Michael W. Deem and Ramdas Pophale) SiO2 
 PCOD8226147
Probable space group: P B A M
;
_chemical_formula_sum "Si O2"
_cell_formula_units_Z 64
_cell_length_a 16.059701
_cell_length_b 22.478286
_cell_length_c 9.546068
_cell_angle_alpha 90.000000
_cell_angle_beta 90.000000
_cell_angle_gamma 90.000000
_cell_volume 3446.078542
_symmetry_space_group_name_H-M "P B A M"
_symmetry_group_IT_number 55
_symmetry_cell_setting 'orthorhombic'
loop_
_space_group_symop_operation_xyz
x,y,z
-x,-y,z
1/2+x,1/2-y,-z
1/2-x,1/2+y,-z
-x,-y,-z
x,y,-z
1/2-x,1/2+y,z
1/2+x,1/2-y,z
loop_
_atom_site_type_symbol
_atom_site_label
_atom_site_fract_x
_atom_site_fract_y
_atom_site_fract_z
Si Si1 0.433842 0.948713 0.334511
Si Si2 0.089133 0.026057 0.333466
Si Si3 0.254789 0.449837 0.335321
Si Si4 0.547727 0.169681 0.162985
Si Si5 0.614447 0.362219 0.152049
Si Si6 0.319164 0.322938 0.335142
Si Si7 0.296967 0.750656 0.161685
Si Si8 0.544514 0.716481 0.152431
O O1 0.434325 0.935648 0.500000
O O2 0.339160 0.967809 0.286940
O O3 0.462478 0.889256 0.255947
O O4 0.500000 0.000000 0.295051
O O5 0.090313 0.028962 0.500000
O O6 0.096996 0.092009 0.274691
O O7 0.169407 0.989813 0.273210
O O8 0.000000 0.000000 0.281872
O O9 0.261998 0.455638 0.500000
O O10 0.271434 0.382388 0.287970
O O11 0.628932 0.205955 0.211506
O O12 0.468739 0.213518 0.189489
O O13 0.553031 0.151188 0.000000
O O14 0.692677 0.320157 0.188695
O O15 0.544794 0.312521 0.135838
O O16 0.625747 0.394547 0.000000
O O17 0.321379 0.315176 0.500000
O O18 0.280027 0.265866 0.260744
O O19 0.412222 0.322119 0.274230
O O20 0.276442 0.762970 0.000000
O O21 0.590290 0.711648 0.000000
#
# Coordination Sequence:
#
# PCOD8226147 Si02
#       8
#     8   8   8   8   8   8   8   8
#     4  10  20  36  57  77 105 147 186 231 285 324
#     4  10  20  35  55  78 111 152 184 223 280 328
#     4   9  19  35  53  78 111 144 184 231 274 324
#     4   9  18  35  57  78 103 138 178 221 274 329
#     4   9  19  36  55  76 105 142 180 217 266 326
#     4  11  20  32  54  82 107 136 180 226 267 321
#     4   9  18  34  55  76 105 140 171 215 276 328
#     4   9  19  35  54  78 110 143 171 216 278 330
#
# _framework density 18.571833999999999
#
# number of rings (size 3 to 8) (size 9 to 14) (size 15 to 20)
#    0.000    2.500    1.250    2.625    0.000    3.000 
#    2.250    4.375    0.000    0.000    0.000    0.000 
#    0.000    0.000    0.000    0.000    0.000    0.000 
#
# Total GULP energy -792991.052210 kJ/mol
# GULP energy per Si atom -12390.485191 kJ/mol
# Density = 1.852956 g / cm^3
# Si number density = 18.571834 Si / 1000 Ang^3
#
#
#
# Elastic Constant Matrix: (Units=GPa)
#
#
# Indices 1 2 3 4 5 6 
#
# 1 89.0628 44.3562 23.1056 0.0000 0.0000 0.0000
# 2 44.3562 97.9979 42.0212 0.0000 0.0000 0.0000
# 3 23.1056 42.0212 54.0743 0.0000 0.0000 0.0000
# 4 0.0000 0.0000 0.0000 31.7758 0.0000 0.0000
# 5 0.0000 0.0000 0.0000 0.0000 24.6612 0.0000
# 6 0.0000 0.0000 0.0000 0.0000 0.0000 26.4183
#
#
#
# Elastic Compliance Matrix: (Units=1/GPa)
#
#
# Indices 1 2 3 4 5 6 
#
# 1 0.014594 -0.005896 -0.001654 0.000000 0.000000 0.000000
# 2 -0.005896 0.017686 -0.011224 0.000000 0.000000 0.000000
# 3 -0.001654 -0.011224 0.027922 0.000000 0.000000 0.000000
# 4 0.000000 0.000000 0.000000 0.031470 0.000000 0.000000
# 5 0.000000 0.000000 0.000000 0.000000 0.040550 0.000000
# 6 0.000000 0.000000 0.000000 0.000000 0.000000 0.037853
#
#
# Mechanical properties :
#
#
# Convention : Reuss Voigt Hill
#
# Bulk Modulus (GPa) = 44.14427 51.12233 47.63330
# Shear Modulus (GPa) = 23.23695 25.34786 24.29240
#
# Velocity S-wave (km/s) = 3.54106 3.69840 3.62059
# Velocity P-wave (km/s) = 6.36709 6.76935 6.57130
#
# Compressibility (1/GPa) = 0.02265299
#
# Stress axis : x y z
#
# Youngs Moduli (GPa) = 68.52306 56.54146 35.81376
#
# Poissons Ratio (x) = 0.33339 0.05923
# Poissons Ratio (y) = 0.40403 0.40199
# Poissons Ratio (z) = 0.11332 0.63465
#
# Static dielectric constant tensor:
#      x y z
#    x 3.546030 0.000000 0.000000 
#    y 0.000000 3.325370 0.000000 
#    z 0.000000 0.000000 3.204600 
# 
# 
# High freq. dielectric constant tensor:
#      x y z
#    x 1.720460 0.000000 0.000000 
#    y 0.000000 1.713110 0.000000 
#    z 0.000000 0.000000 1.705120 
# 
# From -- ./inp_files/7928.got.cif
#   From: 2010.03.12/outbox.cif.g09.slc.cpg/sg55_4_cif.got.tgz:7928.got - 2010.04.16 15:19:21.
