data_PCOD8226957
_publ_section_title
;
Structure prediction by ZEFSAII (Michael W. Deem and Ramdas Pophale) SiO2 
 PCOD8226957
Probable space group: P B A M
;
_chemical_formula_sum "Si O2"
_cell_formula_units_Z 64
_cell_length_a 9.140730
_cell_length_b 27.616121
_cell_length_c 14.422793
_cell_angle_alpha 90.000000
_cell_angle_beta 90.000000
_cell_angle_gamma 90.000000
_cell_volume 3640.767354
_symmetry_space_group_name_H-M "P B A M"
_symmetry_group_IT_number 55
_symmetry_cell_setting 'orthorhombic'
loop_
_space_group_symop_operation_xyz
x,y,z
-x,-y,z
1/2+x,1/2-y,-z
1/2-x,1/2+y,-z
-x,-y,-z
x,y,-z
1/2-x,1/2+y,z
1/2+x,1/2-y,z
loop_
_atom_site_type_symbol
_atom_site_label
_atom_site_fract_x
_atom_site_fract_y
_atom_site_fract_z
Si Si1 0.162308 0.705648 0.108443
Si Si2 0.937515 0.050838 0.106227
Si Si3 0.890959 0.071407 0.606115
Si Si4 0.729613 0.395795 0.106780
Si Si5 0.291499 0.536812 0.394362
Si Si6 0.822855 0.699073 0.109750
Si Si7 0.272909 0.893819 0.772145
Si Si8 0.434388 0.052533 0.759462
O O1 0.238182 0.657346 0.149967
O O2 0.238974 0.753684 0.147812
O O3 0.992252 0.706385 0.132884
O O4 0.190935 0.705834 0.000000
O O5 0.797506 0.062914 0.167832
O O6 0.058708 0.092684 0.118804
O O7 0.886886 0.045967 0.000000
O O8 0.000000 0.000000 0.142714
O O9 0.878697 0.089678 0.500000
O O10 0.814657 0.110287 0.674463
O O11 0.059899 0.064341 0.635356
O O12 0.807535 0.020629 0.618223
O O13 0.827160 0.436444 0.155543
O O14 0.777512 0.397462 0.000000
O O15 0.255098 0.549340 0.500000
O O16 0.156233 0.555944 0.335383
O O17 0.758487 0.655087 0.169157
O O18 0.796959 0.689032 0.000000
O O19 0.440858 0.906728 0.753295
O O20 0.500000 0.000000 0.776200
#
# Coordination Sequence:
#
# PCOD8226957 Si02
#       8
#     8   8   8   8   8   8   8   8
#     4   9  19  36  56  76 103 138 182 231 277 318
#     4  10  22  36  50  72 108 155 197 220 252 316
#     4   9  19  36  57  78 105 144 185 224 267 318
#     4  10  21  37  53  73 107 149 188 225 263 319
#     4   9  19  36  55  75 105 145 186 224 263 315
#     4  10  21  37  56  80 108 140 181 231 281 323
#     4  12  22  32  54  82 112 140 179 230 274 324
#     4  12  22  32  50  79 114 149 177 216 271 325
#
# _framework density 17.578713
#
# number of rings (size 3 to 8) (size 9 to 14) (size 15 to 20)
#    0.000    1.875    2.500    2.625    3.500    1.500 
#    0.000    0.000    0.000    0.000    0.000    1.750 
#    0.000    0.000    0.000    0.000    0.000    0.000 
#
# Total GULP energy -793704.424785 kJ/mol
# GULP energy per Si atom -12401.631637 kJ/mol
# Density = 1.753870 g / cm^3
# Si number density = 17.578713 Si / 1000 Ang^3
#
#
#
# Elastic Constant Matrix: (Units=GPa)
#
#
# Indices 1 2 3 4 5 6 
#
# 1 81.2029 32.0475 41.3031 0.0000 0.0000 0.0000
# 2 32.0475 80.9312 36.5807 0.0000 0.0000 0.0000
# 3 41.3031 36.5807 73.9012 0.0000 0.0000 0.0000
# 4 0.0000 0.0000 0.0000 17.4004 0.0000 0.0000
# 5 0.0000 0.0000 0.0000 0.0000 25.7087 0.0000
# 6 0.0000 0.0000 0.0000 0.0000 0.0000 30.5255
#
#
#
# Elastic Compliance Matrix: (Units=1/GPa)
#
#
# Indices 1 2 3 4 5 6 
#
# 1 0.017865 -0.003299 -0.008351 0.000000 0.000000 0.000000
# 2 -0.003299 0.016527 -0.006337 0.000000 0.000000 0.000000
# 3 -0.008351 -0.006337 0.021336 0.000000 0.000000 0.000000
# 4 0.000000 0.000000 0.000000 0.057470 0.000000 0.000000
# 5 0.000000 0.000000 0.000000 0.000000 0.038897 0.000000
# 6 0.000000 0.000000 0.000000 0.000000 0.000000 0.032760
#
#
# Mechanical properties :
#
#
# Convention : Reuss Voigt Hill
#
# Bulk Modulus (GPa) = 50.62653 50.65534 50.64094
# Shear Modulus (GPa) = 21.98638 23.13385 22.56011
#
# Velocity S-wave (km/s) = 3.54042 3.63163 3.58631
# Velocity P-wave (km/s) = 6.75094 6.81644 6.78377
#
# Compressibility (1/GPa) = 0.01975249
#
# Stress axis : x y z
#
# Youngs Moduli (GPa) = 55.97591 60.50758 46.86957
#
# Poissons Ratio (x) = 0.19964 0.39143
# Poissons Ratio (y) = 0.18469 0.29700
# Poissons Ratio (z) = 0.46748 0.38342
#
# Static dielectric constant tensor:
#      x y z
#    x 3.346290 0.000000 0.000000 
#    y 0.000000 3.231020 0.000000 
#    z 0.000000 0.000000 3.185010 
# 
# 
# High freq. dielectric constant tensor:
#      x y z
#    x 1.691900 0.000000 0.000000 
#    y 0.000000 1.656850 0.000000 
#    z 0.000000 0.000000 1.661870 
# 
# From -- ./inp_files/17799.got.cif
#   From: 2010.03.12/outbox.cif.g09.slc.cpg/sg55_9_cif.got.tgz:17799.got - 2010.04.16 15:19:21.
