data_PCOD8226082
_publ_section_title
;
Structure prediction by ZEFSAII (Michael W. Deem and Ramdas Pophale) SiO2 
 PCOD8226082
Probable space group: P B A M
;
_chemical_formula_sum "Si O2"
_cell_formula_units_Z 64
_cell_length_a 23.780521
_cell_length_b 9.591446
_cell_length_c 14.081347
_cell_angle_alpha 90.000000
_cell_angle_beta 90.000000
_cell_angle_gamma 90.000000
_cell_volume 3211.808566
_symmetry_space_group_name_H-M "P B A M"
_symmetry_group_IT_number 55
_symmetry_cell_setting 'orthorhombic'
loop_
_space_group_symop_operation_xyz
x,y,z
-x,-y,z
1/2+x,1/2-y,-z
1/2-x,1/2+y,-z
-x,-y,-z
x,y,-z
1/2-x,1/2+y,z
1/2+x,1/2-y,z
loop_
_atom_site_type_symbol
_atom_site_label
_atom_site_fract_x
_atom_site_fract_y
_atom_site_fract_z
Si Si1 0.285823 0.495391 0.107285
Si Si2 0.914566 0.845328 0.609652
Si Si3 0.489405 0.165974 0.698863
Si Si4 0.818975 0.771823 0.743918
Si Si5 0.338621 0.007003 0.164436
Si Si6 0.954189 0.381257 0.101139
Si Si7 0.194781 0.774963 0.743286
Si Si8 0.100807 0.845723 0.393573
O O1 0.311039 0.619439 0.170171
O O2 0.217960 0.499673 0.101678
O O3 0.306153 0.349950 0.153397
O O4 0.309392 0.505439 0.000000
O O5 0.914224 0.794825 0.500000
O O6 0.852582 0.832869 0.654701
O O7 0.954927 0.749576 0.672601
O O8 0.932874 0.007724 0.615956
O O9 0.468505 0.209887 0.805398
O O10 0.439794 0.216306 0.629944
O O11 0.500000 0.000000 0.688888
O O12 0.852183 0.639711 0.785984
O O13 0.758287 0.724912 0.703779
O O14 0.392565 0.049572 0.103736
O O15 0.329060 0.119603 0.247614
O O16 0.000000 0.500000 0.098492
O O17 0.957498 0.297094 0.000000
O O18 0.156137 0.857556 0.670311
O O19 0.122300 0.823812 0.500000
#
# Coordination Sequence:
#
# PCOD8226082 Si02
#       8
#     8   8   8   8   8   8   8   8
#     4  10  21  37  60  89 122 162 205 247 300 366
#     4  11  24  42  64  88 118 163 205 251 313 375
#     4  11  23  42  64  92 125 152 202 262 303 355
#     4  10  21  38  61  89 125 157 202 255 304 364
#     4  10  20  36  59  88 123 158 202 250 300 353
#     4  10  20  34  56  86 122 160 194 235 298 356
#     4  10  21  39  59  88 126 159 196 253 308 364
#     4  11  23  42  65  87 116 162 207 250 312 373
#
# _framework density 19.926469000000001
#
# number of rings (size 3 to 8) (size 9 to 14) (size 15 to 20)
#    0.000    1.625    2.500    2.625    0.000    8.000 
#    0.000    0.625    0.000    0.750    0.000    0.000 
#    0.000    0.000    0.000    0.000    0.000    0.000 
#
# Total GULP energy -793320.741019 kJ/mol
# GULP energy per Si atom -12395.636578 kJ/mol
# Density = 1.988112 g / cm^3
# Si number density = 19.926469 Si / 1000 Ang^3
#
#
#
# Elastic Constant Matrix: (Units=GPa)
#
#
# Indices 1 2 3 4 5 6 
#
# 1 98.0245 26.5586 52.6422 0.0000 0.0000 0.0000
# 2 26.5586 93.6526 44.2490 0.0000 0.0000 0.0000
# 3 52.6422 44.2490 127.7945 0.0000 0.0000 0.0000
# 4 0.0000 0.0000 0.0000 12.1843 0.0000 0.0000
# 5 0.0000 0.0000 0.0000 0.0000 18.9374 0.0000
# 6 0.0000 0.0000 0.0000 0.0000 0.0000 26.5342
#
#
#
# Elastic Compliance Matrix: (Units=1/GPa)
#
#
# Indices 1 2 3 4 5 6 
#
# 1 0.013253 -0.001410 -0.004971 0.000000 0.000000 0.000000
# 2 -0.001410 0.012916 -0.003892 0.000000 0.000000 0.000000
# 3 -0.004971 -0.003892 0.011220 0.000000 0.000000 0.000000
# 4 0.000000 0.000000 0.000000 0.082073 0.000000 0.000000
# 5 0.000000 0.000000 0.000000 0.000000 0.052806 0.000000
# 6 0.000000 0.000000 0.000000 0.000000 0.000000 0.037687
#
#
# Mechanical properties :
#
#
# Convention : Reuss Voigt Hill
#
# Bulk Modulus (GPa) = 59.36559 62.93014 61.14787
# Shear Modulus (GPa) = 21.17611 24.59930 22.88770
#
# Velocity S-wave (km/s) = 3.26346 3.51736 3.39279
# Velocity P-wave (km/s) = 6.63756 6.93870 6.78980
#
# Compressibility (1/GPa) = 0.01684477
#
# Stress axis : x y z
#
# Youngs Moduli (GPa) = 75.45360 77.42207 89.12381
#
# Poissons Ratio (x) = 0.10913 0.44306
# Poissons Ratio (y) = 0.10636 0.34683
# Poissons Ratio (z) = 0.37510 0.30130
#
# Static dielectric constant tensor:
#      x y z
#    x 3.801200 0.000000 0.000000 
#    y 0.000000 3.625740 0.000000 
#    z 0.000000 0.000000 3.866470 
# 
# 
# High freq. dielectric constant tensor:
#      x y z
#    x 1.783140 0.000000 0.000000 
#    y 0.000000 1.771290 0.000000 
#    z 0.000000 0.000000 1.770780 
# 
# From -- ./inp_files/19982.got.cif
#   From: 2010.03.12/outbox.cif.g09.slc.cpg/sg55_10_cif.got.tgz:19982.got - 2010.04.16 15:19:21.
