data_PCOD8226562
_publ_section_title
;
Structure prediction by ZEFSAII (Michael W. Deem and Ramdas Pophale) SiO2 
 PCOD8226562
Probable space group: P B A M
;
_chemical_formula_sum "Si O2"
_cell_formula_units_Z 48
_cell_length_a 17.754439
_cell_length_b 8.679648
_cell_length_c 16.747817
_cell_angle_alpha 90.000000
_cell_angle_beta 90.000000
_cell_angle_gamma 90.000000
_cell_volume 2580.876801
_symmetry_space_group_name_H-M "P B A M"
_symmetry_group_IT_number 55
_symmetry_cell_setting 'orthorhombic'
loop_
_space_group_symop_operation_xyz
x,y,z
-x,-y,z
1/2+x,1/2-y,-z
1/2-x,1/2+y,-z
-x,-y,-z
x,y,-z
1/2-x,1/2+y,z
1/2+x,1/2-y,z
loop_
_atom_site_type_symbol
_atom_site_label
_atom_site_fract_x
_atom_site_fract_y
_atom_site_fract_z
Si Si1 0.419341 0.927502 0.090208
Si Si2 0.581016 0.575235 0.409736
Si Si3 0.555139 0.856135 0.299739
Si Si4 0.663753 0.394391 0.280576
Si Si5 0.815086 0.543828 0.237937
Si Si6 0.029712 0.152811 0.828021
O O1 0.350989 0.969909 0.149067
O O2 0.431184 0.745097 0.100297
O O3 0.500000 0.000000 0.114441
O O4 0.396251 0.971061 0.000000
O O5 0.500000 0.500000 0.405770
O O6 0.609940 0.593906 0.500000
O O7 0.567213 0.744255 0.373926
O O8 0.645329 0.469501 0.366863
O O9 0.527540 0.762450 0.221360
O O10 0.500000 0.000000 0.318519
O O11 0.638239 0.924223 0.289986
O O12 0.729413 0.488441 0.236089
O O13 0.680855 0.211725 0.279376
O O14 0.587875 0.422474 0.233081
O O15 0.000000 0.000000 0.871117
#
# Coordination Sequence:
#
# PCOD8226562 Si02
#       6
#     8   8   8   8   8   8
#     4  10  20  37  60  90 122 154 195 251 304 353
#     4  11  22  38  61  90 122 153 195 255 303 350
#     4  12  18  37  61  89 120 156 206 241 293 370
#     4  11  21  38  57  88 115 161 203 246 297 364
#     4  11  22  36  62  86 117 161 205 247 298 369
#     4  11  19  35  62  87 119 157 203 248 286 368
#
# _framework density 18.598330000000001
#
# number of rings (size 3 to 8) (size 9 to 14) (size 15 to 20)
#    0.000    1.000    8.333    1.000    0.000    0.667 
#    0.000    7.500    0.000    0.000    0.000    0.000 
#    0.000    0.000    0.000    0.000    0.000    0.000 
#
# Total GULP energy -594644.724388 kJ/mol
# GULP energy per Si atom -12388.431758 kJ/mol
# Density = 1.855600 g / cm^3
# Si number density = 18.598330 Si / 1000 Ang^3
#
#
#
# Elastic Constant Matrix: (Units=GPa)
#
#
# Indices 1 2 3 4 5 6 
#
# 1 34.5042 21.2685 15.5437 0.0000 0.0000 0.0000
# 2 21.2685 113.5420 42.6057 0.0000 0.0000 0.0000
# 3 15.5437 42.6057 94.9440 0.0000 0.0000 0.0000
# 4 0.0000 0.0000 0.0000 -1.0726 0.0000 0.0000
# 5 0.0000 0.0000 0.0000 0.0000 21.0487 0.0000
# 6 0.0000 0.0000 0.0000 0.0000 0.0000 40.8773
#
#
#
# Elastic Compliance Matrix: (Units=1/GPa)
#
#
# Indices 1 2 3 4 5 6 
#
# 1 0.033562 -0.005080 -0.003215 0.000000 0.000000 0.000000
# 2 -0.005080 0.011360 -0.004266 0.000000 0.000000 0.000000
# 3 -0.003215 -0.004266 0.012973 0.000000 0.000000 0.000000
# 4 0.000000 0.000000 0.000000 -0.932304 0.000000 0.000000
# 5 0.000000 0.000000 0.000000 0.000000 0.047509 0.000000
# 6 0.000000 0.000000 0.000000 0.000000 0.000000 0.024463
#
#
# Mechanical properties :
#
#
# Convention : Reuss Voigt Hill
#
# Bulk Modulus (GPa) = 30.51339 44.64731 37.58035
# Shear Modulus (GPa) = -6.52409 23.07551 8.27571
#
# Velocity S-wave (km/s) = -1.87497 3.52622 2.11172
# Velocity P-wave (km/s) = 3.42853 6.37473 5.11820
#
# Compressibility (1/GPa) = 0.03277250
#
# Stress axis : x y z
#
# Youngs Moduli (GPa) = 29.79586 88.03045 77.08251
#
# Poissons Ratio (x) = 0.44723 0.24780
# Poissons Ratio (y) = 0.15138 0.32882
# Poissons Ratio (z) = 0.09578 0.37553
#
# Static dielectric constant tensor:
#      x y z
#    x 3.471930 0.000000 0.000000 
#    y 0.000000 3.725780 0.000000 
#    z 0.000000 0.000000 3.297600 
# 
# 
# High freq. dielectric constant tensor:
#      x y z
#    x 1.716010 0.000000 0.000000 
#    y 0.000000 1.744500 0.000000 
#    z 0.000000 0.000000 1.695380 
# 
# From -- ./inp_files/20905.got.cif
#   From: 2010.03.12/outbox.cif.g09.slc.cpg/sg55_11_cif.got.tgz:20905.got - 2010.04.16 15:19:21.
