data_PCOD8226808
_publ_section_title
;
Structure prediction by ZEFSAII (Michael W. Deem and Ramdas Pophale) SiO2 
 PCOD8226808
Probable space group: P B A M
;
_chemical_formula_sum "Si O2"
_cell_formula_units_Z 64
_cell_length_a 18.480126
_cell_length_b 11.503752
_cell_length_c 14.517063
_cell_angle_alpha 90.000000
_cell_angle_beta 90.000000
_cell_angle_gamma 90.000000
_cell_volume 3086.193840
_symmetry_space_group_name_H-M "P B A M"
_symmetry_group_IT_number 55
_symmetry_cell_setting 'orthorhombic'
loop_
_space_group_symop_operation_xyz
x,y,z
-x,-y,z
1/2+x,1/2-y,-z
1/2-x,1/2+y,-z
-x,-y,-z
x,y,-z
1/2-x,1/2+y,z
1/2+x,1/2-y,z
loop_
_atom_site_type_symbol
_atom_site_label
_atom_site_fract_x
_atom_site_fract_y
_atom_site_fract_z
Si Si1 0.895598 0.633994 0.393576
Si Si2 0.124063 0.635168 0.398530
Si Si3 0.709659 0.332991 0.598994
Si Si4 0.841549 0.953767 0.772295
Si Si5 0.387185 0.282459 0.776331
Si Si6 0.046173 0.244418 0.225358
Si Si7 0.425495 0.944480 0.895233
Si Si8 0.293044 0.117166 0.893191
O O1 0.920839 0.642074 0.500000
O O2 0.884685 0.499097 0.365386
O O3 0.820734 0.704348 0.375972
O O4 0.955172 0.697400 0.328537
O O5 0.086886 0.650513 0.500000
O O6 0.205698 0.674771 0.409005
O O7 0.095187 0.722384 0.321617
O O8 0.676682 0.372041 0.500000
O O9 0.692116 0.429871 0.673213
O O10 0.913983 0.878435 0.781343
O O11 0.782855 0.927646 0.852227
O O12 0.864912 0.085554 0.769766
O O13 0.467022 0.272649 0.820814
O O14 0.322664 0.226444 0.835679
O O15 0.092734 0.329599 0.161339
O O16 0.500000 0.000000 0.855278
O O17 0.355544 0.022908 0.882831
O O18 0.438905 0.909510 0.000000
O O19 0.280835 0.151493 0.000000
#
# Coordination Sequence:
#
# PCOD8226808 Si02
#       8
#     8   8   8   8   8   8   8   8
#     4   9  20  37  58  89 132 171 213 266 317 368
#     4  10  21  34  59  97 130 166 215 270 323 373
#     4   9  19  36  59  89 127 170 211 259 316 372
#     4  11  26  42  64  93 133 172 215 260 316 383
#     4  12  25  42  64  93 132 171 213 258 316 387
#     4  11  24  42  66  92 129 175 214 258 316 379
#     4  10  21  40  67  96 123 157 205 263 322 377
#     4  11  25  44  67  97 125 158 208 270 331 385
#
# _framework density 20.737518000000001
#
# number of rings (size 3 to 8) (size 9 to 14) (size 15 to 20)
#    0.000    1.625    2.500    1.125    3.500    2.000 
#    0.000    1.250    0.000    6.000    0.000    0.000 
#    0.000    0.000    0.000    0.000    0.000    0.000 
#
# Total GULP energy -793153.928964 kJ/mol
# GULP energy per Si atom -12393.030140 kJ/mol
# Density = 2.069032 g / cm^3
# Si number density = 20.737518 Si / 1000 Ang^3
#
#
#
# Elastic Constant Matrix: (Units=GPa)
#
#
# Indices 1 2 3 4 5 6 
#
# 1 53.1068 29.4018 16.4142 0.0000 0.0000 0.0000
# 2 29.4018 143.2098 61.7152 0.0000 0.0000 0.0000
# 3 16.4142 61.7152 101.3629 0.0000 0.0000 0.0000
# 4 0.0000 0.0000 0.0000 17.7223 0.0000 0.0000
# 5 0.0000 0.0000 0.0000 0.0000 22.5872 0.0000
# 6 0.0000 0.0000 0.0000 0.0000 0.0000 14.9612
#
#
#
# Elastic Compliance Matrix: (Units=1/GPa)
#
#
# Indices 1 2 3 4 5 6 
#
# 1 0.021330 -0.003919 -0.001068 0.000000 0.000000 0.000000
# 2 -0.003919 0.010187 -0.005568 0.000000 0.000000 0.000000
# 3 -0.001068 -0.005568 0.013428 0.000000 0.000000 0.000000
# 4 0.000000 0.000000 0.000000 0.056426 0.000000 0.000000
# 5 0.000000 0.000000 0.000000 0.000000 0.044273 0.000000
# 6 0.000000 0.000000 0.000000 0.000000 0.000000 0.066839
#
#
# Mechanical properties :
#
#
# Convention : Reuss Voigt Hill
#
# Bulk Modulus (GPa) = 41.95375 56.97132 49.46254
# Shear Modulus (GPa) = 20.70076 23.73072 22.21574
#
# Velocity S-wave (km/s) = 3.16290 3.38648 3.27660
# Velocity P-wave (km/s) = 5.79770 6.54394 6.18209
#
# Compressibility (1/GPa) = 0.02383577
#
# Stress axis : x y z
#
# Youngs Moduli (GPa) = 46.88302 98.16795 74.46952
#
# Poissons Ratio (x) = 0.38471 0.07953
# Poissons Ratio (y) = 0.18373 0.41461
# Poissons Ratio (z) = 0.05007 0.54656
#
# Static dielectric constant tensor:
#      x y z
#    x 3.769790 0.000000 0.000000 
#    y 0.000000 3.660070 0.000000 
#    z 0.000000 0.000000 4.186780 
# 
# 
# High freq. dielectric constant tensor:
#      x y z
#    x 1.814770 0.000000 0.000000 
#    y 0.000000 1.804960 0.000000 
#    z 0.000000 0.000000 1.817840 
# 
# From -- ./inp_files/19527.got.cif
#   From: 2010.03.12/outbox.cif.g09.slc.cpg/sg55_10_cif.got.tgz:19527.got - 2010.04.16 15:19:21.
