data_PCOD8226561
_publ_section_title
;
Structure prediction by ZEFSAII (Michael W. Deem and Ramdas Pophale) SiO2 
 PCOD8226561
Probable space group: P B A M
;
_chemical_formula_sum "Si O2"
_cell_formula_units_Z 64
_cell_length_a 30.635806
_cell_length_b 11.884450
_cell_length_c 8.910239
_cell_angle_alpha 90.000000
_cell_angle_beta 90.000000
_cell_angle_gamma 90.000000
_cell_volume 3244.126286
_symmetry_space_group_name_H-M "P B A M"
_symmetry_group_IT_number 55
_symmetry_cell_setting 'orthorhombic'
loop_
_space_group_symop_operation_xyz
x,y,z
-x,-y,z
1/2+x,1/2-y,-z
1/2-x,1/2+y,-z
-x,-y,-z
x,y,-z
1/2-x,1/2+y,z
1/2+x,1/2-y,z
loop_
_atom_site_type_symbol
_atom_site_label
_atom_site_fract_x
_atom_site_fract_y
_atom_site_fract_z
Si Si1 0.373197 0.099610 0.823188
Si Si2 0.697629 0.491820 0.324471
Si Si3 0.327169 0.730803 0.168869
Si Si4 0.450268 0.502507 0.323745
Si Si5 0.712363 0.031955 0.171237
Si Si6 0.587741 0.256926 0.330000
Si Si7 0.952798 0.525950 0.671642
Si Si8 0.123665 0.858929 0.177617
O O1 0.415408 0.040323 0.757047
O O2 0.372206 0.229344 0.772286
O O3 0.329217 0.037434 0.766264
O O4 0.376176 0.087262 0.000000
O O5 0.691855 0.512346 0.500000
O O6 0.685489 0.364331 0.286554
O O7 0.747375 0.507663 0.278078
O O8 0.665794 0.576918 0.239752
O O9 0.294349 0.834566 0.178972
O O10 0.374595 0.776291 0.213821
O O11 0.327898 0.681709 0.000000
O O12 0.500000 0.500000 0.266019
O O13 0.447837 0.477416 0.500000
O O14 0.432392 0.624763 0.281794
O O15 0.421441 0.408771 0.241064
O O16 0.722791 0.994796 0.000000
O O17 0.606054 0.262951 0.500000
O O18 0.551717 0.160342 0.315740
O O19 0.950942 0.484948 0.500000
O O20 0.000000 0.500000 0.743225
O O21 0.123281 0.871694 0.000000
#
# Coordination Sequence:
#
# PCOD8226561 Si02
#       8
#     8   8   8   8   8   8   8   8
#     4  10  23  43  63  88 122 160 204 252 302 360
#     4  12  26  42  63  93 126 159 202 252 306 364
#     4  11  22  40  67  91 119 159 202 251 303 360
#     4  10  22  39  62  90 123 164 204 250 308 364
#     4  10  23  43  65  90 121 161 205 247 303 363
#     4  10  20  37  60  89 123 158 203 255 301 354
#     4  10  22  38  61  92 125 162 203 249 303 364
#     4  11  24  42  63  89 123 162 207 255 304 362
#
# _framework density 19.727962999999999
#
# number of rings (size 3 to 8) (size 9 to 14) (size 15 to 20)
#    0.000    1.500    2.500    1.875    3.500    3.000 
#    0.000    0.000    0.000    0.000    0.000    0.000 
#    0.000    0.000    0.000    0.000    0.000    0.000 
#
# Total GULP energy -793798.121734 kJ/mol
# GULP energy per Si atom -12403.095652 kJ/mol
# Density = 1.968306 g / cm^3
# Si number density = 19.727963 Si / 1000 Ang^3
#
#
#
# Elastic Constant Matrix: (Units=GPa)
#
#
# Indices 1 2 3 4 5 6 
#
# 1 131.8624 37.3837 34.2783 0.0000 0.0000 0.0000
# 2 37.3837 107.2351 31.3190 0.0000 0.0000 0.0000
# 3 34.2783 31.3190 54.5710 0.0000 0.0000 0.0000
# 4 0.0000 0.0000 0.0000 26.2475 0.0000 0.0000
# 5 0.0000 0.0000 0.0000 0.0000 42.7574 0.0000
# 6 0.0000 0.0000 0.0000 0.0000 0.0000 27.5983
#
#
#
# Elastic Compliance Matrix: (Units=1/GPa)
#
#
# Indices 1 2 3 4 5 6 
#
# 1 0.009362 -0.001858 -0.004814 0.000000 0.000000 0.000000
# 2 -0.001858 0.011572 -0.005474 0.000000 0.000000 0.000000
# 3 -0.004814 -0.005474 0.024491 0.000000 0.000000 0.000000
# 4 0.000000 0.000000 0.000000 0.038099 0.000000 0.000000
# 5 0.000000 0.000000 0.000000 0.000000 0.023388 0.000000
# 6 0.000000 0.000000 0.000000 0.000000 0.000000 0.036234
#
#
# Mechanical properties :
#
#
# Convention : Reuss Voigt Hill
#
# Bulk Modulus (GPa) = 47.32272 55.51450 51.41861
# Shear Modulus (GPa) = 28.65632 32.03315 30.34473
#
# Velocity S-wave (km/s) = 3.81540 4.03394 3.92619
# Velocity P-wave (km/s) = 6.59162 7.06385 6.83182
#
# Compressibility (1/GPa) = 0.02113150
#
# Stress axis : x y z
#
# Youngs Moduli (GPa) = 106.81657 86.41766 40.83178
#
# Poissons Ratio (x) = 0.16053 0.19658
# Poissons Ratio (y) = 0.19842 0.22353
# Poissons Ratio (z) = 0.51427 0.47308
#
# Static dielectric constant tensor:
#      x y z
#    x 3.232720 0.000000 0.000000 
#    y 0.000000 3.805360 0.000000 
#    z 0.000000 0.000000 3.552630 
# 
# 
# High freq. dielectric constant tensor:
#      x y z
#    x 1.777090 0.000000 0.000000 
#    y 0.000000 1.781890 0.000000 
#    z 0.000000 0.000000 1.763120 
# 
# From -- ./inp_files/4589.got.cif
#   From: 2010.03.12/outbox.cif.g09.slc.cpg/sg55_3_cif.got.tgz:4589.got - 2010.04.16 15:19:21.
