data_PCOD8226977
_publ_section_title
;
Structure prediction by ZEFSAII (Michael W. Deem and Ramdas Pophale) SiO2 
 PCOD8226977
Probable space group: P B A M
;
_chemical_formula_sum "Si O2"
_cell_formula_units_Z 56
_cell_length_a 21.448592
_cell_length_b 14.574998
_cell_length_c 9.101069
_cell_angle_alpha 90.000000
_cell_angle_beta 90.000000
_cell_angle_gamma 90.000000
_cell_volume 2845.114172
_symmetry_space_group_name_H-M "P B A M"
_symmetry_group_IT_number 55
_symmetry_cell_setting 'orthorhombic'
loop_
_space_group_symop_operation_xyz
x,y,z
-x,-y,z
1/2+x,1/2-y,-z
1/2-x,1/2+y,-z
-x,-y,-z
x,y,-z
1/2-x,1/2+y,z
1/2+x,1/2-y,z
loop_
_atom_site_type_symbol
_atom_site_label
_atom_site_fract_x
_atom_site_fract_y
_atom_site_fract_z
Si Si1 0.123023 0.797643 0.171597
Si Si2 0.645545 0.986775 0.833195
Si Si3 0.529321 0.861837 0.835968
Si Si4 0.284355 0.171455 0.328164
Si Si5 0.570898 0.507318 0.825792
Si Si6 0.859949 0.844839 0.668983
Si Si7 0.093390 0.352881 0.329457
O O1 0.065058 0.731424 0.204092
O O2 0.183270 0.761975 0.260128
O O3 0.102890 0.898099 0.226949
O O4 0.140455 0.795999 0.000000
O O5 0.575765 0.947367 0.828629
O O6 0.691873 0.921625 0.745318
O O7 0.644162 0.086552 0.758129
O O8 0.669833 0.995243 0.000000
O O9 0.476200 0.879174 0.717420
O O10 0.500270 0.854618 0.000000
O O11 0.299648 0.168731 0.500000
O O12 0.211511 0.176474 0.294897
O O13 0.500000 0.500000 0.764674
O O14 0.613335 0.425531 0.767791
O O15 0.569669 0.502162 0.000000
O O16 0.868624 0.873280 0.500000
O O17 0.897488 0.753331 0.708451
O O18 0.102941 0.373860 0.500000
#
# Coordination Sequence:
#
# PCOD8226977 Si02
#       7
#     8   8   8   8   8   8   8
#     4   9  19  36  58  84 113 144 182 229 279 331
#     4  10  21  37  57  81 110 143 180 224 274 326
#     4   9  18  34  55  80 112 144 174 216 271 327
#     4  10  21  39  59  79 108 146 187 228 276 332
#     4  10  21  38  61  88 116 149 191 237 284 336
#     4  10  24  41  55  78 113 149 185 231 280 329
#     4  11  22  35  53  80 112 144 181 222 268 325
#
# _framework density 19.682863999999999
#
# number of rings (size 3 to 8) (size 9 to 14) (size 15 to 20)
#    0.000    2.143    0.000    3.429    0.000   10.000 
#    0.000    4.286    0.000    0.000    0.000    0.000 
#    0.000    0.000    0.000    0.000    0.000    0.000 
#
# Total GULP energy -694559.541447 kJ/mol
# GULP energy per Si atom -12402.848954 kJ/mol
# Density = 1.963807 g / cm^3
# Si number density = 19.682864 Si / 1000 Ang^3
#
#
#
# Elastic Constant Matrix: (Units=GPa)
#
#
# Indices 1 2 3 4 5 6 
#
# 1 64.7369 22.1966 34.3239 0.0000 0.0000 0.0000
# 2 22.1966 105.2635 39.5325 0.0000 0.0000 0.0000
# 3 34.3239 39.5325 78.2401 0.0000 0.0000 0.0000
# 4 0.0000 0.0000 0.0000 30.6997 0.0000 0.0000
# 5 0.0000 0.0000 0.0000 0.0000 25.7660 0.0000
# 6 0.0000 0.0000 0.0000 0.0000 0.0000 14.1274
#
#
#
# Elastic Compliance Matrix: (Units=1/GPa)
#
#
# Indices 1 2 3 4 5 6 
#
# 1 0.020242 -0.001152 -0.008298 0.000000 0.000000 0.000000
# 2 -0.001152 0.011790 -0.005452 0.000000 0.000000 0.000000
# 3 -0.008298 -0.005452 0.019176 0.000000 0.000000 0.000000
# 4 0.000000 0.000000 0.000000 0.032574 0.000000 0.000000
# 5 0.000000 0.000000 0.000000 0.000000 0.038811 0.000000
# 6 0.000000 0.000000 0.000000 0.000000 0.000000 0.070784
#
#
# Mechanical properties :
#
#
# Convention : Reuss Voigt Hill
#
# Bulk Modulus (GPa) = 46.71912 48.92739 47.82325
# Shear Modulus (GPa) = 21.70929 24.26444 22.98686
#
# Velocity S-wave (km/s) = 3.32468 3.51489 3.42111
# Velocity P-wave (km/s) = 6.20689 6.43307 6.32099
#
# Compressibility (1/GPa) = 0.02140451
#
# Stress axis : x y z
#
# Youngs Moduli (GPa) = 49.40283 84.81460 52.14784
#
# Poissons Ratio (x) = 0.09770 0.43272
# Poissons Ratio (y) = 0.05691 0.28431
# Poissons Ratio (z) = 0.40995 0.46241
#
# Static dielectric constant tensor:
#      x y z
#    x 3.472550 0.000000 0.000000 
#    y 0.000000 3.759860 0.000000 
#    z 0.000000 0.000000 3.580070 
# 
# 
# High freq. dielectric constant tensor:
#      x y z
#    x 1.760050 0.000000 0.000000 
#    y 0.000000 1.777560 0.000000 
#    z 0.000000 0.000000 1.765780 
# 
# From -- ./inp_files/8770.got.cif
#   From: 2010.03.12/outbox.cif.g09.slc.cpg/sg55_5_cif.got.tgz:8770.got - 2010.04.16 15:19:21.
