data_PCOD8226425
_publ_section_title
;
Structure prediction by ZEFSAII (Michael W. Deem and Ramdas Pophale) SiO2 
 PCOD8226425
Probable space group: P B A M
;
_chemical_formula_sum "Si O2"
_cell_formula_units_Z 64
_cell_length_a 28.472283
_cell_length_b 12.743817
_cell_length_c 8.894017
_cell_angle_alpha 90.000000
_cell_angle_beta 90.000000
_cell_angle_gamma 90.000000
_cell_volume 3227.154616
_symmetry_space_group_name_H-M "P B A M"
_symmetry_group_IT_number 55
_symmetry_cell_setting 'orthorhombic'
loop_
_space_group_symop_operation_xyz
x,y,z
-x,-y,z
1/2+x,1/2-y,-z
1/2-x,1/2+y,-z
-x,-y,-z
x,y,-z
1/2-x,1/2+y,z
1/2+x,1/2-y,z
loop_
_atom_site_type_symbol
_atom_site_label
_atom_site_fract_x
_atom_site_fract_y
_atom_site_fract_z
Si Si1 0.389531 0.956572 0.323830
Si Si2 0.571970 0.398300 0.333191
Si Si3 0.199800 0.955627 0.175062
Si Si4 0.679148 0.336485 0.668159
Si Si5 0.697906 0.125047 0.173315
Si Si6 0.392357 0.382075 0.677397
Si Si7 0.942714 0.332391 0.324563
Si Si8 0.538848 0.201684 0.176891
O O1 0.391502 0.934414 0.500000
O O2 0.409095 0.071045 0.282776
O O3 0.335729 0.952216 0.268387
O O4 0.418583 0.864316 0.245276
O O5 0.549336 0.393667 0.500000
O O6 0.624096 0.354497 0.337409
O O7 0.574122 0.519373 0.276110
O O8 0.541158 0.324281 0.225418
O O9 0.247773 0.895193 0.205984
O O10 0.156859 0.885359 0.235224
O O11 0.204992 0.062453 0.266930
O O12 0.191580 0.979858 0.000000
O O13 0.698047 0.312339 0.500000
O O14 0.689407 0.243879 0.781584
O O15 0.685163 0.108553 0.000000
O O16 0.381568 0.388212 0.500000
O O17 0.417649 0.275036 0.724469
O O18 0.955400 0.331555 0.500000
O O19 0.990298 0.348173 0.232531
O O20 0.541910 0.194219 0.000000
#
# Coordination Sequence:
#
# PCOD8226425 Si02
#       8
#     8   8   8   8   8   8   8   8
#     4  11  23  40  62  87 117 156 203 252 301 355
#     4   9  18  35  60  86 114 149 194 245 293 345
#     4  10  22  38  58  87 123 158 192 239 302 361
#     4  10  20  36  60  85 112 152 197 244 293 345
#     4  11  23  38  59  88 120 156 196 244 302 358
#     4   9  20  40  63  87 116 156 203 249 299 354
#     4  10  23  42  62  85 119 159 200 250 303 357
#     4  12  24  37  59  89 120 157 199 247 303 364
#
# _framework density 19.831712
#
# number of rings (size 3 to 8) (size 9 to 14) (size 15 to 20)
#    0.000    1.750    1.250    3.750    0.000    8.500 
#    0.000    5.000    0.000    0.000    0.000    0.000 
#    0.000    0.000    0.000    0.000    0.000    0.000 
#
# Total GULP energy -793777.649914 kJ/mol
# GULP energy per Si atom -12402.775780 kJ/mol
# Density = 1.978657 g / cm^3
# Si number density = 19.831712 Si / 1000 Ang^3
#
#
#
# Elastic Constant Matrix: (Units=GPa)
#
#
# Indices 1 2 3 4 5 6 
#
# 1 41.6880 17.4139 27.1143 0.0000 0.0000 0.0000
# 2 17.4139 100.0221 24.8878 0.0000 0.0000 0.0000
# 3 27.1143 24.8878 79.1219 0.0000 0.0000 0.0000
# 4 0.0000 0.0000 0.0000 21.4561 0.0000 0.0000
# 5 0.0000 0.0000 0.0000 0.0000 34.5050 0.0000
# 6 0.0000 0.0000 0.0000 0.0000 0.0000 13.4618
#
#
#
# Elastic Compliance Matrix: (Units=1/GPa)
#
#
# Indices 1 2 3 4 5 6 
#
# 1 0.031706 -0.003056 -0.009904 0.000000 0.000000 0.000000
# 2 -0.003056 0.011141 -0.002457 0.000000 0.000000 0.000000
# 3 -0.009904 -0.002457 0.016806 0.000000 0.000000 0.000000
# 4 0.000000 0.000000 0.000000 0.046607 0.000000 0.000000
# 5 0.000000 0.000000 0.000000 0.000000 0.028981 0.000000
# 6 0.000000 0.000000 0.000000 0.000000 0.000000 0.074284
#
#
# Mechanical properties :
#
#
# Convention : Reuss Voigt Hill
#
# Bulk Modulus (GPa) = 34.69983 39.96267 37.33125
# Shear Modulus (GPa) = 20.00274 23.97897 21.99085
#
# Velocity S-wave (km/s) = 3.17933 3.48102 3.33359
# Velocity P-wave (km/s) = 5.56890 6.02920 5.80362
#
# Compressibility (1/GPa) = 0.02881859
#
# Stress axis : x y z
#
# Youngs Moduli (GPa) = 31.53992 89.75685 59.50347
#
# Poissons Ratio (x) = 0.27426 0.58933
# Poissons Ratio (y) = 0.09637 0.14622
# Poissons Ratio (z) = 0.31238 0.22056
#
# Static dielectric constant tensor:
#      x y z
#    x 3.573160 0.000000 0.000000 
#    y 0.000000 3.887180 0.000000 
#    z 0.000000 0.000000 3.647970 
# 
# 
# High freq. dielectric constant tensor:
#      x y z
#    x 1.768170 0.000000 0.000000 
#    y 0.000000 1.781250 0.000000 
#    z 0.000000 0.000000 1.773980 
# 
# From -- ./inp_files/10787.got.cif
#   From: 2010.03.12/outbox.cif.g09.slc.cpg/sg55_6_cif.got.tgz:10787.got - 2010.04.16 15:19:21.
