data_PCOD8226176
_publ_section_title
;
Structure prediction by ZEFSAII (Michael W. Deem and Ramdas Pophale) SiO2 
 PCOD8226176
Probable space group: P B A M
;
_chemical_formula_sum "Si O2"
_cell_formula_units_Z 56
_cell_length_a 13.713733
_cell_length_b 23.299252
_cell_length_c 9.219022
_cell_angle_alpha 90.000000
_cell_angle_beta 90.000000
_cell_angle_gamma 90.000000
_cell_volume 2945.659338
_symmetry_space_group_name_H-M "P B A M"
_symmetry_group_IT_number 55
_symmetry_cell_setting 'orthorhombic'
loop_
_space_group_symop_operation_xyz
x,y,z
-x,-y,z
1/2+x,1/2-y,-z
1/2-x,1/2+y,-z
-x,-y,-z
x,y,-z
1/2-x,1/2+y,z
1/2+x,1/2-y,z
loop_
_atom_site_type_symbol
_atom_site_label
_atom_site_fract_x
_atom_site_fract_y
_atom_site_fract_z
Si Si1 0.886437 0.060080 0.840602
Si Si2 0.967278 0.157407 0.665898
Si Si3 0.813996 0.839222 0.333279
Si Si4 0.770742 0.954240 0.827972
Si Si5 0.391725 0.977074 0.665371
Si Si6 0.724198 0.720417 0.669514
Si Si7 0.181405 0.376220 0.837159
O O1 0.960038 0.094706 0.739195
O O2 0.783217 0.091282 0.842103
O O3 0.864922 0.994571 0.789647
O O4 0.933989 0.060004 0.000000
O O5 0.946708 0.144806 0.500000
O O6 0.885472 0.202855 0.720906
O O7 0.074963 0.182559 0.693147
O O8 0.801089 0.859513 0.500000
O O9 0.790522 0.890316 0.224814
O O10 0.740713 0.787356 0.296308
O O11 0.675228 0.977261 0.747889
O O12 0.751467 0.955229 0.000000
O O13 0.354402 0.969719 0.500000
O O14 0.392547 0.915262 0.744686
O O15 0.500000 0.000000 0.668662
O O16 0.740800 0.707987 0.500000
O O17 0.804637 0.684733 0.758547
O O18 0.140699 0.366532 0.000000
#
# Coordination Sequence:
#
# PCOD8226176 Si02
#       7
#     8   8   8   8   8   8   8
#     4   8  16  31  51  75 102 134 168 210 264 323
#     4   9  18  33  54  77 100 136 181 224 273 323
#     4  10  21  36  53  77 110 144 183 231 277 324
#     4  10  21  36  54  78 111 145 176 221 279 328
#     4  10  20  35  56  82 110 143 183 224 270 326
#     4   9  18  35  55  74 103 143 185 231 273 320
#     4   9  17  31  53  78 105 138 177 222 270 319
#
# _framework density 19.011023999999999
#
# number of rings (size 3 to 8) (size 9 to 14) (size 15 to 20)
#    0.000    2.714    0.000    2.143    0.000    6.857 
#    2.571    2.857    0.000    0.000    0.000    0.000 
#    0.000    0.000    0.000    0.000    0.000    0.000 
#
# Total GULP energy -694211.644071 kJ/mol
# GULP energy per Si atom -12396.636501 kJ/mol
# Density = 1.896775 g / cm^3
# Si number density = 19.011024 Si / 1000 Ang^3
#
#
#
# Elastic Constant Matrix: (Units=GPa)
#
#
# Indices 1 2 3 4 5 6 
#
# 1 57.0944 33.7619 31.6704 0.0000 0.0000 0.0000
# 2 33.7619 114.5776 49.6646 0.0000 0.0000 0.0000
# 3 31.6704 49.6646 93.8414 0.0000 0.0000 0.0000
# 4 0.0000 0.0000 0.0000 31.7854 0.0000 0.0000
# 5 0.0000 0.0000 0.0000 0.0000 16.0938 0.0000
# 6 0.0000 0.0000 0.0000 0.0000 0.0000 25.4349
#
#
#
# Elastic Compliance Matrix: (Units=1/GPa)
#
#
# Indices 1 2 3 4 5 6 
#
# 1 0.023184 -0.004464 -0.005462 0.000000 0.000000 0.000000
# 2 -0.004464 0.012185 -0.004942 0.000000 0.000000 0.000000
# 3 -0.005462 -0.004942 0.015115 0.000000 0.000000 0.000000
# 4 0.000000 0.000000 0.000000 0.031461 0.000000 0.000000
# 5 0.000000 0.000000 0.000000 0.000000 0.062136 0.000000
# 6 0.000000 0.000000 0.000000 0.000000 0.000000 0.039316
#
#
# Mechanical properties :
#
#
# Convention : Reuss Voigt Hill
#
# Bulk Modulus (GPa) = 48.19674 55.07859 51.63766
# Shear Modulus (GPa) = 22.72199 24.69056 23.70628
#
# Velocity S-wave (km/s) = 3.46092 3.60773 3.53508
# Velocity P-wave (km/s) = 6.43255 6.81095 6.62445
#
# Compressibility (1/GPa) = 0.02074829
#
# Stress axis : x y z
#
# Youngs Moduli (GPa) = 43.13260 82.06493 66.15795
#
# Poissons Ratio (x) = 0.36635 0.36135
# Poissons Ratio (y) = 0.19255 0.32698
# Poissons Ratio (z) = 0.23558 0.40560
#
# Static dielectric constant tensor:
#      x y z
#    x 3.348350 0.000000 0.000000 
#    y 0.000000 3.541490 0.000000 
#    z 0.000000 0.000000 3.676220 
# 
# 
# High freq. dielectric constant tensor:
#      x y z
#    x 1.721140 0.000000 0.000000 
#    y 0.000000 1.733350 0.000000 
#    z 0.000000 0.000000 1.742280 
# 
# From -- ./inp_files/6024.got.cif
#   From: 2010.03.12/outbox.cif.g09.slc.cpg/sg55_4_cif.got.tgz:6024.got - 2010.04.16 15:19:21.
