data_PCOD8226457
_publ_section_title
;
Structure prediction by ZEFSAII (Michael W. Deem and Ramdas Pophale) SiO2 
 PCOD8226457
Probable space group: P B A M
;
_chemical_formula_sum "Si O2"
_cell_formula_units_Z 64
_cell_length_a 11.021778
_cell_length_b 28.092691
_cell_length_c 9.941215
_cell_angle_alpha 90.000000
_cell_angle_beta 90.000000
_cell_angle_gamma 90.000000
_cell_volume 3078.112354
_symmetry_space_group_name_H-M "P B A M"
_symmetry_group_IT_number 55
_symmetry_cell_setting 'orthorhombic'
loop_
_space_group_symop_operation_xyz
x,y,z
-x,-y,z
1/2+x,1/2-y,-z
1/2-x,1/2+y,-z
-x,-y,-z
x,y,-z
1/2-x,1/2+y,z
1/2+x,1/2-y,z
loop_
_atom_site_type_symbol
_atom_site_label
_atom_site_fract_x
_atom_site_fract_y
_atom_site_fract_z
Si Si1 0.103814 0.785802 0.349264
Si Si2 0.289643 0.662599 0.853105
Si Si3 0.139494 0.259321 0.751404
Si Si4 0.221722 0.944687 0.850827
Si Si5 0.364138 0.009625 0.652769
Si Si6 0.408346 0.862123 0.852460
Si Si7 0.544581 0.629843 0.846441
Si Si8 0.386884 0.118080 0.346181
O O1 0.090704 0.805370 0.500000
O O2 0.236864 0.760858 0.338114
O O3 0.102037 0.830731 0.250791
O O4 0.989029 0.749796 0.325932
O O5 0.341606 0.715998 0.854230
O O6 0.400148 0.626602 0.827732
O O7 0.195852 0.655446 0.732771
O O8 0.229859 0.653245 0.000000
O O9 0.126727 0.307474 0.834422
O O10 0.290806 0.894527 0.848748
O O11 0.087974 0.924604 0.814649
O O12 0.266893 0.982748 0.743756
O O13 0.228619 0.968121 0.000000
O O14 0.354760 0.990328 0.500000
O O15 0.331980 0.065207 0.659340
O O16 0.500000 0.000000 0.707901
O O17 0.485440 0.882122 0.728510
O O18 0.471970 0.867333 0.000000
O O19 0.578015 0.644186 0.000000
O O20 0.402598 0.135298 0.500000
#
# Coordination Sequence:
#
# PCOD8226457 Si02
#       8
#     8   8   8   8   8   8   8   8
#     4  11  23  37  56  83 118 162 210 255 304 364
#     4  10  22  40  63  85 116 163 206 247 302 362
#     4  11  23  39  59  88 126 164 206 260 310 363
#     4  10  20  36  61  91 117 147 194 251 299 352
#     4  10  21  39  60  86 121 161 195 238 306 369
#     4  11  22  37  61  90 120 156 200 247 300 361
#     4   9  20  40  61  84 116 153 197 250 304 356
#     4  11  24  41  62  90 128 162 197 250 305 363
#
# _framework density 20.791962000000002
#
# number of rings (size 3 to 8) (size 9 to 14) (size 15 to 20)
#    0.000    1.625    2.500    1.875    0.000    7.250 
#    0.000    0.625    0.000    3.750    0.000    0.000 
#    0.000    0.000    0.000    0.000    0.000    0.000 
#
# Total GULP energy -793189.598147 kJ/mol
# GULP energy per Si atom -12393.587471 kJ/mol
# Density = 2.074464 g / cm^3
# Si number density = 20.791962 Si / 1000 Ang^3
#
#
#
# Elastic Constant Matrix: (Units=GPa)
#
#
# Indices 1 2 3 4 5 6 
#
# 1 62.1610 -5.2650 20.4026 0.0000 0.0000 0.0000
# 2 -5.2650 51.9705 18.2406 0.0000 0.0000 0.0000
# 3 20.4026 18.2406 124.9143 0.0000 0.0000 0.0000
# 4 0.0000 0.0000 0.0000 25.6841 0.0000 0.0000
# 5 0.0000 0.0000 0.0000 0.0000 16.1282 0.0000
# 6 0.0000 0.0000 0.0000 0.0000 0.0000 29.5899
#
#
#
# Elastic Compliance Matrix: (Units=1/GPa)
#
#
# Indices 1 2 3 4 5 6 
#
# 1 0.017406 0.002910 -0.003268 0.000000 0.000000 0.000000
# 2 0.002910 0.020768 -0.003508 0.000000 0.000000 0.000000
# 3 -0.003268 -0.003508 0.009052 0.000000 0.000000 0.000000
# 4 0.000000 0.000000 0.000000 0.038935 0.000000 0.000000
# 5 0.000000 0.000000 0.000000 0.000000 0.062003 0.000000
# 6 0.000000 0.000000 0.000000 0.000000 0.000000 0.033795
#
#
# Mechanical properties :
#
#
# Convention : Reuss Voigt Hill
#
# Bulk Modulus (GPa) = 25.31999 33.97803 29.64901
# Shear Modulus (GPa) = 24.64816 27.99161 26.31988
#
# Velocity S-wave (km/s) = 3.44679 3.67314 3.56176
# Velocity P-wave (km/s) = 5.29573 5.86231 5.58620
#
# Compressibility (1/GPa) = 0.03949448
#
# Stress axis : x y z
#
# Youngs Moduli (GPa) = 57.45011 48.15154 110.47877
#
# Poissons Ratio (x) = -0.14014 0.36105
# Poissons Ratio (y) = -0.16720 0.38756
# Poissons Ratio (z) = 0.18775 0.16891
#
# Static dielectric constant tensor:
#      x y z
#    x 3.884670 0.000000 0.000000 
#    y 0.000000 3.542430 0.000000 
#    z 0.000000 0.000000 3.741420 
# 
# 
# High freq. dielectric constant tensor:
#      x y z
#    x 1.813850 0.000000 0.000000 
#    y 0.000000 1.802160 0.000000 
#    z 0.000000 0.000000 1.814520 
# 
# From -- ./inp_files/4643.got.cif
#   From: 2010.03.12/outbox.cif.g09.slc.cpg/sg55_3_cif.got.tgz:4643.got - 2010.04.16 15:19:21.
