data_PCOD8226035
_publ_section_title
;
Structure prediction by ZEFSAII (Michael W. Deem and Ramdas Pophale) SiO2 
 PCOD8226035
Probable space group: P B A M
;
_chemical_formula_sum "Si O2"
_cell_formula_units_Z 64
_cell_length_a 27.709991
_cell_length_b 12.504016
_cell_length_c 9.227711
_cell_angle_alpha 90.000000
_cell_angle_beta 90.000000
_cell_angle_gamma 90.000000
_cell_volume 3197.274250
_symmetry_space_group_name_H-M "P B A M"
_symmetry_group_IT_number 55
_symmetry_cell_setting 'orthorhombic'
loop_
_space_group_symop_operation_xyz
x,y,z
-x,-y,z
1/2+x,1/2-y,-z
1/2-x,1/2+y,-z
-x,-y,-z
x,y,-z
1/2-x,1/2+y,z
1/2+x,1/2-y,z
loop_
_atom_site_type_symbol
_atom_site_label
_atom_site_fract_x
_atom_site_fract_y
_atom_site_fract_z
Si Si1 0.715744 0.257131 0.668036
Si Si2 0.912459 0.655537 0.842984
Si Si3 0.811380 0.568124 0.157973
Si Si4 0.184746 0.642069 0.331756
Si Si5 0.053778 0.531915 0.343995
Si Si6 0.110848 0.151560 0.669861
Si Si7 0.410841 0.261150 0.332696
Si Si8 0.445044 0.468775 0.828014
O O1 0.717618 0.228494 0.500000
O O2 0.723573 0.142800 0.746999
O O3 0.761660 0.325965 0.717143
O O4 0.667364 0.325437 0.701883
O O5 0.855782 0.647432 0.867120
O O6 0.927763 0.541417 0.783807
O O7 0.922605 0.751655 0.730748
O O8 0.937410 0.678299 0.000000
O O9 0.828899 0.462741 0.241354
O O10 0.788884 0.538793 0.000000
O O11 0.183239 0.611758 0.500000
O O12 0.145585 0.735143 0.298790
O O13 0.081711 0.516530 0.500000
O O14 0.058153 0.655162 0.297518
O O15 0.000000 0.500000 0.373433
O O16 0.100612 0.139233 0.500000
O O17 0.094031 0.045564 0.752143
O O18 0.416905 0.297370 0.500000
O O19 0.432337 0.350607 0.227474
O O20 0.500000 0.500000 0.785156
O O21 0.437843 0.474693 0.000000
#
# Coordination Sequence:
#
# PCOD8226035 Si02
#       8
#     8   8   8   8   8   8   8   8
#     4   9  20  37  59  87 116 154 200 247 298 358
#     4  10  20  35  57  85 117 151 188 233 293 353
#     4  10  20  34  54  82 116 151 187 234 292 351
#     4  10  20  37  61  86 117 155 197 243 295 356
#     4  10  21  36  57  89 120 149 192 241 293 350
#     4  10  21  39  63  87 115 154 203 252 299 354
#     4  10  22  40  62  89 121 158 201 248 296 355
#     4  11  26  45  63  86 121 164 208 257 312 368
#
# _framework density 20.017050999999999
#
# number of rings (size 3 to 8) (size 9 to 14) (size 15 to 20)
#    0.000    2.000    1.250    1.500    1.750    5.250 
#    0.000    5.000    0.000    0.000    0.000    0.000 
#    0.000    0.000    0.000    0.000    0.000    0.000 
#
# Total GULP energy -793167.732031 kJ/mol
# GULP energy per Si atom -12393.245813 kJ/mol
# Density = 1.997149 g / cm^3
# Si number density = 20.017051 Si / 1000 Ang^3
#
#
#
# Elastic Constant Matrix: (Units=GPa)
#
#
# Indices 1 2 3 4 5 6 
#
# 1 82.7503 43.0325 39.2169 0.0000 0.0000 0.0000
# 2 43.0325 122.0300 62.5225 0.0000 0.0000 0.0000
# 3 39.2169 62.5225 113.2890 0.0000 0.0000 0.0000
# 4 0.0000 0.0000 0.0000 31.8978 0.0000 0.0000
# 5 0.0000 0.0000 0.0000 0.0000 19.5115 0.0000
# 6 0.0000 0.0000 0.0000 0.0000 0.0000 25.6828
#
#
#
# Elastic Compliance Matrix: (Units=1/GPa)
#
#
# Indices 1 2 3 4 5 6 
#
# 1 0.015638 -0.003822 -0.003304 0.000000 0.000000 0.000000
# 2 -0.003822 0.012359 -0.005498 0.000000 0.000000 0.000000
# 3 -0.003304 -0.005498 0.013005 0.000000 0.000000 0.000000
# 4 0.000000 0.000000 0.000000 0.031350 0.000000 0.000000
# 5 0.000000 0.000000 0.000000 0.000000 0.051252 0.000000
# 6 0.000000 0.000000 0.000000 0.000000 0.000000 0.038937
#
#
# Mechanical properties :
#
#
# Convention : Reuss Voigt Hill
#
# Bulk Modulus (GPa) = 63.47373 67.51259 65.49316
# Shear Modulus (GPa) = 25.90141 26.97158 26.43649
#
# Velocity S-wave (km/s) = 3.60108 3.67472 3.63808
# Velocity P-wave (km/s) = 7.00493 7.19760 7.10192
#
# Compressibility (1/GPa) = 0.01575455
#
# Stress axis : x y z
#
# Youngs Moduli (GPa) = 63.94761 80.91099 76.89309
#
# Poissons Ratio (x) = 0.30921 0.25407
# Poissons Ratio (y) = 0.24438 0.42276
# Poissons Ratio (z) = 0.21130 0.44485
#
# Static dielectric constant tensor:
#      x y z
#    x 3.310190 0.000000 0.000000 
#    y 0.000000 3.497410 0.000000 
#    z 0.000000 0.000000 3.884930 
# 
# 
# High freq. dielectric constant tensor:
#      x y z
#    x 1.769070 0.000000 0.000000 
#    y 0.000000 1.778850 0.000000 
#    z 0.000000 0.000000 1.787780 
# 
# From -- ./inp_files/10781.got.cif
#   From: 2010.03.12/outbox.cif.g09.slc.cpg/sg55_6_cif.got.tgz:10781.got - 2010.04.16 15:19:21.
