data_PCOD8226228
_publ_section_title
;
Structure prediction by ZEFSAII (Michael W. Deem and Ramdas Pophale) SiO2 
 PCOD8226228
Probable space group: P B A M
;
_chemical_formula_sum "Si O2"
_cell_formula_units_Z 64
_cell_length_a 8.300050
_cell_length_b 23.596751
_cell_length_c 15.023172
_cell_angle_alpha 90.000000
_cell_angle_beta 90.000000
_cell_angle_gamma 90.000000
_cell_volume 2942.351531
_symmetry_space_group_name_H-M "P B A M"
_symmetry_group_IT_number 55
_symmetry_cell_setting 'orthorhombic'
loop_
_space_group_symop_operation_xyz
x,y,z
-x,-y,z
1/2+x,1/2-y,-z
1/2-x,1/2+y,-z
-x,-y,-z
x,y,-z
1/2-x,1/2+y,z
1/2+x,1/2-y,z
loop_
_atom_site_type_symbol
_atom_site_label
_atom_site_fract_x
_atom_site_fract_y
_atom_site_fract_z
Si Si1 0.307021 0.652059 0.399458
Si Si2 0.827662 0.121577 0.898428
Si Si3 0.666259 0.234830 0.314428
Si Si4 0.456156 0.152647 0.902990
Si Si5 0.137959 0.579171 0.252561
Si Si6 0.232470 0.455709 0.252070
Si Si7 0.178940 0.873353 0.397016
Si Si8 0.584175 0.733454 0.817776
O O1 0.260603 0.636671 0.500000
O O2 0.265176 0.717820 0.381649
O O3 0.195078 0.612715 0.339231
O O4 0.496499 0.645774 0.381894
O O5 0.643439 0.140153 0.894864
O O6 0.835110 0.067960 0.831919
O O7 0.946706 0.170991 0.860158
O O8 0.878439 0.105901 0.000000
O O9 0.693676 0.173015 0.358281
O O10 0.730363 0.234609 0.212532
O O11 0.486522 0.252029 0.282174
O O12 0.342384 0.119456 0.833334
O O13 0.439408 0.219966 0.892972
O O14 0.391854 0.134962 0.000000
O O15 0.249070 0.523434 0.245365
O O16 0.952757 0.562287 0.255444
O O17 0.305103 0.432453 0.344467
O O18 0.219855 0.883788 0.500000
#
# Coordination Sequence:
#
# PCOD8226228 Si02
#       8
#     8   8   8   8   8   8   8   8
#     4  11  24  40  60  89 121 158 201 246 304 367
#     4  10  20  36  60  90 123 159 197 242 297 356
#     4  12  21  38  61  86 121 155 192 239 296 357
#     4  10  20  35  57  89 123 156 197 245 296 352
#     4  10  22  39  63  86 117 158 207 256 302 354
#     4  10  21  41  61  87 117 158 207 256 303 353
#     4  11  24  41  61  88 120 157 199 245 303 369
#     4  12  20  36  61  86 120 158 193 235 296 356
#
# _framework density 21.75131
#
# number of rings (size 3 to 8) (size 9 to 14) (size 15 to 20)
#    0.000    1.250    5.000    1.500    0.000    2.000 
#    0.000    5.000    0.000    0.000    0.000    2.625 
#    0.000    0.000    0.000    0.000    0.000    0.000 
#
# Total GULP energy -793033.688671 kJ/mol
# GULP energy per Si atom -12391.151385 kJ/mol
# Density = 2.170180 g / cm^3
# Si number density = 21.751310 Si / 1000 Ang^3
#
#
#
# Elastic Constant Matrix: (Units=GPa)
#
#
# Indices 1 2 3 4 5 6 
#
# 1 15.5228 12.6774 28.6815 0.0000 0.0000 0.0000
# 2 12.6774 102.1653 42.9191 0.0000 0.0000 0.0000
# 3 28.6815 42.9191 152.6662 0.0000 0.0000 0.0000
# 4 0.0000 0.0000 0.0000 17.5641 0.0000 0.0000
# 5 0.0000 0.0000 0.0000 0.0000 31.1735 0.0000
# 6 0.0000 0.0000 0.0000 0.0000 0.0000 24.9269
#
#
#
# Elastic Compliance Matrix: (Units=1/GPa)
#
#
# Indices 1 2 3 4 5 6 
#
# 1 0.101029 -0.005174 -0.017526 0.000000 0.000000 0.000000
# 2 -0.005174 0.011364 -0.002223 0.000000 0.000000 0.000000
# 3 -0.017526 -0.002223 0.010468 0.000000 0.000000 0.000000
# 4 0.000000 0.000000 0.000000 0.056934 0.000000 0.000000
# 5 0.000000 0.000000 0.000000 0.000000 0.032079 0.000000
# 6 0.000000 0.000000 0.000000 0.000000 0.000000 0.040117
#
#
# Mechanical properties :
#
#
# Convention : Reuss Voigt Hill
#
# Bulk Modulus (GPa) = 13.69565 48.76782 31.23174
# Shear Modulus (GPa) = 15.32921 27.13799 21.23360
#
# Velocity S-wave (km/s) = 2.65759 3.53604 3.12781
# Velocity P-wave (km/s) = 3.96575 6.25626 5.23774
#
# Compressibility (1/GPa) = 0.07301587
#
# Stress axis : x y z
#
# Youngs Moduli (GPa) = 9.89811 87.99858 95.53197
#
# Poissons Ratio (x) = 0.45530 1.67428
# Poissons Ratio (y) = 0.05121 0.21234
# Poissons Ratio (z) = 0.17347 0.19559
#
# Static dielectric constant tensor:
#      x y z
#    x 3.753290 0.000000 0.000000 
#    y 0.000000 3.986670 0.000000 
#    z 0.000000 0.000000 4.104040 
# 
# 
# High freq. dielectric constant tensor:
#      x y z
#    x 1.845220 0.000000 0.000000 
#    y 0.000000 1.846040 0.000000 
#    z 0.000000 0.000000 1.860190 
# 
# From -- ./inp_files/17860.got.cif
#   From: 2010.03.12/outbox.cif.g09.slc.cpg/sg55_9_cif.got.tgz:17860.got - 2010.04.16 15:19:21.
