data_PCOD8226917
_publ_section_title
;
Structure prediction by ZEFSAII (Michael W. Deem and Ramdas Pophale) SiO2 
 PCOD8226917
Probable space group: P B A M
;
_chemical_formula_sum "Si O2"
_cell_formula_units_Z 48
_cell_length_a 23.168180
_cell_length_b 12.034958
_cell_length_c 8.575156
_cell_angle_alpha 90.000000
_cell_angle_beta 90.000000
_cell_angle_gamma 90.000000
_cell_volume 2390.994225
_symmetry_space_group_name_H-M "P B A M"
_symmetry_group_IT_number 55
_symmetry_cell_setting 'orthorhombic'
loop_
_space_group_symop_operation_xyz
x,y,z
-x,-y,z
1/2+x,1/2-y,-z
1/2-x,1/2+y,-z
-x,-y,-z
x,y,-z
1/2-x,1/2+y,z
1/2+x,1/2-y,z
loop_
_atom_site_type_symbol
_atom_site_label
_atom_site_fract_x
_atom_site_fract_y
_atom_site_fract_z
Si Si1 0.061803 0.948971 0.172156
Si Si2 0.652475 0.163440 0.313401
Si Si3 0.219691 0.887125 0.314832
Si Si4 0.433511 0.015091 0.816012
Si Si5 0.348035 0.590926 0.679439
Si Si6 0.889292 0.255559 0.315378
O O1 0.062013 0.823059 0.237343
O O2 0.092502 0.026971 0.297638
O O3 0.091167 0.950726 0.000000
O O4 0.000000 0.000000 0.155878
O O5 0.645856 0.154163 0.500000
O O6 0.715808 0.128687 0.253402
O O7 0.647408 0.288067 0.244335
O O8 0.602307 0.093097 0.233193
O O9 0.218779 0.887579 0.500000
O O10 0.174290 0.790394 0.261471
O O11 0.200909 0.008746 0.249892
O O12 0.401252 0.119503 0.738600
O O13 0.500000 0.000000 0.758684
O O14 0.432042 0.031022 0.000000
O O15 0.334366 0.611328 0.500000
O O16 0.895342 0.250412 0.500000
#
# Coordination Sequence:
#
# PCOD8226917 Si02
#       6
#     8   8   8   8   8   8
#     4  10  21  36  57  83 116 157 191 231 293 351
#     4  10  21  37  63  91 117 153 198 245 292 353
#     4   8  17  35  61  91 119 147 185 242 305 349
#     4  11  26  44  59  82 123 166 202 244 301 361
#     4   9  19  35  56  87 118 148 194 245 287 340
#     4  10  21  39  65  90 115 150 197 249 294 348
#
# _framework density 20.075330000000001
#
# number of rings (size 3 to 8) (size 9 to 14) (size 15 to 20)
#    0.000    2.333    0.000    2.500    4.667    3.333 
#    0.000    4.167    0.000    0.000    0.000    0.000 
#    0.000    0.000    0.000    0.000    0.000    0.000 
#
# Total GULP energy -594780.777689 kJ/mol
# GULP energy per Si atom -12391.266202 kJ/mol
# Density = 2.002964 g / cm^3
# Si number density = 20.075330 Si / 1000 Ang^3
#
#
#
# Elastic Constant Matrix: (Units=GPa)
#
#
# Indices 1 2 3 4 5 6 
#
# 1 107.3363 55.3258 14.2371 0.0000 0.0000 0.0000
# 2 55.3258 157.6349 12.1794 0.0000 0.0000 0.0000
# 3 14.2371 12.1794 34.3491 0.0000 0.0000 0.0000
# 4 0.0000 0.0000 0.0000 16.6379 0.0000 0.0000
# 5 0.0000 0.0000 0.0000 0.0000 10.1677 0.0000
# 6 0.0000 0.0000 0.0000 0.0000 0.0000 20.7905
#
#
#
# Elastic Compliance Matrix: (Units=1/GPa)
#
#
# Indices 1 2 3 4 5 6 
#
# 1 0.011772 -0.003860 -0.003510 0.000000 0.000000 0.000000
# 2 -0.003860 0.007788 -0.001162 0.000000 0.000000 0.000000
# 3 -0.003510 -0.001162 0.030980 0.000000 0.000000 0.000000
# 4 0.000000 0.000000 0.000000 0.060104 0.000000 0.000000
# 5 0.000000 0.000000 0.000000 0.000000 0.098351 0.000000
# 6 0.000000 0.000000 0.000000 0.000000 0.000000 0.048099
#
#
# Mechanical properties :
#
#
# Convention : Reuss Voigt Hill
#
# Bulk Modulus (GPa) = 29.87275 51.42278 40.64777
# Shear Modulus (GPa) = 17.52439 24.02442 20.77440
#
# Velocity S-wave (km/s) = 2.95775 3.46311 3.22036
# Velocity P-wave (km/s) = 5.15529 6.45456 5.84116
#
# Compressibility (1/GPa) = 0.03347532
#
# Stress axis : x y z
#
# Youngs Moduli (GPa) = 84.94756 128.39564 32.27917
#
# Poissons Ratio (x) = 0.49566 0.11331
# Poissons Ratio (y) = 0.32793 0.03749
# Poissons Ratio (z) = 0.29820 0.14913
#
# Static dielectric constant tensor:
#      x y z
#    x 3.926130 0.000000 0.000000 
#    y 0.000000 3.941210 0.000000 
#    z 0.000000 0.000000 3.611530 
# 
# 
# High freq. dielectric constant tensor:
#      x y z
#    x 1.780350 0.000000 0.000000 
#    y 0.000000 1.798220 0.000000 
#    z 0.000000 0.000000 1.762690 
# 
# From -- ./inp_files/4090.got.cif
#   From: 2010.03.12/outbox.cif.g09.slc.cpg/sg55_3_cif.got.tgz:4090.got - 2010.04.16 15:19:21.
