data_PCOD8226334
_publ_section_title
;
Structure prediction by ZEFSAII (Michael W. Deem and Ramdas Pophale) SiO2 
 PCOD8226334
Probable space group: P B A M
;
_chemical_formula_sum "Si O2"
_cell_formula_units_Z 64
_cell_length_a 15.030877
_cell_length_b 24.603329
_cell_length_c 8.420196
_cell_angle_alpha 90.000000
_cell_angle_beta 90.000000
_cell_angle_gamma 90.000000
_cell_volume 3113.869416
_symmetry_space_group_name_H-M "P B A M"
_symmetry_group_IT_number 55
_symmetry_cell_setting 'orthorhombic'
loop_
_space_group_symop_operation_xyz
x,y,z
-x,-y,z
1/2+x,1/2-y,-z
1/2-x,1/2+y,-z
-x,-y,-z
x,y,-z
1/2-x,1/2+y,z
1/2+x,1/2-y,z
loop_
_atom_site_type_symbol
_atom_site_label
_atom_site_fract_x
_atom_site_fract_y
_atom_site_fract_z
Si Si1 0.309999 0.639108 0.686139
Si Si2 0.000782 0.840645 0.816091
Si Si3 0.677604 0.069079 0.817616
Si Si4 0.027922 0.272067 0.683487
Si Si5 0.996503 0.392227 0.682969
Si Si6 0.316881 0.349808 0.315939
Si Si7 0.676647 0.944253 0.183806
Si Si8 0.784848 0.745820 0.185694
O O1 0.292958 0.634999 0.500000
O O2 0.414897 0.638137 0.721795
O O3 0.265537 0.588143 0.772579
O O4 0.263941 0.693897 0.751394
O O5 0.088025 0.871072 0.749026
O O6 0.012673 0.775852 0.790379
O O7 0.987995 0.854011 0.000000
O O8 0.574692 0.082816 0.788525
O O9 0.742547 0.104611 0.709479
O O10 0.695271 0.006669 0.774757
O O11 0.700066 0.081932 0.000000
O O12 0.015720 0.255873 0.500000
O O13 0.980023 0.328819 0.725032
O O14 0.132040 0.279653 0.720469
O O15 0.024668 0.398160 0.500000
O O16 0.905903 0.424002 0.712788
O O17 0.323776 0.335713 0.500000
O O18 0.296753 0.294162 0.220757
O O19 0.652497 0.936482 0.000000
O O20 0.806651 0.748700 0.000000
#
# Coordination Sequence:
#
# PCOD8226334 Si02
#       8
#     8   8   8   8   8   8   8   8
#     4  11  23  42  65  91 126 164 206 259 313 369
#     4  11  23  40  63  91 126 166 206 255 310 374
#     4  11  24  43  65  91 125 165 211 261 311 368
#     4  10  20  36  57  88 127 164 201 248 303 363
#     4  11  23  38  61  92 128 167 207 255 309 371
#     4  12  24  40  63  92 126 164 207 258 312 371
#     4  11  25  43  64  90 124 166 212 261 311 369
#     4  11  21  36  60  89 123 163 203 249 306 369
#
# _framework density 20.553204999999998
#
# number of rings (size 3 to 8) (size 9 to 14) (size 15 to 20)
#    0.000    1.000    1.250    7.875    1.750    5.000 
#    0.000    0.625    0.000    3.750    0.000    0.000 
#    0.000    0.000    0.000    0.000    0.000    0.000 
#
# Total GULP energy -794009.123277 kJ/mol
# GULP energy per Si atom -12406.392551 kJ/mol
# Density = 2.050642 g / cm^3
# Si number density = 20.553205 Si / 1000 Ang^3
#
#
#
# Elastic Constant Matrix: (Units=GPa)
#
#
# Indices 1 2 3 4 5 6 
#
# 1 97.1182 39.6454 1.8425 0.0000 0.0000 0.0000
# 2 39.6454 71.5191 29.7769 0.0000 0.0000 0.0000
# 3 1.8425 29.7769 66.6038 0.0000 0.0000 0.0000
# 4 0.0000 0.0000 0.0000 23.9594 0.0000 0.0000
# 5 0.0000 0.0000 0.0000 0.0000 35.2547 0.0000
# 6 0.0000 0.0000 0.0000 0.0000 0.0000 21.3626
#
#
#
# Elastic Compliance Matrix: (Units=1/GPa)
#
#
# Indices 1 2 3 4 5 6 
#
# 1 0.014050 -0.009371 0.003801 0.000000 0.000000 0.000000
# 2 -0.009371 0.023430 -0.010216 0.000000 0.000000 0.000000
# 3 0.003801 -0.010216 0.019476 0.000000 0.000000 0.000000
# 4 0.000000 0.000000 0.000000 0.041737 0.000000 0.000000
# 5 0.000000 0.000000 0.000000 0.000000 0.028365 0.000000
# 6 0.000000 0.000000 0.000000 0.000000 0.000000 0.046811
#
#
# Mechanical properties :
#
#
# Convention : Reuss Voigt Hill
#
# Bulk Modulus (GPa) = 39.39381 41.97453 40.68417
# Shear Modulus (GPa) = 23.37510 27.04708 25.21109
#
# Velocity S-wave (km/s) = 3.37604 3.63154 3.50612
# Velocity P-wave (km/s) = 5.86560 6.16854 6.01897
#
# Compressibility (1/GPa) = 0.02538470
#
# Stress axis : x y z
#
# Youngs Moduli (GPa) = 71.17451 42.67996 51.34460
#
# Poissons Ratio (x) = 0.39995 -0.19515
# Poissons Ratio (y) = 0.66696 0.52453
# Poissons Ratio (z) = -0.27052 0.43601
#
# Static dielectric constant tensor:
#      x y z
#    x 3.661580 0.000000 0.000000 
#    y 0.000000 3.699800 0.000000 
#    z 0.000000 0.000000 3.749080 
# 
# 
# High freq. dielectric constant tensor:
#      x y z
#    x 1.804120 0.000000 0.000000 
#    y 0.000000 1.793260 0.000000 
#    z 0.000000 0.000000 1.817740 
# 
# From -- ./inp_files/6692.got.cif
#   From: 2010.03.12/outbox.cif.g09.slc.cpg/sg55_4_cif.got.tgz:6692.got - 2010.04.16 15:19:21.
