data_PCOD8226347
_publ_section_title
;
Structure prediction by ZEFSAII (Michael W. Deem and Ramdas Pophale) SiO2 
 PCOD8226347
Probable space group: P B A M
;
_chemical_formula_sum "Si O2"
_cell_formula_units_Z 48
_cell_length_a 8.358189
_cell_length_b 10.820022
_cell_length_c 24.637611
_cell_angle_alpha 90.000000
_cell_angle_beta 90.000000
_cell_angle_gamma 90.000000
_cell_volume 2228.121786
_symmetry_space_group_name_H-M "P B A M"
_symmetry_group_IT_number 55
_symmetry_cell_setting 'orthorhombic'
loop_
_space_group_symop_operation_xyz
x,y,z
-x,-y,z
1/2+x,1/2-y,-z
1/2-x,1/2+y,-z
-x,-y,-z
x,y,-z
1/2-x,1/2+y,z
1/2+x,1/2-y,z
loop_
_atom_site_type_symbol
_atom_site_label
_atom_site_fract_x
_atom_site_fract_y
_atom_site_fract_z
Si Si1 0.569897 0.367246 0.940334
Si Si2 0.896422 0.682665 0.205764
Si Si3 0.569084 0.130072 0.562421
Si Si4 0.351238 0.186706 0.871752
Si Si5 0.396528 0.382179 0.732522
Si Si6 0.589431 0.627069 0.606286
O O1 0.500000 0.500000 0.948290
O O2 0.451427 0.293553 0.901388
O O3 0.749855 0.387898 0.916297
O O4 0.583707 0.303319 0.000000
O O5 0.778714 0.762786 0.169583
O O6 0.780414 0.595998 0.241421
O O7 0.018407 0.610090 0.164547
O O8 0.007292 0.764554 0.245397
O O9 0.517750 0.145084 0.500000
O O10 0.511198 0.249488 0.595370
O O11 0.758666 0.127159 0.567504
O O12 0.500000 0.000000 0.585770
O O13 0.500000 0.500000 0.747927
O O14 0.363332 0.369318 0.669071
O O15 0.500000 0.500000 0.591978
#
# Coordination Sequence:
#
# PCOD8226347 Si02
#       6
#     8   8   8   8   8   8
#     4  10  20  36  58  82 113 152 191 237 292 347
#     4   9  19  36  57  83 112 147 188 233 290 349
#     4  11  24  41  63  92 125 162 206 257 312 369
#     4   9  19  35  56  83 114 146 187 237 286 346
#     4  10  21  39  60  85 118 153 194 243 293 351
#     4  11  23  40  64  91 124 165 207 255 309 369
#
# _framework density 21.542808999999998
#
# number of rings (size 3 to 8) (size 9 to 14) (size 15 to 20)
#    0.000    2.000    0.000    3.000    0.000   10.000 
#    0.000   11.667    0.000    9.000    0.000    0.000 
#    0.000    0.000    0.000    0.000    0.000    0.000 
#
# Total GULP energy -594668.879184 kJ/mol
# GULP energy per Si atom -12388.934983 kJ/mol
# Density = 2.149378 g / cm^3
# Si number density = 21.542809 Si / 1000 Ang^3
#
#
#
# Elastic Constant Matrix: (Units=GPa)
#
#
# Indices 1 2 3 4 5 6 
#
# 1 131.6632 34.8459 35.9476 0.0000 0.0000 0.0000
# 2 34.8459 98.3225 26.2308 0.0000 0.0000 0.0000
# 3 35.9476 26.2308 70.2833 0.0000 0.0000 0.0000
# 4 0.0000 0.0000 0.0000 8.1237 0.0000 0.0000
# 5 0.0000 0.0000 0.0000 0.0000 55.6166 0.0000
# 6 0.0000 0.0000 0.0000 0.0000 0.0000 30.1059
#
#
#
# Elastic Compliance Matrix: (Units=1/GPa)
#
#
# Indices 1 2 3 4 5 6 
#
# 1 0.009252 -0.002239 -0.003896 0.000000 0.000000 0.000000
# 2 -0.002239 0.011837 -0.003272 0.000000 0.000000 0.000000
# 3 -0.003896 -0.003272 0.017442 0.000000 0.000000 0.000000
# 4 0.000000 0.000000 0.000000 0.123097 0.000000 0.000000
# 5 0.000000 0.000000 0.000000 0.000000 0.017980 0.000000
# 6 0.000000 0.000000 0.000000 0.000000 0.000000 0.033216
#
#
# Mechanical properties :
#
#
# Convention : Reuss Voigt Hill
#
# Bulk Modulus (GPa) = 50.72248 54.92418 52.82333
# Shear Modulus (GPa) = 20.98972 32.31890 26.65431
#
# Velocity S-wave (km/s) = 3.12481 3.87747 3.52130
# Velocity P-wave (km/s) = 6.05106 6.75256 6.41141
#
# Compressibility (1/GPa) = 0.01971512
#
# Stress axis : x y z
#
# Youngs Moduli (GPa) = 108.09009 84.47872 57.33226
#
# Poissons Ratio (x) = 0.18918 0.22337
# Poissons Ratio (y) = 0.24205 0.18762
# Poissons Ratio (z) = 0.42113 0.27646
#
# Static dielectric constant tensor:
#      x y z
#    x 4.665330 0.000000 0.000000 
#    y 0.000000 3.911230 0.000000 
#    z 0.000000 0.000000 4.234830 
# 
# 
# High freq. dielectric constant tensor:
#      x y z
#    x 1.866930 0.000000 0.000000 
#    y 0.000000 1.820140 0.000000 
#    z 0.000000 0.000000 1.863490 
# 
# From -- ./inp_files/23434.got.cif
#   From: 2010.03.12/outbox.cif.g09.slc.cpg/sg55_12_cif.got.tgz:23434.got - 2010.04.16 15:19:21.
