data_PCOD8226250
_publ_section_title
;
Structure prediction by ZEFSAII (Michael W. Deem and Ramdas Pophale) SiO2 
 PCOD8226250
Probable space group: P B A M
;
_chemical_formula_sum "Si O2"
_cell_formula_units_Z 64
_cell_length_a 28.469916
_cell_length_b 12.715254
_cell_length_c 8.832536
_cell_angle_alpha 90.000000
_cell_angle_beta 90.000000
_cell_angle_gamma 90.000000
_cell_volume 3197.397581
_symmetry_space_group_name_H-M "P B A M"
_symmetry_group_IT_number 55
_symmetry_cell_setting 'orthorhombic'
loop_
_space_group_symop_operation_xyz
x,y,z
-x,-y,z
1/2+x,1/2-y,-z
1/2-x,1/2+y,-z
-x,-y,-z
x,y,-z
1/2-x,1/2+y,z
1/2+x,1/2-y,z
loop_
_atom_site_type_symbol
_atom_site_label
_atom_site_fract_x
_atom_site_fract_y
_atom_site_fract_z
Si Si1 0.583180 0.596715 0.174530
Si Si2 0.399818 0.608820 0.678645
Si Si3 0.675584 0.670789 0.670046
Si Si4 0.060337 0.331642 0.321467
Si Si5 0.387934 0.041235 0.321230
Si Si6 0.297831 0.123371 0.824578
Si Si7 0.962373 0.308636 0.174255
Si Si8 0.205815 0.056392 0.669976
O O1 0.569247 0.480181 0.234125
O O2 0.624143 0.636393 0.282225
O O3 0.541253 0.681617 0.192686
O O4 0.599435 0.590338 0.000000
O O5 0.406882 0.593216 0.500000
O O6 0.416991 0.722629 0.735217
O O7 0.345142 0.597425 0.723732
O O8 0.673243 0.718318 0.500000
O O9 0.695354 0.754671 0.786927
O O10 0.709057 0.569645 0.672898
O O11 0.054330 0.330792 0.500000
O O12 0.093092 0.427702 0.267901
O O13 0.009380 0.349766 0.251370
O O14 0.391074 0.052443 0.500000
O O15 0.334029 0.050833 0.268773
O O16 0.417426 0.135806 0.248397
O O17 0.244366 0.097551 0.785364
O O18 0.307147 0.103813 0.000000
O O19 0.963417 0.341501 0.000000
O O20 0.216107 0.098173 0.500000
#
# Coordination Sequence:
#
# PCOD8226250 Si02
#       8
#     8   8   8   8   8   8   8   8
#     4  10  20  35  58  87 119 152 194 245 295 350
#     4   9  20  40  62  85 117 157 202 249 300 355
#     4  10  20  37  61  84 111 152 197 243 292 344
#     4  10  23  41  61  87 119 158 203 251 298 356
#     4  11  23  40  62  86 117 158 206 253 297 351
#     4  12  24  37  58  90 122 153 193 243 303 362
#     4  11  23  38  59  89 122 158 197 248 308 363
#     4   9  20  38  60  86 114 152 200 244 293 353
#
# _framework density 20.016279000000001
#
# number of rings (size 3 to 8) (size 9 to 14) (size 15 to 20)
#    0.000    1.750    1.250    3.750    0.000    8.500 
#    0.000    5.000    0.000    0.000    0.000    0.000 
#    0.000    0.000    0.000    0.000    0.000    0.000 
#
# Total GULP energy -793722.588959 kJ/mol
# GULP energy per Si atom -12401.915452 kJ/mol
# Density = 1.997072 g / cm^3
# Si number density = 20.016279 Si / 1000 Ang^3
#
#
#
# Elastic Constant Matrix: (Units=GPa)
#
#
# Indices 1 2 3 4 5 6 
#
# 1 48.6853 10.2133 13.6785 0.0000 0.0000 0.0000
# 2 10.2133 99.5003 26.5148 0.0000 0.0000 0.0000
# 3 13.6785 26.5148 46.7070 0.0000 0.0000 0.0000
# 4 0.0000 0.0000 0.0000 21.0219 0.0000 0.0000
# 5 0.0000 0.0000 0.0000 0.0000 -0.8339 0.0000
# 6 0.0000 0.0000 0.0000 0.0000 0.0000 22.6463
#
#
#
# Elastic Compliance Matrix: (Units=1/GPa)
#
#
# Indices 1 2 3 4 5 6 
#
# 1 0.022417 -0.000650 -0.006196 0.000000 0.000000 0.000000
# 2 -0.000650 0.011860 -0.006543 0.000000 0.000000 0.000000
# 3 -0.006196 -0.006543 0.026939 0.000000 0.000000 0.000000
# 4 0.000000 0.000000 0.000000 0.047569 0.000000 0.000000
# 5 0.000000 0.000000 0.000000 0.000000 -1.199221 0.000000
# 6 0.000000 0.000000 0.000000 0.000000 0.000000 0.044157
#
#
# Mechanical properties :
#
#
# Convention : Reuss Voigt Hill
#
# Bulk Modulus (GPa) = 29.03670 32.85619 30.94644
# Shear Modulus (GPa) = -4.96022 18.19928 6.61953
#
# Velocity S-wave (km/s) = -1.57590 3.01860 1.82051
# Velocity P-wave (km/s) = 3.35063 5.34787 4.46242
#
# Compressibility (1/GPa) = 0.03443917
#
# Stress axis : x y z
#
# Youngs Moduli (GPa) = 44.60849 84.31410 37.12117
#
# Poissons Ratio (x) = 0.05480 0.23001
# Poissons Ratio (y) = 0.02899 0.24287
# Poissons Ratio (z) = 0.27640 0.55164
#
# Static dielectric constant tensor:
#      x y z
#    x 3.454680 0.000000 0.000000 
#    y 0.000000 4.084520 0.000000 
#    z 0.000000 0.000000 3.594630 
# 
# 
# High freq. dielectric constant tensor:
#      x y z
#    x 1.769300 0.000000 0.000000 
#    y 0.000000 1.790420 0.000000 
#    z 0.000000 0.000000 1.782320 
# 
# From -- ./inp_files/10725.got.cif
#   From: 2010.03.12/outbox.cif.g09.slc.cpg/sg55_6_cif.got.tgz:10725.got - 2010.04.16 15:19:21.
