data_PCOD8226845
_publ_section_title
;
Structure prediction by ZEFSAII (Michael W. Deem and Ramdas Pophale) SiO2 
 PCOD8226845
Probable space group: P B A M
;
_chemical_formula_sum "Si O2"
_cell_formula_units_Z 64
_cell_length_a 15.332216
_cell_length_b 22.560694
_cell_length_c 9.346328
_cell_angle_alpha 90.000000
_cell_angle_beta 90.000000
_cell_angle_gamma 90.000000
_cell_volume 3232.945639
_symmetry_space_group_name_H-M "P B A M"
_symmetry_group_IT_number 55
_symmetry_cell_setting 'orthorhombic'
loop_
_space_group_symop_operation_xyz
x,y,z
-x,-y,z
1/2+x,1/2-y,-z
1/2-x,1/2+y,-z
-x,-y,-z
x,y,-z
1/2-x,1/2+y,z
1/2+x,1/2-y,z
loop_
_atom_site_type_symbol
_atom_site_label
_atom_site_fract_x
_atom_site_fract_y
_atom_site_fract_z
Si Si1 0.994272 0.202293 0.164946
Si Si2 0.844491 0.871125 0.159214
Si Si3 0.194254 0.678362 0.333409
Si Si4 0.401070 0.495684 0.160791
Si Si5 0.575919 0.046032 0.166427
Si Si6 0.024670 0.663934 0.162969
Si Si7 0.250147 0.934316 0.332258
Si Si8 0.676208 0.688831 0.336030
O O1 0.016553 0.271432 0.190804
O O2 0.909666 0.178066 0.244134
O O3 0.074655 0.164865 0.224903
O O4 0.977962 0.188058 0.000000
O O5 0.765739 0.863452 0.266281
O O6 0.862579 0.939605 0.151978
O O7 0.821954 0.846827 0.000000
O O8 0.191186 0.666705 0.500000
O O9 0.103784 0.655653 0.270248
O O10 0.215799 0.746957 0.294921
O O11 0.500000 0.500000 0.220671
O O12 0.340230 0.458159 0.266586
O O13 0.401614 0.467496 0.000000
O O14 0.545704 0.113238 0.194969
O O15 0.665084 0.037169 0.255685
O O16 0.500000 0.000000 0.215780
O O17 0.597901 0.034869 0.000000
O O18 0.058953 0.658459 0.000000
O O19 0.254341 0.950439 0.500000
O O20 0.247345 0.862832 0.308695
O O21 0.645835 0.689163 0.500000
#
# Coordination Sequence:
#
# PCOD8226845 Si02
#       8
#     8   8   8   8   8   8   8   8
#     4   9  18  34  58  87 113 145 190 237 283 340
#     4  10  21  35  56  85 116 145 184 236 285 339
#     4  10  21  36  56  83 115 152 188 225 282 349
#     4  10  22  41  63  87 117 156 197 239 293 350
#     4  10  23  41  61  85 115 154 199 248 300 350
#     4   9  19  37  59  83 113 148 190 239 290 338
#     4  11  24  40  61  89 121 156 199 246 291 346
#     4   9  20  38  56  81 117 152 186 230 285 342
#
# _framework density 19.796187
#
# number of rings (size 3 to 8) (size 9 to 14) (size 15 to 20)
#    0.000    2.250    0.000    1.500    3.500    4.500 
#    0.000    0.000    0.000    0.000    0.000    0.000 
#    0.000    0.000    0.000    0.000    0.000    0.000 
#
# Total GULP energy -793563.596240 kJ/mol
# GULP energy per Si atom -12399.431191 kJ/mol
# Density = 1.975113 g / cm^3
# Si number density = 19.796187 Si / 1000 Ang^3
#
#
#
# Elastic Constant Matrix: (Units=GPa)
#
#
# Indices 1 2 3 4 5 6 
#
# 1 92.7117 28.1960 54.3179 0.0000 0.0000 0.0000
# 2 28.1960 60.1399 26.1255 0.0000 0.0000 0.0000
# 3 54.3179 26.1255 84.5884 0.0000 0.0000 0.0000
# 4 0.0000 0.0000 0.0000 27.0585 0.0000 0.0000
# 5 0.0000 0.0000 0.0000 0.0000 36.1794 0.0000
# 6 0.0000 0.0000 0.0000 0.0000 0.0000 31.4465
#
#
#
# Elastic Compliance Matrix: (Units=1/GPa)
#
#
# Indices 1 2 3 4 5 6 
#
# 1 0.018074 -0.003964 -0.010382 0.000000 0.000000 0.000000
# 2 -0.003964 0.020074 -0.003655 0.000000 0.000000 0.000000
# 3 -0.010382 -0.003655 0.019617 0.000000 0.000000 0.000000
# 4 0.000000 0.000000 0.000000 0.036957 0.000000 0.000000
# 5 0.000000 0.000000 0.000000 0.000000 0.027640 0.000000
# 6 0.000000 0.000000 0.000000 0.000000 0.000000 0.031800
#
#
# Mechanical properties :
#
#
# Convention : Reuss Voigt Hill
#
# Bulk Modulus (GPa) = 45.94588 50.52431 48.23509
# Shear Modulus (GPa) = 25.32695 27.52359 26.42527
#
# Velocity S-wave (km/s) = 3.58073 3.73278 3.65755
# Velocity P-wave (km/s) = 6.35259 6.64499 6.50043
#
# Compressibility (1/GPa) = 0.02176474
#
# Stress axis : x y z
#
# Youngs Moduli (GPa) = 55.32744 49.81593 50.97524
#
# Poissons Ratio (x) = 0.19746 0.52922
# Poissons Ratio (y) = 0.21931 0.18629
# Poissons Ratio (z) = 0.57441 0.18205
#
# Static dielectric constant tensor:
#      x y z
#    x 3.581590 0.000000 0.000000 
#    y 0.000000 3.774930 0.000000 
#    z 0.000000 0.000000 3.636810 
# 
# 
# High freq. dielectric constant tensor:
#      x y z
#    x 1.764310 0.000000 0.000000 
#    y 0.000000 1.781330 0.000000 
#    z 0.000000 0.000000 1.766340 
# 
# From -- ./inp_files/6549.got.cif
#   From: 2010.03.12/outbox.cif.g09.slc.cpg/sg55_4_cif.got.tgz:6549.got - 2010.04.16 15:19:21.
