data_PCOD8226811
_publ_section_title
;
Structure prediction by ZEFSAII (Michael W. Deem and Ramdas Pophale) SiO2 
 PCOD8226811
Probable space group: P B A M
;
_chemical_formula_sum "Si O2"
_cell_formula_units_Z 56
_cell_length_a 13.844332
_cell_length_b 22.930276
_cell_length_c 9.835914
_cell_angle_alpha 90.000000
_cell_angle_beta 90.000000
_cell_angle_gamma 90.000000
_cell_volume 3122.453723
_symmetry_space_group_name_H-M "P B A M"
_symmetry_group_IT_number 55
_symmetry_cell_setting 'orthorhombic'
loop_
_space_group_symop_operation_xyz
x,y,z
-x,-y,z
1/2+x,1/2-y,-z
1/2-x,1/2+y,-z
-x,-y,-z
x,y,-z
1/2-x,1/2+y,z
1/2+x,1/2-y,z
loop_
_atom_site_type_symbol
_atom_site_label
_atom_site_fract_x
_atom_site_fract_y
_atom_site_fract_z
Si Si1 0.786753 0.953803 0.840128
Si Si2 0.718644 0.724736 0.342601
Si Si3 0.104358 0.933879 0.850294
Si Si4 0.303327 0.864915 0.150903
Si Si5 0.899389 0.521969 0.838568
Si Si6 0.814231 0.842901 0.345361
Si Si7 0.469784 0.342447 0.345846
O O1 0.801711 0.894889 0.758769
O O2 0.876338 0.998289 0.811676
O O3 0.687639 0.981946 0.783671
O O4 0.780236 0.939653 0.000000
O O5 0.739933 0.711860 0.500000
O O6 0.795659 0.687845 0.256078
O O7 0.736643 0.792613 0.309635
O O8 0.608826 0.706717 0.301737
O O9 0.206660 0.902413 0.855158
O O10 0.036267 0.901500 0.742821
O O11 0.055594 0.930214 0.000000
O O12 0.386028 0.909884 0.201416
O O13 0.326360 0.839995 0.000000
O O14 0.000000 0.500000 0.774395
O O15 0.899893 0.516942 0.000000
O O16 0.798844 0.865074 0.500000
O O17 0.922725 0.816482 0.329717
O O18 0.448523 0.361586 0.500000
#
# Coordination Sequence:
#
# PCOD8226811 Si02
#       7
#     8   8   8   8   8   8   8
#     4   9  18  32  50  73 101 131 159 195 243 289
#     4   9  18  34  51  66  91 128 164 201 241 283
#     4   8  15  29  49  72  97 122 151 192 239 283
#     4   8  14  27  49  72  92 120 158 197 235 277
#     4   8  14  28  50  74 101 130 159 194 241 295
#     4  10  21  35  49  69  99 131 162 201 246 288
#     4   9  18  33  52  70  90 125 167 197 236 294
#
# _framework density 17.934612000000001
#
# number of rings (size 3 to 8) (size 9 to 14) (size 15 to 20)
#    0.000    3.286    0.000    1.714    0.000    2.286 
#    2.571    5.000    0.000    0.857    0.000    0.000 
#    0.000    0.000    0.000    0.000    0.000    0.000 
#
# Total GULP energy -694039.550695 kJ/mol
# GULP energy per Si atom -12393.563405 kJ/mol
# Density = 1.789379 g / cm^3
# Si number density = 17.934612 Si / 1000 Ang^3
#
#
#
# Elastic Constant Matrix: (Units=GPa)
#
#
# Indices 1 2 3 4 5 6 
#
# 1 56.7832 28.9967 22.0760 0.0000 0.0000 0.0000
# 2 28.9967 105.6401 53.6240 0.0000 0.0000 0.0000
# 3 22.0760 53.6240 63.5861 0.0000 0.0000 0.0000
# 4 0.0000 0.0000 0.0000 32.1903 0.0000 0.0000
# 5 0.0000 0.0000 0.0000 0.0000 15.6772 0.0000
# 6 0.0000 0.0000 0.0000 0.0000 0.0000 24.9812
#
#
#
# Elastic Compliance Matrix: (Units=1/GPa)
#
#
# Indices 1 2 3 4 5 6 
#
# 1 0.021126 -0.003629 -0.004274 0.000000 0.000000 0.000000
# 2 -0.003629 0.017175 -0.013224 0.000000 0.000000 0.000000
# 3 -0.004274 -0.013224 0.028363 0.000000 0.000000 0.000000
# 4 0.000000 0.000000 0.000000 0.031065 0.000000 0.000000
# 5 0.000000 0.000000 0.000000 0.000000 0.063787 0.000000
# 6 0.000000 0.000000 0.000000 0.000000 0.000000 0.040030
#
#
# Mechanical properties :
#
#
# Convention : Reuss Voigt Hill
#
# Bulk Modulus (GPa) = 40.96843 48.37809 44.67326
# Shear Modulus (GPa) = 19.84628 22.65726 21.25177
#
# Velocity S-wave (km/s) = 3.33015 3.55819 3.44606
# Velocity P-wave (km/s) = 6.13835 6.62678 6.38724
#
# Compressibility (1/GPa) = 0.02440904
#
# Stress axis : x y z
#
# Youngs Moduli (GPa) = 47.33562 58.22416 35.25746
#
# Poissons Ratio (x) = 0.21131 0.15068
# Poissons Ratio (y) = 0.17179 0.46625
# Poissons Ratio (z) = 0.20230 0.76996
#
# Static dielectric constant tensor:
#      x y z
#    x 3.503990 0.000000 0.000000 
#    y 0.000000 3.254590 0.000000 
#    z 0.000000 0.000000 3.302300 
# 
# 
# High freq. dielectric constant tensor:
#      x y z
#    x 1.686610 0.000000 0.000000 
#    y 0.000000 1.681680 0.000000 
#    z 0.000000 0.000000 1.677620 
# 
# From -- ./inp_files/6152.got.cif
#   From: 2010.03.12/outbox.cif.g09.slc.cpg/sg55_4_cif.got.tgz:6152.got - 2010.04.16 15:19:21.
