data_PCOD8226524
_publ_section_title
;
Structure prediction by ZEFSAII (Michael W. Deem and Ramdas Pophale) SiO2 
 PCOD8226524
Probable space group: P B A M
;
_chemical_formula_sum "Si O2"
_cell_formula_units_Z 64
_cell_length_a 12.769938
_cell_length_b 27.689881
_cell_length_c 9.228783
_cell_angle_alpha 90.000000
_cell_angle_beta 90.000000
_cell_angle_gamma 90.000000
_cell_volume 3263.279798
_symmetry_space_group_name_H-M "P B A M"
_symmetry_group_IT_number 55
_symmetry_cell_setting 'orthorhombic'
loop_
_space_group_symop_operation_xyz
x,y,z
-x,-y,z
1/2+x,1/2-y,-z
1/2-x,1/2+y,-z
-x,-y,-z
x,y,-z
1/2-x,1/2+y,z
1/2+x,1/2-y,z
loop_
_atom_site_type_symbol
_atom_site_label
_atom_site_fract_x
_atom_site_fract_y
_atom_site_fract_z
Si Si1 0.269435 0.715663 0.328466
Si Si2 0.957873 0.553358 0.339447
Si Si3 0.639356 0.910087 0.154078
Si Si4 0.157023 0.308257 0.167773
Si Si5 0.464929 0.447348 0.172216
Si Si6 0.237602 0.412493 0.170402
Si Si7 0.852329 0.878062 0.170327
Si Si8 0.581111 0.805177 0.154662
O O1 0.274633 0.711104 0.500000
O O2 0.319650 0.765157 0.275832
O O3 0.334670 0.671009 0.261238
O O4 0.147293 0.721179 0.279754
O O5 0.932996 0.572924 0.500000
O O6 0.853551 0.556130 0.244490
O O7 0.000000 0.500000 0.343032
O O8 0.055072 0.582753 0.277356
O O9 0.760545 0.918783 0.198964
O O10 0.644995 0.853395 0.123938
O O11 0.611241 0.936644 0.000000
O O12 0.223775 0.355870 0.209267
O O13 0.035834 0.319640 0.199240
O O14 0.177183 0.293894 0.000000
O O15 0.500000 0.500000 0.233926
O O16 0.348778 0.432508 0.227180
O O17 0.542970 0.405063 0.226076
O O18 0.466065 0.449447 0.000000
O O19 0.224171 0.420175 0.000000
O O20 0.861639 0.865157 0.000000
O O21 0.580633 0.775767 0.000000
#
# Coordination Sequence:
#
# PCOD8226524 Si02
#       8
#     8   8   8   8   8   8   8   8
#     4  11  23  36  55  87 120 156 197 240 297 362
#     4  11  24  37  52  81 120 154 187 232 292 358
#     4   9  17  33  58  84 108 141 189 238 284 335
#     4  10  20  37  59  84 114 151 195 244 297 351
#     4   9  19  36  62  93 120 151 198 254 302 349
#     4  10  21  39  63  89 116 149 196 246 296 352
#     4   9  19  37  59  86 118 154 197 246 296 349
#     4   9  18  36  58  80 109 144 188 240 290 342
#
# _framework density 19.612172000000001
#
# number of rings (size 3 to 8) (size 9 to 14) (size 15 to 20)
#    0.000    2.250    1.250    2.250    1.750    5.000 
#    0.000    3.125    0.000    0.750    0.000    0.000 
#    0.000    0.000    0.000    0.000    0.000    0.000 
#
# Total GULP energy -792898.819029 kJ/mol
# GULP energy per Si atom -12389.044047 kJ/mol
# Density = 1.956753 g / cm^3
# Si number density = 19.612172 Si / 1000 Ang^3
#
#
#
# Elastic Constant Matrix: (Units=GPa)
#
#
# Indices 1 2 3 4 5 6 
#
# 1 140.5370 49.9380 52.1365 0.0000 0.0000 0.0000
# 2 49.9380 85.0508 45.9505 0.0000 0.0000 0.0000
# 3 52.1365 45.9505 95.3168 0.0000 0.0000 0.0000
# 4 0.0000 0.0000 0.0000 20.3852 0.0000 0.0000
# 5 0.0000 0.0000 0.0000 0.0000 12.5369 0.0000
# 6 0.0000 0.0000 0.0000 0.0000 0.0000 22.2740
#
#
#
# Elastic Compliance Matrix: (Units=1/GPa)
#
#
# Indices 1 2 3 4 5 6 
#
# 1 0.009781 -0.003857 -0.003491 0.000000 0.000000 0.000000
# 2 -0.003857 0.017420 -0.006288 0.000000 0.000000 0.000000
# 3 -0.003491 -0.006288 0.015432 0.000000 0.000000 0.000000
# 4 0.000000 0.000000 0.000000 0.049055 0.000000 0.000000
# 5 0.000000 0.000000 0.000000 0.000000 0.079764 0.000000
# 6 0.000000 0.000000 0.000000 0.000000 0.000000 0.044895
#
#
# Mechanical properties :
#
#
# Convention : Reuss Voigt Hill
#
# Bulk Modulus (GPa) = 65.09861 68.55049 66.82455
# Shear Modulus (GPa) = 20.10137 22.56453 21.33295
#
# Velocity S-wave (km/s) = 3.20495 3.39564 3.30167
# Velocity P-wave (km/s) = 6.85278 7.09949 6.97722
#
# Compressibility (1/GPa) = 0.01536131
#
# Stress axis : x y z
#
# Youngs Moduli (GPa) = 102.23797 57.40668 64.80081
#
# Poissons Ratio (x) = 0.22143 0.22620
# Poissons Ratio (y) = 0.39435 0.40746
# Poissons Ratio (z) = 0.35687 0.36097
#
# Static dielectric constant tensor:
#      x y z
#    x 3.770900 0.000000 0.000000 
#    y 0.000000 3.330740 0.000000 
#    z 0.000000 0.000000 3.535910 
# 
# 
# High freq. dielectric constant tensor:
#      x y z
#    x 1.776350 0.000000 0.000000 
#    y 0.000000 1.750640 0.000000 
#    z 0.000000 0.000000 1.736730 
# 
# From -- ./inp_files/4554.got.cif
#   From: 2010.03.12/outbox.cif.g09.slc.cpg/sg55_3_cif.got.tgz:4554.got - 2010.04.16 15:19:21.
