data_PCOD8226611
_publ_section_title
;
Structure prediction by ZEFSAII (Michael W. Deem and Ramdas Pophale) SiO2 
 PCOD8226611
Probable space group: P B A M
;
_chemical_formula_sum "Si O2"
_cell_formula_units_Z 48
_cell_length_a 14.800226
_cell_length_b 20.449679
_cell_length_c 7.633056
_cell_angle_alpha 90.000000
_cell_angle_beta 90.000000
_cell_angle_gamma 90.000000
_cell_volume 2310.219743
_symmetry_space_group_name_H-M "P B A M"
_symmetry_group_IT_number 55
_symmetry_cell_setting 'orthorhombic'
loop_
_space_group_symop_operation_xyz
x,y,z
-x,-y,z
1/2+x,1/2-y,-z
1/2-x,1/2+y,-z
-x,-y,-z
x,y,-z
1/2-x,1/2+y,z
1/2+x,1/2-y,z
loop_
_atom_site_type_symbol
_atom_site_label
_atom_site_fract_x
_atom_site_fract_y
_atom_site_fract_z
Si Si1 0.280195 0.259163 0.207399
Si Si2 0.754785 0.595179 0.800685
Si Si3 0.951282 0.564086 0.698315
Si Si4 0.901932 0.804559 0.799177
Si Si5 0.455396 0.599930 0.500000
Si Si6 0.146142 0.968211 0.500000
Si Si7 0.041402 0.691484 0.201017
O O1 0.264713 0.332560 0.278598
O O2 0.199535 0.210987 0.263576
O O3 0.372015 0.228253 0.285033
O O4 0.284224 0.265119 0.000000
O O5 0.861939 0.581536 0.807262
O O6 0.703919 0.544194 0.675569
O O7 0.718396 0.587728 0.000000
O O8 0.921492 0.549581 0.500000
O O9 0.000000 0.500000 0.778722
O O10 0.022346 0.623756 0.701214
O O11 0.944120 0.859277 0.676996
O O12 0.955024 0.737156 0.777992
O O13 0.906449 0.829553 0.000000
O O14 0.556981 0.575193 0.500000
O O15 0.380418 0.543839 0.500000
O O16 0.061802 0.674901 0.000000
#
# Coordination Sequence:
#
# PCOD8226611 Si02
#       7
#     8   8   8   8   4   4   8
#     4   9  19  36  62  96 127 162 214 269 318 380
#     4  11  22  43  70  92 126 174 213 260 326 385
#     4  11  24  41  61  93 135 171 216 267 320 392
#     4  10  21  40  64  93 127 163 211 268 322 381
#     4  11  26  43  64  90 129 167 209 269 326 363
#     4  11  26  45  61  94 128 163 220 265 302 397
#     4  10  20  37  62  94 128 163 216 270 321 386
#
# _framework density 20.777245000000001
#
# number of rings (size 3 to 8) (size 9 to 14) (size 15 to 20)
#    0.000    1.667    2.500    1.500    1.167    6.000 
#    3.000    3.333    0.000    0.000    0.000    0.000 
#    0.000    0.000    0.000    0.000    0.000    0.000 
#
# Total GULP energy -595336.726889 kJ/mol
# GULP energy per Si atom -12402.848477 kJ/mol
# Density = 2.072996 g / cm^3
# Si number density = 20.777245 Si / 1000 Ang^3
#
#
#
# Elastic Constant Matrix: (Units=GPa)
#
#
# Indices 1 2 3 4 5 6 
#
# 1 108.5884 36.5438 17.6951 0.0000 0.0000 0.0000
# 2 36.5438 119.0165 36.1899 0.0000 0.0000 0.0000
# 3 17.6951 36.1899 86.0655 0.0000 0.0000 0.0000
# 4 0.0000 0.0000 0.0000 164.4926 0.0000 0.0000
# 5 0.0000 0.0000 0.0000 0.0000 17.8566 0.0000
# 6 0.0000 0.0000 0.0000 0.0000 0.0000 36.8938
#
#
#
# Elastic Compliance Matrix: (Units=1/GPa)
#
#
# Indices 1 2 3 4 5 6 
#
# 1 0.010332 -0.002897 -0.000906 0.000000 0.000000 0.000000
# 2 -0.002897 0.010446 -0.003797 0.000000 0.000000 0.000000
# 3 -0.000906 -0.003797 0.013402 0.000000 0.000000 0.000000
# 4 0.000000 0.000000 0.000000 0.006079 0.000000 0.000000
# 5 0.000000 0.000000 0.000000 0.000000 0.056002 0.000000
# 6 0.000000 0.000000 0.000000 0.000000 0.000000 0.027105
#
#
# Mechanical properties :
#
#
# Convention : Reuss Voigt Hill
#
# Bulk Modulus (GPa) = 52.68690 54.94755 53.81723
# Shear Modulus (GPa) = 34.50845 58.73138 46.61992
#
# Velocity S-wave (km/s) = 4.07981 5.32246 4.74201
# Velocity P-wave (km/s) = 6.89972 8.01716 7.47934
#
# Compressibility (1/GPa) = 0.01898005
#
# Stress axis : x y z
#
# Youngs Moduli (GPa) = 96.79036 95.72858 74.61599
#
# Poissons Ratio (x) = 0.27730 0.06761
# Poissons Ratio (y) = 0.28038 0.28331
# Poissons Ratio (z) = 0.08770 0.36348
#
# Static dielectric constant tensor:
#      x y z
#    x 3.912990 0.000000 0.000000 
#    y 0.000000 3.707350 0.000000 
#    z 0.000000 0.000000 3.592670 
# 
# 
# High freq. dielectric constant tensor:
#      x y z
#    x 1.821560 0.000000 0.000000 
#    y 0.000000 1.806550 0.000000 
#    z 0.000000 0.000000 1.807710 
# 
# From -- ./inp_files/5698.got.cif
#   From: 2010.03.12/outbox.cif.g09.slc.cpg/sg55_3_cif.got.tgz:5698.got - 2010.04.16 15:19:21.
