data_PCOD8226851
_publ_section_title
;
Structure prediction by ZEFSAII (Michael W. Deem and Ramdas Pophale) SiO2 
 PCOD8226851
Probable space group: P B A M
;
_chemical_formula_sum "Si O2"
_cell_formula_units_Z 48
_cell_length_a 22.678899
_cell_length_b 11.699894
_cell_length_c 9.406680
_cell_angle_alpha 90.000000
_cell_angle_beta 90.000000
_cell_angle_gamma 90.000000
_cell_volume 2495.975191
_symmetry_space_group_name_H-M "P B A M"
_symmetry_group_IT_number 55
_symmetry_cell_setting 'orthorhombic'
loop_
_space_group_symop_operation_xyz
x,y,z
-x,-y,z
1/2+x,1/2-y,-z
1/2-x,1/2+y,-z
-x,-y,-z
x,y,-z
1/2-x,1/2+y,z
1/2+x,1/2-y,z
loop_
_atom_site_type_symbol
_atom_site_label
_atom_site_fract_x
_atom_site_fract_y
_atom_site_fract_z
Si Si1 0.778679 0.887287 0.835740
Si Si2 0.390408 0.760964 0.165862
Si Si3 0.049223 0.082090 0.658108
Si Si4 0.663275 0.570070 0.658940
Si Si5 0.850156 0.293562 0.166497
Si Si6 0.566587 0.996114 0.831621
O O1 0.825885 0.788383 0.794709
O O2 0.714706 0.839930 0.801584
O O3 0.785821 0.003430 0.745182
O O4 0.785691 0.922206 0.000000
O O5 0.442715 0.692543 0.243794
O O6 0.395956 0.892375 0.215585
O O7 0.403150 0.748475 0.000000
O O8 0.028956 0.120834 0.500000
O O9 0.109774 0.015818 0.648593
O O10 0.000000 0.000000 0.727322
O O11 0.685565 0.602413 0.500000
O O12 0.640788 0.680375 0.742577
O O13 0.898388 0.384652 0.222472
O O14 0.858324 0.266094 0.000000
O O15 0.500000 0.000000 0.768438
O O16 0.563358 0.991248 0.000000
#
# Coordination Sequence:
#
# PCOD8226851 Si02
#       6
#     8   8   8   8   8   8
#     4   9  19  35  57  82 105 137 180 224 271 321
#     4   9  18  33  54  79 105 134 176 225 265 313
#     4   9  19  35  54  75 104 142 176 214 265 316
#     4  10  21  36  54  79 111 140 176 223 270 322
#     4  10  21  35  58  82 107 143 180 223 271 325
#     4   9  19  34  52  79 112 143 176 221 274 320
#
# _framework density 19.230961000000001
#
# number of rings (size 3 to 8) (size 9 to 14) (size 15 to 20)
#    0.000    2.667    0.000    0.500    4.667    1.667 
#    0.000    0.833    0.000    1.000    0.000    0.000 
#    0.000    0.000    0.000    0.000    0.000    0.000 
#
# Total GULP energy -595110.879425 kJ/mol
# GULP energy per Si atom -12398.143321 kJ/mol
# Density = 1.918719 g / cm^3
# Si number density = 19.230961 Si / 1000 Ang^3
#
#
#
# Elastic Constant Matrix: (Units=GPa)
#
#
# Indices 1 2 3 4 5 6 
#
# 1 67.7779 20.5052 13.9664 0.0000 0.0000 0.0000
# 2 20.5052 118.6196 41.9365 0.0000 0.0000 0.0000
# 3 13.9664 41.9365 57.2520 0.0000 0.0000 0.0000
# 4 0.0000 0.0000 0.0000 6.0128 0.0000 0.0000
# 5 0.0000 0.0000 0.0000 0.0000 16.8290 0.0000
# 6 0.0000 0.0000 0.0000 0.0000 0.0000 13.1247
#
#
#
# Elastic Compliance Matrix: (Units=1/GPa)
#
#
# Indices 1 2 3 4 5 6 
#
# 1 0.015830 -0.001850 -0.002506 0.000000 0.000000 0.000000
# 2 -0.001850 0.011593 -0.008040 0.000000 0.000000 0.000000
# 3 -0.002506 -0.008040 0.023967 0.000000 0.000000 0.000000
# 4 0.000000 0.000000 0.000000 0.166313 0.000000 0.000000
# 5 0.000000 0.000000 0.000000 0.000000 0.059421 0.000000
# 6 0.000000 0.000000 0.000000 0.000000 0.000000 0.076192
#
#
# Mechanical properties :
#
#
# Convention : Reuss Voigt Hill
#
# Bulk Modulus (GPa) = 37.59875 44.05174 40.82524
# Shear Modulus (GPa) = 12.92069 18.34271 15.63170
#
# Velocity S-wave (km/s) = 2.59486 3.09173 2.85413
# Velocity P-wave (km/s) = 5.34521 5.97507 5.66890
#
# Compressibility (1/GPa) = 0.02659663
#
# Stress axis : x y z
#
# Youngs Moduli (GPa) = 63.16977 86.26151 41.72350
#
# Poissons Ratio (x) = 0.15962 0.10457
# Poissons Ratio (y) = 0.11689 0.33546
# Poissons Ratio (z) = 0.15832 0.69355
#
# Static dielectric constant tensor:
#      x y z
#    x 3.562900 0.000000 0.000000 
#    y 0.000000 3.623080 0.000000 
#    z 0.000000 0.000000 3.568390 
# 
# 
# High freq. dielectric constant tensor:
#      x y z
#    x 1.747360 0.000000 0.000000 
#    y 0.000000 1.751250 0.000000 
#    z 0.000000 0.000000 1.723540 
# 
# From -- ./inp_files/4068.got.cif
#   From: 2010.03.12/outbox.cif.g09.slc.cpg/sg55_3_cif.got.tgz:4068.got - 2010.04.16 15:19:21.
