data_PCOD8226707
_publ_section_title
;
Structure prediction by ZEFSAII (Michael W. Deem and Ramdas Pophale) SiO2 
 PCOD8226707
Probable space group: P B A M
;
_chemical_formula_sum "Si O2"
_cell_formula_units_Z 36
_cell_length_a 13.971878
_cell_length_b 9.357787
_cell_length_c 12.988234
_cell_angle_alpha 90.000000
_cell_angle_beta 90.000000
_cell_angle_gamma 90.000000
_cell_volume 1698.157802
_symmetry_space_group_name_H-M "P B A M"
_symmetry_group_IT_number 55
_symmetry_cell_setting 'orthorhombic'
loop_
_space_group_symop_operation_xyz
x,y,z
-x,-y,z
1/2+x,1/2-y,-z
1/2-x,1/2+y,-z
-x,-y,-z
x,y,-z
1/2-x,1/2+y,z
1/2+x,1/2-y,z
loop_
_atom_site_type_symbol
_atom_site_label
_atom_site_fract_x
_atom_site_fract_y
_atom_site_fract_z
Si Si1 0.000000 0.500000 0.325187
Si Si2 0.871861 0.615512 0.500000
Si Si3 0.903138 0.916009 0.000000
Si Si4 0.163807 0.683856 0.278401
Si Si5 0.600263 0.087657 0.000000
Si Si6 0.779304 0.329868 0.500000
Si Si7 0.765148 0.040683 0.836214
O O1 0.068165 0.404494 0.396694
O O2 0.059041 0.613534 0.255649
O O3 0.784327 0.501559 0.500000
O O4 0.829822 0.775396 0.500000
O O5 0.930436 0.751166 0.000000
O O6 0.843370 0.955921 0.100060
O O7 0.000000 0.000000 0.000000
O O8 0.167619 0.731591 0.397901
O O9 0.241452 0.557544 0.262007
O O10 0.186936 0.811142 0.199858
O O11 0.666357 0.059148 0.899829
O O12 0.500000 0.000000 0.000000
#
# Coordination Sequence:
#
# PCOD8226707 Si02
#       7
#     4   4   4   8   4   4   8
#     4   9  20  34  64  95 128 176 242 273 336 409
#     4   9  18  38  60  89 124 180 236 281 326 403
#     4  11  26  46  67  99 137 168 224 293 345 410
#     4  11  22  41  68  97 138 186 228 285 341 416
#     4  11  26  46  75 100 130 179 227 283 353 419
#     4  10  20  38  64  88 136 184 218 276 340 392
#     4  11  25  44  69 100 138 176 229 283 351 409
#
# _framework density 21.199442999999999
#
# number of rings (size 3 to 8) (size 9 to 14) (size 15 to 20)
#    0.000    1.556    2.222    3.333    4.667    0.000 
#    4.000    0.000    0.000   10.667    0.000    0.000 
#    0.000    0.000    0.000    0.000    0.000    0.000 
#
# Total GULP energy -446180.201946 kJ/mol
# GULP energy per Si atom -12393.894498 kJ/mol
# Density = 2.115119 g / cm^3
# Si number density = 21.199443 Si / 1000 Ang^3
#
#
#
# Elastic Constant Matrix: (Units=GPa)
#
#
# Indices 1 2 3 4 5 6 
#
# 1 148.8442 83.1658 45.0308 0.0000 0.0000 0.0000
# 2 83.1658 141.6614 46.2561 0.0000 0.0000 0.0000
# 3 45.0308 46.2561 100.0904 0.0000 0.0000 0.0000
# 4 0.0000 0.0000 0.0000 21.8390 0.0000 0.0000
# 5 0.0000 0.0000 0.0000 0.0000 14.1671 0.0000
# 6 0.0000 0.0000 0.0000 0.0000 0.0000 55.5340
#
#
#
# Elastic Compliance Matrix: (Units=1/GPa)
#
#
# Indices 1 2 3 4 5 6 
#
# 1 0.010389 -0.005385 -0.002185 0.000000 0.000000 0.000000
# 2 -0.005385 0.011105 -0.002709 0.000000 0.000000 0.000000
# 3 -0.002185 -0.002709 0.012226 0.000000 0.000000 0.000000
# 4 0.000000 0.000000 0.000000 0.045790 0.000000 0.000000
# 5 0.000000 0.000000 0.000000 0.000000 0.070586 0.000000
# 6 0.000000 0.000000 0.000000 0.000000 0.000000 0.018007
#
#
# Mechanical properties :
#
#
# Convention : Reuss Voigt Hill
#
# Bulk Modulus (GPa) = 75.98490 82.16684 79.07587
# Shear Modulus (GPa) = 25.90016 32.71759 29.30888
#
# Velocity S-wave (km/s) = 3.49913 3.93278 3.72227
# Velocity P-wave (km/s) = 7.22813 7.71138 7.47366
#
# Compressibility (1/GPa) = 0.01316051
#
# Stress axis : x y z
#
# Youngs Moduli (GPa) = 96.26009 90.04633 81.79208
#
# Poissons Ratio (x) = 0.48493 0.17871
# Poissons Ratio (y) = 0.51840 0.22161
# Poissons Ratio (z) = 0.21033 0.24397
#
# Static dielectric constant tensor:
#      x y z
#    x 3.980710 0.000000 0.000000 
#    y 0.000000 3.510350 0.000000 
#    z 0.000000 0.000000 3.899610 
# 
# 
# High freq. dielectric constant tensor:
#      x y z
#    x 1.827560 0.000000 0.000000 
#    y 0.000000 1.825120 0.000000 
#    z 0.000000 0.000000 1.841900 
# 
# From -- ./inp_files/17029.got.cif
#   From: 2010.03.12/outbox.cif.g09.slc.cpg/sg55_9_cif.got.tgz:17029.got - 2010.04.16 15:19:21.
