data_PCOD8226150
_publ_section_title
;
Structure prediction by ZEFSAII (Michael W. Deem and Ramdas Pophale) SiO2 
 PCOD8226150
Probable space group: P B A M
;
_chemical_formula_sum "Si O2"
_cell_formula_units_Z 48
_cell_length_a 12.036572
_cell_length_b 24.599383
_cell_length_c 9.010834
_cell_angle_alpha 90.000000
_cell_angle_beta 90.000000
_cell_angle_gamma 90.000000
_cell_volume 2668.038065
_symmetry_space_group_name_H-M "P B A M"
_symmetry_group_IT_number 55
_symmetry_cell_setting 'orthorhombic'
loop_
_space_group_symop_operation_xyz
x,y,z
-x,-y,z
1/2+x,1/2-y,-z
1/2-x,1/2+y,-z
-x,-y,-z
x,y,-z
1/2-x,1/2+y,z
1/2+x,1/2-y,z
loop_
_atom_site_type_symbol
_atom_site_label
_atom_site_fract_x
_atom_site_fract_y
_atom_site_fract_z
Si Si1 0.155445 0.392510 0.167451
Si Si2 0.875676 0.725324 0.832431
Si Si3 0.842000 0.042832 0.330273
Si Si4 0.036667 0.655659 0.675433
Si Si5 0.087406 0.077539 0.329143
Si Si6 0.231372 0.163890 0.174902
O O1 0.200167 0.329670 0.171456
O O2 0.246211 0.433312 0.228651
O O3 0.041161 0.393795 0.263812
O O4 0.126918 0.410226 0.000000
O O5 0.805733 0.776023 0.771476
O O6 0.985670 0.713538 0.732442
O O7 0.916507 0.737683 0.000000
O O8 0.813186 0.056049 0.500000
O O9 0.958791 0.069950 0.287287
O O10 0.846808 0.978483 0.303820
O O11 0.040381 0.654324 0.500000
O O12 0.158981 0.646945 0.738040
O O13 0.100077 0.096096 0.500000
O O14 0.134434 0.122405 0.218177
O O15 0.254023 0.161972 0.000000
#
# Coordination Sequence:
#
# PCOD8226150 Si02
#       6
#     8   8   8   8   8   8
#     4   9  18  35  56  79 107 142 181 221 268 323
#     4   8  19  36  52  75 107 144 177 215 270 322
#     4   9  18  36  58  79 111 145 181 230 274 319
#     4  10  20  35  55  79 108 140 180 225 268 320
#     4   9  20  36  54  81 112 145 182 225 276 322
#     4  11  21  36  56  80 114 147 179 222 274 326
#
# _framework density 17.990746999999999
#
# number of rings (size 3 to 8) (size 9 to 14) (size 15 to 20)
#    1.000    1.667    0.000    3.000    0.000    4.000 
#    0.000    7.500    0.000    5.000    0.000    0.000 
#    0.000    0.000    0.000    0.000    0.000    0.000 
#
# Total GULP energy -594874.062673 kJ/mol
# GULP energy per Si atom -12393.209639 kJ/mol
# Density = 1.794980 g / cm^3
# Si number density = 17.990747 Si / 1000 Ang^3
#
#
#
# Elastic Constant Matrix: (Units=GPa)
#
#
# Indices 1 2 3 4 5 6 
#
# 1 38.2745 -7.9486 18.3443 0.0000 0.0000 0.0000
# 2 -7.9486 22.5150 6.3361 0.0000 0.0000 0.0000
# 3 18.3443 6.3361 89.9654 0.0000 0.0000 0.0000
# 4 0.0000 0.0000 0.0000 25.2511 0.0000 0.0000
# 5 0.0000 0.0000 0.0000 0.0000 33.9971 0.0000
# 6 0.0000 0.0000 0.0000 0.0000 0.0000 29.5039
#
#
#
# Elastic Compliance Matrix: (Units=1/GPa)
#
#
# Indices 1 2 3 4 5 6 
#
# 1 0.032611 0.013655 -0.007611 0.000000 0.000000 0.000000
# 2 0.013655 0.051030 -0.006378 0.000000 0.000000 0.000000
# 3 -0.007611 -0.006378 0.013117 0.000000 0.000000 0.000000
# 4 0.000000 0.000000 0.000000 0.039602 0.000000 0.000000
# 5 0.000000 0.000000 0.000000 0.000000 0.029414 0.000000
# 6 0.000000 0.000000 0.000000 0.000000 0.000000 0.033894
#
#
# Mechanical properties :
#
#
# Convention : Reuss Voigt Hill
#
# Bulk Modulus (GPa) = 10.40712 20.46873 15.43793
# Shear Modulus (GPa) = 21.51773 26.68530 24.10152
#
# Velocity S-wave (km/s) = 3.46214 3.85551 3.66411
# Velocity P-wave (km/s) = 4.66681 5.58767 5.14787
#
# Compressibility (1/GPa) = 0.09608803
#
# Stress axis : x y z
#
# Youngs Moduli (GPa) = 30.66488 19.59617 76.23966
#
# Poissons Ratio (x) = -0.26758 0.58027
# Poissons Ratio (y) = -0.41872 0.48627
# Poissons Ratio (z) = 0.23339 0.12499
#
# Static dielectric constant tensor:
#      x y z
#    x 3.122920 0.000000 0.000000 
#    y 0.000000 3.184690 0.000000 
#    z 0.000000 0.000000 3.272410 
# 
# 
# High freq. dielectric constant tensor:
#      x y z
#    x 1.685400 0.000000 0.000000 
#    y 0.000000 1.681260 0.000000 
#    z 0.000000 0.000000 1.701050 
# 
# From -- ./inp_files/4167.got.cif
#   From: 2010.03.12/outbox.cif.g09.slc.cpg/sg55_3_cif.got.tgz:4167.got - 2010.04.16 15:19:21.
