data_PCOD8226628
_publ_section_title
;
Structure prediction by ZEFSAII (Michael W. Deem and Ramdas Pophale) SiO2 
 PCOD8226628
Probable space group: P B A M
;
_chemical_formula_sum "Si O2"
_cell_formula_units_Z 48
_cell_length_a 8.463253
_cell_length_b 13.050555
_cell_length_c 20.716786
_cell_angle_alpha 90.000000
_cell_angle_beta 90.000000
_cell_angle_gamma 90.000000
_cell_volume 2288.172095
_symmetry_space_group_name_H-M "P B A M"
_symmetry_group_IT_number 55
_symmetry_cell_setting 'orthorhombic'
loop_
_space_group_symop_operation_xyz
x,y,z
-x,-y,z
1/2+x,1/2-y,-z
1/2-x,1/2+y,-z
-x,-y,-z
x,y,-z
1/2-x,1/2+y,z
1/2+x,1/2-y,z
loop_
_atom_site_type_symbol
_atom_site_label
_atom_site_fract_x
_atom_site_fract_y
_atom_site_fract_z
Si Si1 0.370033 0.625683 0.363110
Si Si2 0.327863 0.972074 0.427368
Si Si3 0.531829 0.116399 0.924124
Si Si4 0.660295 0.726894 0.571859
Si Si5 0.031722 0.118544 0.216049
Si Si6 0.216661 0.751220 0.145259
O O1 0.318061 0.510805 0.382297
O O2 0.204689 0.686247 0.376152
O O3 0.500165 0.669055 0.411055
O O4 0.429021 0.629719 0.290713
O O5 0.310411 0.016903 0.500000
O O6 0.500000 0.000000 0.398731
O O7 0.309881 0.850239 0.427371
O O8 0.389649 0.192753 0.906973
O O9 0.688332 0.158851 0.890124
O O10 0.500000 0.000000 0.900093
O O11 0.559391 0.117719 0.000000
O O12 0.640220 0.773557 0.500000
O O13 0.178541 0.161516 0.175855
O O14 0.881867 0.190563 0.200813
O O15 0.000000 0.000000 0.197261
#
# Coordination Sequence:
#
# PCOD8226628 Si02
#       6
#     8   8   8   8   8   8
#     4  12  23  38  58  82 111 148 194 238 292 361
#     4  10  21  37  56  79 107 139 181 237 298 356
#     4  10  20  37  63  93 124 160 202 248 298 351
#     4  11  22  36  56  80 107 140 182 240 302 354
#     4  11  23  40  60  85 121 163 204 247 297 358
#     4  10  22  39  60  89 125 162 202 247 297 352
#
# _framework density 20.977443999999998
#
# number of rings (size 3 to 8) (size 9 to 14) (size 15 to 20)
#    0.000    1.333    0.000    6.500    0.000    2.667 
#    0.000    2.500    0.000    8.000    0.000    0.000 
#    0.000    0.000    0.000    0.000    0.000    0.000 
#
# Total GULP energy -595167.256391 kJ/mol
# GULP energy per Si atom -12399.317841 kJ/mol
# Density = 2.092970 g / cm^3
# Si number density = 20.977444 Si / 1000 Ang^3
#
#
#
# Elastic Constant Matrix: (Units=GPa)
#
#
# Indices 1 2 3 4 5 6 
#
# 1 89.8080 34.1090 38.9372 0.0000 0.0000 0.0000
# 2 34.1090 120.0185 42.9686 0.0000 0.0000 0.0000
# 3 38.9372 42.9686 109.9120 0.0000 0.0000 0.0000
# 4 0.0000 0.0000 0.0000 32.8591 0.0000 0.0000
# 5 0.0000 0.0000 0.0000 0.0000 27.2560 0.0000
# 6 0.0000 0.0000 0.0000 0.0000 0.0000 40.6165
#
#
#
# Elastic Compliance Matrix: (Units=1/GPa)
#
#
# Indices 1 2 3 4 5 6 
#
# 1 0.013782 -0.002522 -0.003897 0.000000 0.000000 0.000000
# 2 -0.002522 0.010149 -0.003074 0.000000 0.000000 0.000000
# 3 -0.003897 -0.003074 0.011680 0.000000 0.000000 0.000000
# 4 0.000000 0.000000 0.000000 0.030433 0.000000 0.000000
# 5 0.000000 0.000000 0.000000 0.000000 0.036689 0.000000
# 6 0.000000 0.000000 0.000000 0.000000 0.000000 0.024621
#
#
# Mechanical properties :
#
#
# Convention : Reuss Voigt Hill
#
# Bulk Modulus (GPa) = 60.14520 61.30758 60.72639
# Shear Modulus (GPa) = 32.92023 33.72788 33.32406
#
# Velocity S-wave (km/s) = 3.96576 4.01411 3.99001
# Velocity P-wave (km/s) = 7.05005 7.12552 7.08789
#
# Compressibility (1/GPa) = 0.01662643
#
# Stress axis : x y z
#
# Youngs Moduli (GPa) = 72.55821 98.52767 85.61298
#
# Poissons Ratio (x) = 0.24847 0.33359
# Poissons Ratio (y) = 0.18298 0.26321
# Poissons Ratio (z) = 0.28273 0.30291
#
# Static dielectric constant tensor:
#      x y z
#    x 3.869950 0.000000 0.000000 
#    y 0.000000 4.047450 0.000000 
#    z 0.000000 0.000000 3.521510 
# 
# 
# High freq. dielectric constant tensor:
#      x y z
#    x 1.836680 0.000000 0.000000 
#    y 0.000000 1.842840 0.000000 
#    z 0.000000 0.000000 1.800110 
# 
# From -- ./inp_files/23436.got.cif
#   From: 2010.03.12/outbox.cif.g09.slc.cpg/sg55_12_cif.got.tgz:23436.got - 2010.04.16 15:19:21.
