data_PCOD8226877
_publ_section_title
;
Structure prediction by ZEFSAII (Michael W. Deem and Ramdas Pophale) SiO2 
 PCOD8226877
Probable space group: P B A M
;
_chemical_formula_sum "Si O2"
_cell_formula_units_Z 56
_cell_length_a 16.457027
_cell_length_b 5.239097
_cell_length_c 30.756797
_cell_angle_alpha 90.000000
_cell_angle_beta 90.000000
_cell_angle_gamma 90.000000
_cell_volume 2651.849831
_symmetry_space_group_name_H-M "P B A M"
_symmetry_group_IT_number 55
_symmetry_cell_setting 'orthorhombic'
loop_
_space_group_symop_operation_xyz
x,y,z
-x,-y,z
1/2+x,1/2-y,-z
1/2-x,1/2+y,-z
-x,-y,-z
x,y,-z
1/2-x,1/2+y,z
1/2+x,1/2-y,z
loop_
_atom_site_type_symbol
_atom_site_label
_atom_site_fract_x
_atom_site_fract_y
_atom_site_fract_z
Si Si1 0.805886 0.750827 0.718547
Si Si2 0.551004 0.248010 0.887593
Si Si3 0.457204 0.749818 0.663151
Si Si4 0.052381 0.252166 0.212395
Si Si5 0.702130 0.793477 0.550801
Si Si6 0.199606 0.288603 0.049290
Si Si7 0.026017 0.750095 0.568062
O O1 0.750397 0.499935 0.718837
O O2 0.861736 0.750629 0.674943
O O3 0.864975 0.753167 0.760062
O O4 0.500000 0.500000 0.896723
O O5 0.579473 0.234053 0.837663
O O6 0.628717 0.264048 0.917426
O O7 0.500000 0.000000 0.900677
O O8 0.500000 0.500000 0.683936
O O9 0.469832 0.748724 0.611252
O O10 0.500000 0.000000 0.683656
O O11 0.000000 0.500000 0.225219
O O12 0.000000 0.000000 0.221951
O O13 0.678964 0.777381 0.500000
O O14 0.763608 0.569185 0.563369
O O15 0.621256 0.751404 0.578974
O O16 0.233295 0.571552 0.057848
O O17 0.166696 0.265217 0.000000
O O18 0.000000 0.500000 0.540685
O O19 0.000000 0.000000 0.540705
#
# Coordination Sequence:
#
# PCOD8226877 Si02
#       7
#     8   8   8   8   8   8   8
#     4  12  24  38  60  89 114 143 188 236 282 332
#     4  10  21  36  57  84 110 144 189 233 280 333
#     4  10  21  41  60  80 114 153 188 226 277 333
#     4  10  21  39  60  82 114 150 182 227 287 345
#     4  10  21  38  60  88 120 150 186 237 286 326
#     4  10  21  36  54  78 112 152 188 229 283 336
#     4  10  21  38  59  85 114 152 193 226 273 335
#
# _framework density 21.117336000000002
#
# number of rings (size 3 to 8) (size 9 to 14) (size 15 to 20)
#    0.000    1.714    0.000    4.286    0.000    2.286 
#    0.000   17.143    0.000    0.000    0.000    0.000 
#    0.000    0.000    0.000    0.000    0.000    0.000 
#
# Total GULP energy -694236.268083 kJ/mol
# GULP energy per Si atom -12397.076216 kJ/mol
# Density = 2.106927 g / cm^3
# Si number density = 21.117336 Si / 1000 Ang^3
#
#
#
# Elastic Constant Matrix: (Units=GPa)
#
#
# Indices 1 2 3 4 5 6 
#
# 1 135.1629 57.6583 44.7194 0.0000 0.0000 0.0000
# 2 57.6583 193.9287 16.0159 0.0000 0.0000 0.0000
# 3 44.7194 16.0159 80.0819 0.0000 0.0000 0.0000
# 4 0.0000 0.0000 0.0000 -3.1746 0.0000 0.0000
# 5 0.0000 0.0000 0.0000 0.0000 16.5297 0.0000
# 6 0.0000 0.0000 0.0000 0.0000 0.0000 40.6843
#
#
#
# Elastic Compliance Matrix: (Units=1/GPa)
#
#
# Indices 1 2 3 4 5 6 
#
# 1 0.010230 -0.002613 -0.005190 0.000000 0.000000 0.000000
# 2 -0.002613 0.005911 0.000277 0.000000 0.000000 0.000000
# 3 -0.005190 0.000277 0.015330 0.000000 0.000000 0.000000
# 4 0.000000 0.000000 0.000000 -0.315004 0.000000 0.000000
# 5 0.000000 0.000000 0.000000 0.000000 0.060497 0.000000
# 6 0.000000 0.000000 0.000000 0.000000 0.000000 0.024579
#
#
# Mechanical properties :
#
#
# Convention : Reuss Voigt Hill
#
# Bulk Modulus (GPa) = 60.90623 71.77343 66.33983
# Shear Modulus (GPa) = -28.10072 30.19322 1.04625
#
# Velocity S-wave (km/s) = -3.65183 3.78535 0.70464
# Velocity P-wave (km/s) = 3.33516 7.29156 5.66966
#
# Compressibility (1/GPa) = 0.01641868
#
# Stress axis : x y z
#
# Youngs Moduli (GPa) = 97.74804 169.18910 65.23089
#
# Poissons Ratio (x) = 0.44209 0.33857
# Poissons Ratio (y) = 0.25542 -0.01807
# Poissons Ratio (z) = 0.50734 -0.04688
#
# Static dielectric constant tensor:
#      x y z
#    x 3.668190 0.000000 0.000000 
#    y 0.000000 6.236280 0.000000 
#    z 0.000000 0.000000 3.695760 
# 
# 
# High freq. dielectric constant tensor:
#      x y z
#    x 1.823330 0.000000 0.000000 
#    y 0.000000 1.864410 0.000000 
#    z 0.000000 0.000000 1.817350 
# 
# From -- ./inp_files/24187.got.cif
#   From: 2010.03.12/outbox.cif.g09.slc.cpg/sg55_13_cif.got.tgz:24187.got - 2010.04.16 15:19:21.
