data_PCOD8226433
_publ_section_title
;
Structure prediction by ZEFSAII (Michael W. Deem and Ramdas Pophale) SiO2 
 PCOD8226433
Probable space group: P B A M
;
_chemical_formula_sum "Si O2"
_cell_formula_units_Z 56
_cell_length_a 19.927999
_cell_length_b 16.209162
_cell_length_c 8.724878
_cell_angle_alpha 90.000000
_cell_angle_beta 90.000000
_cell_angle_gamma 90.000000
_cell_volume 2818.276624
_symmetry_space_group_name_H-M "P B A M"
_symmetry_group_IT_number 55
_symmetry_cell_setting 'orthorhombic'
loop_
_space_group_symop_operation_xyz
x,y,z
-x,-y,z
1/2+x,1/2-y,-z
1/2-x,1/2+y,-z
-x,-y,-z
x,y,-z
1/2-x,1/2+y,z
1/2+x,1/2-y,z
loop_
_atom_site_type_symbol
_atom_site_label
_atom_site_fract_x
_atom_site_fract_y
_atom_site_fract_z
Si Si1 0.864107 0.347576 0.320059
Si Si2 0.772457 0.809225 0.819100
Si Si3 0.115162 0.297809 0.321766
Si Si4 0.556131 0.562081 0.817484
Si Si5 0.695234 0.493563 0.180254
Si Si6 0.829313 0.529737 0.676550
Si Si7 0.979316 0.244965 0.180273
O O1 0.853371 0.335065 0.500000
O O2 0.805165 0.300133 0.229569
O O3 0.864555 0.444263 0.274086
O O4 0.935279 0.311763 0.269562
O O5 0.814584 0.741937 0.727382
O O6 0.799522 0.898672 0.766937
O O7 0.779284 0.794656 0.000000
O O8 0.100864 0.280381 0.500000
O O9 0.119771 0.395737 0.288445
O O10 0.056818 0.259760 0.218638
O O11 0.500000 0.500000 0.751644
O O12 0.627998 0.533934 0.749815
O O13 0.540531 0.654188 0.760813
O O14 0.555900 0.558435 0.000000
O O15 0.759923 0.544430 0.233984
O O16 0.692003 0.498849 0.000000
O O17 0.809183 0.527479 0.500000
O O18 0.967763 0.254405 0.000000
#
# Coordination Sequence:
#
# PCOD8226433 Si02
#       7
#     8   8   8   8   8   8   8
#     4  10  21  40  61  83 116 154 192 239 296 350
#     4  10  20  36  60  88 117 149 191 239 289 346
#     4  11  23  39  58  83 115 154 197 239 294 350
#     4   9  18  34  56  82 115 150 185 229 286 342
#     4   9  18  34  58  85 111 146 188 235 288 344
#     4   9  21  39  58  81 110 149 194 240 288 345
#     4  11  23  38  58  87 118 151 195 243 292 348
#
# _framework density 19.870297999999998
#
# number of rings (size 3 to 8) (size 9 to 14) (size 15 to 20)
#    0.000    2.143    0.000    2.571    2.000    5.143 
#    0.000    3.571    0.000    3.000    0.000    0.000 
#    0.000    0.000    0.000    0.000    0.000    0.000 
#
# Total GULP energy -694599.617801 kJ/mol
# GULP energy per Si atom -12403.564604 kJ/mol
# Density = 1.982507 g / cm^3
# Si number density = 19.870298 Si / 1000 Ang^3
#
#
#
# Elastic Constant Matrix: (Units=GPa)
#
#
# Indices 1 2 3 4 5 6 
#
# 1 67.8103 31.2251 16.8972 0.0000 0.0000 0.0000
# 2 31.2251 90.9057 30.5568 0.0000 0.0000 0.0000
# 3 16.8972 30.5568 35.2664 0.0000 0.0000 0.0000
# 4 0.0000 0.0000 0.0000 25.4503 0.0000 0.0000
# 5 0.0000 0.0000 0.0000 0.0000 25.1367 0.0000
# 6 0.0000 0.0000 0.0000 0.0000 0.0000 36.6323
#
#
#
# Elastic Compliance Matrix: (Units=1/GPa)
#
#
# Indices 1 2 3 4 5 6 
#
# 1 0.018036 -0.004642 -0.004619 0.000000 0.000000 0.000000
# 2 -0.004642 0.016716 -0.012259 0.000000 0.000000 0.000000
# 3 -0.004619 -0.012259 0.041191 0.000000 0.000000 0.000000
# 4 0.000000 0.000000 0.000000 0.039292 0.000000 0.000000
# 5 0.000000 0.000000 0.000000 0.000000 0.039782 0.000000
# 6 0.000000 0.000000 0.000000 0.000000 0.000000 0.027298
#
#
# Mechanical properties :
#
#
# Convention : Reuss Voigt Hill
#
# Bulk Modulus (GPa) = 30.39415 39.03784 34.71599
# Shear Modulus (GPa) = 21.15742 25.13075 23.14408
#
# Velocity S-wave (km/s) = 3.26663 3.56018 3.41656
# Velocity P-wave (km/s) = 5.43666 6.04887 5.75092
#
# Compressibility (1/GPa) = 0.03290107
#
# Stress axis : x y z
#
# Youngs Moduli (GPa) = 55.44549 59.82354 24.27725
#
# Poissons Ratio (x) = 0.27773 0.11214
# Poissons Ratio (y) = 0.25740 0.29762
# Poissons Ratio (z) = 0.25610 0.73339
#
# Static dielectric constant tensor:
#      x y z
#    x 3.623970 0.000000 0.000000 
#    y 0.000000 3.802460 0.000000 
#    z 0.000000 0.000000 3.408530 
# 
# 
# High freq. dielectric constant tensor:
#      x y z
#    x 1.778320 0.000000 0.000000 
#    y 0.000000 1.781330 0.000000 
#    z 0.000000 0.000000 1.761310 
# 
# From -- ./inp_files/8735.got.cif
#   From: 2010.03.12/outbox.cif.g09.slc.cpg/sg55_5_cif.got.tgz:8735.got - 2010.04.16 15:19:21.
