data_PCOD8226890
_publ_section_title
;
Structure prediction by ZEFSAII (Michael W. Deem and Ramdas Pophale) SiO2 
 PCOD8226890
Probable space group: P B A M
;
_chemical_formula_sum "Si O2"
_cell_formula_units_Z 56
_cell_length_a 16.488371
_cell_length_b 5.029587
_cell_length_c 33.372372
_cell_angle_alpha 90.000000
_cell_angle_beta 90.000000
_cell_angle_gamma 90.000000
_cell_volume 2767.560679
_symmetry_space_group_name_H-M "P B A M"
_symmetry_group_IT_number 55
_symmetry_cell_setting 'orthorhombic'
loop_
_space_group_symop_operation_xyz
x,y,z
-x,-y,z
1/2+x,1/2-y,-z
1/2-x,1/2+y,-z
-x,-y,-z
x,y,-z
1/2-x,1/2+y,z
1/2+x,1/2-y,z
loop_
_atom_site_type_symbol
_atom_site_label
_atom_site_fract_x
_atom_site_fract_y
_atom_site_fract_z
Si Si1 0.446341 0.741358 0.045107
Si Si2 0.801919 0.633654 0.103720
Si Si3 0.446193 0.241396 0.454611
Si Si4 0.903921 0.017199 0.684421
Si Si5 0.197950 0.325930 0.805860
Si Si6 0.404603 0.985230 0.267423
Si Si7 0.306296 0.312768 0.393033
O O1 0.500000 0.500000 0.062202
O O2 0.370045 0.784688 0.072910
O O3 0.500000 0.000000 0.045317
O O4 0.416058 0.675495 0.000000
O O5 0.773614 0.331917 0.096571
O O6 0.836054 0.654024 0.148950
O O7 0.500000 0.500000 0.453134
O O8 0.421787 0.164840 0.500000
O O9 0.363123 0.306846 0.431863
O O10 0.500000 0.000000 0.435687
O O11 0.875625 0.224089 0.718871
O O12 0.863442 0.119212 0.644164
O O13 0.874031 0.728040 0.699205
O O14 0.000000 0.000000 0.677296
O O15 0.273028 0.525390 0.798449
O O16 0.126302 0.402603 0.776057
O O17 0.500000 0.000000 0.264244
O O18 0.233819 0.523310 0.392899
#
# Coordination Sequence:
#
# PCOD8226890 Si02
#       7
#     8   8   8   8   8   8   8
#     4  10  21  37  57  83 113 145 184 232 285 335
#     4  10  21  37  56  82 113 148 190 229 279 345
#     4  10  22  42  66  88 115 157 198 229 278 347
#     4  10  22  39  57  79 113 153 191 232 279 338
#     4  10  21  36  55  79 110 145 180 228 283 334
#     4  10  21  37  57  81 107 144 193 237 278 330
#     4  12  25  38  59  92 122 150 190 241 292 337
#
# _framework density 20.234427
#
# number of rings (size 3 to 8) (size 9 to 14) (size 15 to 20)
#    0.000    1.714    0.000    3.857    0.000    6.857 
#    0.000    2.143    0.000    0.000    0.000    0.000 
#    0.000    0.000    0.000    0.000    0.000    0.000 
#
# Total GULP energy -694363.356249 kJ/mol
# GULP energy per Si atom -12399.345647 kJ/mol
# Density = 2.018837 g / cm^3
# Si number density = 20.234427 Si / 1000 Ang^3
#
#
#
# Elastic Constant Matrix: (Units=GPa)
#
#
# Indices 1 2 3 4 5 6 
#
# 1 55.5476 24.0406 55.6010 0.0000 0.0000 0.0000
# 2 24.0406 96.0226 26.8421 0.0000 0.0000 0.0000
# 3 55.6010 26.8421 113.0737 0.0000 0.0000 0.0000
# 4 0.0000 0.0000 0.0000 30.4769 0.0000 0.0000
# 5 0.0000 0.0000 0.0000 0.0000 45.9096 0.0000
# 6 0.0000 0.0000 0.0000 0.0000 0.0000 35.7567
#
#
#
# Elastic Compliance Matrix: (Units=1/GPa)
#
#
# Indices 1 2 3 4 5 6 
#
# 1 0.037180 -0.004496 -0.017215 0.000000 0.000000 0.000000
# 2 -0.004496 0.011698 -0.000566 0.000000 0.000000 0.000000
# 3 -0.017215 -0.000566 0.017443 0.000000 0.000000 0.000000
# 4 0.000000 0.000000 0.000000 0.032812 0.000000 0.000000
# 5 0.000000 0.000000 0.000000 0.000000 0.021782 0.000000
# 6 0.000000 0.000000 0.000000 0.000000 0.000000 0.027967
#
#
# Mechanical properties :
#
#
# Convention : Reuss Voigt Hill
#
# Bulk Modulus (GPa) = 45.94154 53.06793 49.50473
# Shear Modulus (GPa) = 24.91383 32.97267 28.94325
#
# Velocity S-wave (km/s) = 3.51274 4.04113 3.78616
# Velocity P-wave (km/s) = 6.26150 6.93237 6.60546
#
# Compressibility (1/GPa) = 0.02176679
#
# Stress axis : x y z
#
# Youngs Moduli (GPa) = 26.89617 85.48351 57.32918
#
# Poissons Ratio (x) = 0.38436 0.98692
# Poissons Ratio (y) = 0.12093 0.03245
# Poissons Ratio (z) = 0.46302 0.04839
#
# Static dielectric constant tensor:
#      x y z
#    x 3.356580 0.000000 0.000000 
#    y 0.000000 4.130570 0.000000 
#    z 0.000000 0.000000 3.811700 
# 
# 
# High freq. dielectric constant tensor:
#      x y z
#    x 1.776560 0.000000 0.000000 
#    y 0.000000 1.815840 0.000000 
#    z 0.000000 0.000000 1.792910 
# 
# From -- ./inp_files/24176.got.cif
#   From: 2010.03.12/outbox.cif.g09.slc.cpg/sg55_13_cif.got.tgz:24176.got - 2010.04.16 15:19:21.
