data_PCOD8226125
_publ_section_title
;
Structure prediction by ZEFSAII (Michael W. Deem and Ramdas Pophale) SiO2 
 PCOD8226125
Probable space group: P B A M
;
_chemical_formula_sum "Si O2"
_cell_formula_units_Z 40
_cell_length_a 25.250282
_cell_length_b 9.606576
_cell_length_c 8.882074
_cell_angle_alpha 90.000000
_cell_angle_beta 90.000000
_cell_angle_gamma 90.000000
_cell_volume 2154.513615
_symmetry_space_group_name_H-M "P B A M"
_symmetry_group_IT_number 55
_symmetry_cell_setting 'orthorhombic'
loop_
_space_group_symop_operation_xyz
x,y,z
-x,-y,z
1/2+x,1/2-y,-z
1/2-x,1/2+y,-z
-x,-y,-z
x,y,-z
1/2-x,1/2+y,z
1/2+x,1/2-y,z
loop_
_atom_site_type_symbol
_atom_site_label
_atom_site_fract_x
_atom_site_fract_y
_atom_site_fract_z
Si Si1 0.209337 0.138403 0.327294
Si Si2 0.007709 0.340926 0.175581
Si Si3 0.087870 0.860830 0.176149
Si Si4 0.908183 0.849284 0.678968
Si Si5 0.802575 0.178196 0.674530
O O1 0.209022 0.184569 0.500000
O O2 0.151659 0.176679 0.259625
O O3 0.257962 0.221662 0.251578
O O4 0.220350 0.976040 0.306535
O O5 0.056579 0.279206 0.268556
O O6 0.000000 0.500000 0.226364
O O7 0.955181 0.255651 0.215966
O O8 0.021576 0.330626 0.000000
O O9 0.143455 0.801557 0.234530
O O10 0.070625 0.004745 0.255042
O O11 0.091437 0.889904 0.000000
O O12 0.908573 0.863689 0.500000
O O13 0.814771 0.212043 0.500000
#
# Coordination Sequence:
#
# PCOD8226125 Si02
#       5
#     8   8   8   8   8
#     4   8  16  30  49  73  99 128 161 203 253 297
#     4  10  22  38  53  73 105 140 171 212 266 313
#     4  10  20  35  54  75 102 138 176 211 255 308
#     4  10  20  35  56  80 104 134 175 216 256 308
#     4   9  17  32  52  73 100 133 169 208 252 301
#
# _framework density 18.565674000000001
#
# number of rings (size 3 to 8) (size 9 to 14) (size 15 to 20)
#    0.000    2.600    0.000    3.000    0.000    6.000 
#    0.000    7.000    0.000    0.000    0.000    0.000 
#    0.000    0.000    0.000    0.000    0.000    0.000 
#
# Total GULP energy -495977.406886 kJ/mol
# GULP energy per Si atom -12399.435172 kJ/mol
# Density = 1.852342 g / cm^3
# Si number density = 18.565674 Si / 1000 Ang^3
#
#
#
# Elastic Constant Matrix: (Units=GPa)
#
#
# Indices 1 2 3 4 5 6 
#
# 1 82.6763 47.2836 21.1002 0.0000 0.0000 0.0000
# 2 47.2836 89.2978 21.3663 0.0000 0.0000 0.0000
# 3 21.1002 21.3663 43.8953 0.0000 0.0000 0.0000
# 4 0.0000 0.0000 0.0000 24.2553 0.0000 0.0000
# 5 0.0000 0.0000 0.0000 0.0000 23.9812 0.0000
# 6 0.0000 0.0000 0.0000 0.0000 0.0000 40.8240
#
#
#
# Elastic Compliance Matrix: (Units=1/GPa)
#
#
# Indices 1 2 3 4 5 6 
#
# 1 0.018126 -0.008503 -0.004574 0.000000 0.000000 0.000000
# 2 -0.008503 0.016664 -0.004024 0.000000 0.000000 0.000000
# 3 -0.004574 -0.004024 0.026939 0.000000 0.000000 0.000000
# 4 0.000000 0.000000 0.000000 0.041228 0.000000 0.000000
# 5 0.000000 0.000000 0.000000 0.000000 0.041699 0.000000
# 6 0.000000 0.000000 0.000000 0.000000 0.000000 0.024495
#
#
# Mechanical properties :
#
#
# Convention : Reuss Voigt Hill
#
# Bulk Modulus (GPa) = 36.32873 43.92995 40.12934
# Shear Modulus (GPa) = 23.52623 26.22003 24.87313
#
# Velocity S-wave (km/s) = 3.56362 3.76212 3.66421
# Velocity P-wave (km/s) = 6.04506 6.52569 6.28997
#
# Compressibility (1/GPa) = 0.02752642
#
# Stress axis : x y z
#
# Youngs Moduli (GPa) = 55.16977 60.01034 37.12130
#
# Poissons Ratio (x) = 0.51029 0.16979
# Poissons Ratio (y) = 0.46913 0.14937
# Poissons Ratio (z) = 0.25234 0.24146
#
# Static dielectric constant tensor:
#      x y z
#    x 3.637450 0.000000 0.000000 
#    y 0.000000 3.431990 0.000000 
#    z 0.000000 0.000000 3.218230 
# 
# 
# High freq. dielectric constant tensor:
#      x y z
#    x 1.732150 0.000000 0.000000 
#    y 0.000000 1.718370 0.000000 
#    z 0.000000 0.000000 1.699650 
# 
# From -- ./inp_files/2276.got.cif
#   From: 2010.03.12/outbox.cif.g09.slc.cpg/sg55_2_cif.got.tgz:2276.got - 2010.04.16 15:19:21.
