data_PCOD8226722
_publ_section_title
;
Structure prediction by ZEFSAII (Michael W. Deem and Ramdas Pophale) SiO2 
 PCOD8226722
Probable space group: P B A M
;
_chemical_formula_sum "Si O2"
_cell_formula_units_Z 40
_cell_length_a 15.150644
_cell_length_b 8.587977
_cell_length_c 13.556920
_cell_angle_alpha 90.000000
_cell_angle_beta 90.000000
_cell_angle_gamma 90.000000
_cell_volume 1763.936714
_symmetry_space_group_name_H-M "P B A M"
_symmetry_group_IT_number 55
_symmetry_cell_setting 'orthorhombic'
loop_
_space_group_symop_operation_xyz
x,y,z
-x,-y,z
1/2+x,1/2-y,-z
1/2-x,1/2+y,-z
-x,-y,-z
x,y,-z
1/2-x,1/2+y,z
1/2+x,1/2-y,z
loop_
_atom_site_type_symbol
_atom_site_label
_atom_site_fract_x
_atom_site_fract_y
_atom_site_fract_z
Si Si1 0.624535 0.843268 0.389303
Si Si2 0.146236 0.170490 0.801792
Si Si3 0.689926 0.656115 0.113463
Si Si4 0.029304 0.670789 0.806563
Si Si5 0.799348 0.680035 0.389166
O O1 0.584257 0.844603 0.500000
O O2 0.545378 0.824457 0.311876
O O3 0.693904 0.702481 0.375192
O O4 0.678367 0.001284 0.366755
O O5 0.213847 0.280651 0.860340
O O6 0.149134 0.207832 0.685601
O O7 0.046821 0.207596 0.837203
O O8 0.167467 0.991196 0.819155
O O9 0.618488 0.790158 0.134791
O O10 0.687573 0.605253 0.000000
O O11 0.000000 0.500000 0.839731
O O12 0.826946 0.728815 0.500000
#
# Coordination Sequence:
#
# PCOD8226722 Si02
#       5
#     8   8   8   8   8
#     4  10  21  39  66 103 143 186 229 277 342 413
#     4  12  24  45  72 101 138 179 230 283 352 413
#     4  12  28  49  73  99 134 180 232 296 355 408
#     4  12  25  43  70 104 137 182 228 284 343 417
#     4  10  20  38  68 101 140 184 226 272 336 413
#
# _framework density 22.676551
#
# number of rings (size 3 to 8) (size 9 to 14) (size 15 to 20)
#    0.000    0.800    4.000    3.600    0.000    4.000 
#    0.000    0.000    0.000    2.400    0.000    0.000 
#    0.000    0.000    0.000    0.000    0.000    0.000 
#
# Total GULP energy -496202.556969 kJ/mol
# GULP energy per Si atom -12405.063924 kJ/mol
# Density = 2.262494 g / cm^3
# Si number density = 22.676551 Si / 1000 Ang^3
#
#
#
# Elastic Constant Matrix: (Units=GPa)
#
#
# Indices 1 2 3 4 5 6 
#
# 1 108.1743 39.4339 36.7876 0.0000 0.0000 0.0000
# 2 39.4339 104.4504 29.3468 0.0000 0.0000 0.0000
# 3 36.7876 29.3468 96.5804 0.0000 0.0000 0.0000
# 4 0.0000 0.0000 0.0000 27.0455 0.0000 0.0000
# 5 0.0000 0.0000 0.0000 0.0000 14.9486 0.0000
# 6 0.0000 0.0000 0.0000 0.0000 0.0000 39.1859
#
#
#
# Elastic Compliance Matrix: (Units=1/GPa)
#
#
# Indices 1 2 3 4 5 6 
#
# 1 0.011654 -0.003447 -0.003392 0.000000 0.000000 0.000000
# 2 -0.003447 0.011487 -0.002177 0.000000 0.000000 0.000000
# 3 -0.003392 -0.002177 0.012308 0.000000 0.000000 0.000000
# 4 0.000000 0.000000 0.000000 0.036975 0.000000 0.000000
# 5 0.000000 0.000000 0.000000 0.000000 0.066896 0.000000
# 6 0.000000 0.000000 0.000000 0.000000 0.000000 0.025519
#
#
# Mechanical properties :
#
#
# Convention : Reuss Voigt Hill
#
# Bulk Modulus (GPa) = 57.41650 57.81578 57.61614
# Shear Modulus (GPa) = 26.50030 29.81179 28.15605
#
# Velocity S-wave (km/s) = 3.42222 3.62975 3.52751
# Velocity P-wave (km/s) = 6.40236 6.56643 6.48491
#
# Compressibility (1/GPa) = 0.01741660
#
# Stress axis : x y z
#
# Youngs Moduli (GPa) = 85.80469 87.05429 81.25033
#
# Poissons Ratio (x) = 0.30008 0.27558
# Poissons Ratio (y) = 0.29577 0.17692
# Poissons Ratio (z) = 0.29103 0.18956
#
# Static dielectric constant tensor:
#      x y z
#    x 4.060820 0.000000 0.000000 
#    y 0.000000 4.048230 0.000000 
#    z 0.000000 0.000000 4.203760 
# 
# 
# High freq. dielectric constant tensor:
#      x y z
#    x 1.891930 0.000000 0.000000 
#    y 0.000000 1.893120 0.000000 
#    z 0.000000 0.000000 1.896840 
# 
# From -- ./inp_files/17078.got.cif
#   From: 2010.03.12/outbox.cif.g09.slc.cpg/sg55_9_cif.got.tgz:17078.got - 2010.04.16 15:19:21.
