data_PCOD8226041
_publ_section_title
;
Structure prediction by ZEFSAII (Michael W. Deem and Ramdas Pophale) SiO2 
 PCOD8226041
Probable space group: P B A M
;
_chemical_formula_sum "Si O2"
_cell_formula_units_Z 64
_cell_length_a 24.866589
_cell_length_b 14.737963
_cell_length_c 8.937161
_cell_angle_alpha 90.000000
_cell_angle_beta 90.000000
_cell_angle_gamma 90.000000
_cell_volume 3275.316401
_symmetry_space_group_name_H-M "P B A M"
_symmetry_group_IT_number 55
_symmetry_cell_setting 'orthorhombic'
loop_
_space_group_symop_operation_xyz
x,y,z
-x,-y,z
1/2+x,1/2-y,-z
1/2-x,1/2+y,-z
-x,-y,-z
x,y,-z
1/2-x,1/2+y,z
1/2+x,1/2-y,z
loop_
_atom_site_type_symbol
_atom_site_label
_atom_site_fract_x
_atom_site_fract_y
_atom_site_fract_z
Si Si1 0.177681 0.986756 0.170711
Si Si2 0.367201 0.672717 0.172158
Si Si3 0.715069 0.029442 0.669791
Si Si4 0.944489 0.693136 0.323560
Si Si5 0.444328 0.171269 0.827462
Si Si6 0.340640 0.283135 0.174892
Si Si7 0.231894 0.258349 0.671072
Si Si8 0.107274 0.480856 0.172846
O O1 0.229195 0.011826 0.271181
O O2 0.152411 0.889601 0.214346
O O3 0.131862 0.063382 0.193105
O O4 0.198033 0.984676 0.000000
O O5 0.414587 0.716241 0.268918
O O6 0.308880 0.704507 0.225223
O O7 0.375400 0.700717 0.000000
O O8 0.707153 0.997557 0.500000
O O9 0.716143 0.137185 0.684655
O O10 0.665761 0.991173 0.766598
O O11 0.940360 0.688347 0.500000
O O12 0.915888 0.604453 0.260102
O O13 0.005941 0.699317 0.274307
O O14 0.394429 0.232210 0.774428
O O15 0.432357 0.065290 0.803753
O O16 0.458618 0.190850 0.000000
O O17 0.291718 0.240540 0.268210
O O18 0.329194 0.267227 0.000000
O O19 0.228310 0.224784 0.500000
O O20 0.112145 0.454275 0.000000
#
# Coordination Sequence:
#
# PCOD8226041 Si02
#       8
#     8   8   8   8   8   8   8   8
#     4   9  20  37  59  86 117 154 197 241 290 345
#     4  11  22  37  60  86 115 155 199 243 291 345
#     4  10  20  34  54  84 122 158 190 232 287 346
#     4  12  25  41  60  85 117 153 196 246 300 354
#     4  10  23  41  62  86 113 153 200 243 293 350
#     4   9  19  39  62  85 116 152 194 243 289 346
#     4  10  20  34  54  84 119 153 190 235 290 348
#     4  11  22  37  59  86 118 156 196 240 286 349
#
# _framework density 19.540096999999999
#
# number of rings (size 3 to 8) (size 9 to 14) (size 15 to 20)
#    0.000    1.750    1.250    3.000    1.750    5.000 
#    0.000    0.625    0.000    3.750    0.000    0.000 
#    0.000    0.000    0.000    0.000    0.000    0.000 
#
# Total GULP energy -793863.907417 kJ/mol
# GULP energy per Si atom -12404.123553 kJ/mol
# Density = 1.949562 g / cm^3
# Si number density = 19.540097 Si / 1000 Ang^3
#
#
#
# Elastic Constant Matrix: (Units=GPa)
#
#
# Indices 1 2 3 4 5 6 
#
# 1 104.4556 25.7117 51.8449 0.0000 0.0000 0.0000
# 2 25.7117 26.4852 20.0207 0.0000 0.0000 0.0000
# 3 51.8449 20.0207 114.7444 0.0000 0.0000 0.0000
# 4 0.0000 0.0000 0.0000 15.6318 0.0000 0.0000
# 5 0.0000 0.0000 0.0000 0.0000 23.0777 0.0000
# 6 0.0000 0.0000 0.0000 0.0000 0.0000 25.9570
#
#
#
# Elastic Compliance Matrix: (Units=1/GPa)
#
#
# Indices 1 2 3 4 5 6 
#
# 1 0.014503 -0.010513 -0.004719 0.000000 0.000000 0.000000
# 2 -0.010513 0.051114 -0.004168 0.000000 0.000000 0.000000
# 3 -0.004719 -0.004168 0.011574 0.000000 0.000000 0.000000
# 4 0.000000 0.000000 0.000000 0.063972 0.000000 0.000000
# 5 0.000000 0.000000 0.000000 0.000000 0.043332 0.000000
# 6 0.000000 0.000000 0.000000 0.000000 0.000000 0.038525
#
#
# Mechanical properties :
#
#
# Convention : Reuss Voigt Hill
#
# Bulk Modulus (GPa) = 26.04737 48.98221 37.51479
# Shear Modulus (GPa) = 18.20715 22.80715 20.50715
#
# Velocity S-wave (km/s) = 3.05583 3.42013 3.24310
# Velocity P-wave (km/s) = 5.08035 6.38109 5.76751
#
# Compressibility (1/GPa) = 0.03839160
#
# Stress axis : x y z
#
# Youngs Moduli (GPa) = 68.95034 19.56426 86.39759
#
# Poissons Ratio (x) = 0.20567 0.40769
# Poissons Ratio (y) = 0.72485 0.36014
# Poissons Ratio (z) = 0.32536 0.08155
#
# Static dielectric constant tensor:
#      x y z
#    x 3.518150 0.000000 0.000000 
#    y 0.000000 3.674270 0.000000 
#    z 0.000000 0.000000 3.636960 
# 
# 
# High freq. dielectric constant tensor:
#      x y z
#    x 1.751990 0.000000 0.000000 
#    y 0.000000 1.763350 0.000000 
#    z 0.000000 0.000000 1.765990 
# 
# From -- ./inp_files/9664.got.cif
#   From: 2010.03.12/outbox.cif.g09.slc.cpg/sg55_5_cif.got.tgz:9664.got - 2010.04.16 15:19:21.
