data_PCOD8226924
_publ_section_title
;
Structure prediction by ZEFSAII (Michael W. Deem and Ramdas Pophale) SiO2 
 PCOD8226924
Probable space group: P B A M
;
_chemical_formula_sum "Si O2"
_cell_formula_units_Z 64
_cell_length_a 15.176741
_cell_length_b 24.258571
_cell_length_c 9.059713
_cell_angle_alpha 90.000000
_cell_angle_beta 90.000000
_cell_angle_gamma 90.000000
_cell_volume 3335.478741
_symmetry_space_group_name_H-M "P B A M"
_symmetry_group_IT_number 55
_symmetry_cell_setting 'orthorhombic'
loop_
_space_group_symop_operation_xyz
x,y,z
-x,-y,z
1/2+x,1/2-y,-z
1/2-x,1/2+y,-z
-x,-y,-z
x,y,-z
1/2-x,1/2+y,z
1/2+x,1/2-y,z
loop_
_atom_site_type_symbol
_atom_site_label
_atom_site_fract_x
_atom_site_fract_y
_atom_site_fract_z
Si Si1 0.321334 0.631593 0.824518
Si Si2 0.472092 0.771478 0.832844
Si Si3 0.486682 0.106031 0.826993
Si Si4 0.688871 0.652829 0.670231
Si Si5 0.682236 0.942460 0.329633
Si Si6 0.226356 0.252763 0.833081
Si Si7 0.337696 0.929858 0.670321
Si Si8 0.993552 0.838501 0.670860
O O1 0.265608 0.583002 0.753503
O O2 0.279277 0.689988 0.774823
O O3 0.421547 0.628594 0.766032
O O4 0.322937 0.625628 0.000000
O O5 0.520801 0.828600 0.796519
O O6 0.367936 0.782314 0.816458
O O7 0.502952 0.725170 0.719223
O O8 0.492343 0.751562 0.000000
O O9 0.408219 0.076769 0.742440
O O10 0.577777 0.081458 0.769465
O O11 0.479210 0.093257 0.000000
O O12 0.706867 0.662668 0.500000
O O13 0.702471 0.712365 0.744226
O O14 0.756147 0.606740 0.730480
O O15 0.588522 0.632964 0.697772
O O16 0.683015 0.924370 0.500000
O O17 0.691954 0.007500 0.311824
O O18 0.259673 0.251944 0.000000
O O19 0.360548 0.916358 0.500000
O O20 0.965927 0.840366 0.500000
#
# Coordination Sequence:
#
# PCOD8226924 Si02
#       8
#     8   8   8   8   8   8   8   8
#     4  10  22  41  60  83 116 153 193 242 294 346
#     4   9  19  35  53  80 117 154 187 226 281 342
#     4  11  22  37  58  86 119 156 194 237 291 350
#     4  10  21  36  57  86 116 149 192 237 288 343
#     4  11  24  40  60  84 113 154 200 244 295 349
#     4   9  18  34  55  80 111 147 185 228 281 339
#     4  10  22  41  60  83 118 155 195 246 293 343
#     4  10  21  36  57  86 117 151 191 238 290 346
#
# _framework density 19.187650000000001
#
# number of rings (size 3 to 8) (size 9 to 14) (size 15 to 20)
#    0.000    2.000    1.250    2.625    1.750    7.000 
#    0.000    0.625    0.000    3.750    0.000    0.000 
#    0.000    0.000    0.000    0.000    0.000    0.000 
#
# Total GULP energy -793706.779197 kJ/mol
# GULP energy per Si atom -12401.668425 kJ/mol
# Density = 1.914398 g / cm^3
# Si number density = 19.187650 Si / 1000 Ang^3
#
#
#
# Elastic Constant Matrix: (Units=GPa)
#
#
# Indices 1 2 3 4 5 6 
#
# 1 107.0483 35.9804 46.7237 0.0000 0.0000 0.0000
# 2 35.9804 57.0548 31.1758 0.0000 0.0000 0.0000
# 3 46.7237 31.1758 85.0433 0.0000 0.0000 0.0000
# 4 0.0000 0.0000 0.0000 26.5598 0.0000 0.0000
# 5 0.0000 0.0000 0.0000 0.0000 18.5229 0.0000
# 6 0.0000 0.0000 0.0000 0.0000 0.0000 23.0922
#
#
#
# Elastic Compliance Matrix: (Units=1/GPa)
#
#
# Indices 1 2 3 4 5 6 
#
# 1 0.013589 -0.005615 -0.005408 0.000000 0.000000 0.000000
# 2 -0.005615 0.024237 -0.005800 0.000000 0.000000 0.000000
# 3 -0.005408 -0.005800 0.016856 0.000000 0.000000 0.000000
# 4 0.000000 0.000000 0.000000 0.037651 0.000000 0.000000
# 5 0.000000 0.000000 0.000000 0.000000 0.053987 0.000000
# 6 0.000000 0.000000 0.000000 0.000000 0.000000 0.043305
#
#
# Mechanical properties :
#
#
# Convention : Reuss Voigt Hill
#
# Bulk Modulus (GPa) = 47.53546 52.98959 50.26252
# Shear Modulus (GPa) = 21.71243 22.65275 22.18259
#
# Velocity S-wave (km/s) = 3.36755 3.43970 3.40382
# Velocity P-wave (km/s) = 6.32047 6.59180 6.45756
#
# Compressibility (1/GPa) = 0.02103693
#
# Stress axis : x y z
#
# Youngs Moduli (GPa) = 73.58840 41.25885 59.32593
#
# Poissons Ratio (x) = 0.23166 0.32082
# Poissons Ratio (y) = 0.41319 0.34410
# Poissons Ratio (z) = 0.39794 0.23931
#
# Static dielectric constant tensor:
#      x y z
#    x 3.564450 0.000000 0.000000 
#    y 0.000000 3.435910 0.000000 
#    z 0.000000 0.000000 3.560320 
# 
# 
# High freq. dielectric constant tensor:
#      x y z
#    x 1.751450 0.000000 0.000000 
#    y 0.000000 1.733780 0.000000 
#    z 0.000000 0.000000 1.750400 
# 
# From -- ./inp_files/6561.got.cif
#   From: 2010.03.12/outbox.cif.g09.slc.cpg/sg55_4_cif.got.tgz:6561.got - 2010.04.16 15:19:21.
