data_PCOD8226470
_publ_section_title
;
Structure prediction by ZEFSAII (Michael W. Deem and Ramdas Pophale) SiO2 
 PCOD8226470
Probable space group: P B A M
;
_chemical_formula_sum "Si O2"
_cell_formula_units_Z 64
_cell_length_a 31.510398
_cell_length_b 11.236551
_cell_length_c 9.257698
_cell_angle_alpha 90.000000
_cell_angle_beta 90.000000
_cell_angle_gamma 90.000000
_cell_volume 3277.856413
_symmetry_space_group_name_H-M "P B A M"
_symmetry_group_IT_number 55
_symmetry_cell_setting 'orthorhombic'
loop_
_space_group_symop_operation_xyz
x,y,z
-x,-y,z
1/2+x,1/2-y,-z
1/2-x,1/2+y,-z
-x,-y,-z
x,y,-z
1/2-x,1/2+y,z
1/2+x,1/2-y,z
loop_
_atom_site_type_symbol
_atom_site_label
_atom_site_fract_x
_atom_site_fract_y
_atom_site_fract_z
Si Si1 0.185567 0.782747 0.662579
Si Si2 0.481709 0.633444 0.833957
Si Si3 0.680793 0.449361 0.660840
Si Si4 0.847614 0.615351 0.828761
Si Si5 0.901195 0.797230 0.664523
Si Si6 0.231541 0.226938 0.168964
Si Si7 0.883189 0.404503 0.333404
Si Si8 0.029314 0.615813 0.167037
O O1 0.202955 0.766766 0.500000
O O2 0.221957 0.740983 0.769264
O O3 0.140229 0.720830 0.681689
O O4 0.174732 0.915881 0.702774
O O5 0.500000 0.500000 0.804647
O O6 0.442895 0.641925 0.725542
O O7 0.510378 0.751637 0.800666
O O8 0.466841 0.640876 0.000000
O O9 0.699461 0.430435 0.500000
O O10 0.634529 0.395792 0.673358
O O11 0.713712 0.397442 0.774895
O O12 0.887555 0.687764 0.765238
O O13 0.801910 0.670188 0.784504
O O14 0.850785 0.488497 0.753878
O O15 0.852917 0.606977 0.000000
O O16 0.908592 0.753332 0.500000
O O17 0.235775 0.219322 0.000000
O O18 0.887350 0.445275 0.500000
O O19 0.929370 0.397956 0.264680
O O20 0.000000 0.500000 0.204633
O O21 0.042609 0.608050 0.000000
#
# Coordination Sequence:
#
# PCOD8226470 Si02
#       8
#     8   8   8   8   8   8   8   8
#     4  10  23  40  58  83 119 159 194 239 296 351
#     4  10  22  38  58  87 123 161 200 244 301 366
#     4   9  20  39  60  83 116 156 195 238 294 353
#     4  10  21  39  61  86 120 157 194 242 295 350
#     4  10  20  36  62  90 116 151 199 245 292 349
#     4  10  22  38  59  88 116 150 199 247 290 344
#     4  11  24  39  61  91 121 154 199 247 296 353
#     4  10  22  41  63  87 119 161 202 246 305 366
#
# _framework density 19.524956
#
# number of rings (size 3 to 8) (size 9 to 14) (size 15 to 20)
#    0.000    2.000    0.000    2.250    3.500    5.500 
#    0.000    0.000    0.000    0.000    0.000    0.000 
#    0.000    0.000    0.000    0.000    0.000    0.000 
#
# Total GULP energy -793312.602923 kJ/mol
# GULP energy per Si atom -12395.509421 kJ/mol
# Density = 1.948052 g / cm^3
# Si number density = 19.524956 Si / 1000 Ang^3
#
#
#
# Elastic Constant Matrix: (Units=GPa)
#
#
# Indices 1 2 3 4 5 6 
#
# 1 77.0113 33.7264 49.9640 0.0000 0.0000 0.0000
# 2 33.7264 123.1504 38.3705 0.0000 0.0000 0.0000
# 3 49.9640 38.3705 92.2006 0.0000 0.0000 0.0000
# 4 0.0000 0.0000 0.0000 31.3686 0.0000 0.0000
# 5 0.0000 0.0000 0.0000 0.0000 35.0853 0.0000
# 6 0.0000 0.0000 0.0000 0.0000 0.0000 13.2747
#
#
#
# Elastic Compliance Matrix: (Units=1/GPa)
#
#
# Indices 1 2 3 4 5 6 
#
# 1 0.020672 -0.002494 -0.010164 0.000000 0.000000 0.000000
# 2 -0.002494 0.009631 -0.002656 0.000000 0.000000 0.000000
# 3 -0.010164 -0.002656 0.017459 0.000000 0.000000 0.000000
# 4 0.000000 0.000000 0.000000 0.031879 0.000000 0.000000
# 5 0.000000 0.000000 0.000000 0.000000 0.028502 0.000000
# 6 0.000000 0.000000 0.000000 0.000000 0.000000 0.075331
#
#
# Mechanical properties :
#
#
# Convention : Reuss Voigt Hill
#
# Bulk Modulus (GPa) = 58.36860 59.60936 58.98898
# Shear Modulus (GPa) = 22.74644 27.29916 25.02280
#
# Velocity S-wave (km/s) = 3.41690 3.74326 3.58380
# Velocity P-wave (km/s) = 6.74731 7.01989 6.88495
#
# Compressibility (1/GPa) = 0.01713250
#
# Stress axis : x y z
#
# Youngs Moduli (GPa) = 48.37496 103.83232 57.27589
#
# Poissons Ratio (x) = 0.25900 0.58216
# Poissons Ratio (y) = 0.12067 0.15214
# Poissons Ratio (z) = 0.49169 0.27581
#
# Static dielectric constant tensor:
#      x y z
#    x 3.663380 0.000000 0.000000 
#    y 0.000000 3.993900 0.000000 
#    z 0.000000 0.000000 3.651750 
# 
# 
# High freq. dielectric constant tensor:
#      x y z
#    x 1.757750 0.000000 0.000000 
#    y 0.000000 1.772150 0.000000 
#    z 0.000000 0.000000 1.767650 
# 
# From -- ./inp_files/10853.got.cif
#   From: 2010.03.12/outbox.cif.g09.slc.cpg/sg55_6_cif.got.tgz:10853.got - 2010.04.16 15:19:21.
