data_PCOD8226222
_publ_section_title
;
Structure prediction by ZEFSAII (Michael W. Deem and Ramdas Pophale) SiO2 
 PCOD8226222
Probable space group: P B A M
;
_chemical_formula_sum "Si O2"
_cell_formula_units_Z 64
_cell_length_a 12.573579
_cell_length_b 27.326009
_cell_length_c 9.420648
_cell_angle_alpha 90.000000
_cell_angle_beta 90.000000
_cell_angle_gamma 90.000000
_cell_volume 3236.800248
_symmetry_space_group_name_H-M "P B A M"
_symmetry_group_IT_number 55
_symmetry_cell_setting 'orthorhombic'
loop_
_space_group_symop_operation_xyz
x,y,z
-x,-y,z
1/2+x,1/2-y,-z
1/2-x,1/2+y,-z
-x,-y,-z
x,y,-z
1/2-x,1/2+y,z
1/2+x,1/2-y,z
loop_
_atom_site_type_symbol
_atom_site_label
_atom_site_fract_x
_atom_site_fract_y
_atom_site_fract_z
Si Si1 0.394486 0.468961 0.836496
Si Si2 0.247677 0.292210 0.163406
Si Si3 0.168160 0.702176 0.665740
Si Si4 0.555318 0.638063 0.162337
Si Si5 0.525055 0.158280 0.835465
Si Si6 0.138358 0.136032 0.657315
Si Si7 0.553323 0.948166 0.835984
Si Si8 0.741777 0.462564 0.662708
O O1 0.500000 0.500000 0.816059
O O2 0.414455 0.414909 0.777233
O O3 0.297581 0.489412 0.743976
O O4 0.357031 0.468329 0.000000
O O5 0.266941 0.247005 0.266609
O O6 0.346845 0.327110 0.188358
O O7 0.141702 0.321974 0.205657
O O8 0.241620 0.274521 0.000000
O O9 0.145066 0.712671 0.500000
O O10 0.244766 0.656267 0.689264
O O11 0.058100 0.689822 0.743823
O O12 0.450847 0.658523 0.240431
O O13 0.521943 0.633650 0.000000
O O14 0.521280 0.099496 0.806158
O O15 0.499431 0.168755 0.000000
O O16 0.102041 0.150854 0.500000
O O17 0.148129 0.077580 0.673943
O O18 0.654318 0.941128 0.736836
O O19 0.500000 0.000000 0.795182
O O20 0.588879 0.949008 0.000000
O O21 0.768011 0.475481 0.500000
#
# Coordination Sequence:
#
# PCOD8226222 Si02
#       8
#     8   8   8   8   8   8   8   8
#     4  10  20  35  57  86 119 157 199 243 291 348
#     4  10  24  43  63  91 123 157 201 254 310 362
#     4  11  24  43  65  89 120 159 203 253 305 361
#     4  10  22  39  62  89 121 158 200 253 303 356
#     4  10  22  42  66  93 125 160 202 253 307 365
#     4  10  22  39  59  86 122 157 197 248 300 360
#     4  10  22  39  64  92 120 159 204 251 302 361
#     4  11  22  37  57  85 122 162 199 244 299 357
#
# _framework density 19.772613
#
# number of rings (size 3 to 8) (size 9 to 14) (size 15 to 20)
#    0.000    1.750    2.500    0.750    3.500    3.500 
#    0.000    0.000    0.000    0.000    0.000    0.000 
#    0.000    0.000    0.000    0.000    0.000    0.000 
#
# Total GULP energy -793635.949765 kJ/mol
# GULP energy per Si atom -12400.561715 kJ/mol
# Density = 1.972761 g / cm^3
# Si number density = 19.772613 Si / 1000 Ang^3
#
#
#
# Elastic Constant Matrix: (Units=GPa)
#
#
# Indices 1 2 3 4 5 6 
#
# 1 100.2582 19.4631 57.4493 0.0000 0.0000 0.0000
# 2 19.4631 78.0917 38.5464 0.0000 0.0000 0.0000
# 3 57.4493 38.5464 92.1599 0.0000 0.0000 0.0000
# 4 0.0000 0.0000 0.0000 20.2022 0.0000 0.0000
# 5 0.0000 0.0000 0.0000 0.0000 20.3550 0.0000
# 6 0.0000 0.0000 0.0000 0.0000 0.0000 26.3870
#
#
#
# Elastic Compliance Matrix: (Units=1/GPa)
#
#
# Indices 1 2 3 4 5 6 
#
# 1 0.015598 0.001149 -0.010204 0.000000 0.000000 0.000000
# 2 0.001149 0.016222 -0.007501 0.000000 0.000000 0.000000
# 3 -0.010204 -0.007501 0.020349 0.000000 0.000000 0.000000
# 4 0.000000 0.000000 0.000000 0.049500 0.000000 0.000000
# 5 0.000000 0.000000 0.000000 0.000000 0.049128 0.000000
# 6 0.000000 0.000000 0.000000 0.000000 0.000000 0.037898
#
#
# Mechanical properties :
#
#
# Convention : Reuss Voigt Hill
#
# Bulk Modulus (GPa) = 52.47481 55.71417 54.09449
# Shear Modulus (GPa) = 21.91465 23.72558 22.82011
#
# Velocity S-wave (km/s) = 3.33278 3.46775 3.40093
# Velocity P-wave (km/s) = 6.43480 6.65374 6.54519
#
# Compressibility (1/GPa) = 0.01905676
#
# Stress axis : x y z
#
# Youngs Moduli (GPa) = 64.11000 61.64605 49.14270
#
# Poissons Ratio (x) = -0.07084 0.50145
# Poissons Ratio (y) = -0.07367 0.36863
# Poissons Ratio (z) = 0.65418 0.46241
#
# Static dielectric constant tensor:
#      x y z
#    x 3.483020 0.000000 0.000000 
#    y 0.000000 3.848910 0.000000 
#    z 0.000000 0.000000 3.574370 
# 
# 
# High freq. dielectric constant tensor:
#      x y z
#    x 1.770290 0.000000 0.000000 
#    y 0.000000 1.776250 0.000000 
#    z 0.000000 0.000000 1.766860 
# 
# From -- ./inp_files/4618.got.cif
#   From: 2010.03.12/outbox.cif.g09.slc.cpg/sg55_3_cif.got.tgz:4618.got - 2010.04.16 15:19:21.
