data_PCOD8226797
_publ_section_title
;
Structure prediction by ZEFSAII (Michael W. Deem and Ramdas Pophale) SiO2 
 PCOD8226797
Probable space group: P B A M
;
_chemical_formula_sum "Si O2"
_cell_formula_units_Z 60
_cell_length_a 5.112647
_cell_length_b 24.924681
_cell_length_c 22.974436
_cell_angle_alpha 90.000000
_cell_angle_beta 90.000000
_cell_angle_gamma 90.000000
_cell_volume 2927.657549
_symmetry_space_group_name_H-M "P B A M"
_symmetry_group_IT_number 55
_symmetry_cell_setting 'orthorhombic'
loop_
_space_group_symop_operation_xyz
x,y,z
-x,-y,z
1/2+x,1/2-y,-z
1/2-x,1/2+y,-z
-x,-y,-z
x,y,-z
1/2-x,1/2+y,z
1/2+x,1/2-y,z
loop_
_atom_site_type_symbol
_atom_site_label
_atom_site_fract_x
_atom_site_fract_y
_atom_site_fract_z
Si Si1 0.323195 0.544147 0.203803
Si Si2 0.443004 0.883961 0.065754
Si Si3 0.019131 0.560588 0.685132
Si Si4 0.536395 0.715434 0.567557
Si Si5 0.494871 0.371751 0.338488
Si Si6 0.496218 0.715852 0.241206
Si Si7 0.000000 0.500000 0.896298
Si Si8 0.548809 0.357040 0.137565
O O1 0.500000 0.500000 0.238090
O O2 0.082282 0.559884 0.245387
O O3 0.489852 0.596183 0.185708
O O4 0.241257 0.515859 0.144066
O O5 0.424194 0.948799 0.064592
O O6 0.174412 0.858919 0.089015
O O7 0.671330 0.861908 0.106748
O O8 0.486659 0.863876 0.000000
O O9 0.251171 0.591192 0.651256
O O10 0.000000 0.500000 0.660580
O O11 0.747626 0.590673 0.676877
O O12 0.549654 0.699883 0.500000
O O13 0.266700 0.743945 0.584685
O O14 0.565585 0.660475 0.602725
O O15 0.557868 0.332222 0.285498
O O16 0.286283 0.762395 0.253204
O O17 0.466031 0.697859 0.173953
#
# Coordination Sequence:
#
# PCOD8226797 Si02
#       8
#     8   8   8   8   8   8   4   8
#     4  11  20  36  56  89 122 166 201 244 299 381
#     4  11  23  40  60  87 119 153 201 251 311 379
#     4  12  25  37  61  91 138 171 219 249 302 379
#     4  10  21  41  70 101 133 172 221 274 328 377
#     4  12  24  41  64  97 133 172 211 263 319 375
#     4  12  25  41  63  91 125 156 201 262 321 381
#     4  10  21  32  58  84 122 156 193 246 302 372
#     4  11  24  39  62  85 118 157 196 246 322 375
#
# _framework density 20.494201
#
# number of rings (size 3 to 8) (size 9 to 14) (size 15 to 20)
#    0.000    0.800    3.333    5.000    3.733    0.000 
#    0.000    2.000    0.000   10.400    0.000    0.000 
#    0.000    0.000    0.000    0.000    0.000    0.000 
#
# Total GULP energy -744189.195282 kJ/mol
# GULP energy per Si atom -12403.153255 kJ/mol
# Density = 2.044756 g / cm^3
# Si number density = 20.494201 Si / 1000 Ang^3
#
#
#
# Elastic Constant Matrix: (Units=GPa)
#
#
# Indices 1 2 3 4 5 6 
#
# 1 82.2860 27.2643 16.0242 0.0000 0.0000 0.0000
# 2 27.2643 93.6922 42.8364 0.0000 0.0000 0.0000
# 3 16.0242 42.8364 81.6205 0.0000 0.0000 0.0000
# 4 0.0000 0.0000 0.0000 22.2706 0.0000 0.0000
# 5 0.0000 0.0000 0.0000 0.0000 19.3772 0.0000
# 6 0.0000 0.0000 0.0000 0.0000 0.0000 40.5944
#
#
#
# Elastic Compliance Matrix: (Units=1/GPa)
#
#
# Indices 1 2 3 4 5 6 
#
# 1 0.013487 -0.003571 -0.000774 0.000000 0.000000 0.000000
# 2 -0.003571 0.014988 -0.007165 0.000000 0.000000 0.000000
# 3 -0.000774 -0.007165 0.016164 0.000000 0.000000 0.000000
# 4 0.000000 0.000000 0.000000 0.044902 0.000000 0.000000
# 5 0.000000 0.000000 0.000000 0.000000 0.051607 0.000000
# 6 0.000000 0.000000 0.000000 0.000000 0.000000 0.024634
#
#
# Mechanical properties :
#
#
# Convention : Reuss Voigt Hill
#
# Bulk Modulus (GPa) = 46.25428 47.76094 47.00761
# Shear Modulus (GPa) = 25.50913 27.88002 26.69458
#
# Velocity S-wave (km/s) = 3.53186 3.69234 3.61299
# Velocity P-wave (km/s) = 6.26502 6.44461 6.35545
#
# Compressibility (1/GPa) = 0.02161962
#
# Stress axis : x y z
#
# Youngs Moduli (GPa) = 74.14793 66.71883 61.86525
#
# Poissons Ratio (x) = 0.23824 0.04787
# Poissons Ratio (y) = 0.26477 0.44327
# Poissons Ratio (z) = 0.05737 0.47805
#
# Static dielectric constant tensor:
#      x y z
#    x 3.767380 0.000000 0.000000 
#    y 0.000000 3.879780 0.000000 
#    z 0.000000 0.000000 3.537090 
# 
# 
# High freq. dielectric constant tensor:
#      x y z
#    x 1.816730 0.000000 0.000000 
#    y 0.000000 1.799490 0.000000 
#    z 0.000000 0.000000 1.779070 
# 
# From -- ./inp_files/23347.got.cif
#   From: 2010.03.12/outbox.cif.g09.slc.cpg/sg55_12_cif.got.tgz:23347.got - 2010.04.16 15:19:21.
