data_PCOD8226289
_publ_section_title
;
Structure prediction by ZEFSAII (Michael W. Deem and Ramdas Pophale) SiO2 
 PCOD8226289
Probable space group: P B A M
;
_chemical_formula_sum "Si O2"
_cell_formula_units_Z 48
_cell_length_a 31.121638
_cell_length_b 9.615138
_cell_length_c 8.783936
_cell_angle_alpha 90.000000
_cell_angle_beta 90.000000
_cell_angle_gamma 90.000000
_cell_volume 2628.494856
_symmetry_space_group_name_H-M "P B A M"
_symmetry_group_IT_number 55
_symmetry_cell_setting 'orthorhombic'
loop_
_space_group_symop_operation_xyz
x,y,z
-x,-y,z
1/2+x,1/2-y,-z
1/2-x,1/2+y,-z
-x,-y,-z
x,y,-z
1/2-x,1/2+y,z
1/2+x,1/2-y,z
loop_
_atom_site_type_symbol
_atom_site_label
_atom_site_fract_x
_atom_site_fract_y
_atom_site_fract_z
Si Si1 0.540192 0.909171 0.180113
Si Si2 0.373348 0.084060 0.329249
Si Si3 0.781987 0.094222 0.319402
Si Si4 0.123008 0.914218 0.331717
Si Si5 0.037983 0.906235 0.821013
Si Si6 0.286694 0.105777 0.179362
O O1 0.582982 0.974863 0.254587
O O2 0.532492 0.751541 0.237963
O O3 0.500000 0.000000 0.235055
O O4 0.546177 0.913929 0.000000
O O5 0.368393 0.024223 0.500000
O O6 0.376012 0.248914 0.331171
O O7 0.332313 0.039124 0.229202
O O8 0.773196 0.082665 0.500000
O O9 0.829764 0.036237 0.278081
O O10 0.776977 0.254084 0.271400
O O11 0.749506 0.004643 0.221014
O O12 0.113334 0.971203 0.500000
O O13 0.084607 0.968541 0.224603
O O14 0.034714 0.911078 0.000000
O O15 0.000000 0.000000 0.748743
O O16 0.286969 0.135857 0.000000
#
# Coordination Sequence:
#
# PCOD8226289 Si02
#       6
#     8   8   8   8   8   8
#     4   9  17  30  48  69  94 124 159 201 246 292
#     4   9  17  31  50  71  96 129 167 204 245 298
#     4  10  20  36  55  76 104 137 171 210 258 308
#     4   8  16  30  49  70  92 124 164 200 236 287
#     4   9  17  29  46  68  93 122 155 193 239 288
#     4  11  21  34  54  80 105 133 172 214 256 305
#
# _framework density 18.261402
#
# number of rings (size 3 to 8) (size 9 to 14) (size 15 to 20)
#    0.000    2.667    0.000    3.500    0.000    5.333 
#    0.000    1.667    0.000    6.000    0.000    0.000 
#    0.000    0.000    0.000    0.000    0.000    0.000 
#
# Total GULP energy -595018.313594 kJ/mol
# GULP energy per Si atom -12396.214867 kJ/mol
# Density = 1.821984 g / cm^3
# Si number density = 18.261402 Si / 1000 Ang^3
#
#
#
# Elastic Constant Matrix: (Units=GPa)
#
#
# Indices 1 2 3 4 5 6 
#
# 1 159.1271 43.3425 34.7412 0.0000 0.0000 0.0000
# 2 43.3425 40.3818 12.5264 0.0000 0.0000 0.0000
# 3 34.7412 12.5264 55.0289 0.0000 0.0000 0.0000
# 4 0.0000 0.0000 0.0000 18.8754 0.0000 0.0000
# 5 0.0000 0.0000 0.0000 0.0000 35.9887 0.0000
# 6 0.0000 0.0000 0.0000 0.0000 0.0000 31.1252
#
#
#
# Elastic Compliance Matrix: (Units=1/GPa)
#
#
# Indices 1 2 3 4 5 6 
#
# 1 0.009640 -0.009101 -0.004014 0.000000 0.000000 0.000000
# 2 -0.009101 0.035238 -0.002275 0.000000 0.000000 0.000000
# 3 -0.004014 -0.002275 0.021224 0.000000 0.000000 0.000000
# 4 0.000000 0.000000 0.000000 0.052979 0.000000 0.000000
# 5 0.000000 0.000000 0.000000 0.000000 0.027786 0.000000
# 6 0.000000 0.000000 0.000000 0.000000 0.000000 0.032128
#
#
# Mechanical properties :
#
#
# Convention : Reuss Voigt Hill
#
# Bulk Modulus (GPa) = 28.31209 48.41755 38.36482
# Shear Modulus (GPa) = 22.56820 28.12638 25.34729
#
# Velocity S-wave (km/s) = 3.51927 3.92881 3.72966
# Velocity P-wave (km/s) = 5.66137 6.86672 6.29297
#
# Compressibility (1/GPa) = 0.03532060
#
# Stress axis : x y z
#
# Youngs Moduli (GPa) = 103.73890 28.37848 47.11562
#
# Poissons Ratio (x) = 0.25828 0.18912
# Poissons Ratio (y) = 0.94415 0.10721
# Poissons Ratio (z) = 0.41641 0.06457
#
# Static dielectric constant tensor:
#      x y z
#    x 3.804860 0.000000 0.000000 
#    y 0.000000 2.664380 0.000000 
#    z 0.000000 0.000000 3.378540 
# 
# 
# High freq. dielectric constant tensor:
#      x y z
#    x 1.726960 0.000000 0.000000 
#    y 0.000000 1.661530 0.000000 
#    z 0.000000 0.000000 1.707690 
# 
# From -- ./inp_files/2864.got.cif
#   From: 2010.03.12/outbox.cif.g09.slc.cpg/sg55_2_cif.got.tgz:2864.got - 2010.04.16 15:19:21.
