data_PCOD8226305
_publ_section_title
;
Structure prediction by ZEFSAII (Michael W. Deem and Ramdas Pophale) SiO2 
 PCOD8226305
Probable space group: P B A M
;
_chemical_formula_sum "Si O2"
_cell_formula_units_Z 64
_cell_length_a 25.062699
_cell_length_b 9.730909
_cell_length_c 13.430621
_cell_angle_alpha 90.000000
_cell_angle_beta 90.000000
_cell_angle_gamma 90.000000
_cell_volume 3275.498036
_symmetry_space_group_name_H-M "P B A M"
_symmetry_group_IT_number 55
_symmetry_cell_setting 'orthorhombic'
loop_
_space_group_symop_operation_xyz
x,y,z
-x,-y,z
1/2+x,1/2-y,-z
1/2-x,1/2+y,-z
-x,-y,-z
x,y,-z
1/2-x,1/2+y,z
1/2+x,1/2-y,z
loop_
_atom_site_type_symbol
_atom_site_label
_atom_site_fract_x
_atom_site_fract_y
_atom_site_fract_z
Si Si1 0.482894 0.849023 0.737940
Si Si2 0.117890 0.300023 0.387401
Si Si3 0.200181 0.302318 0.112822
Si Si4 0.919394 0.232145 0.382646
Si Si5 0.370616 0.520242 0.277228
Si Si6 0.677720 0.926482 0.388262
Si Si7 0.256645 0.543173 0.222585
Si Si8 0.084553 0.187339 0.114365
O O1 0.435023 0.863908 0.660149
O O2 0.529319 0.767332 0.682159
O O3 0.465502 0.766391 0.836929
O O4 0.500000 0.000000 0.772517
O O5 0.104371 0.259282 0.500000
O O6 0.137975 0.167560 0.328762
O O7 0.164556 0.412112 0.382242
O O8 0.216116 0.436714 0.173473
O O9 0.230934 0.166924 0.148265
O O10 0.136553 0.284607 0.122778
O O11 0.217585 0.326795 0.000000
O O12 0.933029 0.234990 0.500000
O O13 0.873352 0.338974 0.354256
O O14 0.901156 0.079952 0.351538
O O15 0.311486 0.464562 0.251977
O O16 0.404399 0.545642 0.175411
O O17 0.693954 0.883855 0.500000
O O18 0.728257 0.893510 0.319742
O O19 0.071343 0.150286 0.000000
#
# Coordination Sequence:
#
# PCOD8226305 Si02
#       8
#     8   8   8   8   8   8   8   8
#     4  11  21  36  62  85 111 150 191 236 296 343
#     4  10  20  36  56  80 112 153 199 230 276 345
#     4  10  21  37  61  86 111 147 192 238 290 339
#     4  11  23  37  56  87 122 148 189 241 282 331
#     4  10  22  38  56  84 115 156 187 237 287 339
#     4  10  21  35  55  83 115 155 193 230 276 338
#     4  11  20  37  59  83 117 153 189 238 282 338
#     4   9  21  41  61  83 113 151 191 236 290 354
#
# _framework density 19.539014999999999
#
# number of rings (size 3 to 8) (size 9 to 14) (size 15 to 20)
#    0.000    1.750    1.250    4.125    0.000    4.250 
#    0.000    7.500    0.000    0.000    0.000    0.000 
#    0.000    0.000    0.000    0.000    0.000    0.000 
#
# Total GULP energy -793749.126286 kJ/mol
# GULP energy per Si atom -12402.330098 kJ/mol
# Density = 1.949454 g / cm^3
# Si number density = 19.539015 Si / 1000 Ang^3
#
#
#
# Elastic Constant Matrix: (Units=GPa)
#
#
# Indices 1 2 3 4 5 6 
#
# 1 79.0814 24.1726 40.5330 0.0000 0.0000 0.0000
# 2 24.1726 71.6761 24.7894 0.0000 0.0000 0.0000
# 3 40.5330 24.7894 114.6800 0.0000 0.0000 0.0000
# 4 0.0000 0.0000 0.0000 19.8740 0.0000 0.0000
# 5 0.0000 0.0000 0.0000 0.0000 33.5810 0.0000
# 6 0.0000 0.0000 0.0000 0.0000 0.0000 23.2775
#
#
#
# Elastic Compliance Matrix: (Units=1/GPa)
#
#
# Indices 1 2 3 4 5 6 
#
# 1 0.016347 -0.003799 -0.004957 0.000000 0.000000 0.000000
# 2 -0.003799 0.015962 -0.002108 0.000000 0.000000 0.000000
# 3 -0.004957 -0.002108 0.010927 0.000000 0.000000 0.000000
# 4 0.000000 0.000000 0.000000 0.050317 0.000000 0.000000
# 5 0.000000 0.000000 0.000000 0.000000 0.029779 0.000000
# 6 0.000000 0.000000 0.000000 0.000000 0.000000 0.042960
#
#
# Mechanical properties :
#
#
# Convention : Reuss Voigt Hill
#
# Bulk Modulus (GPa) = 46.48994 49.38086 47.93540
# Shear Modulus (GPa) = 25.61639 27.07599 26.34619
#
# Velocity S-wave (km/s) = 3.62475 3.72659 3.67603
# Velocity P-wave (km/s) = 6.43145 6.62151 6.52717
#
# Compressibility (1/GPa) = 0.02151003
#
# Stress axis : x y z
#
# Youngs Moduli (GPa) = 61.17406 62.64998 91.51318
#
# Poissons Ratio (x) = 0.23799 0.45359
# Poissons Ratio (y) = 0.23238 0.19288
# Poissons Ratio (z) = 0.30321 0.13205
#
# Static dielectric constant tensor:
#      x y z
#    x 3.530680 0.000000 0.000000 
#    y 0.000000 3.393960 0.000000 
#    z 0.000000 0.000000 3.812460 
# 
# 
# High freq. dielectric constant tensor:
#      x y z
#    x 1.759380 0.000000 0.000000 
#    y 0.000000 1.753500 0.000000 
#    z 0.000000 0.000000 1.769770 
# 
# From -- ./inp_files/19975.got.cif
#   From: 2010.03.12/outbox.cif.g09.slc.cpg/sg55_10_cif.got.tgz:19975.got - 2010.04.16 15:19:21.
