data_PCOD8226762
_publ_section_title
;
Structure prediction by ZEFSAII (Michael W. Deem and Ramdas Pophale) SiO2 
 PCOD8226762
Probable space group: P B A M
;
_chemical_formula_sum "Si O2"
_cell_formula_units_Z 32
_cell_length_a 8.820776
_cell_length_b 14.683452
_cell_length_c 11.177690
_cell_angle_alpha 90.000000
_cell_angle_beta 90.000000
_cell_angle_gamma 90.000000
_cell_volume 1447.728160
_symmetry_space_group_name_H-M "P B A M"
_symmetry_group_IT_number 55
_symmetry_cell_setting 'orthorhombic'
loop_
_space_group_symop_operation_xyz
x,y,z
-x,-y,z
1/2+x,1/2-y,-z
1/2-x,1/2+y,-z
-x,-y,-z
x,y,-z
1/2-x,1/2+y,z
1/2+x,1/2-y,z
loop_
_atom_site_type_symbol
_atom_site_label
_atom_site_fract_x
_atom_site_fract_y
_atom_site_fract_z
Si Si1 0.175246 0.528053 0.258825
Si Si2 0.830741 0.475844 0.000000
Si Si3 0.318740 0.694828 0.634947
Si Si4 0.581692 0.599302 0.000000
Si Si5 0.368479 0.347412 0.746615
O O1 0.214748 0.604874 0.354274
O O2 0.289261 0.444107 0.278516
O O3 0.000000 0.500000 0.273858
O O4 0.209639 0.573140 0.125974
O O5 0.759457 0.576856 0.000000
O O6 0.000000 0.500000 0.000000
O O7 0.303019 0.731710 0.500000
O O8 0.493859 0.669947 0.656274
O O9 0.259708 0.771007 0.727331
O O10 0.500000 0.500000 0.000000
O O11 0.553789 0.656969 0.879222
#
# Coordination Sequence:
#
# PCOD8226762 Si02
#       5
#     8   4   8   4   8
#     4  10  21  40  66  94 126 167 215 273 339 399
#     4   8  16  33  59  90 122 152 194 255 321 390
#     4  12  26  42  62  90 128 175 224 268 322 398
#     4  10  20  39  67  98 128 160 208 269 336 402
#     4  11  24  42  65  95 131 172 220 281 337 395
#
# _framework density 22.103596
#
# number of rings (size 3 to 8) (size 9 to 14) (size 15 to 20)
#    0.000    1.500    0.000    6.000    0.000    5.500 
#    0.000    2.500    0.000    0.000    0.000    0.000 
#    0.000    0.000    0.000    0.000    0.000    0.000 
#
# Total GULP energy -396482.498488 kJ/mol
# GULP energy per Si atom -12390.078078 kJ/mol
# Density = 2.205329 g / cm^3
# Si number density = 22.103596 Si / 1000 Ang^3
#
#
#
# Elastic Constant Matrix: (Units=GPa)
#
#
# Indices 1 2 3 4 5 6 
#
# 1 118.6318 32.3384 30.5945 0.0000 0.0000 0.0000
# 2 32.3384 98.2988 45.9787 0.0000 0.0000 0.0000
# 3 30.5945 45.9787 121.2333 0.0000 0.0000 0.0000
# 4 0.0000 0.0000 0.0000 31.5494 0.0000 0.0000
# 5 0.0000 0.0000 0.0000 0.0000 30.4690 0.0000
# 6 0.0000 0.0000 0.0000 0.0000 0.0000 43.2529
#
#
#
# Elastic Compliance Matrix: (Units=1/GPa)
#
#
# Indices 1 2 3 4 5 6 
#
# 1 0.009470 -0.002428 -0.001469 0.000000 0.000000 0.000000
# 2 -0.002428 0.012990 -0.004314 0.000000 0.000000 0.000000
# 3 -0.001469 -0.004314 0.010255 0.000000 0.000000 0.000000
# 4 0.000000 0.000000 0.000000 0.031696 0.000000 0.000000
# 5 0.000000 0.000000 0.000000 0.000000 0.032820 0.000000
# 6 0.000000 0.000000 0.000000 0.000000 0.000000 0.023120
#
#
# Mechanical properties :
#
#
# Convention : Reuss Voigt Hill
#
# Bulk Modulus (GPa) = 61.37523 61.77634 61.57578
# Shear Modulus (GPa) = 35.16064 36.33774 35.74919
#
# Velocity S-wave (km/s) = 3.99271 4.05899 4.02599
# Velocity P-wave (km/s) = 7.00593 7.06940 7.03774
#
# Compressibility (1/GPa) = 0.01629322
#
# Stress axis : x y z
#
# Youngs Moduli (GPa) = 105.59387 76.98452 97.51141
#
# Poissons Ratio (x) = 0.18695 0.14324
# Poissons Ratio (y) = 0.25643 0.42062
# Poissons Ratio (z) = 0.15511 0.33208
#
# Static dielectric constant tensor:
#      x y z
#    x 4.232020 0.000000 0.000000 
#    y 0.000000 3.631760 0.000000 
#    z 0.000000 0.000000 3.901390 
# 
# 
# High freq. dielectric constant tensor:
#      x y z
#    x 1.893530 0.000000 0.000000 
#    y 0.000000 1.840030 0.000000 
#    z 0.000000 0.000000 1.873530 
# 
# From -- ./inp_files/11732.got.cif
#   From: 2010.03.12/outbox.cif.g09.slc.cpg/sg55_6_cif.got.tgz:11732.got - 2010.04.16 15:19:21.
