data_PCOD8226145
_publ_section_title
;
Structure prediction by ZEFSAII (Michael W. Deem and Ramdas Pophale) SiO2 
 PCOD8226145
Probable space group: P B A M
;
_chemical_formula_sum "Si O2"
_cell_formula_units_Z 64
_cell_length_a 12.374162
_cell_length_b 29.013427
_cell_length_c 9.483210
_cell_angle_alpha 90.000000
_cell_angle_beta 90.000000
_cell_angle_gamma 90.000000
_cell_volume 3404.632143
_symmetry_space_group_name_H-M "P B A M"
_symmetry_group_IT_number 55
_symmetry_cell_setting 'orthorhombic'
loop_
_space_group_symop_operation_xyz
x,y,z
-x,-y,z
1/2+x,1/2-y,-z
1/2-x,1/2+y,-z
-x,-y,-z
x,y,-z
1/2-x,1/2+y,z
1/2+x,1/2-y,z
loop_
_atom_site_type_symbol
_atom_site_label
_atom_site_fract_x
_atom_site_fract_y
_atom_site_fract_z
Si Si1 0.718942 0.821680 0.157322
Si Si2 0.625826 0.505603 0.166703
Si Si3 0.781820 0.682022 0.655968
Si Si4 0.288172 0.074705 0.162777
Si Si5 0.762611 0.578693 0.664930
Si Si6 0.596211 0.756590 0.656845
Si Si7 0.904828 0.747707 0.840729
Si Si8 0.002194 0.554242 0.657815
O O1 0.756406 0.873771 0.189633
O O2 0.631644 0.804718 0.271005
O O3 0.820781 0.788713 0.167730
O O4 0.668369 0.818714 0.000000
O O5 0.500000 0.500000 0.211438
O O6 0.694595 0.460461 0.213507
O O7 0.677170 0.549072 0.246534
O O8 0.634141 0.514311 0.000000
O O9 0.835989 0.679193 0.500000
O O10 0.734830 0.632037 0.696057
O O11 0.687973 0.718942 0.652506
O O12 0.867331 0.699357 0.771324
O O13 0.400544 0.070675 0.244575
O O14 0.314520 0.065311 0.000000
O O15 0.750950 0.565565 0.500000
O O16 0.886045 0.570937 0.716558
O O17 0.554855 0.768217 0.500000
O O18 0.504369 0.733358 0.751106
O O19 0.938730 0.736668 0.000000
O O20 0.021125 0.573763 0.500000
O O21 0.000000 0.500000 0.655833
#
# Coordination Sequence:
#
# PCOD8226145 Si02
#       8
#     8   8   8   8   8   8   8   8
#     4   9  20  37  54  78 109 142 182 226 271 323
#     4  10  22  39  58  82 113 148 186 228 275 329
#     4   9  20  37  55  79 110 145 184 227 273 324
#     4  10  21  37  57  82 112 145 185 229 274 327
#     4  10  21  38  58  82 113 146 185 230 277 330
#     4  10  20  35  55  78 108 143 182 226 272 323
#     4  10  20  35  56  80 110 145 182 225 274 325
#     4  10  20  35  56  83 114 145 180 227 280 331
#
# _framework density 18.797920000000001
#
# number of rings (size 3 to 8) (size 9 to 14) (size 15 to 20)
#    0.000    2.250    1.250    0.750    1.750    4.000 
#    0.000    1.250    0.000    0.000    0.000    0.000 
#    0.000    0.000    0.000    0.000    0.000    0.000 
#
# Total GULP energy -793401.508400 kJ/mol
# GULP energy per Si atom -12396.898569 kJ/mol
# Density = 1.875514 g / cm^3
# Si number density = 18.797920 Si / 1000 Ang^3
#
#
#
# Elastic Constant Matrix: (Units=GPa)
#
#
# Indices 1 2 3 4 5 6 
#
# 1 86.7124 26.2962 42.2810 0.0000 0.0000 0.0000
# 2 26.2962 109.1187 36.0791 0.0000 0.0000 0.0000
# 3 42.2810 36.0791 99.7391 0.0000 0.0000 0.0000
# 4 0.0000 0.0000 0.0000 26.7071 0.0000 0.0000
# 5 0.0000 0.0000 0.0000 0.0000 33.9641 0.0000
# 6 0.0000 0.0000 0.0000 0.0000 0.0000 1.7836
#
#
#
# Elastic Compliance Matrix: (Units=1/GPa)
#
#
# Indices 1 2 3 4 5 6 
#
# 1 0.014808 -0.001696 -0.005664 0.000000 0.000000 0.000000
# 2 -0.001696 0.010604 -0.003117 0.000000 0.000000 0.000000
# 3 -0.005664 -0.003117 0.013555 0.000000 0.000000 0.000000
# 4 0.000000 0.000000 0.000000 0.037443 0.000000 0.000000
# 5 0.000000 0.000000 0.000000 0.000000 0.029443 0.000000
# 6 0.000000 0.000000 0.000000 0.000000 0.000000 0.560677
#
#
# Mechanical properties :
#
#
# Convention : Reuss Voigt Hill
#
# Bulk Modulus (GPa) = 55.51465 56.09809 55.80637
# Shear Modulus (GPa) = 7.20993 25.21854 16.21423
#
# Velocity S-wave (km/s) = 1.96057 3.66670 2.94011
# Velocity P-wave (km/s) = 5.89250 6.91620 6.42477
#
# Compressibility (1/GPa) = 0.01801326
#
# Stress axis : x y z
#
# Youngs Moduli (GPa) = 67.52887 94.30807 73.77507
#
# Poissons Ratio (x) = 0.15993 0.41787
# Poissons Ratio (y) = 0.11452 0.22994
# Poissons Ratio (z) = 0.38249 0.29394
#
# Static dielectric constant tensor:
#      x y z
#    x 3.362630 0.000000 0.000000 
#    y 0.000000 3.463930 0.000000 
#    z 0.000000 0.000000 3.715720 
# 
# 
# High freq. dielectric constant tensor:
#      x y z
#    x 1.724320 0.000000 0.000000 
#    y 0.000000 1.733640 0.000000 
#    z 0.000000 0.000000 1.733120 
# 
# From -- ./inp_files/4709.got.cif
#   From: 2010.03.12/outbox.cif.g09.slc.cpg/sg55_3_cif.got.tgz:4709.got - 2010.04.16 15:19:21.
