data_PCOD8226620
_publ_section_title
;
Structure prediction by ZEFSAII (Michael W. Deem and Ramdas Pophale) SiO2 
 PCOD8226620
Probable space group: P B A M
;
_chemical_formula_sum "Si O2"
_cell_formula_units_Z 64
_cell_length_a 22.006560
_cell_length_b 16.461143
_cell_length_c 9.195830
_cell_angle_alpha 90.000000
_cell_angle_beta 90.000000
_cell_angle_gamma 90.000000
_cell_volume 3331.218211
_symmetry_space_group_name_H-M "P B A M"
_symmetry_group_IT_number 55
_symmetry_cell_setting 'orthorhombic'
loop_
_space_group_symop_operation_xyz
x,y,z
-x,-y,z
1/2+x,1/2-y,-z
1/2-x,1/2+y,-z
-x,-y,-z
x,y,-z
1/2-x,1/2+y,z
1/2+x,1/2-y,z
loop_
_atom_site_type_symbol
_atom_site_label
_atom_site_fract_x
_atom_site_fract_y
_atom_site_fract_z
Si Si1 0.768192 0.586791 0.169313
Si Si2 0.883755 0.687568 0.830916
Si Si3 0.860495 0.158046 0.831871
Si Si4 0.234172 0.582595 0.669803
Si Si5 0.135883 0.148139 0.329610
Si Si6 0.428665 0.505404 0.166516
Si Si7 0.384352 0.178922 0.672250
Si Si8 0.507314 0.906172 0.167343
O O1 0.827109 0.634602 0.226124
O O2 0.710116 0.642639 0.202502
O O3 0.761919 0.502545 0.250695
O O4 0.773570 0.566007 0.000000
O O5 0.888137 0.770469 0.743539
O O6 0.944075 0.637229 0.799558
O O7 0.875726 0.708521 0.000000
O O8 0.899158 0.079583 0.787461
O O9 0.885198 0.230916 0.735280
O O10 0.870725 0.180413 0.000000
O O11 0.229932 0.563906 0.500000
O O12 0.293364 0.635508 0.708213
O O13 0.176221 0.632849 0.725430
O O14 0.124750 0.154914 0.500000
O O15 0.096792 0.073873 0.270985
O O16 0.500000 0.500000 0.189068
O O17 0.411653 0.526607 0.000000
O O18 0.387429 0.184594 0.500000
O O19 0.441988 0.130209 0.728921
O O20 0.500000 0.000000 0.206472
O O21 0.527114 0.894368 0.000000
#
# Coordination Sequence:
#
# PCOD8226620 Si02
#       8
#     8   8   8   8   8   8   8   8
#     4  10  20  37  63  91 115 149 200 248 291 344
#     4  10  22  38  60  88 118 151 192 245 297 345
#     4  10  21  38  60  89 119 152 196 243 292 346
#     4  10  22  39  58  85 121 158 192 237 296 348
#     4  11  23  39  60  88 120 155 197 240 289 350
#     4  10  22  40  62  87 120 158 194 240 296 348
#     4  11  24  39  59  87 121 159 197 239 291 351
#     4  10  22  42  64  87 117 154 196 243 297 348
#
# _framework density 19.212192000000002
#
# number of rings (size 3 to 8) (size 9 to 14) (size 15 to 20)
#    0.000    1.750    1.250    2.250    1.750    5.000 
#    0.000    0.000    0.000    0.000    0.000    0.000 
#    0.000    0.000    0.000    0.000    0.000    0.000 
#
# Total GULP energy -793987.634020 kJ/mol
# GULP energy per Si atom -12406.056782 kJ/mol
# Density = 1.916846 g / cm^3
# Si number density = 19.212192 Si / 1000 Ang^3
#
#
#
# Elastic Constant Matrix: (Units=GPa)
#
#
# Indices 1 2 3 4 5 6 
#
# 1 101.7886 55.2928 41.9091 0.0000 0.0000 0.0000
# 2 55.2928 142.7966 64.7089 0.0000 0.0000 0.0000
# 3 41.9091 64.7089 66.3071 0.0000 0.0000 0.0000
# 4 0.0000 0.0000 0.0000 -34.3552 0.0000 0.0000
# 5 0.0000 0.0000 0.0000 0.0000 30.5431 0.0000
# 6 0.0000 0.0000 0.0000 0.0000 0.0000 7.8383
#
#
#
# Elastic Compliance Matrix: (Units=1/GPa)
#
#
# Indices 1 2 3 4 5 6 
#
# 1 0.013755 -0.002486 -0.006268 0.000000 0.000000 0.000000
# 2 -0.002486 0.013005 -0.011120 0.000000 0.000000 0.000000
# 3 -0.006268 -0.011120 0.029895 0.000000 0.000000 0.000000
# 4 0.000000 0.000000 0.000000 -0.029108 0.000000 0.000000
# 5 0.000000 0.000000 0.000000 0.000000 0.032741 0.000000
# 6 0.000000 0.000000 0.000000 0.000000 0.000000 0.127579
#
#
# Mechanical properties :
#
#
# Convention : Reuss Voigt Hill
#
# Bulk Modulus (GPa) = 59.14656 70.52376 64.83516
# Shear Modulus (GPa) = 21.43621 10.73733 16.08677
#
# Velocity S-wave (km/s) = 3.34392 2.36663 2.89679
# Velocity P-wave (km/s) = 6.76475 6.65248 6.70885
#
# Compressibility (1/GPa) = 0.01690716
#
# Stress axis : x y z
#
# Youngs Moduli (GPa) = 72.69894 76.89600 33.45042
#
# Poissons Ratio (x) = 0.19115 0.20967
# Poissons Ratio (y) = 0.18072 0.37197
# Poissons Ratio (z) = 0.45568 0.85508
#
# Static dielectric constant tensor:
#      x y z
#    x 3.744610 0.000000 0.000000 
#    y 0.000000 3.528770 0.000000 
#    z 0.000000 0.000000 3.460370 
# 
# 
# High freq. dielectric constant tensor:
#      x y z
#    x 1.763570 0.000000 0.000000 
#    y 0.000000 1.758810 0.000000 
#    z 0.000000 0.000000 1.741730 
# 
# From -- ./inp_files/9815.got.cif
#   From: 2010.03.12/outbox.cif.g09.slc.cpg/sg55_5_cif.got.tgz:9815.got - 2010.04.16 15:19:21.
