data_PCOD8226201
_publ_section_title
;
Structure prediction by ZEFSAII (Michael W. Deem and Ramdas Pophale) SiO2 
 PCOD8226201
Probable space group: P B A M
;
_chemical_formula_sum "Si O2"
_cell_formula_units_Z 32
_cell_length_a 5.057788
_cell_length_b 15.724311
_cell_length_c 18.769528
_cell_angle_alpha 90.000000
_cell_angle_beta 90.000000
_cell_angle_gamma 90.000000
_cell_volume 1492.744907
_symmetry_space_group_name_H-M "P B A M"
_symmetry_group_IT_number 55
_symmetry_cell_setting 'orthorhombic'
loop_
_space_group_symop_operation_xyz
x,y,z
-x,-y,z
1/2+x,1/2-y,-z
1/2-x,1/2+y,-z
-x,-y,-z
x,y,-z
1/2-x,1/2+y,z
1/2+x,1/2-y,z
loop_
_atom_site_type_symbol
_atom_site_label
_atom_site_fract_x
_atom_site_fract_y
_atom_site_fract_z
Si Si1 0.258166 0.944179 0.580033
Si Si2 0.015310 0.899180 0.836103
Si Si3 0.101728 0.805410 0.308437
Si Si4 0.488432 0.101074 0.079321
O O1 0.335178 0.914555 0.500000
O O2 0.193843 0.861539 0.625386
O O3 0.500000 0.000000 0.612599
O O4 0.000000 0.000000 0.579032
O O5 0.117819 0.860322 0.762786
O O6 0.226081 0.867962 0.894743
O O7 0.733633 0.865523 0.865134
O O8 0.000000 0.000000 0.825639
O O9 0.299063 0.725407 0.311146
O O10 0.500000 0.000000 0.077672
O O11 0.430605 0.136440 0.000000
#
# Coordination Sequence:
#
# PCOD8226201 Si02
#       4
#     8   8   8   8
#     4  10  22  42  67  92 119 154 198 244 290 348
#     4  10  20  35  57  82 112 153 197 242 292 350
#     4  12  25  39  59  88 125 161 195 242 294 352
#     4   9  17  31  55  85 110 139 192 255 300 338
#
# _framework density 21.437017999999998
#
# number of rings (size 3 to 8) (size 9 to 14) (size 15 to 20)
#    0.000    1.750    0.000    4.500    0.000    7.000 
#    0.000    0.000    0.000   15.000    0.000    0.000 
#    0.000    0.000    0.000    0.000    0.000    0.000 
#
# Total GULP energy -396738.009616 kJ/mol
# GULP energy per Si atom -12398.062800 kJ/mol
# Density = 2.138823 g / cm^3
# Si number density = 21.437018 Si / 1000 Ang^3
#
#
#
# Elastic Constant Matrix: (Units=GPa)
#
#
# Indices 1 2 3 4 5 6 
#
# 1 128.4726 25.3869 33.9542 0.0000 0.0000 0.0000
# 2 25.3869 52.6225 44.6825 0.0000 0.0000 0.0000
# 3 33.9542 44.6825 122.3678 0.0000 0.0000 0.0000
# 4 0.0000 0.0000 0.0000 0.5990 0.0000 0.0000
# 5 0.0000 0.0000 0.0000 0.0000 -180.4965 0.0000
# 6 0.0000 0.0000 0.0000 0.0000 0.0000 36.6948
#
#
#
# Elastic Compliance Matrix: (Units=1/GPa)
#
#
# Indices 1 2 3 4 5 6 
#
# 1 0.008741 -0.003127 -0.001284 0.000000 0.000000 0.000000
# 2 -0.003127 0.028662 -0.009598 0.000000 0.000000 0.000000
# 3 -0.001284 -0.009598 0.012033 0.000000 0.000000 0.000000
# 4 0.000000 0.000000 0.000000 1.669406 0.000000 0.000000
# 5 0.000000 0.000000 0.000000 0.000000 -0.005540 0.000000
# 6 0.000000 0.000000 0.000000 0.000000 0.000000 0.027252
#
#
# Mechanical properties :
#
#
# Convention : Reuss Voigt Hill
#
# Bulk Modulus (GPa) = 46.68925 56.83446 51.76186
# Shear Modulus (GPa) = 2.81577 -15.34458 -6.26440
#
# Velocity S-wave (km/s) = 1.14733 -2.67834 -1.71131
# Velocity P-wave (km/s) = 4.85615 4.12373 4.50485
#
# Compressibility (1/GPa) = 0.02141821
#
# Stress axis : x y z
#
# Youngs Moduli (GPa) = 114.40450 34.88969 83.10481
#
# Poissons Ratio (x) = 0.10910 0.10667
# Poissons Ratio (y) = 0.35775 0.79765
# Poissons Ratio (z) = 0.14685 0.33488
#
# Static dielectric constant tensor:
#      x y z
#    x 4.110130 0.000000 0.000000 
#    y 0.000000 3.535110 0.000000 
#    z 0.000000 0.000000 4.085340 
# 
# 
# High freq. dielectric constant tensor:
#      x y z
#    x 1.861350 0.000000 0.000000 
#    y 0.000000 1.814920 0.000000 
#    z 0.000000 0.000000 1.847870 
# 
# From -- ./inp_files/16441.got.cif
#   From: 2010.03.12/outbox.cif.g09.slc.cpg/sg55_9_cif.got.tgz:16441.got - 2010.04.16 15:19:21.
