data_PCOD8226678
_publ_section_title
;
Structure prediction by ZEFSAII (Michael W. Deem and Ramdas Pophale) SiO2 
 PCOD8226678
Probable space group: P B A M
;
_chemical_formula_sum "Si O2"
_cell_formula_units_Z 48
_cell_length_a 11.865232
_cell_length_b 23.302017
_cell_length_c 8.996388
_cell_angle_alpha 90.000000
_cell_angle_beta 90.000000
_cell_angle_gamma 90.000000
_cell_volume 2487.355880
_symmetry_space_group_name_H-M "P B A M"
_symmetry_group_IT_number 55
_symmetry_cell_setting 'orthorhombic'
loop_
_space_group_symop_operation_xyz
x,y,z
-x,-y,z
1/2+x,1/2-y,-z
1/2-x,1/2+y,-z
-x,-y,-z
x,y,-z
1/2-x,1/2+y,z
1/2+x,1/2-y,z
loop_
_atom_site_type_symbol
_atom_site_label
_atom_site_fract_x
_atom_site_fract_y
_atom_site_fract_z
Si Si1 0.413288 0.335347 0.671504
Si Si2 0.796027 0.450643 0.674456
Si Si3 0.157141 0.724087 0.169561
Si Si4 0.790675 0.582760 0.329298
Si Si5 0.510672 0.884366 0.827488
Si Si6 0.855441 0.860787 0.172829
O O1 0.449205 0.331288 0.500000
O O2 0.352786 0.276623 0.718194
O O3 0.328923 0.387782 0.699558
O O4 0.521431 0.345423 0.771918
O O5 0.798073 0.439834 0.500000
O O6 0.777779 0.516713 0.715912
O O7 0.915355 0.431012 0.740398
O O8 0.691420 0.416160 0.742302
O O9 0.056439 0.679507 0.201259
O O10 0.276172 0.693899 0.202215
O O11 0.151226 0.746294 0.000000
O O12 0.828701 0.589299 0.500000
O O13 0.882887 0.613773 0.227509
O O14 0.518200 0.900243 0.000000
O O15 0.858287 0.876285 0.000000
#
# Coordination Sequence:
#
# PCOD8226678 Si02
#       6
#     8   8   8   8   8   8
#     4  11  24  39  58  86 117 153 196 240 287 344
#     4  10  20  38  62  85 117 156 194 240 293 345
#     4   9  21  40  59  82 114 151 190 239 293 344
#     4  10  23  39  56  86 122 155 194 242 292 344
#     4  10  21  37  60  89 118 153 195 242 295 347
#     4  10  22  41  62  85 116 152 194 239 291 349
#
# _framework density 19.297601
#
# number of rings (size 3 to 8) (size 9 to 14) (size 15 to 20)
#    0.000    2.000    0.000    3.500    2.333    9.333 
#    0.000    3.333    0.000    0.000    0.000    0.000 
#    0.000    0.000    0.000    0.000    0.000    0.000 
#
# Total GULP energy -595479.097639 kJ/mol
# GULP energy per Si atom -12405.814534 kJ/mol
# Density = 1.925368 g / cm^3
# Si number density = 19.297601 Si / 1000 Ang^3
#
#
#
# Elastic Constant Matrix: (Units=GPa)
#
#
# Indices 1 2 3 4 5 6 
#
# 1 89.3229 23.4318 30.2656 0.0000 0.0000 0.0000
# 2 23.4318 69.6793 26.0786 0.0000 0.0000 0.0000
# 3 30.2656 26.0786 73.8095 0.0000 0.0000 0.0000
# 4 0.0000 0.0000 0.0000 21.3330 0.0000 0.0000
# 5 0.0000 0.0000 0.0000 0.0000 36.6491 0.0000
# 6 0.0000 0.0000 0.0000 0.0000 0.0000 19.1708
#
#
#
# Elastic Compliance Matrix: (Units=1/GPa)
#
#
# Indices 1 2 3 4 5 6 
#
# 1 0.013472 -0.002838 -0.004521 0.000000 0.000000 0.000000
# 2 -0.002838 0.017136 -0.004891 0.000000 0.000000 0.000000
# 3 -0.004521 -0.004891 0.017130 0.000000 0.000000 0.000000
# 4 0.000000 0.000000 0.000000 0.046876 0.000000 0.000000
# 5 0.000000 0.000000 0.000000 0.000000 0.027286 0.000000
# 6 0.000000 0.000000 0.000000 0.000000 0.000000 0.052163
#
#
# Mechanical properties :
#
#
# Convention : Reuss Voigt Hill
#
# Bulk Modulus (GPa) = 43.03316 43.59596 43.31456
# Shear Modulus (GPa) = 24.23543 25.63297 24.93420
#
# Velocity S-wave (km/s) = 3.54768 3.64854 3.59846
# Velocity P-wave (km/s) = 6.25536 6.35528 6.30552
#
# Compressibility (1/GPa) = 0.02323789
#
# Stress axis : x y z
#
# Youngs Moduli (GPa) = 74.22889 58.35540 58.37560
#
# Poissons Ratio (x) = 0.16562 0.26394
# Poissons Ratio (y) = 0.21067 0.28551
# Poissons Ratio (z) = 0.33562 0.28541
#
# Static dielectric constant tensor:
#      x y z
#    x 3.497600 0.000000 0.000000 
#    y 0.000000 3.529650 0.000000 
#    z 0.000000 0.000000 3.591290 
# 
# 
# High freq. dielectric constant tensor:
#      x y z
#    x 1.753940 0.000000 0.000000 
#    y 0.000000 1.753710 0.000000 
#    z 0.000000 0.000000 1.761300 
# 
# From -- ./inp_files/4043.got.cif
#   From: 2010.03.12/outbox.cif.g09.slc.cpg/sg55_3_cif.got.tgz:4043.got - 2010.04.16 15:19:21.
