data_PCOD8226513
_publ_section_title
;
Structure prediction by ZEFSAII (Michael W. Deem and Ramdas Pophale) SiO2 
 PCOD8226513
Probable space group: P B A M
;
_chemical_formula_sum "Si O2"
_cell_formula_units_Z 64
_cell_length_a 8.796034
_cell_length_b 10.884106
_cell_length_c 30.997400
_cell_angle_alpha 90.000000
_cell_angle_beta 90.000000
_cell_angle_gamma 90.000000
_cell_volume 2967.597043
_symmetry_space_group_name_H-M "P B A M"
_symmetry_group_IT_number 55
_symmetry_cell_setting 'orthorhombic'
loop_
_space_group_symop_operation_xyz
x,y,z
-x,-y,z
1/2+x,1/2-y,-z
1/2-x,1/2+y,-z
-x,-y,-z
x,y,-z
1/2-x,1/2+y,z
1/2+x,1/2-y,z
loop_
_atom_site_type_symbol
_atom_site_label
_atom_site_fract_x
_atom_site_fract_y
_atom_site_fract_z
Si Si1 0.786639 0.250537 0.102935
Si Si2 0.130314 0.167275 0.748002
Si Si3 0.806094 0.090361 0.282902
Si Si4 0.513619 0.790395 0.418294
Si Si5 0.541520 0.138464 0.952657
Si Si6 0.226797 0.899006 0.380540
Si Si7 0.297527 0.590149 0.547614
Si Si8 0.041890 0.137319 0.841916
O O1 0.680152 0.147531 0.081050
O O2 0.674499 0.355050 0.122109
O O3 0.890735 0.297452 0.064684
O O4 0.886705 0.200139 0.142166
O O5 0.200819 0.293140 0.729407
O O6 0.098435 0.199672 0.797961
O O7 0.976026 0.138805 0.722999
O O8 0.228016 0.038426 0.743318
O O9 0.783745 0.049993 0.332354
O O10 0.403914 0.875992 0.390075
O O11 0.624272 0.722436 0.384366
O O12 0.621288 0.870626 0.449068
O O13 0.410346 0.705062 0.448456
O O14 0.500000 0.000000 0.958634
O O15 0.581971 0.194722 0.000000
O O16 0.158781 0.994604 0.415106
O O17 0.320172 0.531120 0.500000
O O18 0.000000 0.000000 0.830781
#
# Coordination Sequence:
#
# PCOD8226513 Si02
#       8
#     8   8   8   8   8   8   8   8
#     4  10  22  36  62  89 127 171 213 273 328 383
#     4  11  25  45  69  97 131 176 211 284 320 406
#     4  11  25  44  69  97 133 168 219 260 340 379
#     4  10  24  41  63  91 124 162 207 249 315 360
#     4  10  20  37  58  91 127 170 219 266 324 386
#     4  11  24  41  66  90 125 164 204 259 305 393
#     4  11  24  42  65  94 126 164 206 255 312 372
#     4  11  21  40  62  90 126 165 223 266 334 388
#
# _framework density 21.566271
#
# number of rings (size 3 to 8) (size 9 to 14) (size 15 to 20)
#    0.000    1.375    1.250    3.750    7.000    4.500 
#    2.250    0.000    0.000    6.000    0.000    0.000 
#    0.000    0.000    0.000    0.000    0.000    0.000 
#
# Total GULP energy -793358.615587 kJ/mol
# GULP energy per Si atom -12396.228369 kJ/mol
# Density = 2.151718 g / cm^3
# Si number density = 21.566271 Si / 1000 Ang^3
#
#
#
# Elastic Constant Matrix: (Units=GPa)
#
#
# Indices 1 2 3 4 5 6 
#
# 1 98.5999 19.7310 36.5831 0.0000 0.0000 0.0000
# 2 19.7310 72.3878 38.3356 0.0000 0.0000 0.0000
# 3 36.5831 38.3356 158.0290 0.0000 0.0000 0.0000
# 4 0.0000 0.0000 0.0000 33.0050 0.0000 0.0000
# 5 0.0000 0.0000 0.0000 0.0000 21.1370 0.0000
# 6 0.0000 0.0000 0.0000 0.0000 0.0000 32.3897
#
#
#
# Elastic Compliance Matrix: (Units=1/GPa)
#
#
# Indices 1 2 3 4 5 6 
#
# 1 0.011330 -0.001950 -0.002150 0.000000 0.000000 0.000000
# 2 -0.001950 0.016186 -0.003475 0.000000 0.000000 0.000000
# 3 -0.002150 -0.003475 0.007669 0.000000 0.000000 0.000000
# 4 0.000000 0.000000 0.000000 0.030298 0.000000 0.000000
# 5 0.000000 0.000000 0.000000 0.000000 0.047310 0.000000
# 6 0.000000 0.000000 0.000000 0.000000 0.000000 0.030874
#
#
# Mechanical properties :
#
#
# Convention : Reuss Voigt Hill
#
# Bulk Modulus (GPa) = 49.91185 57.59068 53.75126
# Shear Modulus (GPa) = 30.21227 32.93080 31.57154
#
# Velocity S-wave (km/s) = 3.74693 3.91187 3.83029
# Velocity P-wave (km/s) = 6.47402 6.86773 6.67378
#
# Compressibility (1/GPa) = 0.02003532
#
# Stress axis : x y z
#
# Youngs Moduli (GPa) = 88.26287 61.78043 130.40057
#
# Poissons Ratio (x) = 0.12045 0.28034
# Poissons Ratio (y) = 0.17208 0.45317
# Poissons Ratio (z) = 0.18975 0.21470
#
# Static dielectric constant tensor:
#      x y z
#    x 4.043840 0.000000 0.000000 
#    y 0.000000 4.173380 0.000000 
#    z 0.000000 0.000000 3.942770 
# 
# 
# High freq. dielectric constant tensor:
#      x y z
#    x 1.858610 0.000000 0.000000 
#    y 0.000000 1.838020 0.000000 
#    z 0.000000 0.000000 1.851570 
# 
# From -- ./inp_files/24152.got.cif
#   From: 2010.03.12/outbox.cif.g09.slc.cpg/sg55_13_cif.got.tgz:24152.got - 2010.04.16 15:19:21.
