data_PCOD8226577
_publ_section_title
;
Structure prediction by ZEFSAII (Michael W. Deem and Ramdas Pophale) SiO2 
 PCOD8226577
Probable space group: P B A M
;
_chemical_formula_sum "Si O2"
_cell_formula_units_Z 64
_cell_length_a 24.028156
_cell_length_b 15.192023
_cell_length_c 8.996230
_cell_angle_alpha 90.000000
_cell_angle_beta 90.000000
_cell_angle_gamma 90.000000
_cell_volume 3283.950501
_symmetry_space_group_name_H-M "P B A M"
_symmetry_group_IT_number 55
_symmetry_cell_setting 'orthorhombic'
loop_
_space_group_symop_operation_xyz
x,y,z
-x,-y,z
1/2+x,1/2-y,-z
1/2-x,1/2+y,-z
-x,-y,-z
x,y,-z
1/2-x,1/2+y,z
1/2+x,1/2-y,z
loop_
_atom_site_type_symbol
_atom_site_label
_atom_site_fract_x
_atom_site_fract_y
_atom_site_fract_z
Si Si1 0.927641 0.245313 0.322636
Si Si2 0.382066 0.646898 0.330896
Si Si3 0.691755 0.750698 0.175762
Si Si4 0.504566 0.397482 0.824496
Si Si5 0.723652 0.402280 0.832526
Si Si6 0.125692 0.348334 0.332279
Si Si7 0.769615 0.595884 0.833603
Si Si8 0.507217 0.098731 0.323080
O O1 0.928988 0.236026 0.500000
O O2 0.865138 0.255557 0.266185
O O3 0.959948 0.333338 0.267900
O O4 0.955738 0.157758 0.254546
O O5 0.396221 0.619370 0.500000
O O6 0.435992 0.636039 0.230285
O O7 0.330750 0.590715 0.269844
O O8 0.360539 0.746099 0.321629
O O9 0.730543 0.832599 0.223633
O O10 0.722836 0.661910 0.229485
O O11 0.678620 0.750986 0.000000
O O12 0.500000 0.500000 0.781532
O O13 0.499303 0.383231 0.000000
O O14 0.749490 0.497460 0.825517
O O15 0.705273 0.377237 0.000000
O O16 0.124299 0.382551 0.500000
O O17 0.173108 0.403178 0.253509
O O18 0.065843 0.366990 0.258792
O O19 0.782788 0.626947 0.000000
O O20 0.506777 0.098647 0.500000
O O21 0.500000 0.000000 0.259863
#
# Coordination Sequence:
#
# PCOD8226577 Si02
#       8
#     8   8   8   8   8   8   8   8
#     4  11  23  40  62  89 122 156 198 250 300 351
#     4  11  22  39  63  91 120 150 197 254 299 348
#     4  10  22  40  58  82 121 161 198 243 294 351
#     4  11  25  43  64  88 118 160 202 241 298 365
#     4  10  22  40  61  86 119 160 202 243 293 354
#     4  10  20  37  61  87 118 151 194 245 292 350
#     4  10  22  39  60  85 116 155 199 243 290 348
#     4   9  19  37  59  85 119 158 192 233 295 356
#
# _framework density 19.488721999999999
#
# number of rings (size 3 to 8) (size 9 to 14) (size 15 to 20)
#    0.000    1.750    2.500    1.125    3.500    3.000 
#    0.000    0.000    0.000    1.875    0.000    0.000 
#    0.000    0.000    0.000    0.000    0.000    0.000 
#
# Total GULP energy -793670.524041 kJ/mol
# GULP energy per Si atom -12401.101938 kJ/mol
# Density = 1.944436 g / cm^3
# Si number density = 19.488722 Si / 1000 Ang^3
#
#
#
# Elastic Constant Matrix: (Units=GPa)
#
#
# Indices 1 2 3 4 5 6 
#
# 1 133.4442 35.6969 39.4149 0.0000 0.0000 0.0000
# 2 35.6969 100.6863 31.9181 0.0000 0.0000 0.0000
# 3 39.4149 31.9181 57.9400 0.0000 0.0000 0.0000
# 4 0.0000 0.0000 0.0000 5.1429 0.0000 0.0000
# 5 0.0000 0.0000 0.0000 0.0000 39.0646 0.0000
# 6 0.0000 0.0000 0.0000 0.0000 0.0000 24.4065
#
#
#
# Elastic Compliance Matrix: (Units=1/GPa)
#
#
# Indices 1 2 3 4 5 6 
#
# 1 0.009590 -0.001614 -0.005635 0.000000 0.000000 0.000000
# 2 -0.001614 0.012305 -0.005681 0.000000 0.000000 0.000000
# 3 -0.005635 -0.005681 0.024222 0.000000 0.000000 0.000000
# 4 0.000000 0.000000 0.000000 0.194441 0.000000 0.000000
# 5 0.000000 0.000000 0.000000 0.000000 0.025599 0.000000
# 6 0.000000 0.000000 0.000000 0.000000 0.000000 0.040973
#
#
# Mechanical properties :
#
#
# Convention : Reuss Voigt Hill
#
# Bulk Modulus (GPa) = 49.36305 56.23671 52.79988
# Shear Modulus (GPa) = 14.71715 26.05886 20.38800
#
# Velocity S-wave (km/s) = 2.75100 3.66064 3.23792
# Velocity P-wave (km/s) = 5.95606 6.84001 6.41328
#
# Compressibility (1/GPa) = 0.02025807
#
# Stress axis : x y z
#
# Youngs Moduli (GPa) = 104.27829 81.26922 41.28524
#
# Poissons Ratio (x) = 0.13114 0.23263
# Poissons Ratio (y) = 0.16827 0.23453
# Poissons Ratio (z) = 0.58757 0.46167
#
# Static dielectric constant tensor:
#      x y z
#    x 3.554470 0.000000 0.000000 
#    y 0.000000 3.694540 0.000000 
#    z 0.000000 0.000000 3.504390 
# 
# 
# High freq. dielectric constant tensor:
#      x y z
#    x 1.770340 0.000000 0.000000 
#    y 0.000000 1.768700 0.000000 
#    z 0.000000 0.000000 1.743630 
# 
# From -- ./inp_files/9769.got.cif
#   From: 2010.03.12/outbox.cif.g09.slc.cpg/sg55_5_cif.got.tgz:9769.got - 2010.04.16 15:19:21.
