data_PCOD8226583
_publ_section_title
;
Structure prediction by ZEFSAII (Michael W. Deem and Ramdas Pophale) SiO2 
 PCOD8226583
Probable space group: P B A M
;
_chemical_formula_sum "Si O2"
_cell_formula_units_Z 56
_cell_length_a 19.836353
_cell_length_b 16.481456
_cell_length_c 8.457642
_cell_angle_alpha 90.000000
_cell_angle_beta 90.000000
_cell_angle_gamma 90.000000
_cell_volume 2765.073638
_symmetry_space_group_name_H-M "P B A M"
_symmetry_group_IT_number 55
_symmetry_cell_setting 'orthorhombic'
loop_
_space_group_symop_operation_xyz
x,y,z
-x,-y,z
1/2+x,1/2-y,-z
1/2-x,1/2+y,-z
-x,-y,-z
x,y,-z
1/2-x,1/2+y,z
1/2+x,1/2-y,z
loop_
_atom_site_type_symbol
_atom_site_label
_atom_site_fract_x
_atom_site_fract_y
_atom_site_fract_z
Si Si1 0.849105 0.654533 0.183499
Si Si2 0.606887 0.811272 0.815074
Si Si3 0.184397 0.986089 0.184989
Si Si4 0.555870 0.436647 0.684753
Si Si5 0.831284 0.474953 0.814518
Si Si6 0.530089 0.252858 0.317633
Si Si7 0.206359 0.814933 0.317041
O O1 0.864403 0.561201 0.233633
O O2 0.914939 0.707153 0.213036
O O3 0.785967 0.688494 0.281372
O O4 0.829007 0.657629 0.000000
O O5 0.626279 0.900001 0.744203
O O6 0.543296 0.781417 0.716504
O O7 0.670075 0.752541 0.788430
O O8 0.588361 0.813572 0.000000
O O9 0.173640 0.901844 0.276809
O O10 0.124662 0.048027 0.221512
O O11 0.253823 0.027101 0.244985
O O12 0.188359 0.966142 0.000000
O O13 0.500000 0.500000 0.744670
O O14 0.570111 0.447722 0.500000
O O15 0.530033 0.347386 0.727606
O O16 0.831692 0.461923 0.000000
O O17 0.548465 0.239681 0.500000
O O18 0.193668 0.795765 0.500000
#
# Coordination Sequence:
#
# PCOD8226583 Si02
#       7
#     8   8   8   8   8   8   8
#     4  10  21  41  64  87 117 159 206 252 301 360
#     4  11  22  39  62  88 118 157 203 251 302 361
#     4  10  20  37  61  89 116 151 200 248 297 359
#     4  10  22  39  58  82 120 162 198 245 303 359
#     4   8  19  38  60  87 115 148 197 254 299 345
#     4  11  24  40  58  89 126 160 201 250 308 367
#     4  11  22  38  60  89 124 159 195 247 307 362
#
# _framework density 20.252624999999998
#
# number of rings (size 3 to 8) (size 9 to 14) (size 15 to 20)
#    0.000    1.857    0.000    4.714    2.000    3.143 
#    0.000   10.714    0.000    0.000    0.000    0.000 
#    0.000    0.000    0.000    0.000    0.000    0.000 
#
# Total GULP energy -694594.815044 kJ/mol
# GULP energy per Si atom -12403.478840 kJ/mol
# Density = 2.020653 g / cm^3
# Si number density = 20.252625 Si / 1000 Ang^3
#
#
#
# Elastic Constant Matrix: (Units=GPa)
#
#
# Indices 1 2 3 4 5 6 
#
# 1 100.1267 74.0383 16.4139 0.0000 0.0000 0.0000
# 2 74.0383 87.3727 20.2720 0.0000 0.0000 0.0000
# 3 16.4139 20.2720 49.6352 0.0000 0.0000 0.0000
# 4 0.0000 0.0000 0.0000 25.8266 0.0000 0.0000
# 5 0.0000 0.0000 0.0000 0.0000 33.0891 0.0000
# 6 0.0000 0.0000 0.0000 0.0000 0.0000 41.0391
#
#
#
# Elastic Compliance Matrix: (Units=1/GPa)
#
#
# Indices 1 2 3 4 5 6 
#
# 1 0.026756 -0.022778 0.000455 0.000000 0.000000 0.000000
# 2 -0.022778 0.032035 -0.005551 0.000000 0.000000 0.000000
# 3 0.000455 -0.005551 0.022264 0.000000 0.000000 0.000000
# 4 0.000000 0.000000 0.000000 0.038720 0.000000 0.000000
# 5 0.000000 0.000000 0.000000 0.000000 0.030221 0.000000
# 6 0.000000 0.000000 0.000000 0.000000 0.000000 0.024367
#
#
# Mechanical properties :
#
#
# Convention : Reuss Voigt Hill
#
# Bulk Modulus (GPa) = 39.51607 50.95367 45.23487
# Shear Modulus (GPa) = 20.96026 28.41834 24.68930
#
# Velocity S-wave (km/s) = 3.22054 3.74999 3.49530
# Velocity P-wave (km/s) = 5.77781 6.63050 6.21879
#
# Compressibility (1/GPa) = 0.02530616
#
# Stress axis : x y z
#
# Youngs Moduli (GPa) = 37.37487 31.21582 44.91618
#
# Poissons Ratio (x) = 0.71104 -0.02044
# Poissons Ratio (y) = 0.85133 0.24934
# Poissons Ratio (z) = -0.01701 0.17329
#
# Static dielectric constant tensor:
#      x y z
#    x 3.619820 0.000000 0.000000 
#    y 0.000000 3.895510 0.000000 
#    z 0.000000 0.000000 3.468650 
# 
# 
# High freq. dielectric constant tensor:
#      x y z
#    x 1.793390 0.000000 0.000000 
#    y 0.000000 1.799600 0.000000 
#    z 0.000000 0.000000 1.781550 
# 
# From -- ./inp_files/6093.got.cif
#   From: 2010.03.12/outbox.cif.g09.slc.cpg/sg55_4_cif.got.tgz:6093.got - 2010.04.16 15:19:21.
