data_PCOD8226106
_publ_section_title
;
Structure prediction by ZEFSAII (Michael W. Deem and Ramdas Pophale) SiO2 
 PCOD8226106
Probable space group: P B A M
;
_chemical_formula_sum "Si O2"
_cell_formula_units_Z 48
_cell_length_a 22.090705
_cell_length_b 10.255505
_cell_length_c 10.423043
_cell_angle_alpha 90.000000
_cell_angle_beta 90.000000
_cell_angle_gamma 90.000000
_cell_volume 2361.354312
_symmetry_space_group_name_H-M "P B A M"
_symmetry_group_IT_number 55
_symmetry_cell_setting 'orthorhombic'
loop_
_space_group_symop_operation_xyz
x,y,z
-x,-y,z
1/2+x,1/2-y,-z
1/2-x,1/2+y,-z
-x,-y,-z
x,y,-z
1/2-x,1/2+y,z
1/2+x,1/2-y,z
loop_
_atom_site_type_symbol
_atom_site_label
_atom_site_fract_x
_atom_site_fract_y
_atom_site_fract_z
Si Si1 0.704939 0.820846 0.355515
Si Si2 0.531992 0.136741 0.644390
Si Si3 0.743448 0.082830 0.220673
Si Si4 0.624696 0.206796 0.858344
Si Si5 0.129139 0.991960 0.141892
Si Si6 0.581528 0.687902 0.353505
O O1 0.716216 0.864048 0.500000
O O2 0.743468 0.689153 0.331553
O O3 0.633742 0.795087 0.329438
O O4 0.726949 0.940264 0.270830
O O5 0.558865 0.150253 0.500000
O O6 0.584894 0.141644 0.747982
O O7 0.483642 0.249829 0.671047
O O8 0.500000 0.000000 0.660434
O O9 0.689085 0.135029 0.133925
O O10 0.804190 0.070856 0.137252
O O11 0.634349 0.356941 0.823603
O O12 0.594703 0.191496 0.000000
O O13 0.087408 0.929343 0.252147
O O14 0.100444 0.969795 0.000000
O O15 0.586851 0.634294 0.500000
#
# Coordination Sequence:
#
# PCOD8226106 Si02
#       6
#     8   8   8   8   8   8
#     4  10  20  34  59  89 121 156 200 254 306 364
#     4  10  22  42  65  89 121 160 203 254 310 365
#     4  11  20  39  57  87 123 163 204 249 309 367
#     4  11  24  40  61  91 123 161 208 254 304 368
#     4  10  22  40  60  87 122 162 203 249 308 367
#     4   9  20  39  61  88 119 156 202 249 303 362
#
# _framework density 20.327317000000001
#
# number of rings (size 3 to 8) (size 9 to 14) (size 15 to 20)
#    0.000    1.833    1.667    2.000    0.000    5.667 
#    0.000    7.500    0.000    0.000    0.000    0.000 
#    0.000    0.000    0.000    0.000    0.000    0.000 
#
# Total GULP energy -595143.908308 kJ/mol
# GULP energy per Si atom -12398.831423 kJ/mol
# Density = 2.028105 g / cm^3
# Si number density = 20.327317 Si / 1000 Ang^3
#
#
#
# Elastic Constant Matrix: (Units=GPa)
#
#
# Indices 1 2 3 4 5 6 
#
# 1 60.2514 2.9458 29.3182 0.0000 0.0000 0.0000
# 2 2.9458 83.5489 33.6243 0.0000 0.0000 0.0000
# 3 29.3182 33.6243 111.5607 0.0000 0.0000 0.0000
# 4 0.0000 0.0000 0.0000 25.0296 0.0000 0.0000
# 5 0.0000 0.0000 0.0000 0.0000 22.1896 0.0000
# 6 0.0000 0.0000 0.0000 0.0000 0.0000 21.7052
#
#
#
# Elastic Compliance Matrix: (Units=1/GPa)
#
#
# Indices 1 2 3 4 5 6 
#
# 1 0.019203 0.001541 -0.005511 0.000000 0.000000 0.000000
# 2 0.001541 0.013745 -0.004548 0.000000 0.000000 0.000000
# 3 -0.005511 -0.004548 0.011783 0.000000 0.000000 0.000000
# 4 0.000000 0.000000 0.000000 0.039953 0.000000 0.000000
# 5 0.000000 0.000000 0.000000 0.000000 0.045066 0.000000
# 6 0.000000 0.000000 0.000000 0.000000 0.000000 0.046072
#
#
# Mechanical properties :
#
#
# Convention : Reuss Voigt Hill
#
# Bulk Modulus (GPa) = 36.10715 43.01527 39.56121
# Shear Modulus (GPa) = 24.74154 26.41640 25.57897
#
# Velocity S-wave (km/s) = 3.49256 3.60884 3.55118
# Velocity P-wave (km/s) = 5.83656 6.21065 6.02651
#
# Compressibility (1/GPa) = 0.02769534
#
# Stress axis : x y z
#
# Youngs Moduli (GPa) = 52.07393 72.75418 84.87017
#
# Poissons Ratio (x) = -0.11210 0.46773
# Poissons Ratio (y) = -0.08024 0.38596
# Poissons Ratio (z) = 0.28698 0.33086
#
# Static dielectric constant tensor:
#      x y z
#    x 3.676820 0.000000 0.000000 
#    y 0.000000 3.644280 0.000000 
#    z 0.000000 0.000000 3.651560 
# 
# 
# High freq. dielectric constant tensor:
#      x y z
#    x 1.786580 0.000000 0.000000 
#    y 0.000000 1.799360 0.000000 
#    z 0.000000 0.000000 1.795570 
# 
# From -- ./inp_files/15619.got.cif
#   From: 2010.03.12/outbox.cif.g09.slc.cpg/sg55_8_cif.got.tgz:15619.got - 2010.04.16 15:19:21.
