data_PCOD8226175
_publ_section_title
;
Structure prediction by ZEFSAII (Michael W. Deem and Ramdas Pophale) SiO2 
 PCOD8226175
Probable space group: P B A M
;
_chemical_formula_sum "Si O2"
_cell_formula_units_Z 64
_cell_length_a 19.057807
_cell_length_b 19.676998
_cell_length_c 9.240466
_cell_angle_alpha 90.000000
_cell_angle_beta 90.000000
_cell_angle_gamma 90.000000
_cell_volume 3465.178725
_symmetry_space_group_name_H-M "P B A M"
_symmetry_group_IT_number 55
_symmetry_cell_setting 'orthorhombic'
loop_
_space_group_symop_operation_xyz
x,y,z
-x,-y,z
1/2+x,1/2-y,-z
1/2-x,1/2+y,-z
-x,-y,-z
x,y,-z
1/2-x,1/2+y,z
1/2+x,1/2-y,z
loop_
_atom_site_type_symbol
_atom_site_label
_atom_site_fract_x
_atom_site_fract_y
_atom_site_fract_z
Si Si1 0.572429 0.536810 0.168818
Si Si2 0.530541 0.072191 0.167671
Si Si3 0.218771 0.642230 0.330233
Si Si4 0.209142 0.003876 0.328143
Si Si5 0.247936 0.768989 0.162725
Si Si6 0.908918 0.190726 0.833432
Si Si7 0.437540 0.177925 0.328654
Si Si8 0.809679 0.592975 0.165382
O O1 0.500000 0.500000 0.206101
O O2 0.632100 0.499006 0.260149
O O3 0.565774 0.615857 0.213825
O O4 0.591892 0.530944 0.000000
O O5 0.497684 0.130314 0.265986
O O6 0.612742 0.067839 0.200141
O O7 0.500000 0.000000 0.215045
O O8 0.514762 0.088465 0.000000
O O9 0.224734 0.648385 0.500000
O O10 0.252689 0.572572 0.274529
O O11 0.262381 0.705046 0.265187
O O12 0.137696 0.647081 0.279932
O O13 0.202813 0.000450 0.500000
O O14 0.255746 0.941562 0.274153
O O15 0.173988 0.805364 0.194618
O O16 0.307268 0.825717 0.189959
O O17 0.250345 0.740864 0.000000
O O18 0.948041 0.246581 0.735388
O O19 0.928085 0.205366 0.000000
O O20 0.444834 0.181635 0.500000
O O21 0.787782 0.575776 0.000000
#
# Coordination Sequence:
#
# PCOD8226175 Si02
#       8
#     8   8   8   8   8   8   8   8
#     4  10  21  39  61  83 109 144 186 233 283 335
#     4  10  21  36  55  81 113 149 187 231 281 328
#     4   9  20  36  53  79 113 146 180 222 270 329
#     4  11  22  36  57  84 114 146 180 226 282 334
#     4   9  17  32  55  79 101 134 179 228 271 315
#     4   9  17  34  58  80 106 139 182 229 273 327
#     4  10  20  35  56  81 112 150 190 228 272 331
#     4  10  20  36  57  81 111 143 187 235 272 329
#
# _framework density 18.469465
#
# number of rings (size 3 to 8) (size 9 to 14) (size 15 to 20)
#    0.000    2.250    1.250    1.500    0.000    3.500 
#    2.250    0.000    0.000    0.000    0.000    0.000 
#    0.000    0.000    0.000    0.000    0.000    0.000 
#
# Total GULP energy -793788.796177 kJ/mol
# GULP energy per Si atom -12402.949940 kJ/mol
# Density = 1.842743 g / cm^3
# Si number density = 18.469465 Si / 1000 Ang^3
#
#
#
# Elastic Constant Matrix: (Units=GPa)
#
#
# Indices 1 2 3 4 5 6 
#
# 1 77.2800 41.7386 37.5289 0.0000 0.0000 0.0000
# 2 41.7386 109.0596 43.8479 0.0000 0.0000 0.0000
# 3 37.5289 43.8479 57.3088 0.0000 0.0000 0.0000
# 4 0.0000 0.0000 0.0000 26.5182 0.0000 0.0000
# 5 0.0000 0.0000 0.0000 0.0000 25.8825 0.0000
# 6 0.0000 0.0000 0.0000 0.0000 0.0000 31.9439
#
#
#
# Elastic Compliance Matrix: (Units=1/GPa)
#
#
# Indices 1 2 3 4 5 6 
#
# 1 0.019819 -0.003418 -0.010363 0.000000 0.000000 0.000000
# 2 -0.003418 0.013833 -0.008345 0.000000 0.000000 0.000000
# 3 -0.010363 -0.008345 0.030620 0.000000 0.000000 0.000000
# 4 0.000000 0.000000 0.000000 0.037710 0.000000 0.000000
# 5 0.000000 0.000000 0.000000 0.000000 0.038636 0.000000
# 6 0.000000 0.000000 0.000000 0.000000 0.000000 0.031305
#
#
# Mechanical properties :
#
#
# Convention : Reuss Voigt Hill
#
# Bulk Modulus (GPa) = 49.95219 54.43101 52.19160
# Shear Modulus (GPa) = 22.43675 24.90444 23.67059
#
# Velocity S-wave (km/s) = 3.48918 3.67606 3.58384
# Velocity P-wave (km/s) = 6.58309 6.89584 6.74128
#
# Compressibility (1/GPa) = 0.02001914
#
# Stress axis : x y z
#
# Youngs Moduli (GPa) = 50.45749 72.29202 32.65793
#
# Poissons Ratio (x) = 0.24713 0.33843
# Poissons Ratio (y) = 0.17249 0.27253
# Poissons Ratio (z) = 0.52288 0.60328
#
# Static dielectric constant tensor:
#      x y z
#    x 3.292830 0.000000 0.000000 
#    y 0.000000 3.518420 0.000000 
#    z 0.000000 0.000000 3.322200 
# 
# 
# High freq. dielectric constant tensor:
#      x y z
#    x 1.702560 0.000000 0.000000 
#    y 0.000000 1.725450 0.000000 
#    z 0.000000 0.000000 1.711930 
# 
# From -- ./inp_files/9033.got.cif
#   From: 2010.03.12/outbox.cif.g09.slc.cpg/sg55_5_cif.got.tgz:9033.got - 2010.04.16 15:19:21.
