data_PCOD8226276
_publ_section_title
;
Structure prediction by ZEFSAII (Michael W. Deem and Ramdas Pophale) SiO2 
 PCOD8226276
Probable space group: P B A M
;
_chemical_formula_sum "Si O2"
_cell_formula_units_Z 48
_cell_length_a 29.459099
_cell_length_b 5.075033
_cell_length_c 13.743627
_cell_angle_alpha 90.000000
_cell_angle_beta 90.000000
_cell_angle_gamma 90.000000
_cell_volume 2054.753318
_symmetry_space_group_name_H-M "P B A M"
_symmetry_group_IT_number 55
_symmetry_cell_setting 'orthorhombic'
loop_
_space_group_symop_operation_xyz
x,y,z
-x,-y,z
1/2+x,1/2-y,-z
1/2-x,1/2+y,-z
-x,-y,-z
x,y,-z
1/2-x,1/2+y,z
1/2+x,1/2-y,z
loop_
_atom_site_type_symbol
_atom_site_label
_atom_site_fract_x
_atom_site_fract_y
_atom_site_fract_z
Si Si1 0.724356 0.056118 0.636324
Si Si2 0.380826 0.905334 0.109528
Si Si3 0.098516 0.921016 0.233766
Si Si4 0.723743 0.097629 0.134961
Si Si5 0.951855 0.374523 0.612242
Si Si6 0.369594 0.735730 0.394930
O O1 0.754489 0.292067 0.592995
O O2 0.725464 0.078259 0.750735
O O3 0.672999 0.070906 0.599592
O O4 0.409081 0.664830 0.159144
O O5 0.327497 0.843713 0.101283
O O6 0.386716 0.168907 0.172533
O O7 0.400160 0.944522 0.000000
O O8 0.056218 0.858230 0.307448
O O9 0.137916 0.016076 0.310174
O O10 0.756159 0.326535 0.092572
O O11 0.950533 0.268555 0.500000
O O12 0.913461 0.591568 0.631451
O O13 0.000000 0.500000 0.636028
O O14 0.376563 0.597373 0.500000
#
# Coordination Sequence:
#
# PCOD8226276 Si02
#       6
#     8   8   8   8   8   8
#     4  10  22  37  60  91 134 186 233 277 328 397
#     4  12  26  43  69  98 132 185 241 289 352 421
#     4  12  23  46  69  99 141 178 227 283 355 409
#     4  10  20  35  60  89 127 171 227 295 357 401
#     4  10  23  45  77 115 146 178 226 285 358 432
#     4  11  24  42  69 103 142 187 232 279 343 421
#
# _framework density 23.360471
#
# number of rings (size 3 to 8) (size 9 to 14) (size 15 to 20)
#    0.000    1.167    3.333    2.000    7.000    2.000 
#    0.000    2.500    0.000    3.000    0.000    0.000 
#    0.000    0.000    0.000    0.000    0.000    0.000 
#
# Total GULP energy -594825.665252 kJ/mol
# GULP energy per Si atom -12392.201359 kJ/mol
# Density = 2.330730 g / cm^3
# Si number density = 23.360471 Si / 1000 Ang^3
#
#
#
# Elastic Constant Matrix: (Units=GPa)
#
#
# Indices 1 2 3 4 5 6 
#
# 1 96.2749 2.7775 28.6601 0.0000 0.0000 0.0000
# 2 2.7775 89.4536 72.1299 0.0000 0.0000 0.0000
# 3 28.6601 72.1299 167.3352 0.0000 0.0000 0.0000
# 4 0.0000 0.0000 0.0000 -4.0942 0.0000 0.0000
# 5 0.0000 0.0000 0.0000 0.0000 -14.1478 0.0000
# 6 0.0000 0.0000 0.0000 0.0000 0.0000 31.3122
#
#
#
# Elastic Compliance Matrix: (Units=1/GPa)
#
#
# Indices 1 2 3 4 5 6 
#
# 1 0.011137 0.001827 -0.002695 0.000000 0.000000 0.000000
# 2 0.001827 0.017434 -0.007828 0.000000 0.000000 0.000000
# 3 -0.002695 -0.007828 0.009812 0.000000 0.000000 0.000000
# 4 0.000000 0.000000 0.000000 -0.244247 0.000000 0.000000
# 5 0.000000 0.000000 0.000000 0.000000 -0.070682 0.000000
# 6 0.000000 0.000000 0.000000 0.000000 0.000000 0.031936
#
#
# Mechanical properties :
#
#
# Convention : Reuss Voigt Hill
#
# Bulk Modulus (GPa) = 47.63906 62.24430 54.94168
# Shear Modulus (GPa) = -22.70446 19.24711 -1.72867
#
# Velocity S-wave (km/s) = -3.12094 2.87351 -0.86117
# Velocity P-wave (km/s) = 2.72952 6.14104 4.75198
#
# Compressibility (1/GPa) = 0.02099118
#
# Stress axis : x y z
#
# Youngs Moduli (GPa) = 89.79481 57.35830 101.91714
#
# Poissons Ratio (x) = -0.10481 0.27467
# Poissons Ratio (y) = -0.16409 0.79781
# Poissons Ratio (z) = 0.24200 0.44900
#
# Static dielectric constant tensor:
#      x y z
#    x 3.963860 0.000000 0.000000 
#    y 0.000000 4.502630 0.000000 
#    z 0.000000 0.000000 4.563470 
# 
# 
# High freq. dielectric constant tensor:
#      x y z
#    x 1.890290 0.000000 0.000000 
#    y 0.000000 1.927890 0.000000 
#    z 0.000000 0.000000 1.946290 
# 
# From -- ./inp_files/20051.got.cif
#   From: 2010.03.12/outbox.cif.g09.slc.cpg/sg55_11_cif.got.tgz:20051.got - 2010.04.16 15:19:21.
