data_PCOD8226892
_publ_section_title
;
Structure prediction by ZEFSAII (Michael W. Deem and Ramdas Pophale) SiO2 
 PCOD8226892
Probable space group: P B A M
;
_chemical_formula_sum "Si O2"
_cell_formula_units_Z 48
_cell_length_a 15.509174
_cell_length_b 5.032024
_cell_length_c 28.845159
_cell_angle_alpha 90.000000
_cell_angle_beta 90.000000
_cell_angle_gamma 90.000000
_cell_volume 2251.149354
_symmetry_space_group_name_H-M "P B A M"
_symmetry_group_IT_number 55
_symmetry_cell_setting 'orthorhombic'
loop_
_space_group_symop_operation_xyz
x,y,z
-x,-y,z
1/2+x,1/2-y,-z
1/2-x,1/2+y,-z
-x,-y,-z
x,y,-z
1/2-x,1/2+y,z
1/2+x,1/2-y,z
loop_
_atom_site_type_symbol
_atom_site_label
_atom_site_fract_x
_atom_site_fract_y
_atom_site_fract_z
Si Si1 0.100888 0.495412 0.857291
Si Si2 0.194210 0.374560 0.948502
Si Si3 0.943325 0.249050 0.371311
Si Si4 0.806370 0.299452 0.446852
Si Si5 0.808066 0.081965 0.294575
Si Si6 0.102856 0.992920 0.802231
O O1 0.123006 0.436484 0.910337
O O2 0.137159 0.274031 0.821584
O O3 0.000000 0.500000 0.853601
O O4 0.134064 0.781819 0.840974
O O5 0.274529 0.573226 0.942059
O O6 0.153752 0.412925 0.000000
O O7 0.888885 0.351099 0.415136
O O8 0.883499 0.144090 0.330270
O O9 0.000000 0.500000 0.353891
O O10 0.000000 0.000000 0.387800
O O11 0.836509 0.325694 0.500000
O O12 0.732218 0.511717 0.435401
O O13 0.730629 0.289624 0.302209
O O14 0.849843 0.094150 0.244188
O O15 0.000000 0.000000 0.793907
#
# Coordination Sequence:
#
# PCOD8226892 Si02
#       6
#     8   8   8   8   8   8
#     4  10  21  37  58  83 112 147 186 232 285 345
#     4  10  21  36  55  80 111 146 184 230 281 335
#     4  12  25  41  63  90 124 163 202 249 302 354
#     4  10  21  40  65  92 125 163 203 251 303 354
#     4  12  25  41  62  88 118 155 202 246 294 356
#     4  10  22  39  58  83 115 148 187 237 293 346
#
# _framework density 21.32244
#
# number of rings (size 3 to 8) (size 9 to 14) (size 15 to 20)
#    0.000    1.333    0.000    5.500    0.000    7.000 
#    0.000    0.000    0.000    6.000    0.000    0.000 
#    0.000    0.000    0.000    0.000    0.000    0.000 
#
# Total GULP energy -595338.396834 kJ/mol
# GULP energy per Si atom -12402.883267 kJ/mol
# Density = 2.127391 g / cm^3
# Si number density = 21.322440 Si / 1000 Ang^3
#
#
#
# Elastic Constant Matrix: (Units=GPa)
#
#
# Indices 1 2 3 4 5 6 
#
# 1 56.2056 26.4091 48.8816 0.0000 0.0000 0.0000
# 2 26.4091 104.5744 29.0145 0.0000 0.0000 0.0000
# 3 48.8816 29.0145 122.5190 0.0000 0.0000 0.0000
# 4 0.0000 0.0000 0.0000 31.6567 0.0000 0.0000
# 5 0.0000 0.0000 0.0000 0.0000 25.0392 0.0000
# 6 0.0000 0.0000 0.0000 0.0000 0.0000 224.4318
#
#
#
# Elastic Compliance Matrix: (Units=1/GPa)
#
#
# Indices 1 2 3 4 5 6 
#
# 1 0.029026 -0.004407 -0.010537 0.000000 0.000000 0.000000
# 2 -0.004407 0.010904 -0.000824 0.000000 0.000000 0.000000
# 3 -0.010537 -0.000824 0.012561 0.000000 0.000000 0.000000
# 4 0.000000 0.000000 0.000000 0.031589 0.000000 0.000000
# 5 0.000000 0.000000 0.000000 0.000000 0.039937 0.000000
# 6 0.000000 0.000000 0.000000 0.000000 0.000000 0.004456
#
#
# Mechanical properties :
#
#
# Convention : Reuss Voigt Hill
#
# Bulk Modulus (GPa) = 47.71959 54.65659 51.18809
# Shear Modulus (GPa) = 29.94102 68.15846 49.04974
#
# Velocity S-wave (km/s) = 3.75133 5.65995 4.80143
# Velocity P-wave (km/s) = 6.41809 8.27057 7.40251
#
# Compressibility (1/GPa) = 0.02095576
#
# Stress axis : x y z
#
# Youngs Moduli (GPa) = 34.45131 91.70863 79.61046
#
# Poissons Ratio (x) = 0.40414 0.83887
# Poissons Ratio (y) = 0.15182 0.06561
# Poissons Ratio (z) = 0.36302 0.07558
#
# Static dielectric constant tensor:
#      x y z
#    x 3.713560 0.000000 0.000000 
#    y 0.000000 4.423840 0.000000 
#    z 0.000000 0.000000 3.941040 
# 
# 
# High freq. dielectric constant tensor:
#      x y z
#    x 1.822740 0.000000 0.000000 
#    y 0.000000 1.857610 0.000000 
#    z 0.000000 0.000000 1.846770 
# 
# From -- ./inp_files/24167.got.cif
#   From: 2010.03.12/outbox.cif.g09.slc.cpg/sg55_13_cif.got.tgz:24167.got - 2010.04.16 15:19:21.
