data_PCOD8226215
_publ_section_title
;
Structure prediction by ZEFSAII (Michael W. Deem and Ramdas Pophale) SiO2 
 PCOD8226215
Probable space group: P B A M
;
_chemical_formula_sum "Si O2"
_cell_formula_units_Z 64
_cell_length_a 23.484194
_cell_length_b 15.169837
_cell_length_c 9.248560
_cell_angle_alpha 90.000000
_cell_angle_beta 90.000000
_cell_angle_gamma 90.000000
_cell_volume 3294.812402
_symmetry_space_group_name_H-M "P B A M"
_symmetry_group_IT_number 55
_symmetry_cell_setting 'orthorhombic'
loop_
_space_group_symop_operation_xyz
x,y,z
-x,-y,z
1/2+x,1/2-y,-z
1/2-x,1/2+y,-z
-x,-y,-z
x,y,-z
1/2-x,1/2+y,z
1/2+x,1/2-y,z
loop_
_atom_site_type_symbol
_atom_site_label
_atom_site_fract_x
_atom_site_fract_y
_atom_site_fract_z
Si Si1 0.068609 0.740450 0.831080
Si Si2 0.555436 0.557473 0.831382
Si Si3 0.666821 0.490901 0.328231
Si Si4 0.007512 0.400549 0.331332
Si Si5 0.701178 0.299639 0.339166
Si Si6 0.136382 0.373030 0.661692
Si Si7 0.778481 0.512506 0.831518
Si Si8 0.806934 0.311754 0.167042
O O1 0.045435 0.838834 0.797595
O O2 0.032323 0.667612 0.750166
O O3 0.133769 0.729061 0.776704
O O4 0.065060 0.719026 0.000000
O O5 0.500000 0.500000 0.787477
O O6 0.608456 0.526448 0.736921
O O7 0.569901 0.543753 0.000000
O O8 0.666513 0.506263 0.500000
O O9 0.672618 0.389044 0.280902
O O10 0.721651 0.538565 0.257601
O O11 0.992548 0.394507 0.500000
O O12 0.000000 0.500000 0.273918
O O13 0.071259 0.374488 0.294299
O O14 0.724708 0.316120 0.500000
O O15 0.651583 0.229080 0.334996
O O16 0.754496 0.264327 0.246515
O O17 0.146372 0.412852 0.500000
O O18 0.171434 0.424191 0.781657
O O19 0.801916 0.415185 0.797529
O O20 0.765490 0.526091 0.000000
O O21 0.799452 0.291087 0.000000
#
# Coordination Sequence:
#
# PCOD8226215 Si02
#       8
#     8   8   8   8   8   8   8   8
#     4  10  22  39  60  86 117 154 198 246 292 345
#     4  10  23  41  59  83 118 156 198 251 301 348
#     4  10  21  38  60  84 113 150 192 238 292 348
#     4  10  22  39  60  87 119 156 194 238 293 348
#     4   9  20  36  55  81 112 146 183 232 285 341
#     4  10  21  36  55  82 117 148 188 237 282 342
#     4  10  20  35  57  85 115 149 186 231 289 349
#     4   9  19  36  56  81 112 145 185 234 284 340
#
# _framework density 19.424475000000001
#
# number of rings (size 3 to 8) (size 9 to 14) (size 15 to 20)
#    0.000    2.250    0.000    1.500    3.500    3.500 
#    0.000    0.000    0.000    0.000    0.000    0.000 
#    0.000    0.000    0.000    0.000    0.000    0.000 
#
# Total GULP energy -793630.154528 kJ/mol
# GULP energy per Si atom -12400.471165 kJ/mol
# Density = 1.938026 g / cm^3
# Si number density = 19.424475 Si / 1000 Ang^3
#
#
#
# Elastic Constant Matrix: (Units=GPa)
#
#
# Indices 1 2 3 4 5 6 
#
# 1 143.2549 67.2221 60.7785 0.0000 0.0000 0.0000
# 2 67.2221 96.8871 43.8789 0.0000 0.0000 0.0000
# 3 60.7785 43.8789 72.2951 0.0000 0.0000 0.0000
# 4 0.0000 0.0000 0.0000 13.0360 0.0000 0.0000
# 5 0.0000 0.0000 0.0000 0.0000 36.5291 0.0000
# 6 0.0000 0.0000 0.0000 0.0000 0.0000 34.5354
#
#
#
# Elastic Compliance Matrix: (Units=1/GPa)
#
#
# Indices 1 2 3 4 5 6 
#
# 1 0.012648 -0.005461 -0.007319 0.000000 0.000000 0.000000
# 2 -0.005461 0.016592 -0.005479 0.000000 0.000000 0.000000
# 3 -0.007319 -0.005479 0.023311 0.000000 0.000000 0.000000
# 4 0.000000 0.000000 0.000000 0.076710 0.000000 0.000000
# 5 0.000000 0.000000 0.000000 0.000000 0.027375 0.000000
# 6 0.000000 0.000000 0.000000 0.000000 0.000000 0.028956
#
#
# Mechanical properties :
#
#
# Convention : Reuss Voigt Hill
#
# Bulk Modulus (GPa) = 62.37281 72.91068 67.64174
# Shear Modulus (GPa) = 21.98240 26.19061 24.08651
#
# Velocity S-wave (km/s) = 3.36770 3.67595 3.52520
# Velocity P-wave (km/s) = 6.87765 7.45880 7.17411
#
# Compressibility (1/GPa) = 0.01603263
#
# Stress axis : x y z
#
# Youngs Moduli (GPa) = 79.06183 60.27137 42.89865
#
# Poissons Ratio (x) = 0.32914 0.31397
# Poissons Ratio (y) = 0.43176 0.23505
# Poissons Ratio (z) = 0.57865 0.33023
#
# Static dielectric constant tensor:
#      x y z
#    x 3.672580 0.000000 0.000000 
#    y 0.000000 3.583090 0.000000 
#    z 0.000000 0.000000 3.533770 
# 
# 
# High freq. dielectric constant tensor:
#      x y z
#    x 1.761250 0.000000 0.000000 
#    y 0.000000 1.760950 0.000000 
#    z 0.000000 0.000000 1.752330 
# 
# From -- ./inp_files/9822.got.cif
#   From: 2010.03.12/outbox.cif.g09.slc.cpg/sg55_5_cif.got.tgz:9822.got - 2010.04.16 15:19:21.
