data_PCOD8226181
_publ_section_title
;
Structure prediction by ZEFSAII (Michael W. Deem and Ramdas Pophale) SiO2 
 PCOD8226181
Probable space group: P B A M
;
_chemical_formula_sum "Si O2"
_cell_formula_units_Z 64
_cell_length_a 25.420882
_cell_length_b 14.556792
_cell_length_c 8.626601
_cell_angle_alpha 90.000000
_cell_angle_beta 90.000000
_cell_angle_gamma 90.000000
_cell_volume 3192.243436
_symmetry_space_group_name_H-M "P B A M"
_symmetry_group_IT_number 55
_symmetry_cell_setting 'orthorhombic'
loop_
_space_group_symop_operation_xyz
x,y,z
-x,-y,z
1/2+x,1/2-y,-z
1/2-x,1/2+y,-z
-x,-y,-z
x,y,-z
1/2-x,1/2+y,z
1/2+x,1/2-y,z
loop_
_atom_site_type_symbol
_atom_site_label
_atom_site_fract_x
_atom_site_fract_y
_atom_site_fract_z
Si Si1 0.008800 0.396824 0.685130
Si Si2 0.133765 0.098225 0.684174
Si Si3 0.552401 0.548198 0.685051
Si Si4 0.112959 0.299347 0.683853
Si Si5 0.250438 0.557117 0.319454
Si Si6 0.687886 0.788893 0.820020
Si Si7 0.771441 0.652272 0.319365
Si Si8 0.575519 0.750329 0.316681
O O1 0.009004 0.397253 0.500000
O O2 0.064479 0.358831 0.750973
O O3 0.000000 0.500000 0.749010
O O4 0.962201 0.330961 0.748530
O O5 0.133869 0.093661 0.500000
O O6 0.107867 0.193793 0.740843
O O7 0.193523 0.092800 0.743268
O O8 0.101031 0.012081 0.749787
O O9 0.500000 0.500000 0.748804
O O10 0.552411 0.549391 0.500000
O O11 0.556647 0.651737 0.750164
O O12 0.110379 0.303387 0.500000
O O13 0.168620 0.339922 0.741083
O O14 0.242217 0.579641 0.500000
O O15 0.205080 0.607927 0.223492
O O16 0.247996 0.449669 0.287339
O O17 0.734301 0.719888 0.774929
O O18 0.635374 0.766227 0.727920
O O19 0.675572 0.781528 0.000000
O O20 0.767863 0.679437 0.500000
O O21 0.571288 0.748608 0.500000
#
# Coordination Sequence:
#
# PCOD8226181 Si02
#       8
#     8   8   8   8   8   8   8   8
#     4   9  18  30  49  81 114 141 178 236 293 335
#     4   9  15  26  46  74 108 137 171 221 277 334
#     4   9  16  27  49  84 116 140 171 223 288 341
#     4   9  16  28  49  80 112 139 173 228 292 342
#     4  10  20  35  58  85 110 145 193 242 292 345
#     4  12  25  39  56  81 120 160 196 236 285 350
#     4  10  20  36  61  88 114 146 190 243 299 350
#     4  10  20  35  56  82 114 149 192 239 285 344
#
# _framework density 20.048596
#
# number of rings (size 3 to 8) (size 9 to 14) (size 15 to 20)
#    0.000    2.250    1.250    2.625    1.750    5.500 
#    0.000    0.000    0.000    1.500    0.000    0.000 
#    0.000    0.000    0.000    0.000    0.000    0.000 
#
# Total GULP energy -793537.424338 kJ/mol
# GULP energy per Si atom -12399.022255 kJ/mol
# Density = 2.000296 g / cm^3
# Si number density = 20.048596 Si / 1000 Ang^3
#
#
#
# Elastic Constant Matrix: (Units=GPa)
#
#
# Indices 1 2 3 4 5 6 
#
# 1 134.4306 61.5832 1.2552 0.0000 0.0000 0.0000
# 2 61.5832 142.4820 9.3747 0.0000 0.0000 0.0000
# 3 1.2552 9.3747 5.9654 0.0000 0.0000 0.0000
# 4 0.0000 0.0000 0.0000 6.8315 0.0000 0.0000
# 5 0.0000 0.0000 0.0000 0.0000 2.6505 0.0000
# 6 0.0000 0.0000 0.0000 0.0000 0.0000 45.1627
#
#
#
# Elastic Compliance Matrix: (Units=1/GPa)
#
#
# Indices 1 2 3 4 5 6 
#
# 1 0.009403 -0.004388 0.004917 0.000000 0.000000 0.000000
# 2 -0.004388 0.009875 -0.014596 0.000000 0.000000 0.000000
# 3 0.004917 -0.014596 0.189537 0.000000 0.000000 0.000000
# 4 0.000000 0.000000 0.000000 0.146381 0.000000 0.000000
# 5 0.000000 0.000000 0.000000 0.000000 0.377283 0.000000
# 6 0.000000 0.000000 0.000000 0.000000 0.000000 0.022142
#
#
# Mechanical properties :
#
#
# Convention : Reuss Voigt Hill
#
# Bulk Modulus (GPa) = 5.53461 47.47824 26.50642
# Shear Modulus (GPa) = 5.93133 24.97328 15.45230
#
# Velocity S-wave (km/s) = 1.72189 3.53319 2.77924
# Velocity P-wave (km/s) = 2.59226 6.35433 4.85270
#
# Compressibility (1/GPa) = 0.18068135
#
# Stress axis : x y z
#
# Youngs Moduli (GPa) = 106.35094 101.26444 5.27602
#
# Poissons Ratio (x) = 0.44430 -0.02594
# Poissons Ratio (y) = 0.46662 0.07701
# Poissons Ratio (z) = -0.52288 1.47802
#
# Static dielectric constant tensor:
#      x y z
#    x 3.869460 0.000000 0.000000 
#    y 0.000000 3.953450 0.000000 
#    z 0.000000 0.000000 2.963690 
# 
# 
# High freq. dielectric constant tensor:
#      x y z
#    x 1.797010 0.000000 0.000000 
#    y 0.000000 1.801310 0.000000 
#    z 0.000000 0.000000 1.707180 
# 
# From -- ./inp_files/9765.got.cif
#   From: 2010.03.12/outbox.cif.g09.slc.cpg/sg55_5_cif.got.tgz:9765.got - 2010.04.16 15:19:21.
