data_PCOD8226212
_publ_section_title
;
Structure prediction by ZEFSAII (Michael W. Deem and Ramdas Pophale) SiO2 
 PCOD8226212
Probable space group: P B A M
;
_chemical_formula_sum "Si O2"
_cell_formula_units_Z 64
_cell_length_a 24.488404
_cell_length_b 14.974949
_cell_length_c 8.812344
_cell_angle_alpha 90.000000
_cell_angle_beta 90.000000
_cell_angle_gamma 90.000000
_cell_volume 3231.597589
_symmetry_space_group_name_H-M "P B A M"
_symmetry_group_IT_number 55
_symmetry_cell_setting 'orthorhombic'
loop_
_space_group_symop_operation_xyz
x,y,z
-x,-y,z
1/2+x,1/2-y,-z
1/2-x,1/2+y,-z
-x,-y,-z
x,y,-z
1/2-x,1/2+y,z
1/2+x,1/2-y,z
loop_
_atom_site_type_symbol
_atom_site_label
_atom_site_fract_x
_atom_site_fract_y
_atom_site_fract_z
Si Si1 0.248312 0.149064 0.334755
Si Si2 0.363102 0.852860 0.178511
Si Si3 0.368070 0.662101 0.680896
Si Si4 0.936368 0.502526 0.324070
Si Si5 0.641232 0.647759 0.177240
Si Si6 0.247757 0.360230 0.667364
Si Si7 0.635334 0.836301 0.320136
Si Si8 0.562344 0.487114 0.823996
O O1 0.248484 0.103431 0.500000
O O2 0.190748 0.123734 0.253903
O O3 0.247419 0.255099 0.348530
O O4 0.306092 0.125177 0.253887
O O5 0.380455 0.758591 0.249949
O O6 0.305809 0.891494 0.241526
O O7 0.410358 0.922243 0.219242
O O8 0.358178 0.841187 0.000000
O O9 0.364456 0.672619 0.500000
O O10 0.415467 0.594897 0.726068
O O11 0.924606 0.524735 0.500000
O O12 0.911940 0.405877 0.280059
O O13 0.000000 0.500000 0.287948
O O14 0.697297 0.609397 0.247475
O O15 0.621222 0.741696 0.245678
O O16 0.593948 0.577652 0.215445
O O17 0.650612 0.660778 0.000000
O O18 0.246589 0.404648 0.500000
O O19 0.641684 0.820706 0.500000
O O20 0.500000 0.500000 0.776239
O O21 0.568372 0.461970 0.000000
#
# Coordination Sequence:
#
# PCOD8226212 Si02
#       8
#     8   8   8   8   8   8   8   8
#     4   7  13  28  51  79 106 134 171 218 274 331
#     4  11  22  37  59  86 117 150 185 229 284 343
#     4  10  20  36  59  85 112 144 187 237 286 336
#     4  10  22  39  57  81 114 152 198 245 281 324
#     4  10  20  35  57  84 114 146 184 232 285 341
#     4   9  17  33  57  84 115 146 180 224 278 341
#     4   9  18  35  58  81 110 148 187 230 282 335
#     4  10  23  41  56  77 114 156 196 238 284 334
#
# _framework density 19.804445999999999
#
# number of rings (size 3 to 8) (size 9 to 14) (size 15 to 20)
#    0.000    2.500    0.000    3.750    0.000    4.000 
#    0.000    4.375    0.000    0.000    0.000    0.000 
#    0.000    0.000    0.000    0.000    0.000    0.000 
#
# Total GULP energy -793276.144818 kJ/mol
# GULP energy per Si atom -12394.939763 kJ/mol
# Density = 1.975937 g / cm^3
# Si number density = 19.804446 Si / 1000 Ang^3
#
#
#
# Elastic Constant Matrix: (Units=GPa)
#
#
# Indices 1 2 3 4 5 6 
#
# 1 164.6310 68.9894 56.9594 0.0000 0.0000 0.0000
# 2 68.9894 98.3793 50.3194 0.0000 0.0000 0.0000
# 3 56.9594 50.3194 100.4013 0.0000 0.0000 0.0000
# 4 0.0000 0.0000 0.0000 25.9968 0.0000 0.0000
# 5 0.0000 0.0000 0.0000 0.0000 25.4526 0.0000
# 6 0.0000 0.0000 0.0000 0.0000 0.0000 35.1904
#
#
#
# Elastic Compliance Matrix: (Units=1/GPa)
#
#
# Indices 1 2 3 4 5 6 
#
# 1 0.009094 -0.005027 -0.002640 0.000000 0.000000 0.000000
# 2 -0.005027 0.016448 -0.005391 0.000000 0.000000 0.000000
# 3 -0.002640 -0.005391 0.014160 0.000000 0.000000 0.000000
# 4 0.000000 0.000000 0.000000 0.038466 0.000000 0.000000
# 5 0.000000 0.000000 0.000000 0.000000 0.039289 0.000000
# 6 0.000000 0.000000 0.000000 0.000000 0.000000 0.028417
#
#
# Mechanical properties :
#
#
# Convention : Reuss Voigt Hill
#
# Bulk Modulus (GPa) = 73.61039 79.54979 76.58009
# Shear Modulus (GPa) = 28.32571 29.80417 29.06494
#
# Velocity S-wave (km/s) = 3.78599 3.88354 3.83508
# Velocity P-wave (km/s) = 7.50740 7.76943 7.63954
#
# Compressibility (1/GPa) = 0.01358504
#
# Stress axis : x y z
#
# Youngs Moduli (GPa) = 109.96069 60.79902 70.62346
#
# Poissons Ratio (x) = 0.30565 0.18643
# Poissons Ratio (y) = 0.55279 0.38075
# Poissons Ratio (z) = 0.29027 0.32778
#
# Static dielectric constant tensor:
#      x y z
#    x 3.863780 0.000000 0.000000 
#    y 0.000000 3.380580 0.000000 
#    z 0.000000 0.000000 3.490930 
# 
# 
# High freq. dielectric constant tensor:
#      x y z
#    x 1.780980 0.000000 0.000000 
#    y 0.000000 1.763860 0.000000 
#    z 0.000000 0.000000 1.755740 
# 
# From -- ./inp_files/9713.got.cif
#   From: 2010.03.12/outbox.cif.g09.slc.cpg/sg55_5_cif.got.tgz:9713.got - 2010.04.16 15:19:21.
