data_PCOD8226913
_publ_section_title
;
Structure prediction by ZEFSAII (Michael W. Deem and Ramdas Pophale) SiO2 
 PCOD8226913
Probable space group: P B A M
;
_chemical_formula_sum "Si O2"
_cell_formula_units_Z 64
_cell_length_a 24.384276
_cell_length_b 14.225267
_cell_length_c 9.074356
_cell_angle_alpha 90.000000
_cell_angle_beta 90.000000
_cell_angle_gamma 90.000000
_cell_volume 3147.647607
_symmetry_space_group_name_H-M "P B A M"
_symmetry_group_IT_number 55
_symmetry_cell_setting 'orthorhombic'
loop_
_space_group_symop_operation_xyz
x,y,z
-x,-y,z
1/2+x,1/2-y,-z
1/2-x,1/2+y,-z
-x,-y,-z
x,y,-z
1/2-x,1/2+y,z
1/2+x,1/2-y,z
loop_
_atom_site_type_symbol
_atom_site_label
_atom_site_fract_x
_atom_site_fract_y
_atom_site_fract_z
Si Si1 0.675119 0.981101 0.669945
Si Si2 0.301907 0.832268 0.827750
Si Si3 0.094321 0.219426 0.168913
Si Si4 0.806750 0.283247 0.172554
Si Si5 0.975277 0.268075 0.167539
Si Si6 0.053614 0.556317 0.332487
Si Si7 0.941582 0.964908 0.667925
Si Si8 0.604767 0.658473 0.667069
O O1 0.693182 0.975286 0.500000
O O2 0.691222 0.882970 0.745564
O O3 0.609812 0.001728 0.684012
O O4 0.706282 0.068393 0.745112
O O5 0.355334 0.778345 0.763853
O O6 0.251522 0.763958 0.794990
O O7 0.308406 0.855098 0.000000
O O8 0.040153 0.283621 0.186445
O O9 0.085211 0.120669 0.246381
O O10 0.107170 0.195929 0.000000
O O11 0.851217 0.208836 0.229896
O O12 0.816431 0.300293 0.000000
O O13 0.941206 0.358412 0.219133
O O14 0.956150 0.183983 0.273813
O O15 0.959485 0.244907 0.000000
O O16 0.046708 0.593294 0.500000
O O17 0.000000 0.500000 0.283905
O O18 0.952063 0.933779 0.500000
O O19 0.894591 0.045688 0.676550
O O20 0.000000 0.000000 0.735435
O O21 0.613264 0.693938 0.500000
#
# Coordination Sequence:
#
# PCOD8226913 Si02
#       8
#     8   8   8   8   8   8   8   8
#     4  11  23  40  65  94 124 161 203 253 306 360
#     4  10  24  45  65  89 124 165 206 253 307 361
#     4  10  22  39  60  89 124 161 206 256 305 362
#     4  11  24  43  67  91 121 164 210 256 307 362
#     4  11  21  33  56  88 119 156 199 248 304 362
#     4  10  21  36  56  86 123 162 200 245 304 366
#     4  10  21  37  58  86 122 165 205 247 308 370
#     4  11  22  38  60  87 121 158 202 254 305 365
#
# _framework density 20.332644999999999
#
# number of rings (size 3 to 8) (size 9 to 14) (size 15 to 20)
#    0.000    1.500    2.500    2.250    0.000    5.000 
#    0.000    3.750    0.000    0.000    0.000    0.000 
#    0.000    0.000    0.000    0.000    0.000    0.000 
#
# Total GULP energy -793570.356904 kJ/mol
# GULP energy per Si atom -12399.536827 kJ/mol
# Density = 2.028637 g / cm^3
# Si number density = 20.332645 Si / 1000 Ang^3
#
#
#
# Elastic Constant Matrix: (Units=GPa)
#
#
# Indices 1 2 3 4 5 6 
#
# 1 89.2673 37.4055 40.2438 0.0000 0.0000 0.0000
# 2 37.4055 113.3209 56.0044 0.0000 0.0000 0.0000
# 3 40.2438 56.0044 96.7184 0.0000 0.0000 0.0000
# 4 0.0000 0.0000 0.0000 37.7626 0.0000 0.0000
# 5 0.0000 0.0000 0.0000 0.0000 25.7699 0.0000
# 6 0.0000 0.0000 0.0000 0.0000 0.0000 28.5247
#
#
#
# Elastic Compliance Matrix: (Units=1/GPa)
#
#
# Indices 1 2 3 4 5 6 
#
# 1 0.014273 -0.002488 -0.004498 0.000000 0.000000 0.000000
# 2 -0.002488 0.012796 -0.006374 0.000000 0.000000 0.000000
# 3 -0.004498 -0.006374 0.015902 0.000000 0.000000 0.000000
# 4 0.000000 0.000000 0.000000 0.026481 0.000000 0.000000
# 5 0.000000 0.000000 0.000000 0.000000 0.038805 0.000000
# 6 0.000000 0.000000 0.000000 0.000000 0.000000 0.035057
#
#
# Mechanical properties :
#
#
# Convention : Reuss Voigt Hill
#
# Bulk Modulus (GPa) = 61.53918 62.95712 62.24815
# Shear Modulus (GPa) = 28.49792 29.45496 28.97644
#
# Velocity S-wave (km/s) = 3.74784 3.81025 3.77917
# Velocity P-wave (km/s) = 7.00430 7.09846 7.05154
#
# Compressibility (1/GPa) = 0.01624981
#
# Stress axis : x y z
#
# Youngs Moduli (GPa) = 70.06359 78.14943 62.88604
#
# Poissons Ratio (x) = 0.19446 0.28286
# Poissons Ratio (y) = 0.17434 0.40084
# Poissons Ratio (z) = 0.31514 0.49813
#
# Static dielectric constant tensor:
#      x y z
#    x 3.780620 0.000000 0.000000 
#    y 0.000000 3.640320 0.000000 
#    z 0.000000 0.000000 3.680690 
# 
# 
# High freq. dielectric constant tensor:
#      x y z
#    x 1.791800 0.000000 0.000000 
#    y 0.000000 1.796040 0.000000 
#    z 0.000000 0.000000 1.795380 
# 
# From -- ./inp_files/9808.got.cif
#   From: 2010.03.12/outbox.cif.g09.slc.cpg/sg55_5_cif.got.tgz:9808.got - 2010.04.16 15:19:21.
