data_PCOD8226165
_publ_section_title
;
Structure prediction by ZEFSAII (Michael W. Deem and Ramdas Pophale) SiO2 
 PCOD8226165
Probable space group: P B A M
;
_chemical_formula_sum "Si O2"
_cell_formula_units_Z 48
_cell_length_a 17.731289
_cell_length_b 15.381141
_cell_length_c 9.140305
_cell_angle_alpha 90.000000
_cell_angle_beta 90.000000
_cell_angle_gamma 90.000000
_cell_volume 2492.812132
_symmetry_space_group_name_H-M "P B A M"
_symmetry_group_IT_number 55
_symmetry_cell_setting 'orthorhombic'
loop_
_space_group_symop_operation_xyz
x,y,z
-x,-y,z
1/2+x,1/2-y,-z
1/2-x,1/2+y,-z
-x,-y,-z
x,y,-z
1/2-x,1/2+y,z
1/2+x,1/2-y,z
loop_
_atom_site_type_symbol
_atom_site_label
_atom_site_fract_x
_atom_site_fract_y
_atom_site_fract_z
Si Si1 0.783158 0.562578 0.171472
Si Si2 0.207689 0.099154 0.673192
Si Si3 0.961173 0.248178 0.169643
Si Si4 0.214137 0.753980 0.831736
Si Si5 0.954661 0.582076 0.173637
Si Si6 0.535193 0.410058 0.327842
O O1 0.752561 0.480390 0.257709
O O2 0.733253 0.646738 0.210011
O O3 0.868313 0.579702 0.225156
O O4 0.780689 0.540559 0.000000
O O5 0.216226 0.094061 0.500000
O O6 0.238846 0.190716 0.728761
O O7 0.121329 0.093726 0.724163
O O8 0.873212 0.264613 0.195807
O O9 0.006557 0.330485 0.233637
O O10 0.986157 0.164281 0.255923
O O11 0.979245 0.233169 0.000000
O O12 0.236684 0.736097 0.000000
O O13 0.000000 0.500000 0.239324
O O14 0.960584 0.581023 0.000000
O O15 0.500000 0.500000 0.273133
O O16 0.528182 0.399153 0.500000
#
# Coordination Sequence:
#
# PCOD8226165 Si02
#       6
#     8   8   8   8   8   8
#     4  10  20  35  56  80 107 141 182 229 276 324
#     4  11  23  37  56  82 112 149 187 225 276 333
#     4  10  20  35  58  85 109 139 182 229 277 327
#     4  10  21  37  58  84 112 144 184 231 281 331
#     4   9  17  31  52  77 106 139 173 215 269 322
#     4  10  22  39  56  77 110 149 184 223 275 329
#
# _framework density 19.255362999999999
#
# number of rings (size 3 to 8) (size 9 to 14) (size 15 to 20)
#    0.000    2.000    0.000    3.500    0.000    7.000 
#    0.000    0.833    0.000    2.000    0.000    0.000 
#    0.000    0.000    0.000    0.000    0.000    0.000 
#
# Total GULP energy -595410.334616 kJ/mol
# GULP energy per Si atom -12404.381971 kJ/mol
# Density = 1.921154 g / cm^3
# Si number density = 19.255363 Si / 1000 Ang^3
#
#
#
# Elastic Constant Matrix: (Units=GPa)
#
#
# Indices 1 2 3 4 5 6 
#
# 1 69.9974 18.7544 22.9359 0.0000 0.0000 0.0000
# 2 18.7544 109.1307 29.6651 0.0000 0.0000 0.0000
# 3 22.9359 29.6651 33.3393 0.0000 0.0000 0.0000
# 4 0.0000 0.0000 0.0000 8.4973 0.0000 0.0000
# 5 0.0000 0.0000 0.0000 0.0000 18.5184 0.0000
# 6 0.0000 0.0000 0.0000 0.0000 0.0000 39.9440
#
#
#
# Elastic Compliance Matrix: (Units=1/GPa)
#
#
# Indices 1 2 3 4 5 6 
#
# 1 0.018455 0.000369 -0.013025 0.000000 0.000000 0.000000
# 2 0.000369 0.012094 -0.011015 0.000000 0.000000 0.000000
# 3 -0.013025 -0.011015 0.048756 0.000000 0.000000 0.000000
# 4 0.000000 0.000000 0.000000 0.117684 0.000000 0.000000
# 5 0.000000 0.000000 0.000000 0.000000 0.054000 0.000000
# 6 0.000000 0.000000 0.000000 0.000000 0.000000 0.025035
#
#
# Mechanical properties :
#
#
# Convention : Reuss Voigt Hill
#
# Bulk Modulus (GPa) = 31.28530 39.46425 35.37478
# Shear Modulus (GPa) = 14.96914 22.79942 18.88428
#
# Velocity S-wave (km/s) = 2.79122 3.44474 3.13506
# Velocity P-wave (km/s) = 5.16437 6.03004 5.61391
#
# Compressibility (1/GPa) = 0.03196389
#
# Stress axis : x y z
#
# Youngs Moduli (GPa) = 54.18547 82.68450 20.51029
#
# Poissons Ratio (x) = -0.03050 0.26714
# Poissons Ratio (y) = -0.01999 0.22592
# Poissons Ratio (z) = 0.70574 0.91078
#
# Static dielectric constant tensor:
#      x y z
#    x 4.033550 0.000000 0.000000 
#    y 0.000000 3.641010 0.000000 
#    z 0.000000 0.000000 3.281890 
# 
# 
# High freq. dielectric constant tensor:
#      x y z
#    x 1.767700 0.000000 0.000000 
#    y 0.000000 1.766700 0.000000 
#    z 0.000000 0.000000 1.721190 
# 
# From -- ./inp_files/5583.got.cif
#   From: 2010.03.12/outbox.cif.g09.slc.cpg/sg55_3_cif.got.tgz:5583.got - 2010.04.16 15:19:21.
