data_PCOD8226711
_publ_section_title
;
Structure prediction by ZEFSAII (Michael W. Deem and Ramdas Pophale) SiO2 
 PCOD8226711
Probable space group: P B A M
;
_chemical_formula_sum "Si O2"
_cell_formula_units_Z 40
_cell_length_a 10.532137
_cell_length_b 18.869830
_cell_length_c 8.794685
_cell_angle_alpha 90.000000
_cell_angle_beta 90.000000
_cell_angle_gamma 90.000000
_cell_volume 1747.852484
_symmetry_space_group_name_H-M "P B A M"
_symmetry_group_IT_number 55
_symmetry_cell_setting 'orthorhombic'
loop_
_space_group_symop_operation_xyz
x,y,z
-x,-y,z
1/2+x,1/2-y,-z
1/2-x,1/2+y,-z
-x,-y,-z
x,y,-z
1/2-x,1/2+y,z
1/2+x,1/2-y,z
loop_
_atom_site_type_symbol
_atom_site_label
_atom_site_fract_x
_atom_site_fract_y
_atom_site_fract_z
Si Si1 0.622838 0.219394 0.825872
Si Si2 0.508989 0.416027 0.330086
Si Si3 0.265385 0.079036 0.821879
Si Si4 0.865146 0.291191 0.321735
Si Si5 0.758135 0.080518 0.826928
O O1 0.499675 0.242891 0.729236
O O2 0.749352 0.255435 0.765272
O O3 0.640654 0.134165 0.812035
O O4 0.601754 0.241888 0.000000
O O5 0.500000 0.500000 0.329535
O O6 0.532813 0.386469 0.500000
O O7 0.624149 0.392592 0.221070
O O8 0.374955 0.386698 0.269285
O O9 0.365883 0.125983 0.727624
O O10 0.284423 0.997432 0.769934
O O11 0.289499 0.089687 0.000000
O O12 0.848531 0.281551 0.500000
O O13 0.806146 0.073087 0.000000
#
# Coordination Sequence:
#
# PCOD8226711 Si02
#       5
#     8   8   8   8   8
#     4  11  25  47  71  96 129 175 223 270 328 396
#     4   9  17  30  53  89 130 168 207 257 320 382
#     4  10  20  38  64  94 129 170 217 269 323 390
#     4  12  27  46  67  97 134 174 219 272 331 393
#     4   9  20  38  64  95 127 167 219 270 323 389
#
# _framework density 22.885225999999999
#
# number of rings (size 3 to 8) (size 9 to 14) (size 15 to 20)
#    0.000    1.800    0.000    3.600    2.800    5.600 
#    0.000    4.000    0.000    0.000    0.000    0.000 
#    0.000    0.000    0.000    0.000    0.000    0.000 
#
# Total GULP energy -496096.867527 kJ/mol
# GULP energy per Si atom -12402.421688 kJ/mol
# Density = 2.283314 g / cm^3
# Si number density = 22.885226 Si / 1000 Ang^3
#
#
#
# Elastic Constant Matrix: (Units=GPa)
#
#
# Indices 1 2 3 4 5 6 
#
# 1 104.0346 18.8940 21.1611 0.0000 0.0000 0.0000
# 2 18.8940 45.9984 7.9364 0.0000 0.0000 0.0000
# 3 21.1611 7.9364 93.3516 0.0000 0.0000 0.0000
# 4 0.0000 0.0000 0.0000 27.4675 0.0000 0.0000
# 5 0.0000 0.0000 0.0000 0.0000 37.0014 0.0000
# 6 0.0000 0.0000 0.0000 0.0000 0.0000 36.0065
#
#
#
# Elastic Compliance Matrix: (Units=1/GPa)
#
#
# Indices 1 2 3 4 5 6 
#
# 1 0.010777 -0.004065 -0.002097 0.000000 0.000000 0.000000
# 2 -0.004065 0.023597 -0.001085 0.000000 0.000000 0.000000
# 3 -0.002097 -0.001085 0.011280 0.000000 0.000000 0.000000
# 4 0.000000 0.000000 0.000000 0.036407 0.000000 0.000000
# 5 0.000000 0.000000 0.000000 0.000000 0.027026 0.000000
# 6 0.000000 0.000000 0.000000 0.000000 0.000000 0.027773
#
#
# Mechanical properties :
#
#
# Convention : Reuss Voigt Hill
#
# Bulk Modulus (GPa) = 32.09264 37.70750 34.90007
# Shear Modulus (GPa) = 30.91392 33.12127 32.01760
#
# Velocity S-wave (km/s) = 3.67934 3.80844 3.74445
# Velocity P-wave (km/s) = 5.66602 5.98761 5.82904
#
# Compressibility (1/GPa) = 0.03115980
#
# Stress axis : x y z
#
# Youngs Moduli (GPa) = 92.78996 42.37885 88.65372
#
# Poissons Ratio (x) = 0.17226 0.18594
# Poissons Ratio (y) = 0.37717 0.09616
# Poissons Ratio (z) = 0.19462 0.04597
#
# Static dielectric constant tensor:
#      x y z
#    x 4.033300 0.000000 0.000000 
#    y 0.000000 4.402110 0.000000 
#    z 0.000000 0.000000 4.081020 
# 
# 
# High freq. dielectric constant tensor:
#      x y z
#    x 1.891630 0.000000 0.000000 
#    y 0.000000 1.916340 0.000000 
#    z 0.000000 0.000000 1.898300 
# 
# From -- ./inp_files/3849.got.cif
#   From: 2010.03.12/outbox.cif.g09.slc.cpg/sg55_2_cif.got.tgz:3849.got - 2010.04.16 15:19:21.
