data_PCOD8226335
_publ_section_title
;
Structure prediction by ZEFSAII (Michael W. Deem and Ramdas Pophale) SiO2 
 PCOD8226335
Probable space group: P B A M
;
_chemical_formula_sum "Si O2"
_cell_formula_units_Z 32
_cell_length_a 7.928991
_cell_length_b 15.200467
_cell_length_c 11.587995
_cell_angle_alpha 90.000000
_cell_angle_beta 90.000000
_cell_angle_gamma 90.000000
_cell_volume 1396.635751
_symmetry_space_group_name_H-M "P B A M"
_symmetry_group_IT_number 55
_symmetry_cell_setting 'orthorhombic'
loop_
_space_group_symop_operation_xyz
x,y,z
-x,-y,z
1/2+x,1/2-y,-z
1/2-x,1/2+y,-z
-x,-y,-z
x,y,-z
1/2-x,1/2+y,z
1/2+x,1/2-y,z
loop_
_atom_site_type_symbol
_atom_site_label
_atom_site_fract_x
_atom_site_fract_y
_atom_site_fract_z
Si Si1 0.668551 0.902135 0.864016
Si Si2 0.015697 0.105016 0.269481
Si Si3 0.559602 0.128857 0.500000
Si Si4 0.169649 0.176757 0.500000
Si Si5 0.348377 0.908119 0.748831
O O1 0.847581 0.861376 0.824725
O O2 0.505125 0.853414 0.805813
O O3 0.665574 0.001172 0.817448
O O4 0.652596 0.898167 0.000000
O O5 0.069663 0.141104 0.391512
O O6 0.829846 0.143302 0.236612
O O7 0.000000 0.000000 0.276031
O O8 0.360754 0.144770 0.500000
O O9 0.666161 0.218332 0.500000
O O10 0.613683 0.073956 0.613349
#
# Coordination Sequence:
#
# PCOD8226335 Si02
#       5
#     8   8   4   4   8
#     4  10  21  37  61  90 121 160 201 243 290 347
#     4  10  21  37  60  90 125 153 197 247 305 353
#     4  12  24  38  62  86 122 163 196 248 311 368
#     4  12  23  41  58  90 121 157 200 248 304 376
#     4  10  20  36  57  90 119 155 194 244 299 354
#
# _framework density 22.912202000000001
#
# number of rings (size 3 to 8) (size 9 to 14) (size 15 to 20)
#    0.000    1.500    2.500    4.125    0.000   10.500 
#    0.000    0.000    0.000    3.000    0.000    0.000 
#    0.000    0.000    0.000    0.000    0.000    0.000 
#
# Total GULP energy -396563.151102 kJ/mol
# GULP energy per Si atom -12392.598472 kJ/mol
# Density = 2.286005 g / cm^3
# Si number density = 22.912202 Si / 1000 Ang^3
#
#
#
# Elastic Constant Matrix: (Units=GPa)
#
#
# Indices 1 2 3 4 5 6 
#
# 1 258.9579 2.1621 91.0552 0.0000 0.0000 0.0000
# 2 2.1621 14.3871 -2.5983 0.0000 0.0000 0.0000
# 3 91.0552 -2.5983 206.7801 0.0000 0.0000 0.0000
# 4 0.0000 0.0000 0.0000 29.2213 0.0000 0.0000
# 5 0.0000 0.0000 0.0000 0.0000 16.4144 0.0000
# 6 0.0000 0.0000 0.0000 0.0000 0.0000 16.3165
#
#
#
# Elastic Compliance Matrix: (Units=1/GPa)
#
#
# Indices 1 2 3 4 5 6 
#
# 1 0.004585 -0.001056 -0.002032 0.000000 0.000000 0.000000
# 2 -0.001056 0.069908 0.001343 0.000000 0.000000 0.000000
# 3 -0.002032 0.001343 0.005748 0.000000 0.000000 0.000000
# 4 0.000000 0.000000 0.000000 0.034222 0.000000 0.000000
# 5 0.000000 0.000000 0.000000 0.000000 0.060922 0.000000
# 6 0.000000 0.000000 0.000000 0.000000 0.000000 0.061288
#
#
# Mechanical properties :
#
#
# Convention : Reuss Voigt Hill
#
# Bulk Modulus (GPa) = 13.02908 73.48477 43.25693
# Shear Modulus (GPa) = 18.81495 38.35752 28.58624
#
# Velocity S-wave (km/s) = 2.86873 4.09603 3.53603
# Velocity P-wave (km/s) = 4.08309 7.38322 5.96588
#
# Compressibility (1/GPa) = 0.07675136
#
# Stress axis : x y z
#
# Youngs Moduli (GPa) = 218.10045 14.30447 173.97812
#
# Poissons Ratio (x) = 0.01511 0.35357
# Poissons Ratio (y) = 0.23033 -0.23374
# Poissons Ratio (z) = 0.44324 -0.01922
#
# Static dielectric constant tensor:
#      x y z
#    x 6.199010 0.000000 0.000000 
#    y 0.000000 3.576680 0.000000 
#    z 0.000000 0.000000 4.054180 
# 
# 
# High freq. dielectric constant tensor:
#      x y z
#    x 1.951960 0.000000 0.000000 
#    y 0.000000 1.849130 0.000000 
#    z 0.000000 0.000000 1.900000 
# 
# From -- ./inp_files/11735.got.cif
#   From: 2010.03.12/outbox.cif.g09.slc.cpg/sg55_6_cif.got.tgz:11735.got - 2010.04.16 15:19:21.
