data_PCOD8226124
_publ_section_title
;
Structure prediction by ZEFSAII (Michael W. Deem and Ramdas Pophale) SiO2 
 PCOD8226124
Probable space group: P B A M
;
_chemical_formula_sum "Si O2"
_cell_formula_units_Z 64
_cell_length_a 34.555077
_cell_length_b 10.858898
_cell_length_c 9.371458
_cell_angle_alpha 90.000000
_cell_angle_beta 90.000000
_cell_angle_gamma 90.000000
_cell_volume 3516.452715
_symmetry_space_group_name_H-M "P B A M"
_symmetry_group_IT_number 55
_symmetry_cell_setting 'orthorhombic'
loop_
_space_group_symop_operation_xyz
x,y,z
-x,-y,z
1/2+x,1/2-y,-z
1/2-x,1/2+y,-z
-x,-y,-z
x,y,-z
1/2-x,1/2+y,z
1/2+x,1/2-y,z
loop_
_atom_site_type_symbol
_atom_site_label
_atom_site_fract_x
_atom_site_fract_y
_atom_site_fract_z
Si Si1 0.581702 0.724994 0.834921
Si Si2 0.648632 0.843298 0.335838
Si Si3 0.283734 0.847204 0.165466
Si Si4 0.544221 0.519424 0.658730
Si Si5 0.139333 0.374644 0.336381
Si Si6 0.225545 0.627362 0.166157
Si Si7 0.437897 0.752162 0.340556
Si Si8 0.495229 0.136797 0.835617
O O1 0.619499 0.753271 0.743907
O O2 0.564480 0.597808 0.780262
O O3 0.549346 0.828958 0.811300
O O4 0.593342 0.712433 0.000000
O O5 0.652578 0.802314 0.500000
O O6 0.689852 0.831500 0.261653
O O7 0.632532 0.980539 0.321638
O O8 0.323497 0.830751 0.249607
O O9 0.258336 0.727422 0.207368
O O10 0.263874 0.982277 0.199802
O O11 0.294140 0.842721 0.000000
O O12 0.500000 0.500000 0.704333
O O13 0.545680 0.581256 0.500000
O O14 0.568014 0.393339 0.654744
O O15 0.145971 0.335018 0.500000
O O16 0.100764 0.311362 0.272301
O O17 0.214674 0.640566 0.000000
O O18 0.443872 0.805835 0.500000
O O19 0.476330 0.775779 0.250641
O O20 0.500000 0.000000 0.776299
O O21 0.507291 0.147344 0.000000
#
# Coordination Sequence:
#
# PCOD8226124 Si02
#       8
#     8   8   8   8   8   8   8   8
#     4  11  22  35  53  76 104 138 177 219 264 314
#     4  10  20  35  56  80 107 139 175 216 263 313
#     4   9  18  34  57  81 109 143 176 215 264 318
#     4  10  20  36  55  73 101 141 180 220 267 319
#     4   9  19  35  55  80 108 137 174 218 262 312
#     4   9  18  35  57  81 110 142 176 216 263 317
#     4  10  20  35  54  75 102 137 176 218 264 312
#     4  10  21  34  50  75 104 133 170 218 265 312
#
# _framework density 18.200158999999999
#
# number of rings (size 3 to 8) (size 9 to 14) (size 15 to 20)
#    0.000    2.250    1.250    1.500    0.000    3.000 
#    2.250    0.000    0.000    0.000    0.000    0.000 
#    0.000    0.000    0.000    0.000    0.000    0.000 
#
# Total GULP energy -793484.881619 kJ/mol
# GULP energy per Si atom -12398.201275 kJ/mol
# Density = 1.815873 g / cm^3
# Si number density = 18.200159 Si / 1000 Ang^3
#
#
#
# Elastic Constant Matrix: (Units=GPa)
#
#
# Indices 1 2 3 4 5 6 
#
# 1 73.3835 23.0210 39.5551 0.0000 0.0000 0.0000
# 2 23.0210 62.7797 23.4294 0.0000 0.0000 0.0000
# 3 39.5551 23.4294 70.7351 0.0000 0.0000 0.0000
# 4 0.0000 0.0000 0.0000 25.7584 0.0000 0.0000
# 5 0.0000 0.0000 0.0000 0.0000 38.9042 0.0000
# 6 0.0000 0.0000 0.0000 0.0000 0.0000 32.9810
#
#
#
# Elastic Compliance Matrix: (Units=1/GPa)
#
#
# Indices 1 2 3 4 5 6 
#
# 1 0.020212 -0.003644 -0.010095 0.000000 0.000000 0.000000
# 2 -0.003644 0.018832 -0.004200 0.000000 0.000000 0.000000
# 3 -0.010095 -0.004200 0.021174 0.000000 0.000000 0.000000
# 4 0.000000 0.000000 0.000000 0.038822 0.000000 0.000000
# 5 0.000000 0.000000 0.000000 0.000000 0.025704 0.000000
# 6 0.000000 0.000000 0.000000 0.000000 0.000000 0.030321
#
#
# Mechanical properties :
#
#
# Convention : Reuss Voigt Hill
#
# Bulk Modulus (GPa) = 41.08633 42.10104 41.59369
# Shear Modulus (GPa) = 25.11842 27.58823 26.35332
#
# Velocity S-wave (km/s) = 3.71903 3.89758 3.80935
# Velocity P-wave (km/s) = 6.40822 6.59070 6.50010
#
# Compressibility (1/GPa) = 0.02433899
#
# Stress axis : x y z
#
# Youngs Moduli (GPa) = 49.47601 53.09994 47.22810
#
# Poissons Ratio (x) = 0.19349 0.47679
# Poissons Ratio (y) = 0.18029 0.19836
# Poissons Ratio (z) = 0.49948 0.22303
#
# Static dielectric constant tensor:
#      x y z
#    x 3.255810 0.000000 0.000000 
#    y 0.000000 3.432140 0.000000 
#    z 0.000000 0.000000 3.408660 
# 
# 
# High freq. dielectric constant tensor:
#      x y z
#    x 1.696390 0.000000 0.000000 
#    y 0.000000 1.704900 0.000000 
#    z 0.000000 0.000000 1.707520 
# 
# From -- ./inp_files/10807.got.cif
#   From: 2010.03.12/outbox.cif.g09.slc.cpg/sg55_6_cif.got.tgz:10807.got - 2010.04.16 15:19:21.
