data_PCOD8226275
_publ_section_title
;
Structure prediction by ZEFSAII (Michael W. Deem and Ramdas Pophale) SiO2 
 PCOD8226275
Probable space group: P B A M
;
_chemical_formula_sum "Si O2"
_cell_formula_units_Z 56
_cell_length_a 14.687123
_cell_length_b 22.089225
_cell_length_c 8.818188
_cell_angle_alpha 90.000000
_cell_angle_beta 90.000000
_cell_angle_gamma 90.000000
_cell_volume 2860.859729
_symmetry_space_group_name_H-M "P B A M"
_symmetry_group_IT_number 55
_symmetry_cell_setting 'orthorhombic'
loop_
_space_group_symop_operation_xyz
x,y,z
-x,-y,z
1/2+x,1/2-y,-z
1/2-x,1/2+y,-z
-x,-y,-z
x,y,-z
1/2-x,1/2+y,z
1/2+x,1/2-y,z
loop_
_atom_site_type_symbol
_atom_site_label
_atom_site_fract_x
_atom_site_fract_y
_atom_site_fract_z
Si Si1 0.723865 0.513598 0.180748
Si Si2 0.575973 0.048462 0.178951
Si Si3 0.604015 0.747004 0.176249
Si Si4 0.582954 0.611297 0.179706
Si Si5 0.379926 0.602359 0.179920
Si Si6 0.555042 0.178351 0.678719
Si Si7 0.311907 0.730513 0.176185
O O1 0.826681 0.523493 0.236697
O O2 0.659869 0.566965 0.247442
O O3 0.686480 0.449649 0.245085
O O4 0.718826 0.513357 0.000000
O O5 0.553074 0.110807 0.259025
O O6 0.500000 0.000000 0.225997
O O7 0.577079 0.059809 0.000000
O O8 0.598452 0.678947 0.241141
O O9 0.536403 0.788772 0.269299
O O10 0.704629 0.771804 0.202428
O O11 0.575526 0.749028 0.000000
O O12 0.483334 0.587713 0.229509
O O13 0.591831 0.611983 0.000000
O O14 0.351638 0.667999 0.243866
O O15 0.371230 0.604389 0.000000
O O16 0.558589 0.176166 0.500000
O O17 0.644391 0.212931 0.737709
O O18 0.336454 0.738390 0.000000
#
# Coordination Sequence:
#
# PCOD8226275 Si02
#       7
#     8   8   8   8   8   8   8
#     4   9  17  29  50  84 117 144 179 233 301 349
#     4  10  22  39  61  85 113 149 199 252 294 349
#     4  10  20  35  60  87 114 151 199 251 300 347
#     4   9  15  27  48  80 116 144 174 227 294 353
#     4   9  16  27  49  83 116 143 178 234 296 346
#     4  12  25  40  59  84 122 162 196 240 297 369
#     4  10  20  36  61  89 118 151 199 255 297 346
#
# _framework density 19.574534
#
# number of rings (size 3 to 8) (size 9 to 14) (size 15 to 20)
#    0.000    2.143    1.429    2.571    2.000    4.857 
#    0.000    0.000    0.000    0.000    0.000    1.000 
#    0.000    0.000    0.000    0.000    0.000    0.000 
#
# Total GULP energy -694439.970998 kJ/mol
# GULP energy per Si atom -12400.713768 kJ/mol
# Density = 1.952998 g / cm^3
# Si number density = 19.574534 Si / 1000 Ang^3
#
#
#
# Elastic Constant Matrix: (Units=GPa)
#
#
# Indices 1 2 3 4 5 6 
#
# 1 125.0861 71.5325 16.7494 0.0000 0.0000 0.0000
# 2 71.5325 158.0552 39.3208 0.0000 0.0000 0.0000
# 3 16.7494 39.3208 26.6263 0.0000 0.0000 0.0000
# 4 0.0000 0.0000 0.0000 5.8912 0.0000 0.0000
# 5 0.0000 0.0000 0.0000 0.0000 9.2520 0.0000
# 6 0.0000 0.0000 0.0000 0.0000 0.0000 31.5920
#
#
#
# Elastic Compliance Matrix: (Units=1/GPa)
#
#
# Indices 1 2 3 4 5 6 
#
# 1 0.010794 -0.005052 0.000671 0.000000 0.000000 0.000000
# 2 -0.005052 0.012366 -0.015083 0.000000 0.000000 0.000000
# 3 0.000671 -0.015083 0.059409 0.000000 0.000000 0.000000
# 4 0.000000 0.000000 0.000000 0.169744 0.000000 0.000000
# 5 0.000000 0.000000 0.000000 0.000000 0.108084 0.000000
# 6 0.000000 0.000000 0.000000 0.000000 0.000000 0.031654
#
#
# Mechanical properties :
#
#
# Convention : Reuss Voigt Hill
#
# Bulk Modulus (GPa) = 22.91495 62.77476 42.84486
# Shear Modulus (GPa) = 11.22267 21.49137 16.35702
#
# Velocity S-wave (km/s) = 2.39703 3.31709 2.89386
# Velocity P-wave (km/s) = 4.40374 6.84178 5.75339
#
# Compressibility (1/GPa) = 0.04363962
#
# Stress axis : x y z
#
# Youngs Moduli (GPa) = 92.64693 80.86922 16.83235
#
# Poissons Ratio (x) = 0.40854 -0.01129
# Poissons Ratio (y) = 0.46803 0.25389
# Poissons Ratio (z) = -0.06212 1.21977
#
# Static dielectric constant tensor:
#      x y z
#    x 3.766330 0.000000 0.000000 
#    y 0.000000 3.825540 0.000000 
#    z 0.000000 0.000000 2.974340 
# 
# 
# High freq. dielectric constant tensor:
#      x y z
#    x 1.780670 0.000000 0.000000 
#    y 0.000000 1.778980 0.000000 
#    z 0.000000 0.000000 1.696170 
# 
# From -- ./inp_files/6138.got.cif
#   From: 2010.03.12/outbox.cif.g09.slc.cpg/sg55_4_cif.got.tgz:6138.got - 2010.04.16 15:19:21.
