data_PCOD8226967
_publ_section_title
;
Structure prediction by ZEFSAII (Michael W. Deem and Ramdas Pophale) SiO2 
 PCOD8226967
Probable space group: P B A M
;
_chemical_formula_sum "Si O2"
_cell_formula_units_Z 40
_cell_length_a 18.072555
_cell_length_b 13.081215
_cell_length_c 9.044626
_cell_angle_alpha 90.000000
_cell_angle_beta 90.000000
_cell_angle_gamma 90.000000
_cell_volume 2138.248874
_symmetry_space_group_name_H-M "P B A M"
_symmetry_group_IT_number 55
_symmetry_cell_setting 'orthorhombic'
loop_
_space_group_symop_operation_xyz
x,y,z
-x,-y,z
1/2+x,1/2-y,-z
1/2-x,1/2+y,-z
-x,-y,-z
x,y,-z
1/2-x,1/2+y,z
1/2+x,1/2-y,z
loop_
_atom_site_type_symbol
_atom_site_label
_atom_site_fract_x
_atom_site_fract_y
_atom_site_fract_z
Si Si1 0.953766 0.597597 0.672031
Si Si2 0.485388 0.316905 0.329586
Si Si3 0.813972 0.672138 0.170927
Si Si4 0.671560 0.592499 0.673767
Si Si5 0.122798 0.104915 0.170526
O O1 0.933111 0.588945 0.500000
O O2 0.003025 0.697469 0.705100
O O3 0.000000 0.500000 0.726195
O O4 0.877920 0.599904 0.763456
O O5 0.502314 0.341983 0.500000
O O6 0.402182 0.344843 0.286093
O O7 0.539887 0.387056 0.233630
O O8 0.738410 0.654997 0.256843
O O9 0.834522 0.789667 0.195208
O O10 0.803808 0.644163 0.000000
O O11 0.683706 0.582614 0.500000
O O12 0.668879 0.479822 0.742209
O O13 0.117768 0.074045 0.000000
#
# Coordination Sequence:
#
# PCOD8226967 Si02
#       5
#     8   8   8   8   8
#     4   9  18  35  58  81 107 142 182 222 267 321
#     4   9  19  35  54  79 108 138 178 223 267 321
#     4  10  22  38  54  78 111 143 178 222 272 322
#     4  11  22  35  55  81 109 143 181 223 270 320
#     4  10  21  37  56  78 107 142 178 221 272 323
#
# _framework density 18.706894999999999
#
# number of rings (size 3 to 8) (size 9 to 14) (size 15 to 20)
#    0.000    2.200    0.000    2.400    0.000    8.400 
#    0.000    2.000    0.000    0.000    0.000    0.000 
#    0.000    0.000    0.000    0.000    0.000    0.000 
#
# Total GULP energy -496218.437690 kJ/mol
# GULP energy per Si atom -12405.460942 kJ/mol
# Density = 1.866432 g / cm^3
# Si number density = 18.706895 Si / 1000 Ang^3
#
#
#
# Elastic Constant Matrix: (Units=GPa)
#
#
# Indices 1 2 3 4 5 6 
#
# 1 144.4629 49.7506 79.2354 0.0000 0.0000 0.0000
# 2 49.7506 70.7301 46.8407 0.0000 0.0000 0.0000
# 3 79.2354 46.8407 112.8585 0.0000 0.0000 0.0000
# 4 0.0000 0.0000 0.0000 29.7644 0.0000 0.0000
# 5 0.0000 0.0000 0.0000 0.0000 19.7435 0.0000
# 6 0.0000 0.0000 0.0000 0.0000 0.0000 26.1633
#
#
#
# Elastic Compliance Matrix: (Units=1/GPa)
#
#
# Indices 1 2 3 4 5 6 
#
# 1 0.012007 -0.003948 -0.006791 0.000000 0.000000 0.000000
# 2 -0.003948 0.020795 -0.005859 0.000000 0.000000 0.000000
# 3 -0.006791 -0.005859 0.016060 0.000000 0.000000 0.000000
# 4 0.000000 0.000000 0.000000 0.033597 0.000000 0.000000
# 5 0.000000 0.000000 0.000000 0.000000 0.050650 0.000000
# 6 0.000000 0.000000 0.000000 0.000000 0.000000 0.038221
#
#
# Mechanical properties :
#
#
# Convention : Reuss Voigt Hill
#
# Bulk Modulus (GPa) = 63.83243 75.52278 69.67760
# Shear Modulus (GPa) = 23.83808 25.28255 24.56032
#
# Velocity S-wave (km/s) = 3.57360 3.68028 3.62733
# Velocity P-wave (km/s) = 7.15709 7.64974 7.40751
#
# Compressibility (1/GPa) = 0.01566602
#
# Stress axis : x y z
#
# Youngs Moduli (GPa) = 83.28803 48.08767 62.26573
#
# Poissons Ratio (x) = 0.18985 0.42284
# Poissons Ratio (y) = 0.32882 0.36482
# Poissons Ratio (z) = 0.56561 0.28175
#
# Static dielectric constant tensor:
#      x y z
#    x 3.411250 0.000000 0.000000 
#    y 0.000000 3.483560 0.000000 
#    z 0.000000 0.000000 3.522240 
# 
# 
# High freq. dielectric constant tensor:
#      x y z
#    x 1.727070 0.000000 0.000000 
#    y 0.000000 1.729640 0.000000 
#    z 0.000000 0.000000 1.733400 
# 
# From -- ./inp_files/3612.got.cif
#   From: 2010.03.12/outbox.cif.g09.slc.cpg/sg55_2_cif.got.tgz:3612.got - 2010.04.16 15:19:21.
