data_PCOD8226956
_publ_section_title
;
Structure prediction by ZEFSAII (Michael W. Deem and Ramdas Pophale) SiO2 
 PCOD8226956
Probable space group: P B A M
;
_chemical_formula_sum "Si O2"
_cell_formula_units_Z 64
_cell_length_a 17.128423
_cell_length_b 21.954643
_cell_length_c 9.345114
_cell_angle_alpha 90.000000
_cell_angle_beta 90.000000
_cell_angle_gamma 90.000000
_cell_volume 3514.215281
_symmetry_space_group_name_H-M "P B A M"
_symmetry_group_IT_number 55
_symmetry_cell_setting 'orthorhombic'
loop_
_space_group_symop_operation_xyz
x,y,z
-x,-y,z
1/2+x,1/2-y,-z
1/2-x,1/2+y,-z
-x,-y,-z
x,y,-z
1/2-x,1/2+y,z
1/2+x,1/2-y,z
loop_
_atom_site_type_symbol
_atom_site_label
_atom_site_fract_x
_atom_site_fract_y
_atom_site_fract_z
Si Si1 0.164964 0.778765 0.838110
Si Si2 0.587888 0.933495 0.330653
Si Si3 0.723839 0.109018 0.161037
Si Si4 0.585027 0.070028 0.668478
Si Si5 0.287088 0.161090 0.331019
Si Si6 0.526652 0.633370 0.166179
Si Si7 0.876871 0.896423 0.330204
Si Si8 0.138121 0.978043 0.833573
O O1 0.234119 0.826821 0.827341
O O2 0.186804 0.724747 0.733391
O O3 0.084262 0.811313 0.791541
O O4 0.157595 0.754227 0.000000
O O5 0.593697 0.936608 0.500000
O O6 0.502063 0.908727 0.287255
O O7 0.654521 0.890007 0.267161
O O8 0.599815 0.001743 0.272355
O O9 0.647821 0.113937 0.259510
O O10 0.781537 0.054991 0.210843
O O11 0.696668 0.096348 0.000000
O O12 0.596579 0.073717 0.500000
O O13 0.296195 0.166380 0.500000
O O14 0.199460 0.142562 0.288053
O O15 0.450379 0.639308 0.264495
O O16 0.566942 0.568212 0.194639
O O17 0.503043 0.638247 0.000000
O O18 0.886092 0.902218 0.500000
O O19 0.871892 0.963675 0.265441
O O20 0.138967 0.997476 0.000000
#
# Coordination Sequence:
#
# PCOD8226956 Si02
#       8
#     8   8   8   8   8   8   8   8
#     4   9  20  39  57  72  97 137 181 216 254 306
#     4   8  16  32  52  74 103 137 168 205 253 307
#     4   9  18  33  52  76 105 133 167 216 260 297
#     4   9  16  30  54  79 102 133 171 204 251 315
#     4  10  21  37  53  73 105 140 174 216 260 304
#     4   9  19  37  57  76 103 140 178 213 256 312
#     4  11  22  33  51  83 112 134 169 216 262 311
#     4   9  18  33  54  78 107 143 173 204 257 315
#
# _framework density 18.211748
#
# number of rings (size 3 to 8) (size 9 to 14) (size 15 to 20)
#    0.000    2.750    0.000    3.750    0.000    5.500 
#    2.250    5.000    0.000    0.000    0.000    0.000 
#    0.000    0.000    0.000    0.000    0.000    0.000 
#
# Total GULP energy -793477.335073 kJ/mol
# GULP energy per Si atom -12398.083361 kJ/mol
# Density = 1.817030 g / cm^3
# Si number density = 18.211748 Si / 1000 Ang^3
#
#
#
# Elastic Constant Matrix: (Units=GPa)
#
#
# Indices 1 2 3 4 5 6 
#
# 1 140.3128 51.9256 57.4239 0.0000 0.0000 0.0000
# 2 51.9256 81.5830 38.7943 0.0000 0.0000 0.0000
# 3 57.4239 38.7943 59.4757 0.0000 0.0000 0.0000
# 4 0.0000 0.0000 0.0000 32.1723 0.0000 0.0000
# 5 0.0000 0.0000 0.0000 0.0000 30.7059 0.0000
# 6 0.0000 0.0000 0.0000 0.0000 0.0000 14.2135
#
#
#
# Elastic Compliance Matrix: (Units=1/GPa)
#
#
# Indices 1 2 3 4 5 6 
#
# 1 0.012323 -0.003168 -0.009831 0.000000 0.000000 0.000000
# 2 -0.003168 0.018583 -0.009062 0.000000 0.000000 0.000000
# 3 -0.009831 -0.009062 0.032217 0.000000 0.000000 0.000000
# 4 0.000000 0.000000 0.000000 0.031083 0.000000 0.000000
# 5 0.000000 0.000000 0.000000 0.000000 0.032567 0.000000
# 6 0.000000 0.000000 0.000000 0.000000 0.000000 0.070355
#
#
# Mechanical properties :
#
#
# Convention : Reuss Voigt Hill
#
# Bulk Modulus (GPa) = 52.63367 64.18435 58.40901
# Shear Modulus (GPa) = 20.19508 24.30020 22.24764
#
# Velocity S-wave (km/s) = 3.33363 3.65679 3.49894
# Velocity P-wave (km/s) = 6.61673 7.29036 6.96170
#
# Compressibility (1/GPa) = 0.01899924
#
# Stress axis : x y z
#
# Youngs Moduli (GPa) = 81.14969 53.81158 31.03973
#
# Poissons Ratio (x) = 0.17049 0.30516
# Poissons Ratio (y) = 0.25711 0.28129
# Poissons Ratio (z) = 0.79780 0.48766
#
# Static dielectric constant tensor:
#      x y z
#    x 3.570070 0.000000 0.000000 
#    y 0.000000 3.251310 0.000000 
#    z 0.000000 0.000000 3.157660 
# 
# 
# High freq. dielectric constant tensor:
#      x y z
#    x 1.718590 0.000000 0.000000 
#    y 0.000000 1.692160 0.000000 
#    z 0.000000 0.000000 1.688360 
# 
# From -- ./inp_files/8198.got.cif
#   From: 2010.03.12/outbox.cif.g09.slc.cpg/sg55_5_cif.got.tgz:8198.got - 2010.04.16 15:19:21.
