data_PCOD8226653
_publ_section_title
;
Structure prediction by ZEFSAII (Michael W. Deem and Ramdas Pophale) SiO2 
 PCOD8226653
Probable space group: P B A M
;
_chemical_formula_sum "Si O2"
_cell_formula_units_Z 56
_cell_length_a 21.784505
_cell_length_b 14.508267
_cell_length_c 9.129373
_cell_angle_alpha 90.000000
_cell_angle_beta 90.000000
_cell_angle_gamma 90.000000
_cell_volume 2885.387772
_symmetry_space_group_name_H-M "P B A M"
_symmetry_group_IT_number 55
_symmetry_cell_setting 'orthorhombic'
loop_
_space_group_symop_operation_xyz
x,y,z
-x,-y,z
1/2+x,1/2-y,-z
1/2-x,1/2+y,-z
-x,-y,-z
x,y,-z
1/2-x,1/2+y,z
1/2+x,1/2-y,z
loop_
_atom_site_type_symbol
_atom_site_label
_atom_site_fract_x
_atom_site_fract_y
_atom_site_fract_z
Si Si1 0.682862 0.026875 0.826490
Si Si2 0.408801 0.374581 0.669246
Si Si3 0.109281 0.083997 0.331320
Si Si4 0.480343 0.718862 0.826321
Si Si5 0.747742 0.377221 0.668262
Si Si6 0.270531 0.332749 0.669484
Si Si7 0.547451 0.075532 0.174062
O O1 0.730263 0.101655 0.768758
O O2 0.615161 0.051023 0.767641
O O3 0.701295 0.926370 0.767486
O O4 0.685032 0.025786 0.000000
O O5 0.422099 0.352061 0.500000
O O6 0.418033 0.483033 0.699253
O O7 0.455234 0.317719 0.768025
O O8 0.341173 0.342605 0.714861
O O9 0.099422 0.112690 0.500000
O O10 0.075693 0.157558 0.230508
O O11 0.181125 0.082252 0.292436
O O12 0.471317 0.823191 0.769534
O O13 0.480562 0.713872 0.000000
O O14 0.764398 0.396723 0.500000
O O15 0.748024 0.269624 0.702690
O O16 0.261725 0.360892 0.500000
O O17 0.500000 0.000000 0.237737
O O18 0.546464 0.073327 0.000000
#
# Coordination Sequence:
#
# PCOD8226653 Si02
#       7
#     8   8   8   8   8   8   8
#     4  11  22  37  62  90 118 154 195 244 292 348
#     4  10  21  38  58  83 117 155 192 235 294 354
#     4  10  20  38  60  83 117 157 188 228 295 359
#     4  11  23  37  59  86 114 151 198 247 284 338
#     4  10  21  38  62  88 117 156 195 238 296 351
#     4  10  21  39  62  86 119 158 197 243 292 354
#     4   9  21  41  59  80 118 161 193 230 293 352
#
# _framework density 19.408137
#
# number of rings (size 3 to 8) (size 9 to 14) (size 15 to 20)
#    0.000    1.857    1.429    2.143    2.000    4.000 
#    0.000    2.143    0.000    3.429    0.000    0.000 
#    0.000    0.000    0.000    0.000    0.000    0.000 
#
# Total GULP energy -694647.435485 kJ/mol
# GULP energy per Si atom -12404.418491 kJ/mol
# Density = 1.936396 g / cm^3
# Si number density = 19.408137 Si / 1000 Ang^3
#
#
#
# Elastic Constant Matrix: (Units=GPa)
#
#
# Indices 1 2 3 4 5 6 
#
# 1 91.6619 32.7642 41.3223 0.0000 0.0000 0.0000
# 2 32.7642 70.9520 33.5380 0.0000 0.0000 0.0000
# 3 41.3223 33.5380 63.4287 0.0000 0.0000 0.0000
# 4 0.0000 0.0000 0.0000 29.7506 0.0000 0.0000
# 5 0.0000 0.0000 0.0000 0.0000 29.1270 0.0000
# 6 0.0000 0.0000 0.0000 0.0000 0.0000 35.4210
#
#
#
# Elastic Compliance Matrix: (Units=1/GPa)
#
#
# Indices 1 2 3 4 5 6 
#
# 1 0.015999 -0.003281 -0.008688 0.000000 0.000000 0.000000
# 2 -0.003281 0.019463 -0.008154 0.000000 0.000000 0.000000
# 3 -0.008688 -0.008154 0.025737 0.000000 0.000000 0.000000
# 4 0.000000 0.000000 0.000000 0.033613 0.000000 0.000000
# 5 0.000000 0.000000 0.000000 0.000000 0.034332 0.000000
# 6 0.000000 0.000000 0.000000 0.000000 0.000000 0.028232
#
#
# Mechanical properties :
#
#
# Convention : Reuss Voigt Hill
#
# Bulk Modulus (GPa) = 47.72449 49.03240 48.37844
# Shear Modulus (GPa) = 24.43706 26.75426 25.59566
#
# Velocity S-wave (km/s) = 3.55225 3.71685 3.63548
# Velocity P-wave (km/s) = 6.43956 6.61352 6.52712
#
# Compressibility (1/GPa) = 0.02095360
#
# Stress axis : x y z
#
# Youngs Moduli (GPa) = 62.50272 51.37853 38.85459
#
# Poissons Ratio (x) = 0.16859 0.33757
# Poissons Ratio (y) = 0.20510 0.31680
# Poissons Ratio (z) = 0.54303 0.41891
#
# Static dielectric constant tensor:
#      x y z
#    x 3.731350 0.000000 0.000000 
#    y 0.000000 3.732250 0.000000 
#    z 0.000000 0.000000 3.361770 
# 
# 
# High freq. dielectric constant tensor:
#      x y z
#    x 1.768070 0.000000 0.000000 
#    y 0.000000 1.770320 0.000000 
#    z 0.000000 0.000000 1.735620 
# 
# From -- ./inp_files/6177.got.cif
#   From: 2010.03.12/outbox.cif.g09.slc.cpg/sg55_4_cif.got.tgz:6177.got - 2010.04.16 15:19:21.
