data_PCOD8226689
_publ_section_title
;
Structure prediction by ZEFSAII (Michael W. Deem and Ramdas Pophale) SiO2 
 PCOD8226689
Probable space group: P B A M
;
_chemical_formula_sum "Si O2"
_cell_formula_units_Z 48
_cell_length_a 8.798516
_cell_length_b 19.912413
_cell_length_c 13.451764
_cell_angle_alpha 90.000000
_cell_angle_beta 90.000000
_cell_angle_gamma 90.000000
_cell_volume 2356.744807
_symmetry_space_group_name_H-M "P B A M"
_symmetry_group_IT_number 55
_symmetry_cell_setting 'orthorhombic'
loop_
_space_group_symop_operation_xyz
x,y,z
-x,-y,z
1/2+x,1/2-y,-z
1/2-x,1/2+y,-z
-x,-y,-z
x,y,-z
1/2-x,1/2+y,z
1/2+x,1/2-y,z
loop_
_atom_site_type_symbol
_atom_site_label
_atom_site_fract_x
_atom_site_fract_y
_atom_site_fract_z
Si Si1 0.521873 0.705093 0.388736
Si Si2 0.797457 0.451015 0.116860
Si Si3 0.639226 0.159353 0.388527
Si Si4 0.878555 0.589864 0.190402
Si Si5 0.878531 0.830571 0.195029
Si Si6 0.306378 0.284940 0.886090
O O1 0.477450 0.681431 0.500000
O O2 0.489961 0.784225 0.375679
O O3 0.698757 0.693857 0.366230
O O4 0.421286 0.662489 0.311324
O O5 0.781746 0.522498 0.171757
O O6 0.661606 0.404229 0.155229
O O7 0.957025 0.416430 0.141468
O O8 0.782887 0.462779 0.000000
O O9 0.634975 0.128753 0.500000
O O10 0.608024 0.100475 0.309453
O O11 0.797803 0.651967 0.138999
O O12 0.739122 0.779155 0.180512
O O13 0.018974 0.801213 0.133445
O O14 0.284418 0.264607 0.000000
#
# Coordination Sequence:
#
# PCOD8226689 Si02
#       6
#     8   8   8   8   8   8
#     4  10  20  38  62  93 124 156 199 252 313 362
#     4  11  25  43  62  86 126 170 209 253 311 369
#     4  10  21  39  64  93 124 160 201 257 314 370
#     4  11  22  42  63  87 120 166 208 254 308 366
#     4  12  23  40  60  93 123 158 207 252 313 367
#     4  12  23  37  61  90 123 158 206 260 304 361
#
# _framework density 20.367075
#
# number of rings (size 3 to 8) (size 9 to 14) (size 15 to 20)
#    0.000    1.000    3.333    4.500    2.333    0.667 
#    0.000    4.167    0.000    2.000    0.000    0.000 
#    0.000    0.000    0.000    0.000    0.000    0.000 
#
# Total GULP energy -595403.335976 kJ/mol
# GULP energy per Si atom -12404.236166 kJ/mol
# Density = 2.032072 g / cm^3
# Si number density = 20.367075 Si / 1000 Ang^3
#
#
#
# Elastic Constant Matrix: (Units=GPa)
#
#
# Indices 1 2 3 4 5 6 
#
# 1 11.4242 -2.8572 10.7182 0.0000 0.0000 0.0000
# 2 -2.8572 75.4623 39.1840 0.0000 0.0000 0.0000
# 3 10.7182 39.1840 133.3604 0.0000 0.0000 0.0000
# 4 0.0000 0.0000 0.0000 36.6478 0.0000 0.0000
# 5 0.0000 0.0000 0.0000 0.0000 33.4938 0.0000
# 6 0.0000 0.0000 0.0000 0.0000 0.0000 30.3911
#
#
#
# Elastic Compliance Matrix: (Units=1/GPa)
#
#
# Indices 1 2 3 4 5 6 
#
# 1 0.100014 0.009394 -0.010798 0.000000 0.000000 0.000000
# 2 0.009394 0.016520 -0.005609 0.000000 0.000000 0.000000
# 3 -0.010798 -0.005609 0.010014 0.000000 0.000000 0.000000
# 4 0.000000 0.000000 0.000000 0.027287 0.000000 0.000000
# 5 0.000000 0.000000 0.000000 0.000000 0.029856 0.000000
# 6 0.000000 0.000000 0.000000 0.000000 0.000000 0.032904
#
#
# Mechanical properties :
#
#
# Convention : Reuss Voigt Hill
#
# Bulk Modulus (GPa) = 8.88720 34.92630 21.90675
# Shear Modulus (GPa) = 18.64776 31.65334 25.15055
#
# Velocity S-wave (km/s) = 3.02914 3.94654 3.51787
# Velocity P-wave (km/s) = 4.07520 6.16056 5.22302
#
# Compressibility (1/GPa) = 0.11252132
#
# Stress axis : x y z
#
# Youngs Moduli (GPa) = 9.99862 60.53375 99.85712
#
# Poissons Ratio (x) = -0.56864 1.07828
# Poissons Ratio (y) = -0.09392 0.56008
# Poissons Ratio (z) = 0.10797 0.33952
#
# Static dielectric constant tensor:
#      x y z
#    x 3.712240 0.000000 0.000000 
#    y 0.000000 3.643440 0.000000 
#    z 0.000000 0.000000 4.053190 
# 
# 
# High freq. dielectric constant tensor:
#      x y z
#    x 1.800190 0.000000 0.000000 
#    y 0.000000 1.773150 0.000000 
#    z 0.000000 0.000000 1.816350 
# 
# From -- ./inp_files/17330.got.cif
#   From: 2010.03.12/outbox.cif.g09.slc.cpg/sg55_9_cif.got.tgz:17330.got - 2010.04.16 15:19:21.
