data_PCOD8226652
_publ_section_title
;
Structure prediction by ZEFSAII (Michael W. Deem and Ramdas Pophale) SiO2 
 PCOD8226652
Probable space group: P B A M
;
_chemical_formula_sum "Si O2"
_cell_formula_units_Z 48
_cell_length_a 27.608344
_cell_length_b 9.898764
_cell_length_c 9.104275
_cell_angle_alpha 90.000000
_cell_angle_beta 90.000000
_cell_angle_gamma 90.000000
_cell_volume 2488.093492
_symmetry_space_group_name_H-M "P B A M"
_symmetry_group_IT_number 55
_symmetry_cell_setting 'orthorhombic'
loop_
_space_group_symop_operation_xyz
x,y,z
-x,-y,z
1/2+x,1/2-y,-z
1/2-x,1/2+y,-z
-x,-y,-z
x,y,-z
1/2-x,1/2+y,z
1/2+x,1/2-y,z
loop_
_atom_site_type_symbol
_atom_site_label
_atom_site_fract_x
_atom_site_fract_y
_atom_site_fract_z
Si Si1 0.564989 0.738434 0.830146
Si Si2 0.112104 0.045322 0.829857
Si Si3 0.044824 0.291841 0.827880
Si Si4 0.209662 0.100978 0.325337
Si Si5 0.793895 0.593777 0.674253
Si Si6 0.102860 0.512756 0.325817
O O1 0.580493 0.586274 0.797740
O O2 0.509243 0.751368 0.783095
O O3 0.598376 0.834863 0.731566
O O4 0.572317 0.777126 0.000000
O O5 0.080337 0.172174 0.778444
O O6 0.160500 0.037952 0.735383
O O7 0.126229 0.056878 0.000000
O O8 0.058901 0.426460 0.740743
O O9 0.048893 0.321732 0.000000
O O10 0.207085 0.097031 0.500000
O O11 0.216970 0.254647 0.268600
O O12 0.253621 0.009533 0.264209
O O13 0.793086 0.590604 0.500000
O O14 0.846299 0.547258 0.732018
O O15 0.099716 0.510612 0.500000
#
# Coordination Sequence:
#
# PCOD8226652 Si02
#       6
#     8   8   8   8   8   8
#     4  10  22  38  57  83 114 152 192 227 274 339
#     4  10  21  38  59  85 114 146 188 238 281 325
#     4  10  20  38  61  81 110 153 192 228 279 338
#     4  10  20  38  60  82 110 147 187 228 277 338
#     4   9  20  36  58  83 109 144 185 226 276 336
#     4  11  22  37  57  86 117 146 186 237 282 327
#
# _framework density 19.291879000000002
#
# number of rings (size 3 to 8) (size 9 to 14) (size 15 to 20)
#    0.000    2.000    1.667    1.500    2.333    5.333 
#    0.000    2.500    0.000    3.000    0.000    0.000 
#    0.000    0.000    0.000    0.000    0.000    0.000 
#
# Total GULP energy -595404.760594 kJ/mol
# GULP energy per Si atom -12404.265846 kJ/mol
# Density = 1.924797 g / cm^3
# Si number density = 19.291879 Si / 1000 Ang^3
#
#
#
# Elastic Constant Matrix: (Units=GPa)
#
#
# Indices 1 2 3 4 5 6 
#
# 1 110.6495 30.3124 25.3499 0.0000 0.0000 0.0000
# 2 30.3124 79.1645 21.5973 0.0000 0.0000 0.0000
# 3 25.3499 21.5973 34.0191 0.0000 0.0000 0.0000
# 4 0.0000 0.0000 0.0000 27.8967 0.0000 0.0000
# 5 0.0000 0.0000 0.0000 0.0000 28.3168 0.0000
# 6 0.0000 0.0000 0.0000 0.0000 0.0000 42.2938
#
#
#
# Elastic Compliance Matrix: (Units=1/GPa)
#
#
# Indices 1 2 3 4 5 6 
#
# 1 0.011278 -0.002450 -0.006848 0.000000 0.000000 0.000000
# 2 -0.002450 0.015810 -0.008212 0.000000 0.000000 0.000000
# 3 -0.006848 -0.008212 0.039712 0.000000 0.000000 0.000000
# 4 0.000000 0.000000 0.000000 0.035846 0.000000 0.000000
# 5 0.000000 0.000000 0.000000 0.000000 0.035315 0.000000
# 6 0.000000 0.000000 0.000000 0.000000 0.000000 0.023644
#
#
# Mechanical properties :
#
#
# Convention : Reuss Voigt Hill
#
# Bulk Modulus (GPa) = 31.46667 42.03915 36.75291
# Shear Modulus (GPa) = 24.12916 29.47305 26.80110
#
# Velocity S-wave (km/s) = 3.54042 3.91288 3.73130
# Velocity P-wave (km/s) = 5.74970 6.50020 6.13643
#
# Compressibility (1/GPa) = 0.03177965
#
# Stress axis : x y z
#
# Youngs Moduli (GPa) = 88.67074 63.25005 25.18149
#
# Poissons Ratio (x) = 0.15496 0.17245
# Poissons Ratio (y) = 0.21724 0.20678
# Poissons Ratio (z) = 0.60725 0.51939
#
# Static dielectric constant tensor:
#      x y z
#    x 3.643770 0.000000 0.000000 
#    y 0.000000 3.719610 0.000000 
#    z 0.000000 0.000000 3.244200 
# 
# 
# High freq. dielectric constant tensor:
#      x y z
#    x 1.759880 0.000000 0.000000 
#    y 0.000000 1.766560 0.000000 
#    z 0.000000 0.000000 1.723890 
# 
# From -- ./inp_files/2836.got.cif
#   From: 2010.03.12/outbox.cif.g09.slc.cpg/sg55_2_cif.got.tgz:2836.got - 2010.04.16 15:19:21.
