data_PCOD8226417
_publ_section_title
;
Structure prediction by ZEFSAII (Michael W. Deem and Ramdas Pophale) SiO2 
 PCOD8226417
Probable space group: P B A M
;
_chemical_formula_sum "Si O2"
_cell_formula_units_Z 56
_cell_length_a 19.736665
_cell_length_b 15.897547
_cell_length_c 8.684183
_cell_angle_alpha 90.000000
_cell_angle_beta 90.000000
_cell_angle_gamma 90.000000
_cell_volume 2724.788853
_symmetry_space_group_name_H-M "P B A M"
_symmetry_group_IT_number 55
_symmetry_cell_setting 'orthorhombic'
loop_
_space_group_symop_operation_xyz
x,y,z
-x,-y,z
1/2+x,1/2-y,-z
1/2-x,1/2+y,-z
-x,-y,-z
x,y,-z
1/2-x,1/2+y,z
1/2+x,1/2-y,z
loop_
_atom_site_type_symbol
_atom_site_label
_atom_site_fract_x
_atom_site_fract_y
_atom_site_fract_z
Si Si1 0.806943 0.936823 0.176594
Si Si2 0.494264 0.738892 0.179138
Si Si3 0.133627 0.714439 0.679812
Si Si4 0.944852 0.930466 0.320853
Si Si5 0.113458 0.354570 0.322594
Si Si6 0.170952 0.529208 0.322387
Si Si7 0.269571 0.755271 0.177275
O O1 0.871024 0.966890 0.277390
O O2 0.739680 0.986785 0.226779
O O3 0.795197 0.838656 0.206407
O O4 0.822291 0.957498 0.000000
O O5 0.562454 0.745230 0.276510
O O6 0.456797 0.652699 0.220705
O O7 0.445267 0.816827 0.216709
O O8 0.511843 0.740859 0.000000
O O9 0.146682 0.726923 0.500000
O O10 0.134361 0.615877 0.726470
O O11 0.191648 0.764050 0.772093
O O12 0.948090 0.907058 0.500000
O O13 0.000000 0.000000 0.276694
O O14 0.095877 0.335662 0.500000
O O15 0.117812 0.454442 0.290466
O O16 0.186263 0.315875 0.283176
O O17 0.192604 0.531968 0.500000
O O18 0.277178 0.781800 0.000000
#
# Coordination Sequence:
#
# PCOD8226417 Si02
#       7
#     8   8   8   8   8   8   8
#     4  10  20  36  60  87 118 153 193 244 302 358
#     4  12  25  41  61  89 124 162 203 252 310 371
#     4  10  21  40  63  87 120 162 206 254 304 362
#     4  11  24  41  63  89 119 158 203 250 303 368
#     4  11  22  38  62  90 121 162 208 253 302 364
#     4   9  21  39  61  89 119 157 206 253 298 354
#     4  10  20  36  59  88 118 154 199 250 304 362
#
# _framework density 20.552050000000001
#
# number of rings (size 3 to 8) (size 9 to 14) (size 15 to 20)
#    0.000    1.571    1.429    3.429    0.000    5.714 
#    0.000    4.286    0.000    0.000    0.000    0.000 
#    0.000    0.000    0.000    0.000    0.000    0.000 
#
# Total GULP energy -694737.976140 kJ/mol
# GULP energy per Si atom -12406.035288 kJ/mol
# Density = 2.050527 g / cm^3
# Si number density = 20.552050 Si / 1000 Ang^3
#
#
#
# Elastic Constant Matrix: (Units=GPa)
#
#
# Indices 1 2 3 4 5 6 
#
# 1 92.3844 2.2119 9.1715 0.0000 0.0000 0.0000
# 2 2.2119 16.0392 12.6321 0.0000 0.0000 0.0000
# 3 9.1715 12.6321 61.8376 0.0000 0.0000 0.0000
# 4 0.0000 0.0000 0.0000 19.4214 0.0000 0.0000
# 5 0.0000 0.0000 0.0000 0.0000 38.3231 0.0000
# 6 0.0000 0.0000 0.0000 0.0000 0.0000 30.1027
#
#
#
# Elastic Compliance Matrix: (Units=1/GPa)
#
#
# Indices 1 2 3 4 5 6 
#
# 1 0.010987 -0.000276 -0.001573 0.000000 0.000000 0.000000
# 2 -0.000276 0.074308 -0.015139 0.000000 0.000000 0.000000
# 3 -0.001573 -0.015139 0.019497 0.000000 0.000000 0.000000
# 4 0.000000 0.000000 0.000000 0.051490 0.000000 0.000000
# 5 0.000000 0.000000 0.000000 0.000000 0.026094 0.000000
# 6 0.000000 0.000000 0.000000 0.000000 0.000000 0.033220
#
#
# Mechanical properties :
#
#
# Convention : Reuss Voigt Hill
#
# Bulk Modulus (GPa) = 14.12102 24.25470 19.18786
# Shear Modulus (GPa) = 18.30316 27.31913 22.81114
#
# Velocity S-wave (km/s) = 2.98749 3.64986 3.33516
# Velocity P-wave (km/s) = 4.33427 5.43960 4.91809
#
# Compressibility (1/GPa) = 0.07081640
#
# Stress axis : x y z
#
# Youngs Moduli (GPa) = 91.01557 13.45751 51.28940
#
# Poissons Ratio (x) = 0.00372 0.08069
# Poissons Ratio (y) = 0.02514 0.77645
# Poissons Ratio (z) = 0.14318 0.20373
#
# Static dielectric constant tensor:
#      x y z
#    x 3.723550 0.000000 0.000000 
#    y 0.000000 3.676220 0.000000 
#    z 0.000000 0.000000 3.718550 
# 
# 
# High freq. dielectric constant tensor:
#      x y z
#    x 1.808910 0.000000 0.000000 
#    y 0.000000 1.792970 0.000000 
#    z 0.000000 0.000000 1.810280 
# 
# From -- ./inp_files/8744.got.cif
#   From: 2010.03.12/outbox.cif.g09.slc.cpg/sg55_5_cif.got.tgz:8744.got - 2010.04.16 15:19:21.
