data_PCOD8226563
_publ_section_title
;
Structure prediction by ZEFSAII (Michael W. Deem and Ramdas Pophale) SiO2 
 PCOD8226563
Probable space group: P B A M
;
_chemical_formula_sum "Si O2"
_cell_formula_units_Z 40
_cell_length_a 15.598499
_cell_length_b 9.697399
_cell_length_c 13.758622
_cell_angle_alpha 90.000000
_cell_angle_beta 90.000000
_cell_angle_gamma 90.000000
_cell_volume 2081.196149
_symmetry_space_group_name_H-M "P B A M"
_symmetry_group_IT_number 55
_symmetry_cell_setting 'orthorhombic'
loop_
_space_group_symop_operation_xyz
x,y,z
-x,-y,z
1/2+x,1/2-y,-z
1/2-x,1/2+y,-z
-x,-y,-z
x,y,-z
1/2-x,1/2+y,z
1/2+x,1/2-y,z
loop_
_atom_site_type_symbol
_atom_site_label
_atom_site_fract_x
_atom_site_fract_y
_atom_site_fract_z
Si Si1 0.805122 0.474409 0.719400
Si Si2 0.349177 0.197704 0.888731
Si Si3 0.503770 0.661339 0.219724
Si Si4 0.950359 0.361742 0.388905
Si Si5 0.183724 0.233545 0.785228
O O1 0.858800 0.435940 0.818782
O O2 0.850743 0.399962 0.628435
O O3 0.805329 0.638921 0.709981
O O4 0.710147 0.406951 0.727119
O O5 0.421963 0.308100 0.858742
O O6 0.252857 0.260668 0.872269
O O7 0.361416 0.154821 0.000000
O O8 0.500000 0.500000 0.239236
O O9 0.520026 0.734501 0.322908
O O10 0.412843 0.715623 0.176510
O O11 0.965649 0.318605 0.500000
O O12 0.000000 0.500000 0.359139
#
# Coordination Sequence:
#
# PCOD8226563 Si02
#       5
#     8   8   8   8   8
#     4   9  20  37  58  83 118 155 192 247 299 346
#     4   9  22  37  57  88 119 156 202 241 293 359
#     4  11  22  39  63  88 122 159 198 253 305 350
#     4  10  20  38  63  85 115 156 199 246 303 368
#     4  10  20  37  61  81 119 158 196 246 295 352
#
# _framework density 19.219716999999999
#
# number of rings (size 3 to 8) (size 9 to 14) (size 15 to 20)
#    1.200    1.000    2.000    1.200    0.000    2.400 
#    0.000    3.000    0.000    0.000    0.000    0.000 
#    0.000    0.000    0.000    0.000    0.000    0.000 
#
# Total GULP energy -495566.308506 kJ/mol
# GULP energy per Si atom -12389.157713 kJ/mol
# Density = 1.917597 g / cm^3
# Si number density = 19.219717 Si / 1000 Ang^3
#
#
#
# Elastic Constant Matrix: (Units=GPa)
#
#
# Indices 1 2 3 4 5 6 
#
# 1 119.1082 24.0790 27.9480 0.0000 0.0000 0.0000
# 2 24.0790 100.5062 18.5598 0.0000 0.0000 0.0000
# 3 27.9480 18.5598 74.0282 0.0000 0.0000 0.0000
# 4 0.0000 0.0000 0.0000 14.7169 0.0000 0.0000
# 5 0.0000 0.0000 0.0000 0.0000 16.1116 0.0000
# 6 0.0000 0.0000 0.0000 0.0000 0.0000 29.4135
#
#
#
# Elastic Compliance Matrix: (Units=1/GPa)
#
#
# Indices 1 2 3 4 5 6 
#
# 1 0.009477 -0.001688 -0.003155 0.000000 0.000000 0.000000
# 2 -0.001688 0.010733 -0.002054 0.000000 0.000000 0.000000
# 3 -0.003155 -0.002054 0.015214 0.000000 0.000000 0.000000
# 4 0.000000 0.000000 0.000000 0.067949 0.000000 0.000000
# 5 0.000000 0.000000 0.000000 0.000000 0.062067 0.000000
# 6 0.000000 0.000000 0.000000 0.000000 0.000000 0.033998
#
#
# Mechanical properties :
#
#
# Convention : Reuss Voigt Hill
#
# Bulk Modulus (GPa) = 46.22798 48.31290 47.27044
# Shear Modulus (GPa) = 22.68164 26.91877 24.80021
#
# Velocity S-wave (km/s) = 3.43902 3.74649 3.59604
# Velocity P-wave (km/s) = 6.31457 6.62621 6.47226
#
# Compressibility (1/GPa) = 0.02163192
#
# Stress axis : x y z
#
# Youngs Moduli (GPa) = 105.51626 93.16816 65.72769
#
# Poissons Ratio (x) = 0.15726 0.20735
# Poissons Ratio (y) = 0.17811 0.13499
# Poissons Ratio (z) = 0.33288 0.19134
#
# Static dielectric constant tensor:
#      x y z
#    x 3.704320 0.000000 0.000000 
#    y 0.000000 3.360210 0.000000 
#    z 0.000000 0.000000 3.040540 
# 
# 
# High freq. dielectric constant tensor:
#      x y z
#    x 1.756700 0.000000 0.000000 
#    y 0.000000 1.745390 0.000000 
#    z 0.000000 0.000000 1.705900 
# 
# From -- ./inp_files/18747.got.cif
#   From: 2010.03.12/outbox.cif.g09.slc.cpg/sg55_10_cif.got.tgz:18747.got - 2010.04.16 15:19:21.
