data_PCOD8226700
_publ_section_title
;
Structure prediction by ZEFSAII (Michael W. Deem and Ramdas Pophale) SiO2 
 PCOD8226700
Probable space group: P B A M
;
_chemical_formula_sum "Si O2"
_cell_formula_units_Z 40
_cell_length_a 12.528974
_cell_length_b 17.146733
_cell_length_c 8.583451
_cell_angle_alpha 90.000000
_cell_angle_beta 90.000000
_cell_angle_gamma 90.000000
_cell_volume 1843.991121
_symmetry_space_group_name_H-M "P B A M"
_symmetry_group_IT_number 55
_symmetry_cell_setting 'orthorhombic'
loop_
_space_group_symop_operation_xyz
x,y,z
-x,-y,z
1/2+x,1/2-y,-z
1/2-x,1/2+y,-z
-x,-y,-z
x,y,-z
1/2-x,1/2+y,z
1/2+x,1/2-y,z
loop_
_atom_site_type_symbol
_atom_site_label
_atom_site_fract_x
_atom_site_fract_y
_atom_site_fract_z
Si Si1 0.694748 0.840647 0.816928
Si Si2 0.208098 0.317825 0.822467
Si Si3 0.582813 0.586674 0.176451
Si Si4 0.986872 0.589512 0.683349
Si Si5 0.875040 0.927018 0.680279
O O1 0.768538 0.768582 0.753939
O O2 0.577230 0.851423 0.745695
O O3 0.762031 0.915444 0.765697
O O4 0.679362 0.832556 0.000000
O O5 0.327324 0.349706 0.811775
O O6 0.126659 0.371568 0.726437
O O7 0.166270 0.315541 0.000000
O O8 0.468907 0.622504 0.232837
O O9 0.605027 0.518433 0.299147
O O10 0.573384 0.554627 0.000000
O O11 0.996167 0.585555 0.500000
O O12 0.000000 0.500000 0.749805
O O13 0.868045 0.903959 0.500000
#
# Coordination Sequence:
#
# PCOD8226700 Si02
#       5
#     8   8   8   8   8
#     4  11  24  42  64  91 126 167 213 263 313 375
#     4  10  24  42  64  92 124 164 212 262 313 372
#     4  10  20  38  63  90 120 161 207 255 307 371
#     4  11  25  44  67  97 132 170 214 265 323 388
#     4  11  22  37  59  91 125 161 203 254 312 374
#
# _framework density 21.692077999999999
#
# number of rings (size 3 to 8) (size 9 to 14) (size 15 to 20)
#    0.000    1.400    0.000    6.000    2.800    8.000 
#    0.000    0.000    0.000    0.000    0.000    0.000 
#    0.000    0.000    0.000    0.000    0.000    0.000 
#
# Total GULP energy -495742.386221 kJ/mol
# GULP energy per Si atom -12393.559656 kJ/mol
# Density = 2.164271 g / cm^3
# Si number density = 21.692078 Si / 1000 Ang^3
#
#
#
# Elastic Constant Matrix: (Units=GPa)
#
#
# Indices 1 2 3 4 5 6 
#
# 1 94.0216 18.5451 34.5487 0.0000 0.0000 0.0000
# 2 18.5451 72.2042 29.5441 0.0000 0.0000 0.0000
# 3 34.5487 29.5441 82.3798 0.0000 0.0000 0.0000
# 4 0.0000 0.0000 0.0000 16.5542 0.0000 0.0000
# 5 0.0000 0.0000 0.0000 0.0000 24.7857 0.0000
# 6 0.0000 0.0000 0.0000 0.0000 0.0000 36.7872
#
#
#
# Elastic Compliance Matrix: (Units=1/GPa)
#
#
# Indices 1 2 3 4 5 6 
#
# 1 0.012671 -0.001266 -0.004860 0.000000 0.000000 0.000000
# 2 -0.001266 0.016358 -0.005336 0.000000 0.000000 0.000000
# 3 -0.004860 -0.005336 0.016091 0.000000 0.000000 0.000000
# 4 0.000000 0.000000 0.000000 0.060408 0.000000 0.000000
# 5 0.000000 0.000000 0.000000 0.000000 0.040346 0.000000
# 6 0.000000 0.000000 0.000000 0.000000 0.000000 0.027183
#
#
# Mechanical properties :
#
#
# Convention : Reuss Voigt Hill
#
# Bulk Modulus (GPa) = 45.05175 45.98683 45.51929
# Shear Modulus (GPa) = 24.58462 26.68994 25.63728
#
# Velocity S-wave (km/s) = 3.37017 3.51151 3.44157
# Velocity P-wave (km/s) = 5.99649 6.13896 6.06814
#
# Compressibility (1/GPa) = 0.02219669
#
# Stress axis : x y z
#
# Youngs Moduli (GPa) = 78.91760 61.13238 62.14770
#
# Poissons Ratio (x) = 0.07739 0.30205
# Poissons Ratio (y) = 0.09990 0.33160
# Poissons Ratio (z) = 0.38355 0.32618
#
# Static dielectric constant tensor:
#      x y z
#    x 4.522870 0.000000 0.000000 
#    y 0.000000 3.951540 0.000000 
#    z 0.000000 0.000000 3.800450 
# 
# 
# High freq. dielectric constant tensor:
#      x y z
#    x 1.873550 0.000000 0.000000 
#    y 0.000000 1.843580 0.000000 
#    z 0.000000 0.000000 1.846070 
# 
# From -- ./inp_files/3644.got.cif
#   From: 2010.03.12/outbox.cif.g09.slc.cpg/sg55_2_cif.got.tgz:3644.got - 2010.04.16 15:19:21.
