data_PCOD8226550
_publ_section_title
;
Structure prediction by ZEFSAII (Michael W. Deem and Ramdas Pophale) SiO2 
 PCOD8226550
Probable space group: P B A M
;
_chemical_formula_sum "Si O2"
_cell_formula_units_Z 48
_cell_length_a 10.024046
_cell_length_b 28.108724
_cell_length_c 8.993131
_cell_angle_alpha 90.000000
_cell_angle_beta 90.000000
_cell_angle_gamma 90.000000
_cell_volume 2533.932850
_symmetry_space_group_name_H-M "P B A M"
_symmetry_group_IT_number 55
_symmetry_cell_setting 'orthorhombic'
loop_
_space_group_symop_operation_xyz
x,y,z
-x,-y,z
1/2+x,1/2-y,-z
1/2-x,1/2+y,-z
-x,-y,-z
x,y,-z
1/2-x,1/2+y,z
1/2+x,1/2-y,z
loop_
_atom_site_type_symbol
_atom_site_label
_atom_site_fract_x
_atom_site_fract_y
_atom_site_fract_z
Si Si1 0.154412 0.552986 0.675454
Si Si2 0.479800 0.698037 0.826181
Si Si3 0.789744 0.355372 0.173932
Si Si4 0.786412 0.145943 0.326874
Si Si5 0.852433 0.552128 0.324835
Si Si6 0.019434 0.298437 0.327274
O O1 0.165372 0.562404 0.500000
O O2 0.242098 0.591935 0.762663
O O3 0.207395 0.499854 0.715657
O O4 0.002771 0.557361 0.735349
O O5 0.333567 0.678709 0.788991
O O6 0.586478 0.660096 0.768968
O O7 0.502163 0.747409 0.744290
O O8 0.501114 0.706316 0.000000
O O9 0.920584 0.336125 0.254514
O O10 0.816804 0.358301 0.000000
O O11 0.825911 0.143377 0.500000
O O12 0.740968 0.094327 0.263842
O O13 0.669931 0.184330 0.301143
O O14 0.864009 0.557795 0.500000
O O15 0.984124 0.295000 0.500000
#
# Coordination Sequence:
#
# PCOD8226550 Si02
#       6
#     8   8   8   8   8   8
#     4   9  16  32  59  85 111 142 181 231 279 322
#     4  11  25  40  53  77 116 155 185 223 276 331
#     4  11  23  38  56  82 117 151 185 224 272 332
#     4  10  20  37  60  86 111 141 186 233 278 329
#     4   8  15  31  57  87 112 137 178 235 282 319
#     4  11  22  38  62  86 106 139 189 238 279 325
#
# _framework density 18.942885
#
# number of rings (size 3 to 8) (size 9 to 14) (size 15 to 20)
#    0.000    2.000    1.667    3.500    0.000    6.667 
#    0.000    3.333    0.000    5.000    0.000    0.000 
#    0.000    0.000    0.000    0.000    0.000    0.000 
#
# Total GULP energy -595225.273973 kJ/mol
# GULP energy per Si atom -12400.526541 kJ/mol
# Density = 1.889977 g / cm^3
# Si number density = 18.942885 Si / 1000 Ang^3
#
#
#
# Elastic Constant Matrix: (Units=GPa)
#
#
# Indices 1 2 3 4 5 6 
#
# 1 44.2223 12.7352 37.3527 0.0000 0.0000 0.0000
# 2 12.7352 123.1823 40.5745 0.0000 0.0000 0.0000
# 3 37.3527 40.5745 72.2137 0.0000 0.0000 0.0000
# 4 0.0000 0.0000 0.0000 7.4270 0.0000 0.0000
# 5 0.0000 0.0000 0.0000 0.0000 29.1431 0.0000
# 6 0.0000 0.0000 0.0000 0.0000 0.0000 17.5622
#
#
#
# Elastic Compliance Matrix: (Units=1/GPa)
#
#
# Indices 1 2 3 4 5 6 
#
# 1 0.041283 0.003394 -0.023260 0.000000 0.000000 0.000000
# 2 0.003394 0.010241 -0.007509 0.000000 0.000000 0.000000
# 3 -0.023260 -0.007509 0.030098 0.000000 0.000000 0.000000
# 4 0.000000 0.000000 0.000000 0.134644 0.000000 0.000000
# 5 0.000000 0.000000 0.000000 0.000000 0.034313 0.000000
# 6 0.000000 0.000000 0.000000 0.000000 0.000000 0.056940
#
#
# Mechanical properties :
#
#
# Convention : Reuss Voigt Hill
#
# Bulk Modulus (GPa) = 37.21636 46.77145 41.99391
# Shear Modulus (GPa) = 13.46880 20.75686 17.11283
#
# Velocity S-wave (km/s) = 2.66939 3.31382 3.00891
# Velocity P-wave (km/s) = 5.40279 6.27584 5.85561
#
# Compressibility (1/GPa) = 0.02686990
#
# Stress axis : x y z
#
# Youngs Moduli (GPa) = 24.22321 97.65022 33.22438
#
# Poissons Ratio (x) = -0.33138 0.77281
# Poissons Ratio (y) = -0.08220 0.24949
# Poissons Ratio (z) = 0.56344 0.73328
#
# Static dielectric constant tensor:
#      x y z
#    x 3.318050 0.000000 0.000000 
#    y 0.000000 3.857660 0.000000 
#    z 0.000000 0.000000 3.295170 
# 
# 
# High freq. dielectric constant tensor:
#      x y z
#    x 1.715940 0.000000 0.000000 
#    y 0.000000 1.757370 0.000000 
#    z 0.000000 0.000000 1.720830 
# 
# From -- ./inp_files/2847.got.cif
#   From: 2010.03.12/outbox.cif.g09.slc.cpg/sg55_2_cif.got.tgz:2847.got - 2010.04.16 15:19:21.
