data_PCOD8226984
_publ_section_title
;
Structure prediction by ZEFSAII (Michael W. Deem and Ramdas Pophale) SiO2 
 PCOD8226984
Probable space group: P B A M
;
_chemical_formula_sum "Si O2"
_cell_formula_units_Z 48
_cell_length_a 8.999111
_cell_length_b 30.275453
_cell_length_c 8.905602
_cell_angle_alpha 90.000000
_cell_angle_beta 90.000000
_cell_angle_gamma 90.000000
_cell_volume 2426.350520
_symmetry_space_group_name_H-M "P B A M"
_symmetry_group_IT_number 55
_symmetry_cell_setting 'orthorhombic'
loop_
_space_group_symop_operation_xyz
x,y,z
-x,-y,z
1/2+x,1/2-y,-z
1/2-x,1/2+y,-z
-x,-y,-z
x,y,-z
1/2-x,1/2+y,z
1/2+x,1/2-y,z
loop_
_atom_site_type_symbol
_atom_site_label
_atom_site_fract_x
_atom_site_fract_y
_atom_site_fract_z
Si Si1 0.852067 0.446530 0.822355
Si Si2 0.644737 0.620803 0.327561
Si Si3 0.137809 0.718340 0.175523
Si Si4 0.661059 0.365602 0.824371
Si Si5 0.323301 0.792982 0.326181
Si Si6 0.815909 0.545024 0.177326
O O1 0.749347 0.407731 0.756106
O O2 0.784285 0.494097 0.777721
O O3 0.020549 0.441601 0.761743
O O4 0.860926 0.442463 0.000000
O O5 0.612065 0.611649 0.500000
O O6 0.495878 0.639655 0.254817
O O7 0.774608 0.656441 0.303945
O O8 0.691081 0.574787 0.253148
O O9 0.247244 0.678195 0.210814
O O10 0.214722 0.763186 0.227194
O O11 0.989808 0.711315 0.269413
O O12 0.097802 0.721441 0.000000
O O13 0.633554 0.371999 0.000000
O O14 0.313576 0.778499 0.500000
O O15 0.805122 0.551618 0.000000
#
# Coordination Sequence:
#
# PCOD8226984 Si02
#       6
#     8   8   8   8   8   8
#     4   8  16  33  58  85 108 138 183 229 279 336
#     4  11  24  38  53  79 114 151 189 226 271 331
#     4  11  23  39  63  91 114 141 187 241 281 323
#     4  10  21  37  57  82 112 145 183 230 281 330
#     4  11  24  41  60  82 115 155 187 223 281 346
#     4   9  17  34  60  83 107 142 184 231 279 330
#
# _framework density 19.782796999999999
#
# number of rings (size 3 to 8) (size 9 to 14) (size 15 to 20)
#    0.000    2.000    0.000    4.500    0.000    8.667 
#    0.000    6.667    0.000    0.000    0.000    0.000 
#    0.000    0.000    0.000    0.000    0.000    0.000 
#
# Total GULP energy -595335.973013 kJ/mol
# GULP energy per Si atom -12402.832771 kJ/mol
# Density = 1.973777 g / cm^3
# Si number density = 19.782797 Si / 1000 Ang^3
#
#
#
# Elastic Constant Matrix: (Units=GPa)
#
#
# Indices 1 2 3 4 5 6 
#
# 1 75.6070 11.8408 27.7096 0.0000 0.0000 0.0000
# 2 11.8408 74.9143 35.8200 0.0000 0.0000 0.0000
# 3 27.7096 35.8200 45.3051 0.0000 0.0000 0.0000
# 4 0.0000 0.0000 0.0000 19.2020 0.0000 0.0000
# 5 0.0000 0.0000 0.0000 0.0000 26.7992 0.0000
# 6 0.0000 0.0000 0.0000 0.0000 0.0000 36.5607
#
#
#
# Elastic Compliance Matrix: (Units=1/GPa)
#
#
# Indices 1 2 3 4 5 6 
#
# 1 0.017704 0.003825 -0.013853 0.000000 0.000000 0.000000
# 2 0.003825 0.022289 -0.019962 0.000000 0.000000 0.000000
# 3 -0.013853 -0.019962 0.046328 0.000000 0.000000 0.000000
# 4 0.000000 0.000000 0.000000 0.052078 0.000000 0.000000
# 5 0.000000 0.000000 0.000000 0.000000 0.037315 0.000000
# 6 0.000000 0.000000 0.000000 0.000000 0.000000 0.027352
#
#
# Mechanical properties :
#
#
# Convention : Reuss Voigt Hill
#
# Bulk Modulus (GPa) = 37.96211 38.50747 38.23479
# Shear Modulus (GPa) = 18.39423 24.54277 21.46850
#
# Velocity S-wave (km/s) = 3.05259 3.52605 3.29783
# Velocity P-wave (km/s) = 5.62632 6.00706 5.81981
#
# Compressibility (1/GPa) = 0.02634206
#
# Stress axis : x y z
#
# Youngs Moduli (GPa) = 56.48387 44.86581 21.58527
#
# Poissons Ratio (x) = -0.17163 0.29901
# Poissons Ratio (y) = -0.21607 0.43088
# Poissons Ratio (z) = 0.78246 0.89561
#
# Static dielectric constant tensor:
#      x y z
#    x 3.688210 0.000000 0.000000 
#    y 0.000000 3.808220 0.000000 
#    z 0.000000 0.000000 3.414070 
# 
# 
# High freq. dielectric constant tensor:
#      x y z
#    x 1.777040 0.000000 0.000000 
#    y 0.000000 1.785520 0.000000 
#    z 0.000000 0.000000 1.752850 
# 
# From -- ./inp_files/2763.got.cif
#   From: 2010.03.12/outbox.cif.g09.slc.cpg/sg55_2_cif.got.tgz:2763.got - 2010.04.16 15:19:21.
