data_PCOD8226552
_publ_section_title
;
Structure prediction by ZEFSAII (Michael W. Deem and Ramdas Pophale) SiO2 
 PCOD8226552
Probable space group: P B A M
;
_chemical_formula_sum "Si O2"
_cell_formula_units_Z 64
_cell_length_a 23.378499
_cell_length_b 14.854944
_cell_length_c 8.928180
_cell_angle_alpha 90.000000
_cell_angle_beta 90.000000
_cell_angle_gamma 90.000000
_cell_volume 3100.634539
_symmetry_space_group_name_H-M "P B A M"
_symmetry_group_IT_number 55
_symmetry_cell_setting 'orthorhombic'
loop_
_space_group_symop_operation_xyz
x,y,z
-x,-y,z
1/2+x,1/2-y,-z
1/2-x,1/2+y,-z
-x,-y,-z
x,y,-z
1/2-x,1/2+y,z
1/2+x,1/2-y,z
loop_
_atom_site_type_symbol
_atom_site_label
_atom_site_fract_x
_atom_site_fract_y
_atom_site_fract_z
Si Si1 0.451818 0.073198 0.175093
Si Si2 0.971219 0.091906 0.668914
Si Si3 0.520841 0.242837 0.174121
Si Si4 0.757080 0.267257 0.322683
Si Si5 0.170432 0.557605 0.677716
Si Si6 0.128779 0.199563 0.670370
Si Si7 0.857300 0.000120 0.332978
Si Si8 0.244864 0.923196 0.824330
O O1 0.479630 0.165226 0.235105
O O2 0.394895 0.056230 0.269573
O O3 0.500000 0.000000 0.208187
O O4 0.435384 0.076413 0.000000
O O5 0.990306 0.119585 0.500000
O O6 0.902914 0.080370 0.677022
O O7 0.989372 0.165206 0.787840
O O8 0.000000 0.000000 0.718763
O O9 0.584443 0.237199 0.242494
O O10 0.529641 0.231364 0.000000
O O11 0.761790 0.254027 0.500000
O O12 0.798609 0.349096 0.270871
O O13 0.692999 0.290192 0.269009
O O14 0.772553 0.173599 0.243425
O O15 0.173409 0.547837 0.500000
O O16 0.199847 0.469130 0.749203
O O17 0.125785 0.230872 0.500000
O O18 0.110600 0.095230 0.692229
O O19 0.828957 0.998413 0.500000
O O20 0.808814 0.012124 0.208877
O O21 0.255568 0.914414 0.000000
#
# Coordination Sequence:
#
# PCOD8226552 Si02
#       8
#     8   8   8   8   8   8   8   8
#     4  10  25  48  67  89 129 174 215 267 329 383
#     4  10  20  37  60  86 121 166 209 250 305 369
#     4  11  24  39  60  92 129 165 208 260 315 380
#     4  10  23  43  67  95 127 166 211 266 319 376
#     4  11  24  46  72  98 128 166 221 275 320 377
#     4  10  20  40  66  90 122 161 209 262 312 372
#     4  10  20  39  63  88 123 166 212 257 306 371
#     4  12  26  41  64  95 131 169 205 255 326 395
#
# _framework density 20.640936
#
# number of rings (size 3 to 8) (size 9 to 14) (size 15 to 20)
#    0.000    1.500    2.500    1.875    3.500    4.000 
#    0.000    0.000    0.000    0.000    0.000    0.000 
#    0.000    0.000    0.000    0.000    0.000    0.000 
#
# Total GULP energy -793668.088679 kJ/mol
# GULP energy per Si atom -12401.063886 kJ/mol
# Density = 2.059396 g / cm^3
# Si number density = 20.640936 Si / 1000 Ang^3
#
#
#
# Elastic Constant Matrix: (Units=GPa)
#
#
# Indices 1 2 3 4 5 6 
#
# 1 112.2142 26.9352 35.3004 0.0000 0.0000 0.0000
# 2 26.9352 80.3868 29.4674 0.0000 0.0000 0.0000
# 3 35.3004 29.4674 65.9976 0.0000 0.0000 0.0000
# 4 0.0000 0.0000 0.0000 27.3007 0.0000 0.0000
# 5 0.0000 0.0000 0.0000 0.0000 35.0381 0.0000
# 6 0.0000 0.0000 0.0000 0.0000 0.0000 31.5873
#
#
#
# Elastic Compliance Matrix: (Units=1/GPa)
#
#
# Indices 1 2 3 4 5 6 
#
# 1 0.010932 -0.001817 -0.005036 0.000000 0.000000 0.000000
# 2 -0.001817 0.015176 -0.005804 0.000000 0.000000 0.000000
# 3 -0.005036 -0.005804 0.020437 0.000000 0.000000 0.000000
# 4 0.000000 0.000000 0.000000 0.036629 0.000000 0.000000
# 5 0.000000 0.000000 0.000000 0.000000 0.028540 0.000000
# 6 0.000000 0.000000 0.000000 0.000000 0.000000 0.031658
#
#
# Mechanical properties :
#
#
# Convention : Reuss Voigt Hill
#
# Bulk Modulus (GPa) = 47.10061 49.11161 48.10611
# Shear Modulus (GPa) = 28.44718 29.91161 29.17939
#
# Velocity S-wave (km/s) = 3.71643 3.81089 3.76395
# Velocity P-wave (km/s) = 6.42529 6.57334 6.49974
#
# Compressibility (1/GPa) = 0.02123115
#
# Stress axis : x y z
#
# Youngs Moduli (GPa) = 91.47577 65.89208 48.93031
#
# Poissons Ratio (x) = 0.11972 0.24641
# Poissons Ratio (y) = 0.16620 0.28401
# Poissons Ratio (z) = 0.46067 0.38246
#
# Static dielectric constant tensor:
#      x y z
#    x 3.834070 0.000000 0.000000 
#    y 0.000000 3.857430 0.000000 
#    z 0.000000 0.000000 3.517730 
# 
# 
# High freq. dielectric constant tensor:
#      x y z
#    x 1.820250 0.000000 0.000000 
#    y 0.000000 1.810450 0.000000 
#    z 0.000000 0.000000 1.790470 
# 
# From -- ./inp_files/9784.got.cif
#   From: 2010.03.12/outbox.cif.g09.slc.cpg/sg55_5_cif.got.tgz:9784.got - 2010.04.16 15:19:21.
