data_PCOD8226955
_publ_section_title
;
Structure prediction by ZEFSAII (Michael W. Deem and Ramdas Pophale) SiO2 
 PCOD8226955
Probable space group: P B A M
;
_chemical_formula_sum "Si O2"
_cell_formula_units_Z 64
_cell_length_a 17.321937
_cell_length_b 22.076779
_cell_length_c 8.958185
_cell_angle_alpha 90.000000
_cell_angle_beta 90.000000
_cell_angle_gamma 90.000000
_cell_volume 3425.722593
_symmetry_space_group_name_H-M "P B A M"
_symmetry_group_IT_number 55
_symmetry_cell_setting 'orthorhombic'
loop_
_space_group_symop_operation_xyz
x,y,z
-x,-y,z
1/2+x,1/2-y,-z
1/2-x,1/2+y,-z
-x,-y,-z
x,y,-z
1/2-x,1/2+y,z
1/2+x,1/2-y,z
loop_
_atom_site_type_symbol
_atom_site_label
_atom_site_fract_x
_atom_site_fract_y
_atom_site_fract_z
Si Si1 0.850059 0.467801 0.325161
Si Si2 0.790410 0.155199 0.676287
Si Si3 0.658528 0.778482 0.176475
Si Si4 0.232671 0.115028 0.824375
Si Si5 0.574387 0.429883 0.824528
Si Si6 0.628561 0.102934 0.323345
Si Si7 0.594323 0.566174 0.823005
Si Si8 0.537566 0.859860 0.674996
O O1 0.834114 0.470787 0.500000
O O2 0.772968 0.442740 0.249289
O O3 0.866677 0.534547 0.258714
O O4 0.921889 0.423940 0.288215
O O5 0.796480 0.163485 0.500000
O O6 0.823968 0.213806 0.755643
O O7 0.702005 0.142943 0.726533
O O8 0.840226 0.098356 0.727857
O O9 0.727977 0.822682 0.228084
O O10 0.577937 0.804806 0.237601
O O11 0.652193 0.772354 0.000000
O O12 0.142499 0.116080 0.774447
O O13 0.241293 0.106740 0.000000
O O14 0.594739 0.496972 0.767237
O O15 0.489880 0.406605 0.774116
O O16 0.570568 0.436264 0.000000
O O17 0.624275 0.097296 0.500000
O O18 0.550492 0.135460 0.266346
O O19 0.609942 0.574053 0.000000
O O20 0.542340 0.845232 0.500000
#
# Coordination Sequence:
#
# PCOD8226955 Si02
#       8
#     8   8   8   8   8   8   8   8
#     4   9  16  28  51  81 109 136 165 200 251 308
#     4  11  22  36  52  72 103 139 173 213 259 302
#     4  10  21  37  53  70  98 135 176 218 257 301
#     4   9  17  31  51  74 101 133 170 211 253 297
#     4   8  15  30  53  79 104 133 167 206 254 309
#     4   9  18  32  52  79 107 135 167 206 251 309
#     4   9  17  32  54  77 104 135 168 206 255 309
#     4   9  17  33  56  78 103 135 170 208 253 305
#
# _framework density 18.682191
#
# number of rings (size 3 to 8) (size 9 to 14) (size 15 to 20)
#    0.000    2.750    0.000    2.625    0.000    2.000 
#    2.250    4.375    0.000    3.000    0.000    0.000 
#    0.000    0.000    0.000    0.000    0.000    0.000 
#
# Total GULP energy -793342.308333 kJ/mol
# GULP energy per Si atom -12395.973568 kJ/mol
# Density = 1.863967 g / cm^3
# Si number density = 18.682191 Si / 1000 Ang^3
#
#
#
# Elastic Constant Matrix: (Units=GPa)
#
#
# Indices 1 2 3 4 5 6 
#
# 1 118.3913 24.6752 23.8913 0.0000 0.0000 0.0000
# 2 24.6752 68.7508 18.6655 0.0000 0.0000 0.0000
# 3 23.8913 18.6655 34.4517 0.0000 0.0000 0.0000
# 4 0.0000 0.0000 0.0000 22.0783 0.0000 0.0000
# 5 0.0000 0.0000 0.0000 0.0000 22.3408 0.0000
# 6 0.0000 0.0000 0.0000 0.0000 0.0000 19.8495
#
#
#
# Elastic Compliance Matrix: (Units=1/GPa)
#
#
# Indices 1 2 3 4 5 6 
#
# 1 0.010053 -0.002011 -0.005882 0.000000 0.000000 0.000000
# 2 -0.002011 0.017456 -0.008063 0.000000 0.000000 0.000000
# 3 -0.005882 -0.008063 0.037473 0.000000 0.000000 0.000000
# 4 0.000000 0.000000 0.000000 0.045293 0.000000 0.000000
# 5 0.000000 0.000000 0.000000 0.000000 0.044761 0.000000
# 6 0.000000 0.000000 0.000000 0.000000 0.000000 0.050379
#
#
# Mechanical properties :
#
#
# Convention : Reuss Voigt Hill
#
# Bulk Modulus (GPa) = 30.23815 39.56199 34.90007
# Shear Modulus (GPa) = 20.13283 23.14449 21.63866
#
# Velocity S-wave (km/s) = 3.28632 3.52355 3.40700
# Velocity P-wave (km/s) = 5.53358 6.14623 5.84794
#
# Compressibility (1/GPa) = 0.03307080
#
# Stress axis : x y z
#
# Youngs Moduli (GPa) = 99.47640 57.28650 26.68568
#
# Poissons Ratio (x) = 0.11521 0.15696
# Poissons Ratio (y) = 0.20006 0.21516
# Poissons Ratio (z) = 0.58508 0.46189
#
# Static dielectric constant tensor:
#      x y z
#    x 3.952820 0.000000 0.000000 
#    y 0.000000 3.340790 0.000000 
#    z 0.000000 0.000000 3.142730 
# 
# 
# High freq. dielectric constant tensor:
#      x y z
#    x 1.739130 0.000000 0.000000 
#    y 0.000000 1.712810 0.000000 
#    z 0.000000 0.000000 1.696780 
# 
# From -- ./inp_files/7995.got.cif
#   From: 2010.03.12/outbox.cif.g09.slc.cpg/sg55_4_cif.got.tgz:7995.got - 2010.04.16 15:19:21.
