data_PCOD8226079
_publ_section_title
;
Structure prediction by ZEFSAII (Michael W. Deem and Ramdas Pophale) SiO2 
 PCOD8226079
Probable space group: P B A M
;
_chemical_formula_sum "Si O2"
_cell_formula_units_Z 64
_cell_length_a 24.227726
_cell_length_b 14.662336
_cell_length_c 9.310054
_cell_angle_alpha 90.000000
_cell_angle_beta 90.000000
_cell_angle_gamma 90.000000
_cell_volume 3307.257583
_symmetry_space_group_name_H-M "P B A M"
_symmetry_group_IT_number 55
_symmetry_cell_setting 'orthorhombic'
loop_
_space_group_symop_operation_xyz
x,y,z
-x,-y,z
1/2+x,1/2-y,-z
1/2-x,1/2+y,-z
-x,-y,-z
x,y,-z
1/2-x,1/2+y,z
1/2+x,1/2-y,z
loop_
_atom_site_type_symbol
_atom_site_label
_atom_site_fract_x
_atom_site_fract_y
_atom_site_fract_z
Si Si1 0.024290 0.098635 0.168981
Si Si2 0.130014 0.065856 0.662529
Si Si3 0.343957 0.366669 0.341996
Si Si4 0.267286 0.631864 0.831957
Si Si5 0.053764 0.554364 0.332442
Si Si6 0.261761 0.840848 0.168104
Si Si7 0.449618 0.263783 0.334908
Si Si8 0.164488 0.506986 0.832209
O O1 0.082778 0.114779 0.245810
O O2 0.984679 0.177448 0.224449
O O3 0.032820 0.109894 0.000000
O O4 0.000000 0.000000 0.208484
O O5 0.129906 0.104777 0.500000
O O6 0.189079 0.079808 0.735063
O O7 0.118829 0.957760 0.662366
O O8 0.317287 0.354186 0.500000
O O9 0.296157 0.374733 0.227458
O O10 0.384904 0.283325 0.307677
O O11 0.271679 0.737198 0.783469
O O12 0.207140 0.589435 0.798145
O O13 0.281478 0.619590 0.000000
O O14 0.064797 0.538006 0.500000
O O15 0.040636 0.658954 0.298019
O O16 0.107854 0.520484 0.250980
O O17 0.000000 0.500000 0.278604
O O18 0.309974 0.909634 0.219169
O O19 0.255281 0.848533 0.000000
O O20 0.465714 0.287013 0.500000
O O21 0.150707 0.504776 0.000000
#
# Coordination Sequence:
#
# PCOD8226079 Si02
#       8
#     8   8   8   8   8   8   8   8
#     4  11  23  37  57  86 118 153 193 238 290 351
#     4  11  22  36  57  84 117 155 191 235 290 346
#     4  10  20  34  56  85 114 150 194 239 289 345
#     4  10  21  38  58  85 120 153 192 238 287 347
#     4  10  23  42  63  87 115 151 197 246 293 342
#     4  10  21  36  58  86 117 154 192 236 289 346
#     4  10  21  39  61  85 117 154 196 246 295 348
#     4  10  21  38  60  86 116 152 192 238 292 343
#
# _framework density 19.351379999999999
#
# number of rings (size 3 to 8) (size 9 to 14) (size 15 to 20)
#    0.000    1.750    2.500    1.500    0.000    4.750 
#    0.000    2.500    0.000    0.000    0.000    0.000 
#    0.000    0.000    0.000    0.000    0.000    0.000 
#
# Total GULP energy -793692.170843 kJ/mol
# GULP energy per Si atom -12401.440169 kJ/mol
# Density = 1.930734 g / cm^3
# Si number density = 19.351380 Si / 1000 Ang^3
#
#
#
# Elastic Constant Matrix: (Units=GPa)
#
#
# Indices 1 2 3 4 5 6 
#
# 1 128.4525 59.3647 62.3526 0.0000 0.0000 0.0000
# 2 59.3647 126.2644 46.3902 0.0000 0.0000 0.0000
# 3 62.3526 46.3902 68.0351 0.0000 0.0000 0.0000
# 4 0.0000 0.0000 0.0000 20.9311 0.0000 0.0000
# 5 0.0000 0.0000 0.0000 0.0000 36.7572 0.0000
# 6 0.0000 0.0000 0.0000 0.0000 0.0000 30.2668
#
#
#
# Elastic Compliance Matrix: (Units=1/GPa)
#
#
# Indices 1 2 3 4 5 6 
#
# 1 0.014640 -0.002607 -0.011640 0.000000 0.000000 0.000000
# 2 -0.002607 0.011031 -0.005133 0.000000 0.000000 0.000000
# 3 -0.011640 -0.005133 0.028866 0.000000 0.000000 0.000000
# 4 0.000000 0.000000 0.000000 0.047776 0.000000 0.000000
# 5 0.000000 0.000000 0.000000 0.000000 0.027206 0.000000
# 6 0.000000 0.000000 0.000000 0.000000 0.000000 0.033039
#
#
# Mechanical properties :
#
#
# Convention : Reuss Voigt Hill
#
# Bulk Modulus (GPa) = 63.37770 73.21858 68.29814
# Shear Modulus (GPa) = 24.20432 27.90066 26.05249
#
# Velocity S-wave (km/s) = 3.54047 3.80121 3.67316
# Velocity P-wave (km/s) = 7.03814 7.56202 7.30478
#
# Compressibility (1/GPa) = 0.01577842
#
# Stress axis : x y z
#
# Youngs Moduli (GPa) = 68.30777 90.65163 34.64333
#
# Poissons Ratio (x) = 0.23629 0.40323
# Poissons Ratio (y) = 0.17805 0.17782
# Poissons Ratio (z) = 0.79507 0.46530
#
# Static dielectric constant tensor:
#      x y z
#    x 3.367720 0.000000 0.000000 
#    y 0.000000 3.794910 0.000000 
#    z 0.000000 0.000000 3.477580 
# 
# 
# High freq. dielectric constant tensor:
#      x y z
#    x 1.750020 0.000000 0.000000 
#    y 0.000000 1.758670 0.000000 
#    z 0.000000 0.000000 1.751600 
# 
# From -- ./inp_files/9753.got.cif
#   From: 2010.03.12/outbox.cif.g09.slc.cpg/sg55_5_cif.got.tgz:9753.got - 2010.04.16 15:19:21.
