data_PCOD8226644
_publ_section_title
;
Structure prediction by ZEFSAII (Michael W. Deem and Ramdas Pophale) SiO2 
 PCOD8226644
Probable space group: P B A M
;
_chemical_formula_sum "Si O2"
_cell_formula_units_Z 52
_cell_length_a 28.207301
_cell_length_b 12.616442
_cell_length_c 7.441416
_cell_angle_alpha 90.000000
_cell_angle_beta 90.000000
_cell_angle_gamma 90.000000
_cell_volume 2648.219701
_symmetry_space_group_name_H-M "P B A M"
_symmetry_group_IT_number 55
_symmetry_cell_setting 'orthorhombic'
loop_
_space_group_symop_operation_xyz
x,y,z
-x,-y,z
1/2+x,1/2-y,-z
1/2-x,1/2+y,-z
-x,-y,-z
x,y,-z
1/2-x,1/2+y,z
1/2+x,1/2-y,z
loop_
_atom_site_type_symbol
_atom_site_label
_atom_site_fract_x
_atom_site_fract_y
_atom_site_fract_z
Si Si1 0.132739 0.878225 0.789704
Si Si2 0.205249 0.943146 0.500000
Si Si3 0.928120 0.318836 0.788438
Si Si4 0.468240 0.785600 0.207902
Si Si5 0.402926 0.603778 0.203646
Si Si6 0.389658 0.950813 0.787122
Si Si7 0.686196 0.103169 0.500000
Si Si8 0.165799 0.166112 0.500000
O O1 0.181157 0.892683 0.677793
O O2 0.106496 0.773563 0.716295
O O3 0.097045 0.978071 0.752758
O O4 0.146183 0.870187 0.000000
O O5 0.261137 0.938890 0.500000
O O6 0.200691 0.068572 0.500000
O O7 0.908116 0.432678 0.735103
O O8 0.980526 0.304704 0.701079
O O9 0.932080 0.304009 0.000000
O O10 0.453528 0.661825 0.238535
O O11 0.428527 0.866151 0.284620
O O12 0.472746 0.814068 0.000000
O O13 0.365721 0.666336 0.322193
O O14 0.386819 0.623236 0.000000
O O15 0.341066 0.933528 0.679627
O O16 0.379626 0.940228 0.000000
O O17 0.695690 0.227978 0.500000
#
# Coordination Sequence:
#
# PCOD8226644 Si02
#       8
#     8   4   8   8   8   8   4   4
#     4   9  19  37  57  80 112 148 183 226 279 330
#     4  10  24  40  58  82 107 139 182 239 291 328
#     4   9  18  33  56  84 119 154 181 219 273 332
#     4   9  16  30  55  84 114 152 185 218 269 324
#     4   9  17  32  56  80 108 145 183 219 260 317
#     4  10  21  37  55  81 117 148 183 228 273 324
#     4  12  24  38  61  84 102 140 193 235 277 335
#     4  10  20  38  56  77 108 136 175 230 280 322
#
# _framework density 19.635832000000001
#
# number of rings (size 3 to 8) (size 9 to 14) (size 15 to 20)
#    0.000    2.462    1.538    0.462    0.000    4.923 
#    0.000    6.923    0.000    2.769    0.000    0.000 
#    0.000    0.000    0.000    0.000    0.000    0.000 
#
# Total GULP energy -644484.423582 kJ/mol
# GULP energy per Si atom -12393.931223 kJ/mol
# Density = 1.959114 g / cm^3
# Si number density = 19.635832 Si / 1000 Ang^3
#
#
#
# Elastic Constant Matrix: (Units=GPa)
#
#
# Indices 1 2 3 4 5 6 
#
# 1 157.2170 61.7271 44.7080 0.0000 0.0000 0.0000
# 2 61.7271 108.5372 28.9860 0.0000 0.0000 0.0000
# 3 44.7080 28.9860 74.9715 0.0000 0.0000 0.0000
# 4 0.0000 0.0000 0.0000 17.0821 0.0000 0.0000
# 5 0.0000 0.0000 0.0000 0.0000 21.5436 0.0000
# 6 0.0000 0.0000 0.0000 0.0000 0.0000 24.1657
#
#
#
# Elastic Compliance Matrix: (Units=1/GPa)
#
#
# Indices 1 2 3 4 5 6 
#
# 1 0.009069 -0.004141 -0.003807 0.000000 0.000000 0.000000
# 2 -0.004141 0.012165 -0.002234 0.000000 0.000000 0.000000
# 3 -0.003807 -0.002234 0.016472 0.000000 0.000000 0.000000
# 4 0.000000 0.000000 0.000000 0.058541 0.000000 0.000000
# 5 0.000000 0.000000 0.000000 0.000000 0.046417 0.000000
# 6 0.000000 0.000000 0.000000 0.000000 0.000000 0.041381
#
#
# Mechanical properties :
#
#
# Convention : Reuss Voigt Hill
#
# Bulk Modulus (GPa) = 57.66214 67.95197 62.80706
# Shear Modulus (GPa) = 23.78789 26.24527 25.01658
#
# Velocity S-wave (km/s) = 3.48437 3.65992 3.57322
# Velocity P-wave (km/s) = 6.75406 7.24854 7.00566
#
# Compressibility (1/GPa) = 0.01734240
#
# Stress axis : x y z
#
# Youngs Moduli (GPa) = 110.26377 82.20235 60.70741
#
# Poissons Ratio (x) = 0.34040 0.23113
# Poissons Ratio (y) = 0.45661 0.13562
# Poissons Ratio (z) = 0.41980 0.18363
#
# Static dielectric constant tensor:
#      x y z
#    x 3.344420 0.000000 0.000000 
#    y 0.000000 3.811170 0.000000 
#    z 0.000000 0.000000 3.436230 
# 
# 
# High freq. dielectric constant tensor:
#      x y z
#    x 1.735820 0.000000 0.000000 
#    y 0.000000 1.780130 0.000000 
#    z 0.000000 0.000000 1.762820 
# 
# From -- ./inp_files/10155.got.cif
#   From: 2010.03.12/outbox.cif.g09.slc.cpg/sg55_6_cif.got.tgz:10155.got - 2010.04.16 15:19:21.
