data_PCOD8226677
_publ_section_title
;
Structure prediction by ZEFSAII (Michael W. Deem and Ramdas Pophale) SiO2 
 PCOD8226677
Probable space group: P B A M
;
_chemical_formula_sum "Si O2"
_cell_formula_units_Z 40
_cell_length_a 16.571534
_cell_length_b 9.442414
_cell_length_c 12.557353
_cell_angle_alpha 90.000000
_cell_angle_beta 90.000000
_cell_angle_gamma 90.000000
_cell_volume 1964.915385
_symmetry_space_group_name_H-M "P B A M"
_symmetry_group_IT_number 55
_symmetry_cell_setting 'orthorhombic'
loop_
_space_group_symop_operation_xyz
x,y,z
-x,-y,z
1/2+x,1/2-y,-z
1/2-x,1/2+y,-z
-x,-y,-z
x,y,-z
1/2-x,1/2+y,z
1/2+x,1/2-y,z
loop_
_atom_site_type_symbol
_atom_site_label
_atom_site_fract_x
_atom_site_fract_y
_atom_site_fract_z
Si Si1 0.888367 0.095897 0.000000
Si Si2 0.648081 0.214406 0.202724
Si Si3 0.923662 0.087172 0.620475
Si Si4 0.526120 0.151541 0.379375
Si Si5 0.702909 0.526202 0.203773
Si Si6 0.447272 0.723181 0.000000
O O1 0.834987 0.112544 0.894586
O O2 0.955062 0.221763 0.000000
O O3 0.925397 0.940664 0.000000
O O4 0.596583 0.223210 0.310553
O O5 0.701041 0.356831 0.187880
O O6 0.705067 0.077324 0.211671
O O7 0.587097 0.196979 0.103541
O O8 0.905866 0.034956 0.500000
O O9 0.844125 0.064612 0.688873
O O10 0.946257 0.252205 0.623286
O O11 0.000000 0.000000 0.667916
O O12 0.559039 0.136667 0.500000
O O13 0.500000 0.000000 0.332305
#
# Coordination Sequence:
#
# PCOD8226677 Si02
#       6
#     4   8   8   8   8   4
#     4   9  19  36  63  86 111 155 200 240 286 348
#     4  11  23  39  59  88 124 155 195 243 299 355
#     4  10  20  38  62  85 112 152 201 244 287 349
#     4  10  22  40  62  86 116 153 198 250 295 347
#     4  11  23  37  60  88 121 158 194 244 299 355
#     4   9  19  38  62  87 112 152 201 244 283 342
#
# _framework density 20.357111
#
# number of rings (size 3 to 8) (size 9 to 14) (size 15 to 20)
#    0.000    1.800    2.000    1.800    5.600    0.800 
#    0.000    0.500    0.000    0.000    0.000    0.000 
#    0.000    0.000    0.000    0.000    0.000    0.000 
#
# Total GULP energy -496090.678337 kJ/mol
# GULP energy per Si atom -12402.266958 kJ/mol
# Density = 2.031078 g / cm^3
# Si number density = 20.357111 Si / 1000 Ang^3
#
#
#
# Elastic Constant Matrix: (Units=GPa)
#
#
# Indices 1 2 3 4 5 6 
#
# 1 62.2339 9.3185 36.6561 0.0000 0.0000 0.0000
# 2 9.3185 73.6804 11.5844 0.0000 0.0000 0.0000
# 3 36.6561 11.5844 108.3171 0.0000 0.0000 0.0000
# 4 0.0000 0.0000 0.0000 18.8646 0.0000 0.0000
# 5 0.0000 0.0000 0.0000 0.0000 12.3673 0.0000
# 6 0.0000 0.0000 0.0000 0.0000 0.0000 38.8907
#
#
#
# Elastic Compliance Matrix: (Units=1/GPa)
#
#
# Indices 1 2 3 4 5 6 
#
# 1 0.020232 -0.001508 -0.006686 0.000000 0.000000 0.000000
# 2 -0.001508 0.013917 -0.000978 0.000000 0.000000 0.000000
# 3 -0.006686 -0.000978 0.011599 0.000000 0.000000 0.000000
# 4 0.000000 0.000000 0.000000 0.053009 0.000000 0.000000
# 5 0.000000 0.000000 0.000000 0.000000 0.080858 0.000000
# 6 0.000000 0.000000 0.000000 0.000000 0.000000 0.025713
#
#
# Mechanical properties :
#
#
# Convention : Reuss Voigt Hill
#
# Bulk Modulus (GPa) = 36.48952 39.92771 38.20862
# Shear Modulus (GPa) = 21.47710 26.46936 23.97323
#
# Velocity S-wave (km/s) = 3.25163 3.60981 3.43539
# Velocity P-wave (km/s) = 5.66225 6.08527 5.87757
#
# Compressibility (1/GPa) = 0.02740513
#
# Stress axis : x y z
#
# Youngs Moduli (GPa) = 49.42664 71.85664 86.21243
#
# Poissons Ratio (x) = 0.10833 0.57638
# Poissons Ratio (y) = 0.07452 0.08433
# Poissons Ratio (z) = 0.33045 0.07029
#
# Static dielectric constant tensor:
#      x y z
#    x 3.462640 0.000000 0.000000 
#    y 0.000000 3.638260 0.000000 
#    z 0.000000 0.000000 3.781840 
# 
# 
# High freq. dielectric constant tensor:
#      x y z
#    x 1.773660 0.000000 0.000000 
#    y 0.000000 1.787920 0.000000 
#    z 0.000000 0.000000 1.805410 
# 
# From -- ./inp_files/14685.got.cif
#   From: 2010.03.12/outbox.cif.g09.slc.cpg/sg55_8_cif.got.tgz:14685.got - 2010.04.16 15:19:21.
