data_PCOD8226294
_publ_section_title
;
Structure prediction by ZEFSAII (Michael W. Deem and Ramdas Pophale) SiO2 
 PCOD8226294
Probable space group: P B A M
;
_chemical_formula_sum "Si O2"
_cell_formula_units_Z 48
_cell_length_a 28.589530
_cell_length_b 5.152384
_cell_length_c 15.626360
_cell_angle_alpha 90.000000
_cell_angle_beta 90.000000
_cell_angle_gamma 90.000000
_cell_volume 2301.829036
_symmetry_space_group_name_H-M "P B A M"
_symmetry_group_IT_number 55
_symmetry_cell_setting 'orthorhombic'
loop_
_space_group_symop_operation_xyz
x,y,z
-x,-y,z
1/2+x,1/2-y,-z
1/2-x,1/2+y,-z
-x,-y,-z
x,y,-z
1/2-x,1/2+y,z
1/2+x,1/2-y,z
loop_
_atom_site_type_symbol
_atom_site_label
_atom_site_fract_x
_atom_site_fract_y
_atom_site_fract_z
Si Si1 0.368926 0.681083 0.213261
Si Si2 0.368298 0.173047 0.323631
Si Si3 0.273429 0.290483 0.599287
Si Si4 0.969495 0.760300 0.770825
Si Si5 0.221182 0.174660 0.101179
Si Si6 0.949157 0.606127 0.592717
O O1 0.374666 0.395309 0.253287
O O2 0.420817 0.757774 0.175804
O O3 0.331054 0.671541 0.138328
O O4 0.353304 0.899902 0.280962
O O5 0.328424 0.259628 0.389133
O O6 0.415387 0.130424 0.378451
O O7 0.260785 0.302883 0.500000
O O8 0.255140 0.554533 0.643433
O O9 0.952220 0.809434 0.671738
O O10 0.000000 0.500000 0.780040
O O11 0.000000 0.000000 0.803766
O O12 0.250079 0.424347 0.132988
O O13 0.215138 0.175608 0.000000
O O14 0.932101 0.724424 0.500000
O O15 0.000000 0.500000 0.576515
#
# Coordination Sequence:
#
# PCOD8226294 Si02
#       6
#     8   8   8   8   8   8
#     4  11  22  36  58  83 109 144 181 222 275 330
#     4  11  22  35  53  80 108 139 184 230 273 323
#     4  10  21  36  51  69 100 142 182 223 272 320
#     4  10  20  36  55  79 111 146 189 236 281 326
#     4  10  22  40  62  89 119 147 176 217 272 333
#     4   9  18  33  52  74 104 142 185 233 280 323
#
# _framework density 20.852981
#
# number of rings (size 3 to 8) (size 9 to 14) (size 15 to 20)
#    0.000    1.833    0.000    5.500    0.000    4.333 
#    0.000   12.500    0.000    1.000    0.000    0.000 
#    0.000    0.667    0.000    0.000    0.000    0.000 
#
# Total GULP energy -594848.622285 kJ/mol
# GULP energy per Si atom -12392.679631 kJ/mol
# Density = 2.080552 g / cm^3
# Si number density = 20.852981 Si / 1000 Ang^3
#
#
#
# Elastic Constant Matrix: (Units=GPa)
#
#
# Indices 1 2 3 4 5 6 
#
# 1 160.3622 51.3983 40.2154 0.0000 0.0000 0.0000
# 2 51.3983 129.2095 19.6579 0.0000 0.0000 0.0000
# 3 40.2154 19.6579 33.8830 0.0000 0.0000 0.0000
# 4 0.0000 0.0000 0.0000 12.9676 0.0000 0.0000
# 5 0.0000 0.0000 0.0000 0.0000 102.9724 0.0000
# 6 0.0000 0.0000 0.0000 0.0000 0.0000 30.4062
#
#
#
# Elastic Compliance Matrix: (Units=1/GPa)
#
#
# Indices 1 2 3 4 5 6 
#
# 1 0.009439 -0.002249 -0.009898 0.000000 0.000000 0.000000
# 2 -0.002249 0.009024 -0.002567 0.000000 0.000000 0.000000
# 3 -0.009898 -0.002567 0.042751 0.000000 0.000000 0.000000
# 4 0.000000 0.000000 0.000000 0.077115 0.000000 0.000000
# 5 0.000000 0.000000 0.000000 0.000000 0.009711 0.000000
# 6 0.000000 0.000000 0.000000 0.000000 0.000000 0.032888
#
#
# Mechanical properties :
#
#
# Convention : Reuss Voigt Hill
#
# Bulk Modulus (GPa) = 31.45994 60.66645 46.06319
# Shear Modulus (GPa) = 22.62942 43.41478 33.02210
#
# Velocity S-wave (km/s) = 3.29779 4.56778 3.98372
# Velocity P-wave (km/s) = 5.44242 7.54819 6.58009
#
# Compressibility (1/GPa) = 0.03178646
#
# Stress axis : x y z
#
# Youngs Moduli (GPa) = 105.94423 110.81068 23.39153
#
# Poissons Ratio (x) = 0.24919 0.23154
# Poissons Ratio (y) = 0.23825 0.06004
# Poissons Ratio (z) = 1.04867 0.28441
#
# Static dielectric constant tensor:
#      x y z
#    x 4.005070 0.000000 0.000000 
#    y 0.000000 3.992260 0.000000 
#    z 0.000000 0.000000 3.444280 
# 
# 
# High freq. dielectric constant tensor:
#      x y z
#    x 1.839040 0.000000 0.000000 
#    y 0.000000 1.823620 0.000000 
#    z 0.000000 0.000000 1.764650 
# 
# From -- ./inp_files/20043.got.cif
#   From: 2010.03.12/outbox.cif.g09.slc.cpg/sg55_11_cif.got.tgz:20043.got - 2010.04.16 15:19:21.
