data_PCOD8226397
_publ_section_title
;
Structure prediction by ZEFSAII (Michael W. Deem and Ramdas Pophale) SiO2 
 PCOD8226397
Probable space group: P B A M
;
_chemical_formula_sum "Si O2"
_cell_formula_units_Z 64
_cell_length_a 21.970626
_cell_length_b 16.452620
_cell_length_c 9.530156
_cell_angle_alpha 90.000000
_cell_angle_beta 90.000000
_cell_angle_gamma 90.000000
_cell_volume 3444.907048
_symmetry_space_group_name_H-M "P B A M"
_symmetry_group_IT_number 55
_symmetry_cell_setting 'orthorhombic'
loop_
_space_group_symop_operation_xyz
x,y,z
-x,-y,z
1/2+x,1/2-y,-z
1/2-x,1/2+y,-z
-x,-y,-z
x,y,-z
1/2-x,1/2+y,z
1/2+x,1/2-y,z
loop_
_atom_site_type_symbol
_atom_site_label
_atom_site_fract_x
_atom_site_fract_y
_atom_site_fract_z
Si Si1 0.735429 0.592314 0.335688
Si Si2 0.864470 0.357194 0.660268
Si Si3 0.769953 0.905073 0.662372
Si Si4 0.876122 0.825359 0.161771
Si Si5 0.569317 0.992491 0.164966
Si Si6 0.651828 0.142848 0.161553
Si Si7 0.001415 0.905797 0.835731
Si Si8 0.891117 0.171475 0.661718
O O1 0.747743 0.604605 0.500000
O O2 0.736483 0.498422 0.291559
O O3 0.787756 0.639893 0.253990
O O4 0.671513 0.630280 0.289597
O O5 0.874861 0.385062 0.500000
O O6 0.792993 0.359752 0.695496
O O7 0.901466 0.415723 0.760522
O O8 0.888167 0.267172 0.687193
O O9 0.788279 0.898476 0.500000
O O10 0.821388 0.862144 0.751093
O O11 0.880861 0.728948 0.185533
O O12 0.938715 0.865028 0.214415
O O13 0.864240 0.847121 0.000000
O O14 0.604375 0.074110 0.210081
O O15 0.500000 0.000000 0.215383
O O16 0.573296 0.976916 0.000000
O O17 0.670667 0.130646 0.000000
O O18 0.055678 0.863470 0.755122
O O19 0.012373 0.892393 0.000000
O O20 0.000000 0.000000 0.795285
O O21 0.904272 0.150540 0.500000
#
# Coordination Sequence:
#
# PCOD8226397 Si02
#       8
#     8   8   8   8   8   8   8   8
#     4  10  20  37  60  84 113 150 187 230 284 334
#     4  10  21  38  57  84 118 148 188 237 283 335
#     4  10  20  36  59  85 113 148 188 230 280 335
#     4  10  22  37  56  82 115 149 187 236 282 331
#     4  10  22  38  59  84 113 152 193 231 279 336
#     4  10  21  37  56  83 114 147 190 235 278 332
#     4  10  22  40  60  84 114 150 189 231 283 338
#     4  10  22  37  57  85 115 148 189 237 282 335
#
# _framework density 18.578150999999998
#
# number of rings (size 3 to 8) (size 9 to 14) (size 15 to 20)
#    0.000    2.000    1.250    1.500    1.750    4.500 
#    0.000    0.000    0.000    0.000    0.000    0.000 
#    0.000    0.000    0.000    0.000    0.000    0.000 
#
# Total GULP energy -793937.143783 kJ/mol
# GULP energy per Si atom -12405.267872 kJ/mol
# Density = 1.853587 g / cm^3
# Si number density = 18.578151 Si / 1000 Ang^3
#
#
#
# Elastic Constant Matrix: (Units=GPa)
#
#
# Indices 1 2 3 4 5 6 
#
# 1 150.2403 69.1044 61.6208 0.0000 0.0000 0.0000
# 2 69.1044 101.7780 42.8079 0.0000 0.0000 0.0000
# 3 61.6208 42.8079 52.7393 0.0000 0.0000 0.0000
# 4 0.0000 0.0000 0.0000 33.1048 0.0000 0.0000
# 5 0.0000 0.0000 0.0000 0.0000 -101.7078 0.0000
# 6 0.0000 0.0000 0.0000 0.0000 0.0000 31.8162
#
#
#
# Elastic Compliance Matrix: (Units=1/GPa)
#
#
# Indices 1 2 3 4 5 6 
#
# 1 0.013735 -0.003911 -0.012873 0.000000 0.000000 0.000000
# 2 -0.003911 0.016032 -0.008443 0.000000 0.000000 0.000000
# 3 -0.012873 -0.008443 0.040856 0.000000 0.000000 0.000000
# 4 0.000000 0.000000 0.000000 0.030207 0.000000 0.000000
# 5 0.000000 0.000000 0.000000 0.000000 -0.009832 0.000000
# 6 0.000000 0.000000 0.000000 0.000000 0.000000 0.031431
#
#
# Mechanical properties :
#
#
# Convention : Reuss Voigt Hill
#
# Bulk Modulus (GPa) = 49.58523 72.42486 61.00504
# Shear Modulus (GPa) = 27.83861 1.39092 14.61477
#
# Velocity S-wave (km/s) = 3.87519 0.86621 2.80780
# Velocity P-wave (km/s) = 6.83892 6.33000 6.58938
#
# Compressibility (1/GPa) = 0.02016730
#
# Stress axis : x y z
#
# Youngs Moduli (GPa) = 72.80707 62.37480 24.47625
#
# Poissons Ratio (x) = 0.24395 0.31509
# Poissons Ratio (y) = 0.28475 0.20666
# Poissons Ratio (z) = 0.93727 0.52665
#
# Static dielectric constant tensor:
#      x y z
#    x 3.469350 0.000000 0.000000 
#    y 0.000000 3.125260 0.000000 
#    z 0.000000 0.000000 3.352110 
# 
# 
# High freq. dielectric constant tensor:
#      x y z
#    x 1.728800 0.000000 0.000000 
#    y 0.000000 1.737010 0.000000 
#    z 0.000000 0.000000 1.714950 
# 
# From -- ./inp_files/9035.got.cif
#   From: 2010.03.12/outbox.cif.g09.slc.cpg/sg55_5_cif.got.tgz:9035.got - 2010.04.16 15:19:21.
