data_PCOD8226003
_publ_section_title
;
Structure prediction by ZEFSAII (Michael W. Deem and Ramdas Pophale) SiO2 
 PCOD8226003
Probable space group: P B A M
;
_chemical_formula_sum "Si O2"
_cell_formula_units_Z 64
_cell_length_a 24.545829
_cell_length_b 14.678719
_cell_length_c 8.995931
_cell_angle_alpha 90.000000
_cell_angle_beta 90.000000
_cell_angle_gamma 90.000000
_cell_volume 3241.245873
_symmetry_space_group_name_H-M "P B A M"
_symmetry_group_IT_number 55
_symmetry_cell_setting 'orthorhombic'
loop_
_space_group_symop_operation_xyz
x,y,z
-x,-y,z
1/2+x,1/2-y,-z
1/2-x,1/2+y,-z
-x,-y,-z
x,y,-z
1/2-x,1/2+y,z
1/2+x,1/2-y,z
loop_
_atom_site_type_symbol
_atom_site_label
_atom_site_fract_x
_atom_site_fract_y
_atom_site_fract_z
Si Si1 0.368090 0.937714 0.829835
Si Si2 0.737574 0.129946 0.324317
Si Si3 0.732714 0.325579 0.827511
Si Si4 0.560497 0.753953 0.325035
Si Si5 0.671144 0.484844 0.675621
Si Si6 0.524970 0.097609 0.675053
Si Si7 0.353830 0.141002 0.835163
Si Si8 0.553151 0.551515 0.323019
O O1 0.315924 0.922081 0.728278
O O2 0.419144 0.883713 0.762350
O O3 0.383199 0.044015 0.819836
O O4 0.357242 0.907056 0.000000
O O5 0.736038 0.144456 0.500000
O O6 0.737672 0.227191 0.245976
O O7 0.790141 0.069565 0.277208
O O8 0.687790 0.389872 0.751888
O O9 0.790340 0.374736 0.802658
O O10 0.717520 0.314002 0.000000
O O11 0.559983 0.750920 0.500000
O O12 0.515164 0.823782 0.265906
O O13 0.620363 0.787289 0.278085
O O14 0.549798 0.653991 0.259268
O O15 0.674420 0.470027 0.500000
O O16 0.609559 0.505379 0.729763
O O17 0.536291 0.105492 0.500000
O O18 0.500000 0.000000 0.715679
O O19 0.362034 0.181244 0.000000
O O20 0.500000 0.500000 0.259102
O O21 0.551806 0.552407 0.500000
#
# Coordination Sequence:
#
# PCOD8226003 Si02
#       8
#     8   8   8   8   8   8   8   8
#     4  11  22  37  57  83 118 159 197 239 300 362
#     4  11  23  39  60  89 122 155 199 250 300 356
#     4  11  23  39  60  87 121 159 199 243 301 364
#     4  10  20  35  59  85 115 156 202 249 297 352
#     4  10  21  38  62  90 117 152 200 248 297 352
#     4  10  20  34  53  84 119 154 196 244 297 351
#     4  10  21  36  56  83 116 155 197 241 295 355
#     4   9  19  37  60  86 114 148 192 243 293 344
#
# _framework density 19.745494000000001
#
# number of rings (size 3 to 8) (size 9 to 14) (size 15 to 20)
#    0.000    1.750    2.500    1.875    0.000    4.750 
#    0.000    3.125    0.000    1.500    0.000    0.000 
#    0.000    0.000    0.000    0.000    0.000    0.000 
#
# Total GULP energy -793636.581418 kJ/mol
# GULP energy per Si atom -12400.571585 kJ/mol
# Density = 1.970055 g / cm^3
# Si number density = 19.745494 Si / 1000 Ang^3
#
#
#
# Elastic Constant Matrix: (Units=GPa)
#
#
# Indices 1 2 3 4 5 6 
#
# 1 136.8949 53.0532 35.3709 0.0000 0.0000 0.0000
# 2 53.0532 115.2061 34.1594 0.0000 0.0000 0.0000
# 3 35.3709 34.1594 46.9778 0.0000 0.0000 0.0000
# 4 0.0000 0.0000 0.0000 19.5554 0.0000 0.0000
# 5 0.0000 0.0000 0.0000 0.0000 23.6343 0.0000
# 6 0.0000 0.0000 0.0000 0.0000 0.0000 30.7353
#
#
#
# Elastic Compliance Matrix: (Units=1/GPa)
#
#
# Indices 1 2 3 4 5 6 
#
# 1 0.009804 -0.002966 -0.005226 0.000000 0.000000 0.000000
# 2 -0.002966 0.011963 -0.006466 0.000000 0.000000 0.000000
# 3 -0.005226 -0.006466 0.029923 0.000000 0.000000 0.000000
# 4 0.000000 0.000000 0.000000 0.051137 0.000000 0.000000
# 5 0.000000 0.000000 0.000000 0.000000 0.042311 0.000000
# 6 0.000000 0.000000 0.000000 0.000000 0.000000 0.032536
#
#
# Mechanical properties :
#
#
# Convention : Reuss Voigt Hill
#
# Bulk Modulus (GPa) = 44.69076 60.47175 52.58126
# Shear Modulus (GPa) = 23.31581 26.55136 24.93359
#
# Velocity S-wave (km/s) = 3.44003 3.67097 3.55737
# Velocity P-wave (km/s) = 6.20169 6.97568 6.60004
#
# Compressibility (1/GPa) = 0.02237599
#
# Stress axis : x y z
#
# Youngs Moduli (GPa) = 101.99546 83.59161 33.41932
#
# Poissons Ratio (x) = 0.24789 0.17464
# Poissons Ratio (y) = 0.30247 0.21609
# Poissons Ratio (z) = 0.53299 0.54049
#
# Static dielectric constant tensor:
#      x y z
#    x 3.715140 0.000000 0.000000 
#    y 0.000000 3.718480 0.000000 
#    z 0.000000 0.000000 3.401070 
# 
# 
# High freq. dielectric constant tensor:
#      x y z
#    x 1.776050 0.000000 0.000000 
#    y 0.000000 1.772480 0.000000 
#    z 0.000000 0.000000 1.752160 
# 
# From -- ./inp_files/6673.got.cif
#   From: 2010.03.12/outbox.cif.g09.slc.cpg/sg55_4_cif.got.tgz:6673.got - 2010.04.16 15:19:21.
