data_PCOD8226118
_publ_section_title
;
Structure prediction by ZEFSAII (Michael W. Deem and Ramdas Pophale) SiO2 
 PCOD8226118
Probable space group: P B A M
;
_chemical_formula_sum "Si O2"
_cell_formula_units_Z 64
_cell_length_a 14.527910
_cell_length_b 23.996088
_cell_length_c 9.058047
_cell_angle_alpha 90.000000
_cell_angle_beta 90.000000
_cell_angle_gamma 90.000000
_cell_volume 3157.753001
_symmetry_space_group_name_H-M "P B A M"
_symmetry_group_IT_number 55
_symmetry_cell_setting 'orthorhombic'
loop_
_space_group_symop_operation_xyz
x,y,z
-x,-y,z
1/2+x,1/2-y,-z
1/2-x,1/2+y,-z
-x,-y,-z
x,y,-z
1/2-x,1/2+y,z
1/2+x,1/2-y,z
loop_
_atom_site_type_symbol
_atom_site_label
_atom_site_fract_x
_atom_site_fract_y
_atom_site_fract_z
Si Si1 0.018044 0.322845 0.330221
Si Si2 0.816804 0.295451 0.328990
Si Si3 0.060806 0.947140 0.825850
Si Si4 0.252388 0.584771 0.665167
Si Si5 0.943609 0.553340 0.329010
Si Si6 0.266659 0.975290 0.827227
Si Si7 0.145892 0.243062 0.825361
Si Si8 0.942057 0.862161 0.667879
O O1 0.047329 0.313545 0.500000
O O2 0.001347 0.388887 0.301994
O O3 0.098206 0.300571 0.223831
O O4 0.924933 0.287606 0.296248
O O5 0.792265 0.284693 0.500000
O O6 0.794717 0.358477 0.284971
O O7 0.752132 0.255567 0.230409
O O8 0.166121 0.955148 0.776213
O O9 0.029119 0.890480 0.746137
O O10 0.050841 0.938616 0.000000
O O11 0.000000 0.000000 0.774611
O O12 0.220388 0.567625 0.500000
O O13 0.219228 0.539115 0.780424
O O14 0.362073 0.591748 0.670792
O O15 0.923891 0.542875 0.500000
O O16 0.845491 0.561096 0.249370
O O17 0.000000 0.500000 0.264846
O O18 0.278646 0.969989 0.000000
O O19 0.088618 0.192897 0.753626
O O20 0.144776 0.237221 0.000000
O O21 0.967049 0.845286 0.500000
#
# Coordination Sequence:
#
# PCOD8226118 Si02
#       8
#     8   8   8   8   8   8   8   8
#     4  10  21  41  67  91 119 157 202 252 302 358
#     4   9  19  38  64  90 113 147 198 250 296 347
#     4  10  20  35  53  80 123 165 199 242 301 361
#     4   9  17  31  54  83 114 148 194 245 286 338
#     4  10  22  42  66  90 118 154 198 250 306 358
#     4  11  22  34  53  84 121 160 196 236 294 360
#     4  11  23  39  61  89 123 156 193 244 304 364
#     4  10  20  35  57  83 112 153 207 253 291 343
#
# _framework density 20.267575999999998
#
# number of rings (size 3 to 8) (size 9 to 14) (size 15 to 20)
#    0.000    2.000    1.250    3.375    0.000    6.500 
#    2.250    1.250    0.000    0.000    0.000    0.000 
#    0.000    0.000    0.000    0.000    0.000    0.000 
#
# Total GULP energy -793625.502361 kJ/mol
# GULP energy per Si atom -12400.398474 kJ/mol
# Density = 2.022145 g / cm^3
# Si number density = 20.267576 Si / 1000 Ang^3
#
#
#
# Elastic Constant Matrix: (Units=GPa)
#
#
# Indices 1 2 3 4 5 6 
#
# 1 110.4581 28.6252 42.9285 0.0000 0.0000 0.0000
# 2 28.6252 66.7184 31.2179 0.0000 0.0000 0.0000
# 3 42.9285 31.2179 82.2857 0.0000 0.0000 0.0000
# 4 0.0000 0.0000 0.0000 28.7898 0.0000 0.0000
# 5 0.0000 0.0000 0.0000 0.0000 30.7191 0.0000
# 6 0.0000 0.0000 0.0000 0.0000 0.0000 30.8137
#
#
#
# Elastic Compliance Matrix: (Units=1/GPa)
#
#
# Indices 1 2 3 4 5 6 
#
# 1 0.011725 -0.002636 -0.005117 0.000000 0.000000 0.000000
# 2 -0.002636 0.018816 -0.005763 0.000000 0.000000 0.000000
# 3 -0.005117 -0.005763 0.017009 0.000000 0.000000 0.000000
# 4 0.000000 0.000000 0.000000 0.034735 0.000000 0.000000
# 5 0.000000 0.000000 0.000000 0.000000 0.032553 0.000000
# 6 0.000000 0.000000 0.000000 0.000000 0.000000 0.032453
#
#
# Mechanical properties :
#
#
# Convention : Reuss Voigt Hill
#
# Bulk Modulus (GPa) = 48.73958 51.66727 50.20342
# Shear Modulus (GPa) = 27.59960 28.51055 28.05508
#
# Velocity S-wave (km/s) = 3.69421 3.75468 3.72457
# Velocity P-wave (km/s) = 6.50358 6.65918 6.58184
#
# Compressibility (1/GPa) = 0.02051721
#
# Stress axis : x y z
#
# Youngs Moduli (GPa) = 85.28782 53.14596 58.79366
#
# Poissons Ratio (x) = 0.14011 0.30083
# Poissons Ratio (y) = 0.22485 0.33884
# Poissons Ratio (z) = 0.43639 0.30629
#
# Static dielectric constant tensor:
#      x y z
#    x 3.814960 0.000000 0.000000 
#    y 0.000000 3.472900 0.000000 
#    z 0.000000 0.000000 3.518210 
# 
# 
# High freq. dielectric constant tensor:
#      x y z
#    x 1.795600 0.000000 0.000000 
#    y 0.000000 1.777140 0.000000 
#    z 0.000000 0.000000 1.779710 
# 
# From -- ./inp_files/6546.got.cif
#   From: 2010.03.12/outbox.cif.g09.slc.cpg/sg55_4_cif.got.tgz:6546.got - 2010.04.16 15:19:21.
