data_PCOD8226097
_publ_section_title
;
Structure prediction by ZEFSAII (Michael W. Deem and Ramdas Pophale) SiO2 
 PCOD8226097
Probable space group: P B A M
;
_chemical_formula_sum "Si O2"
_cell_formula_units_Z 32
_cell_length_a 29.767903
_cell_length_b 5.257911
_cell_length_c 10.386594
_cell_angle_alpha 90.000000
_cell_angle_beta 90.000000
_cell_angle_gamma 90.000000
_cell_volume 1625.678373
_symmetry_space_group_name_H-M "P B A M"
_symmetry_group_IT_number 55
_symmetry_cell_setting 'orthorhombic'
loop_
_space_group_symop_operation_xyz
x,y,z
-x,-y,z
1/2+x,1/2-y,-z
1/2-x,1/2+y,-z
-x,-y,-z
x,y,-z
1/2-x,1/2+y,z
1/2+x,1/2-y,z
loop_
_atom_site_type_symbol
_atom_site_label
_atom_site_fract_x
_atom_site_fract_y
_atom_site_fract_z
Si Si1 0.872136 0.414321 0.252928
Si Si2 0.726660 0.902862 0.848881
Si Si3 0.045110 0.356610 0.144888
Si Si4 0.406632 0.596904 0.643453
O O1 0.826039 0.398946 0.176658
O O2 0.913170 0.444991 0.151008
O O3 0.872642 0.661804 0.346208
O O4 0.878697 0.158997 0.334572
O O5 0.750267 0.653622 0.787613
O O6 0.735222 0.903450 0.000000
O O7 0.053790 0.129904 0.248918
O O8 0.000000 0.500000 0.185660
O O9 0.041381 0.244448 0.000000
O O10 0.427687 0.590652 0.500000
#
# Coordination Sequence:
#
# PCOD8226097 Si02
#       4
#     8   8   8   8
#     4  10  21  38  61  85 121 155 199 243 303 344
#     4  10  20  34  57  89 120 151 195 247 300 357
#     4   9  21  39  61  92 124 156 198 248 304 359
#     4  10  22  39  62  86 119 162 202 241 290 355
#
# _framework density 19.684090000000001
#
# number of rings (size 3 to 8) (size 9 to 14) (size 15 to 20)
#    1.500    0.750    0.000    3.000    0.000    3.500 
#    0.000    3.750    0.000   15.000    0.000    0.000 
#    0.000    0.000    0.000    0.000    0.000    0.000 
#
# Total GULP energy -396481.140163 kJ/mol
# GULP energy per Si atom -12390.035630 kJ/mol
# Density = 1.963929 g / cm^3
# Si number density = 19.684090 Si / 1000 Ang^3
#
#
#
# Elastic Constant Matrix: (Units=GPa)
#
#
# Indices 1 2 3 4 5 6 
#
# 1 126.2949 30.5988 7.2633 0.0000 0.0000 0.0000
# 2 30.5988 134.9348 26.9539 0.0000 0.0000 0.0000
# 3 7.2633 26.9539 68.1354 0.0000 0.0000 0.0000
# 4 0.0000 0.0000 0.0000 9.5172 0.0000 0.0000
# 5 0.0000 0.0000 0.0000 0.0000 12.6080 0.0000
# 6 0.0000 0.0000 0.0000 0.0000 0.0000 19.1617
#
#
#
# Elastic Compliance Matrix: (Units=1/GPa)
#
#
# Indices 1 2 3 4 5 6 
#
# 1 0.008380 -0.001870 -0.000154 0.000000 0.000000 0.000000
# 2 -0.001870 0.008464 -0.003149 0.000000 0.000000 0.000000
# 3 -0.000154 -0.003149 0.015939 0.000000 0.000000 0.000000
# 4 0.000000 0.000000 0.000000 0.105072 0.000000 0.000000
# 5 0.000000 0.000000 0.000000 0.000000 0.079315 0.000000
# 6 0.000000 0.000000 0.000000 0.000000 0.000000 0.052187
#
#
# Mechanical properties :
#
#
# Convention : Reuss Voigt Hill
#
# Bulk Modulus (GPa) = 44.56725 50.99967 47.78346
# Shear Modulus (GPa) = 17.41062 25.89400 21.65231
#
# Velocity S-wave (km/s) = 2.97728 3.63089 3.32021
# Velocity P-wave (km/s) = 5.87447 6.59872 6.24710
#
# Compressibility (1/GPa) = 0.02243800
#
# Stress axis : x y z
#
# Youngs Moduli (GPa) = 119.33501 118.14791 62.74008
#
# Poissons Ratio (x) = 0.22088 0.00964
# Poissons Ratio (y) = 0.22310 0.19757
# Poissons Ratio (z) = 0.01834 0.37205
#
# Static dielectric constant tensor:
#      x y z
#    x 3.330470 0.000000 0.000000 
#    y 0.000000 3.758500 0.000000 
#    z 0.000000 0.000000 3.260370 
# 
# 
# High freq. dielectric constant tensor:
#      x y z
#    x 1.754680 0.000000 0.000000 
#    y 0.000000 1.775260 0.000000 
#    z 0.000000 0.000000 1.741250 
# 
# From -- ./inp_files/10336.got.cif
#   From: 2010.03.12/outbox.cif.g09.slc.cpg/sg55_6_cif.got.tgz:10336.got - 2010.04.16 15:19:21.
