data_PCOD8226002
_publ_section_title
;
Structure prediction by ZEFSAII (Michael W. Deem and Ramdas Pophale) SiO2 
 PCOD8226002
Probable space group: P B A M
;
_chemical_formula_sum "Si O2"
_cell_formula_units_Z 64
_cell_length_a 8.644305
_cell_length_b 10.768637
_cell_length_c 30.940248
_cell_angle_alpha 90.000000
_cell_angle_beta 90.000000
_cell_angle_gamma 90.000000
_cell_volume 2880.146705
_symmetry_space_group_name_H-M "P B A M"
_symmetry_group_IT_number 55
_symmetry_cell_setting 'orthorhombic'
loop_
_space_group_symop_operation_xyz
x,y,z
-x,-y,z
1/2+x,1/2-y,-z
1/2-x,1/2+y,-z
-x,-y,-z
x,y,-z
1/2-x,1/2+y,z
1/2+x,1/2-y,z
loop_
_atom_site_type_symbol
_atom_site_label
_atom_site_fract_x
_atom_site_fract_y
_atom_site_fract_z
Si Si1 0.507477 0.641129 0.546820
Si Si2 0.507518 0.140602 0.663263
Si Si3 0.506449 0.806388 0.918523
Si Si4 0.560791 0.858305 0.242922
Si Si5 0.792148 0.094045 0.047786
Si Si6 0.750936 0.250595 0.605183
Si Si7 0.196925 0.100369 0.881261
Si Si8 0.099394 0.116199 0.213800
O O1 0.500000 0.500000 0.535152
O O2 0.491904 0.712141 0.500000
O O3 0.375145 0.667330 0.581324
O O4 0.673129 0.666236 0.568369
O O5 0.482393 0.202034 0.710122
O O6 0.674619 0.171844 0.643611
O O7 0.379342 0.164169 0.626978
O O8 0.500000 0.000000 0.676179
O O9 0.617954 0.724737 0.949138
O O10 0.393909 0.891710 0.947520
O O11 0.617428 0.885551 0.886803
O O12 0.389988 0.728905 0.888986
O O13 0.746350 0.861932 0.241590
O O14 0.493070 0.749020 0.211268
O O15 0.500000 0.000000 0.233212
O O16 0.860484 0.003403 0.084581
O O17 0.822201 0.037337 0.000000
O O18 0.155622 0.063237 0.832719
O O19 0.000000 0.000000 0.233428
#
# Coordination Sequence:
#
# PCOD8226002 Si02
#       8
#     8   8   8   8   8   8   8   8
#     4  10  20  34  53  82 119 163 212 256 306 369
#     4  10  21  39  60  87 119 155 206 258 321 386
#     4  10  23  40  61  88 120 157 200 247 300 360
#     4  11  25  44  68  97 131 171 215 271 332 403
#     4  11  23  40  62  90 123 160 202 250 303 361
#     4  10  20  35  58  84 118 160 203 261 319 370
#     4  11  24  42  63  88 120 158 200 247 303 371
#     4  12  25  44  69  99 132 169 216 266 328 395
#
# _framework density 22.221091000000001
#
# number of rings (size 3 to 8) (size 9 to 14) (size 15 to 20)
#    0.000    1.375    0.000    5.250    0.000    9.000 
#    0.000    3.125    0.000    6.000    0.000    0.000 
#    0.000    0.000    0.000    0.000    0.000    0.000 
#
# Total GULP energy -793181.892591 kJ/mol
# GULP energy per Si atom -12393.467072 kJ/mol
# Density = 2.217051 g / cm^3
# Si number density = 22.221091 Si / 1000 Ang^3
#
#
#
# Elastic Constant Matrix: (Units=GPa)
#
#
# Indices 1 2 3 4 5 6 
#
# 1 119.1472 24.2544 19.1133 0.0000 0.0000 0.0000
# 2 24.2544 84.1578 18.8143 0.0000 0.0000 0.0000
# 3 19.1133 18.8143 117.5734 0.0000 0.0000 0.0000
# 4 0.0000 0.0000 0.0000 41.4921 0.0000 0.0000
# 5 0.0000 0.0000 0.0000 0.0000 23.6292 0.0000
# 6 0.0000 0.0000 0.0000 0.0000 0.0000 34.6889
#
#
#
# Elastic Compliance Matrix: (Units=1/GPa)
#
#
# Indices 1 2 3 4 5 6 
#
# 1 0.009049 -0.002364 -0.001093 0.000000 0.000000 0.000000
# 2 -0.002364 0.012941 -0.001687 0.000000 0.000000 0.000000
# 3 -0.001093 -0.001687 0.008953 0.000000 0.000000 0.000000
# 4 0.000000 0.000000 0.000000 0.024101 0.000000 0.000000
# 5 0.000000 0.000000 0.000000 0.000000 0.042320 0.000000
# 6 0.000000 0.000000 0.000000 0.000000 0.000000 0.028828
#
#
# Mechanical properties :
#
#
# Convention : Reuss Voigt Hill
#
# Bulk Modulus (GPa) = 48.41032 49.47136 48.94084
# Shear Modulus (GPa) = 34.87623 37.20847 36.04235
#
# Velocity S-wave (km/s) = 3.96600 4.09646 4.03176
# Velocity P-wave (km/s) = 6.54257 6.68478 6.61406
#
# Compressibility (1/GPa) = 0.02065675
#
# Stress axis : x y z
#
# Youngs Moduli (GPa) = 110.50363 77.27543 111.69601
#
# Poissons Ratio (x) = 0.18266 0.12207
# Poissons Ratio (y) = 0.26120 0.18838
# Poissons Ratio (z) = 0.12077 0.13033
#
# Static dielectric constant tensor:
#      x y z
#    x 4.408030 0.000000 0.000000 
#    y 0.000000 3.827190 0.000000 
#    z 0.000000 0.000000 3.972880 
# 
# 
# High freq. dielectric constant tensor:
#      x y z
#    x 1.892810 0.000000 0.000000 
#    y 0.000000 1.860580 0.000000 
#    z 0.000000 0.000000 1.875580 
# 
# From -- ./inp_files/24153.got.cif
#   From: 2010.03.12/outbox.cif.g09.slc.cpg/sg55_13_cif.got.tgz:24153.got - 2010.04.16 15:19:21.
