data_PCOD8226063
_publ_section_title
;
Structure prediction by ZEFSAII (Michael W. Deem and Ramdas Pophale) SiO2 
 PCOD8226063
Probable space group: P B A M
;
_chemical_formula_sum "Si O2"
_cell_formula_units_Z 64
_cell_length_a 12.269746
_cell_length_b 27.988619
_cell_length_c 8.942545
_cell_angle_alpha 90.000000
_cell_angle_beta 90.000000
_cell_angle_gamma 90.000000
_cell_volume 3070.988406
_symmetry_space_group_name_H-M "P B A M"
_symmetry_group_IT_number 55
_symmetry_cell_setting 'orthorhombic'
loop_
_space_group_symop_operation_xyz
x,y,z
-x,-y,z
1/2+x,1/2-y,-z
1/2-x,1/2+y,-z
-x,-y,-z
x,y,-z
1/2-x,1/2+y,z
1/2+x,1/2-y,z
loop_
_atom_site_type_symbol
_atom_site_label
_atom_site_fract_x
_atom_site_fract_y
_atom_site_fract_z
Si Si1 0.741799 0.676863 0.324952
Si Si2 0.841902 0.071888 0.674938
Si Si3 0.099163 0.587230 0.668513
Si Si4 0.668265 0.767158 0.825412
Si Si5 0.936227 0.918188 0.172757
Si Si6 0.696572 0.342869 0.331346
Si Si7 0.467754 0.835660 0.825231
Si Si8 0.233380 0.512252 0.172655
O O1 0.757307 0.684957 0.500000
O O2 0.691067 0.625761 0.288210
O O3 0.660049 0.716439 0.257984
O O4 0.857210 0.683406 0.245054
O O5 0.852942 0.061954 0.500000
O O6 0.956250 0.059965 0.753142
O O7 0.749028 0.037743 0.742638
O O8 0.063082 0.574615 0.500000
O O9 0.202883 0.621286 0.669000
O O10 0.999907 0.613845 0.750547
O O11 0.129081 0.538782 0.756043
O O12 0.772334 0.795746 0.760926
O O13 0.557756 0.795504 0.791795
O O14 0.687581 0.759268 0.000000
O O15 0.905875 0.868362 0.252974
O O16 0.841575 0.956583 0.194391
O O17 0.958451 0.907350 0.000000
O O18 0.663629 0.328627 0.500000
O O19 0.453632 0.844786 0.000000
O O20 0.208249 0.502573 0.000000
#
# Coordination Sequence:
#
# PCOD8226063 Si02
#       8
#     8   8   8   8   8   8   8   8
#     4  11  25  42  59  82 114 151 190 233 281 333
#     4  11  24  39  54  77 112 153 195 239 288 340
#     4   9  17  32  57  86 114 145 183 228 277 331
#     4  10  21  38  61  87 113 145 186 230 278 333
#     4  10  20  34  55  84 117 151 188 233 285 340
#     4   9  17  31  54  84 115 147 184 227 275 329
#     4  10  21  39  63  88 115 147 184 230 283 336
#     4  10  20  35  57  85 115 149 190 235 284 338
#
# _framework density 20.840195999999999
#
# number of rings (size 3 to 8) (size 9 to 14) (size 15 to 20)
#    0.000    2.000    0.000    3.375    0.000   10.500 
#    0.000    3.125    0.000    3.750    0.000    0.000 
#    0.000    0.000    0.000    0.000    0.000    0.000 
#
# Total GULP energy -793919.652691 kJ/mol
# GULP energy per Si atom -12404.994573 kJ/mol
# Density = 2.079276 g / cm^3
# Si number density = 20.840196 Si / 1000 Ang^3
#
#
#
# Elastic Constant Matrix: (Units=GPa)
#
#
# Indices 1 2 3 4 5 6 
#
# 1 34.3623 1.4042 30.5641 0.0000 0.0000 0.0000
# 2 1.4042 66.1290 45.1635 0.0000 0.0000 0.0000
# 3 30.5641 45.1635 139.8939 0.0000 0.0000 0.0000
# 4 0.0000 0.0000 0.0000 39.5271 0.0000 0.0000
# 5 0.0000 0.0000 0.0000 0.0000 29.6958 0.0000
# 6 0.0000 0.0000 0.0000 0.0000 0.0000 19.2302
#
#
#
# Elastic Compliance Matrix: (Units=1/GPa)
#
#
# Indices 1 2 3 4 5 6 
#
# 1 0.038030 0.006244 -0.010325 0.000000 0.000000 0.000000
# 2 0.006244 0.020424 -0.007958 0.000000 0.000000 0.000000
# 3 -0.010325 -0.007958 0.011973 0.000000 0.000000 0.000000
# 4 0.000000 0.000000 0.000000 0.025299 0.000000 0.000000
# 5 0.000000 0.000000 0.000000 0.000000 0.033675 0.000000
# 6 0.000000 0.000000 0.000000 0.000000 0.000000 0.052001
#
#
# Mechanical properties :
#
#
# Convention : Reuss Voigt Hill
#
# Bulk Modulus (GPa) = 21.57508 43.84988 32.71248
# Shear Modulus (GPa) = 22.63159 28.57418 25.60288
#
# Velocity S-wave (km/s) = 3.29896 3.70687 3.50885
# Velocity P-wave (km/s) = 4.98859 6.27757 5.66982
#
# Compressibility (1/GPa) = 0.04634977
#
# Stress axis : x y z
#
# Youngs Moduli (GPa) = 26.29516 48.96121 83.52031
#
# Poissons Ratio (x) = -0.30570 0.86231
# Poissons Ratio (y) = -0.16418 0.66465
# Poissons Ratio (z) = 0.27148 0.38963
#
# Static dielectric constant tensor:
#      x y z
#    x 3.522010 0.000000 0.000000 
#    y 0.000000 3.768250 0.000000 
#    z 0.000000 0.000000 3.911520 
# 
# 
# High freq. dielectric constant tensor:
#      x y z
#    x 1.798240 0.000000 0.000000 
#    y 0.000000 1.815270 0.000000 
#    z 0.000000 0.000000 1.831720 
# 
# From -- ./inp_files/4698.got.cif
#   From: 2010.03.12/outbox.cif.g09.slc.cpg/sg55_3_cif.got.tgz:4698.got - 2010.04.16 15:19:21.
