data_PCOD8226068
_publ_section_title
;
Structure prediction by ZEFSAII (Michael W. Deem and Ramdas Pophale) SiO2 
 PCOD8226068
Probable space group: P B A M
;
_chemical_formula_sum "Si O2"
_cell_formula_units_Z 40
_cell_length_a 29.449024
_cell_length_b 9.017400
_cell_length_c 7.478831
_cell_angle_alpha 90.000000
_cell_angle_beta 90.000000
_cell_angle_gamma 90.000000
_cell_volume 1986.030713
_symmetry_space_group_name_H-M "P B A M"
_symmetry_group_IT_number 55
_symmetry_cell_setting 'orthorhombic'
loop_
_space_group_symop_operation_xyz
x,y,z
-x,-y,z
1/2+x,1/2-y,-z
1/2-x,1/2+y,-z
-x,-y,-z
x,y,-z
1/2-x,1/2+y,z
1/2+x,1/2-y,z
loop_
_atom_site_type_symbol
_atom_site_label
_atom_site_fract_x
_atom_site_fract_y
_atom_site_fract_z
Si Si1 0.956747 0.426912 0.698968
Si Si2 0.199307 0.084777 0.000000
Si Si3 0.358652 0.432802 0.295140
Si Si4 0.796543 0.563548 0.000000
Si Si5 0.958430 0.099887 0.209065
Si Si6 0.856971 0.412227 0.288140
O O1 0.955951 0.494107 0.500000
O O2 0.963263 0.251769 0.684734
O O3 0.907218 0.461070 0.783062
O O4 0.000000 0.500000 0.803701
O O5 0.206355 0.260077 0.000000
O O6 0.172406 0.038748 0.822801
O O7 0.246729 0.001926 0.000000
O O8 0.345759 0.462557 0.500000
O O9 0.410964 0.477676 0.259997
O O10 0.350079 0.261236 0.243370
O O11 0.821103 0.508985 0.819862
O O12 0.960898 0.133889 0.000000
O O13 0.000000 0.000000 0.273867
O O14 0.851222 0.440427 0.500000
#
# Coordination Sequence:
#
# PCOD8226068 Si02
#       6
#     8   4   8   4   8   8
#     4   9  19  35  55  84 121 163 206 244 291 349
#     4  12  26  44  63  94 119 152 203 242 310 368
#     4  10  21  41  67  89 121 162 202 252 301 356
#     4  12  26  42  67  88 123 158 189 256 306 362
#     4  10  20  34  55  87 124 159 203 245 290 352
#     4   9  20  40  64  91 120 160 206 247 301 356
#
# _framework density 20.140675999999999
#
# number of rings (size 3 to 8) (size 9 to 14) (size 15 to 20)
#    0.000    2.000    1.000    3.600    4.200    5.200 
#    0.000    2.000    0.000    0.000    0.000    0.000 
#    0.000    0.000    0.000    0.000    0.000    0.000 
#
# Total GULP energy -495891.198479 kJ/mol
# GULP energy per Si atom -12397.279962 kJ/mol
# Density = 2.009484 g / cm^3
# Si number density = 20.140676 Si / 1000 Ang^3
#
#
#
# Elastic Constant Matrix: (Units=GPa)
#
#
# Indices 1 2 3 4 5 6 
#
# 1 178.0836 85.8883 49.2078 0.0000 0.0000 0.0000
# 2 85.8883 105.7942 36.2003 0.0000 0.0000 0.0000
# 3 49.2078 36.2003 85.1164 0.0000 0.0000 0.0000
# 4 0.0000 0.0000 0.0000 34.5840 0.0000 0.0000
# 5 0.0000 0.0000 0.0000 0.0000 22.2421 0.0000
# 6 0.0000 0.0000 0.0000 0.0000 0.0000 40.8002
#
#
#
# Elastic Compliance Matrix: (Units=1/GPa)
#
#
# Indices 1 2 3 4 5 6 
#
# 1 0.009713 -0.006980 -0.002647 0.000000 0.000000 0.000000
# 2 -0.006980 0.016078 -0.002803 0.000000 0.000000 0.000000
# 3 -0.002647 -0.002803 0.014471 0.000000 0.000000 0.000000
# 4 0.000000 0.000000 0.000000 0.028915 0.000000 0.000000
# 5 0.000000 0.000000 0.000000 0.000000 0.044960 0.000000
# 6 0.000000 0.000000 0.000000 0.000000 0.000000 0.024510
#
#
# Mechanical properties :
#
#
# Convention : Reuss Voigt Hill
#
# Bulk Modulus (GPa) = 64.92258 79.06522 71.99390
# Shear Modulus (GPa) = 29.64910 32.70511 31.17710
#
# Velocity S-wave (km/s) = 3.84096 4.03405 3.93869
# Velocity P-wave (km/s) = 7.20938 7.81280 7.51715
#
# Compressibility (1/GPa) = 0.01540296
#
# Stress axis : x y z
#
# Youngs Moduli (GPa) = 102.95514 62.19757 69.10453
#
# Poissons Ratio (x) = 0.43412 0.18291
# Poissons Ratio (y) = 0.71860 0.19369
# Poissons Ratio (z) = 0.27250 0.17433
#
# Static dielectric constant tensor:
#      x y z
#    x 3.954950 0.000000 0.000000 
#    y 0.000000 3.483660 0.000000 
#    z 0.000000 0.000000 3.586780 
# 
# 
# High freq. dielectric constant tensor:
#      x y z
#    x 1.796610 0.000000 0.000000 
#    y 0.000000 1.766300 0.000000 
#    z 0.000000 0.000000 1.791670 
# 
# From -- ./inp_files/10019.got.cif
#   From: 2010.03.12/outbox.cif.g09.slc.cpg/sg55_6_cif.got.tgz:10019.got - 2010.04.16 15:19:21.
