data_PCOD8226083
_publ_section_title
;
Structure prediction by ZEFSAII (Michael W. Deem and Ramdas Pophale) SiO2 
 PCOD8226083
Probable space group: P B A M
;
_chemical_formula_sum "Si O2"
_cell_formula_units_Z 64
_cell_length_a 23.252254
_cell_length_b 15.502588
_cell_length_c 8.970469
_cell_angle_alpha 90.000000
_cell_angle_beta 90.000000
_cell_angle_gamma 90.000000
_cell_volume 3233.585982
_symmetry_space_group_name_H-M "P B A M"
_symmetry_group_IT_number 55
_symmetry_cell_setting 'orthorhombic'
loop_
_space_group_symop_operation_xyz
x,y,z
-x,-y,z
1/2+x,1/2-y,-z
1/2-x,1/2+y,-z
-x,-y,-z
x,y,-z
1/2-x,1/2+y,z
1/2+x,1/2-y,z
loop_
_atom_site_type_symbol
_atom_site_label
_atom_site_fract_x
_atom_site_fract_y
_atom_site_fract_z
Si Si1 0.690344 0.311466 0.833671
Si Si2 0.634851 0.130502 0.166555
Si Si3 0.819485 0.321960 0.825121
Si Si4 0.793635 0.495612 0.674527
Si Si5 0.504927 0.098437 0.173747
Si Si6 0.334852 0.522655 0.675091
Si Si7 0.928803 0.255995 0.323300
Si Si8 0.449761 0.436613 0.677075
O O1 0.651066 0.229123 0.826556
O O2 0.755573 0.287920 0.785780
O O3 0.659790 0.378506 0.724574
O O4 0.692290 0.351223 0.000000
O O5 0.671824 0.081567 0.289549
O O6 0.568758 0.127953 0.209921
O O7 0.645393 0.092411 0.000000
O O8 0.824690 0.419366 0.764635
O O9 0.864293 0.259633 0.741971
O O10 0.833225 0.320953 0.000000
O O11 0.796120 0.474158 0.500000
O O12 0.727771 0.511057 0.728699
O O13 0.463349 0.162169 0.262314
O O14 0.500000 0.000000 0.230542
O O15 0.488663 0.104721 0.000000
O O16 0.339417 0.518487 0.500000
O O17 0.387907 0.467891 0.742490
O O18 0.925204 0.262653 0.500000
O O19 0.957703 0.164027 0.275429
O O20 0.500000 0.500000 0.741323
O O21 0.449974 0.443776 0.500000
#
# Coordination Sequence:
#
# PCOD8226083 Si02
#       8
#     8   8   8   8   8   8   8   8
#     4   9  20  36  55  82 113 148 189 235 283 342
#     4  10  21  36  56  82 115 152 190 232 285 349
#     4  10  20  37  58  80 114 154 188 230 292 350
#     4  10  20  34  56  88 117 146 187 238 287 342
#     4  10  22  40  60  82 114 157 195 232 291 354
#     4   9  19  36  58  82 112 150 190 233 287 341
#     4  11  23  37  61  91 118 150 197 249 287 341
#     4   9  20  38  58  82 116 156 195 238 293 348
#
# _framework density 19.792268
#
# number of rings (size 3 to 8) (size 9 to 14) (size 15 to 20)
#    0.000    2.250    0.000    1.875    3.500    3.250 
#    0.000    1.250    0.000    1.875    0.000    0.000 
#    0.000    0.000    0.000    0.000    0.000    0.000 
#
# Total GULP energy -793504.459256 kJ/mol
# GULP energy per Si atom -12398.507176 kJ/mol
# Density = 1.974722 g / cm^3
# Si number density = 19.792268 Si / 1000 Ang^3
#
#
#
# Elastic Constant Matrix: (Units=GPa)
#
#
# Indices 1 2 3 4 5 6 
#
# 1 109.0747 64.8131 31.7758 0.0000 0.0000 0.0000
# 2 64.8131 105.6829 28.3611 0.0000 0.0000 0.0000
# 3 31.7758 28.3611 44.2276 0.0000 0.0000 0.0000
# 4 0.0000 0.0000 0.0000 26.6232 0.0000 0.0000
# 5 0.0000 0.0000 0.0000 0.0000 24.0898 0.0000
# 6 0.0000 0.0000 0.0000 0.0000 0.0000 37.5456
#
#
#
# Elastic Compliance Matrix: (Units=1/GPa)
#
#
# Indices 1 2 3 4 5 6 
#
# 1 0.015704 -0.007976 -0.006168 0.000000 0.000000 0.000000
# 2 -0.007976 0.015480 -0.004196 0.000000 0.000000 0.000000
# 3 -0.006168 -0.004196 0.029733 0.000000 0.000000 0.000000
# 4 0.000000 0.000000 0.000000 0.037561 0.000000 0.000000
# 5 0.000000 0.000000 0.000000 0.000000 0.041511 0.000000
# 6 0.000000 0.000000 0.000000 0.000000 0.000000 0.026634
#
#
# Mechanical properties :
#
#
# Convention : Reuss Voigt Hill
#
# Bulk Modulus (GPa) = 41.26055 56.54280 48.90167
# Shear Modulus (GPa) = 23.65372 26.58740 25.12056
#
# Velocity S-wave (km/s) = 3.46077 3.66911 3.56646
# Velocity P-wave (km/s) = 6.07135 6.82495 6.45915
#
# Compressibility (1/GPa) = 0.02423623
#
# Stress axis : x y z
#
# Youngs Moduli (GPa) = 63.67681 64.60065 33.63273
#
# Poissons Ratio (x) = 0.51524 0.20746
# Poissons Ratio (y) = 0.50787 0.14113
# Poissons Ratio (z) = 0.39279 0.27107
#
# Static dielectric constant tensor:
#      x y z
#    x 3.838810 0.000000 0.000000 
#    y 0.000000 3.575740 0.000000 
#    z 0.000000 0.000000 3.494480 
# 
# 
# High freq. dielectric constant tensor:
#      x y z
#    x 1.782770 0.000000 0.000000 
#    y 0.000000 1.770340 0.000000 
#    z 0.000000 0.000000 1.754150 
# 
# From -- ./inp_files/9750.got.cif
#   From: 2010.03.12/outbox.cif.g09.slc.cpg/sg55_5_cif.got.tgz:9750.got - 2010.04.16 15:19:21.
