data_PCOD8226907
_publ_section_title
;
Structure prediction by ZEFSAII (Michael W. Deem and Ramdas Pophale) SiO2 
 PCOD8226907
Probable space group: P B A M
;
_chemical_formula_sum "Si O2"
_cell_formula_units_Z 64
_cell_length_a 11.198332
_cell_length_b 32.046514
_cell_length_c 9.461096
_cell_angle_alpha 90.000000
_cell_angle_beta 90.000000
_cell_angle_gamma 90.000000
_cell_volume 3395.279899
_symmetry_space_group_name_H-M "P B A M"
_symmetry_group_IT_number 55
_symmetry_cell_setting 'orthorhombic'
loop_
_space_group_symop_operation_xyz
x,y,z
-x,-y,z
1/2+x,1/2-y,-z
1/2-x,1/2+y,-z
-x,-y,-z
x,y,-z
1/2-x,1/2+y,z
1/2+x,1/2-y,z
loop_
_atom_site_type_symbol
_atom_site_label
_atom_site_fract_x
_atom_site_fract_y
_atom_site_fract_z
Si Si1 0.477338 0.224672 0.834834
Si Si2 0.524054 0.304410 0.343550
Si Si3 0.383279 0.474563 0.666305
Si Si4 0.797164 0.316958 0.655349
Si Si5 0.927000 0.399151 0.339950
Si Si6 0.351823 0.379020 0.664190
Si Si7 0.367973 0.009911 0.337680
Si Si8 0.119163 0.359046 0.166502
O O1 0.518845 0.267987 0.770284
O O2 0.347394 0.215492 0.769517
O O3 0.568179 0.187094 0.796404
O O4 0.462548 0.230574 0.000000
O O5 0.483977 0.288639 0.500000
O O6 0.657818 0.319015 0.345758
O O7 0.453713 0.345779 0.299892
O O8 0.500000 0.500000 0.727478
O O9 0.379333 0.483050 0.500000
O O10 0.397825 0.425522 0.702668
O O11 0.252807 0.489271 0.730104
O O12 0.847268 0.304636 0.500000
O O13 0.835530 0.363090 0.698218
O O14 0.977346 0.396339 0.500000
O O15 0.850989 0.440860 0.318929
O O16 0.038385 0.395648 0.233519
O O17 0.312414 0.377382 0.500000
O O18 0.246907 0.363755 0.764523
O O19 0.374397 0.994899 0.500000
O O20 0.500000 0.000000 0.268906
O O21 0.126795 0.366019 0.000000
#
# Coordination Sequence:
#
# PCOD8226907 Si02
#       8
#     8   8   8   8   8   8   8   8
#     4  10  22  38  56  79 106 140 182 227 274 322
#     4  10  22  36  54  80 110 142 180 223 270 327
#     4   9  18  31  52  83 117 147 179 226 279 328
#     4   9  19  35  54  78 108 140 177 221 269 321
#     4   9  17  31  55  81 109 143 179 221 271 319
#     4  10  21  36  56  82 112 146 183 221 270 328
#     4   9  16  26  47  80 112 140 177 223 269 319
#     4  10  21  37  56  80 111 145 183 226 271 323
#
# _framework density 18.849699000000001
#
# number of rings (size 3 to 8) (size 9 to 14) (size 15 to 20)
#    0.000    2.500    0.000    1.500    3.500    4.500 
#    0.000    0.000    0.000    3.750    0.000    0.000 
#    0.000    0.000    0.000    0.000    0.000    0.000 
#
# Total GULP energy -793118.577859 kJ/mol
# GULP energy per Si atom -12392.477779 kJ/mol
# Density = 1.880680 g / cm^3
# Si number density = 18.849699 Si / 1000 Ang^3
#
#
#
# Elastic Constant Matrix: (Units=GPa)
#
#
# Indices 1 2 3 4 5 6 
#
# 1 106.7655 44.6103 31.2873 0.0000 0.0000 0.0000
# 2 44.6103 88.7893 37.2050 0.0000 0.0000 0.0000
# 3 31.2873 37.2050 66.8446 0.0000 0.0000 0.0000
# 4 0.0000 0.0000 0.0000 -8.5830 0.0000 0.0000
# 5 0.0000 0.0000 0.0000 0.0000 -39.7931 0.0000
# 6 0.0000 0.0000 0.0000 0.0000 0.0000 17.4543
#
#
#
# Elastic Compliance Matrix: (Units=1/GPa)
#
#
# Indices 1 2 3 4 5 6 
#
# 1 0.012307 -0.004916 -0.003024 0.000000 0.000000 0.000000
# 2 -0.004916 0.016652 -0.006967 0.000000 0.000000 0.000000
# 3 -0.003024 -0.006967 0.020253 0.000000 0.000000 0.000000
# 4 0.000000 0.000000 0.000000 -0.116510 0.000000 0.000000
# 5 0.000000 0.000000 0.000000 0.000000 -0.025130 0.000000
# 6 0.000000 0.000000 0.000000 0.000000 0.000000 0.057293
#
#
# Mechanical properties :
#
#
# Convention : Reuss Voigt Hill
#
# Bulk Modulus (GPa) = 51.55360 54.28939 52.92150
# Shear Modulus (GPa) = 4365.32198 3.76876 2184.54537
#
# Velocity S-wave (km/s) = 48.17557 1.41553 34.07997
# Velocity P-wave (km/s) = 55.87417 5.61563 39.70805
#
# Compressibility (1/GPa) = 0.01939729
#
# Stress axis : x y z
#
# Youngs Moduli (GPa) = 81.25731 60.05258 49.37432
#
# Poissons Ratio (x) = 0.29522 0.14931
# Poissons Ratio (y) = 0.39946 0.34401
# Poissons Ratio (z) = 0.24572 0.41841
#
# Static dielectric constant tensor:
#      x y z
#    x 3.668030 0.000000 0.000000 
#    y 0.000000 3.561810 0.000000 
#    z 0.000000 0.000000 3.258160 
# 
# 
# High freq. dielectric constant tensor:
#      x y z
#    x 1.736810 0.000000 0.000000 
#    y 0.000000 1.741810 0.000000 
#    z 0.000000 0.000000 1.693330 
# 
# From -- ./inp_files/4515.got.cif
#   From: 2010.03.12/outbox.cif.g09.slc.cpg/sg55_3_cif.got.tgz:4515.got - 2010.04.16 15:19:21.
