data_PCOD8226944
_publ_section_title
;
Structure prediction by ZEFSAII (Michael W. Deem and Ramdas Pophale) SiO2 
 PCOD8226944
Probable space group: P B A M
;
_chemical_formula_sum "Si O2"
_cell_formula_units_Z 64
_cell_length_a 19.263610
_cell_length_b 8.930265
_cell_length_c 18.732332
_cell_angle_alpha 90.000000
_cell_angle_beta 90.000000
_cell_angle_gamma 90.000000
_cell_volume 3222.507005
_symmetry_space_group_name_H-M "P B A M"
_symmetry_group_IT_number 55
_symmetry_cell_setting 'orthorhombic'
loop_
_space_group_symop_operation_xyz
x,y,z
-x,-y,z
1/2+x,1/2-y,-z
1/2-x,1/2+y,-z
-x,-y,-z
x,y,-z
1/2-x,1/2+y,z
1/2+x,1/2-y,z
loop_
_atom_site_type_symbol
_atom_site_label
_atom_site_fract_x
_atom_site_fract_y
_atom_site_fract_z
Si Si1 0.550914 0.632216 0.330201
Si Si2 0.653549 0.688062 0.797834
Si Si3 0.178041 0.968978 0.415406
Si Si4 0.773353 0.480197 0.836635
Si Si5 0.461911 0.847384 0.421436
Si Si6 0.679496 0.261681 0.081311
Si Si7 0.578044 0.517870 0.082405
Si Si8 0.309886 0.799645 0.583827
O O1 0.500000 0.500000 0.307415
O O2 0.595361 0.678133 0.262237
O O3 0.603576 0.594151 0.393829
O O4 0.500733 0.760467 0.359193
O O5 0.715716 0.565294 0.786945
O O6 0.679870 0.860687 0.793096
O O7 0.618288 0.646699 0.873669
O O8 0.181251 0.967305 0.500000
O O9 0.242972 0.879052 0.381131
O O10 0.185257 0.134480 0.383634
O O11 0.820293 0.611378 0.871114
O O12 0.739672 0.379047 0.898518
O O13 0.460752 0.764096 0.500000
O O14 0.382399 0.881602 0.397714
O O15 0.500000 0.000000 0.432940
O O16 0.608059 0.350522 0.093408
O O17 0.690475 0.212387 0.000000
O O18 0.500000 0.500000 0.109707
O O19 0.582779 0.568279 0.000000
O O20 0.296629 0.794232 0.500000
#
# Coordination Sequence:
#
# PCOD8226944 Si02
#       8
#     8   8   8   8   8   8   8   8
#     4  12  24  40  61  86 117 162 203 243 295 361
#     4  10  22  39  58  84 118 156 202 247 302 362
#     4  10  21  36  59  89 118 151 193 241 294 349
#     4   9  19  36  54  82 118 154 193 245 304 351
#     4  10  22  41  63  89 122 153 195 250 302 357
#     4   9  16  29  57  89 115 146 190 244 299 357
#     4   9  18  35  58  84 117 157 197 244 302 363
#     4   9  19  36  57  86 119 150 189 238 291 347
#
# _framework density 19.860315
#
# number of rings (size 3 to 8) (size 9 to 14) (size 15 to 20)
#    0.000    2.250    1.250    1.125    1.750    5.000 
#    0.000    4.375    0.000    2.250    0.000    0.000 
#    0.000    0.000    0.000    0.000    0.000    0.000 
#
# Total GULP energy -793166.149314 kJ/mol
# GULP energy per Si atom -12393.221083 kJ/mol
# Density = 1.981511 g / cm^3
# Si number density = 19.860315 Si / 1000 Ang^3
#
#
#
# Elastic Constant Matrix: (Units=GPa)
#
#
# Indices 1 2 3 4 5 6 
#
# 1 123.4731 35.2728 27.6139 0.0000 0.0000 0.0000
# 2 35.2728 87.3895 24.1575 0.0000 0.0000 0.0000
# 3 27.6139 24.1575 62.4008 0.0000 0.0000 0.0000
# 4 0.0000 0.0000 0.0000 15.4515 0.0000 0.0000
# 5 0.0000 0.0000 0.0000 0.0000 35.1633 0.0000
# 6 0.0000 0.0000 0.0000 0.0000 0.0000 34.2842
#
#
#
# Elastic Compliance Matrix: (Units=1/GPa)
#
#
# Indices 1 2 3 4 5 6 
#
# 1 0.009661 -0.003043 -0.003097 0.000000 0.000000 0.000000
# 2 -0.003043 0.013773 -0.003985 0.000000 0.000000 0.000000
# 3 -0.003097 -0.003985 0.018939 0.000000 0.000000 0.000000
# 4 0.000000 0.000000 0.000000 0.064718 0.000000 0.000000
# 5 0.000000 0.000000 0.000000 0.000000 0.028439 0.000000
# 6 0.000000 0.000000 0.000000 0.000000 0.000000 0.029168
#
#
# Mechanical properties :
#
#
# Convention : Reuss Voigt Hill
#
# Bulk Modulus (GPa) = 45.20481 49.70575 47.45528
# Shear Modulus (GPa) = 25.99792 29.39441 27.69617
#
# Velocity S-wave (km/s) = 3.62199 3.85133 3.73842
# Velocity P-wave (km/s) = 6.34843 6.69768 6.52539
#
# Compressibility (1/GPa) = 0.02212154
#
# Stress axis : x y z
#
# Youngs Moduli (GPa) = 103.50954 72.60552 52.80171
#
# Poissons Ratio (x) = 0.22096 0.16353
# Poissons Ratio (y) = 0.31501 0.21043
# Poissons Ratio (z) = 0.32057 0.28935
#
# Static dielectric constant tensor:
#      x y z
#    x 3.864060 0.000000 0.000000 
#    y 0.000000 3.699640 0.000000 
#    z 0.000000 0.000000 3.352190 
# 
# 
# High freq. dielectric constant tensor:
#      x y z
#    x 1.786260 0.000000 0.000000 
#    y 0.000000 1.768940 0.000000 
#    z 0.000000 0.000000 1.753920 
# 
# From -- ./inp_files/23089.got.cif
#   From: 2010.03.12/outbox.cif.g09.slc.cpg/sg55_12_cif.got.tgz:23089.got - 2010.04.16 15:19:21.
