data_PCOD8226990
_publ_section_title
;
Structure prediction by ZEFSAII (Michael W. Deem and Ramdas Pophale) SiO2 
 PCOD8226990
Probable space group: P B A M
;
_chemical_formula_sum "Si O2"
_cell_formula_units_Z 48
_cell_length_a 5.077905
_cell_length_b 34.181729
_cell_length_c 13.305767
_cell_angle_alpha 90.000000
_cell_angle_beta 90.000000
_cell_angle_gamma 90.000000
_cell_volume 2309.502903
_symmetry_space_group_name_H-M "P B A M"
_symmetry_group_IT_number 55
_symmetry_cell_setting 'orthorhombic'
loop_
_space_group_symop_operation_xyz
x,y,z
-x,-y,z
1/2+x,1/2-y,-z
1/2-x,1/2+y,-z
-x,-y,-z
x,y,-z
1/2-x,1/2+y,z
1/2+x,1/2-y,z
loop_
_atom_site_type_symbol
_atom_site_label
_atom_site_fract_x
_atom_site_fract_y
_atom_site_fract_z
Si Si1 0.472633 0.407053 0.383652
Si Si2 0.736162 0.523963 0.113965
Si Si3 0.017781 0.543276 0.383566
Si Si4 0.704976 0.275607 0.884898
Si Si5 0.910437 0.856037 0.795866
Si Si6 0.602471 0.106781 0.882688
O O1 0.461469 0.393976 0.500000
O O2 0.202452 0.426481 0.343922
O O3 0.525154 0.367657 0.319377
O O4 0.695924 0.439314 0.364647
O O5 0.500000 0.500000 0.168616
O O6 0.790392 0.565984 0.164897
O O7 0.000000 0.500000 0.118584
O O8 0.644812 0.532277 0.000000
O O9 0.953662 0.537193 0.500000
O O10 0.000000 0.500000 0.330806
O O11 0.489760 0.242501 0.864147
O O12 0.671713 0.310921 0.806351
O O13 0.685569 0.291195 0.000000
O O14 0.674233 0.883541 0.832011
O O15 0.173299 0.861025 0.862903
O O16 0.543188 0.103052 0.000000
#
# Coordination Sequence:
#
# PCOD8226990 Si02
#       6
#     8   8   8   8   8   8
#     4  10  21  37  57  83 116 154 195 240 289 337
#     4   9  17  31  49  68  99 145 187 222 264 315
#     4   9  17  33  57  81 110 151 197 248 299 335
#     4  10  21  38  61  87 114 144 178 224 285 349
#     4  12  23  38  59  86 116 147 187 231 287 350
#     4  11  22  36  56  82 112 147 188 236 285 334
#
# _framework density 20.783693
#
# number of rings (size 3 to 8) (size 9 to 14) (size 15 to 20)
#    0.000    1.833    0.000    5.000    0.000    6.000 
#    0.000    8.333    0.000    1.000    0.000    0.000 
#    0.000    0.000    0.000    0.000    0.000    0.000 
#
# Total GULP energy -595248.704073 kJ/mol
# GULP energy per Si atom -12401.014668 kJ/mol
# Density = 2.073639 g / cm^3
# Si number density = 20.783693 Si / 1000 Ang^3
#
#
#
# Elastic Constant Matrix: (Units=GPa)
#
#
# Indices 1 2 3 4 5 6 
#
# 1 94.5840 -1.5141 16.9062 0.0000 0.0000 0.0000
# 2 -1.5141 90.4439 36.9610 0.0000 0.0000 0.0000
# 3 16.9062 36.9610 70.8826 0.0000 0.0000 0.0000
# 4 0.0000 0.0000 0.0000 7.2541 0.0000 0.0000
# 5 0.0000 0.0000 0.0000 0.0000 -34.4362 0.0000
# 6 0.0000 0.0000 0.0000 0.0000 0.0000 28.3593
#
#
#
# Elastic Compliance Matrix: (Units=1/GPa)
#
#
# Indices 1 2 3 4 5 6 
#
# 1 0.011229 0.001630 -0.003528 0.000000 0.000000 0.000000
# 2 0.001630 0.014287 -0.007839 0.000000 0.000000 0.000000
# 3 -0.003528 -0.007839 0.019037 0.000000 0.000000 0.000000
# 4 0.000000 0.000000 0.000000 0.137852 0.000000 0.000000
# 5 0.000000 0.000000 0.000000 0.000000 -0.029039 0.000000
# 6 0.000000 0.000000 0.000000 0.000000 0.000000 0.035262
#
#
# Mechanical properties :
#
#
# Convention : Reuss Voigt Hill
#
# Bulk Modulus (GPa) = 39.87353 40.06851 39.97102
# Shear Modulus (GPa) = 23.09877 13.80595 18.45236
#
# Velocity S-wave (km/s) = 3.33737 2.58014 2.98288
# Velocity P-wave (km/s) = 5.83758 5.31007 5.58006
#
# Compressibility (1/GPa) = 0.02507929
#
# Stress axis : x y z
#
# Youngs Moduli (GPa) = 89.05242 69.99266 52.53010
#
# Poissons Ratio (x) = -0.11408 0.18533
# Poissons Ratio (y) = -0.14514 0.41176
# Poissons Ratio (z) = 0.31419 0.54865
#
# Static dielectric constant tensor:
#      x y z
#    x 3.933480 0.000000 0.000000 
#    y 0.000000 3.563280 0.000000 
#    z 0.000000 0.000000 3.737480 
# 
# 
# High freq. dielectric constant tensor:
#      x y z
#    x 1.836100 0.000000 0.000000 
#    y 0.000000 1.789140 0.000000 
#    z 0.000000 0.000000 1.801450 
# 
# From -- ./inp_files/16666.got.cif
#   From: 2010.03.12/outbox.cif.g09.slc.cpg/sg55_9_cif.got.tgz:16666.got - 2010.04.16 15:19:21.
