data_PCOD8226554
_publ_section_title
;
Structure prediction by ZEFSAII (Michael W. Deem and Ramdas Pophale) SiO2 
 PCOD8226554
Probable space group: P B A M
;
_chemical_formula_sum "Si O2"
_cell_formula_units_Z 64
_cell_length_a 14.735608
_cell_length_b 24.659920
_cell_length_c 8.788141
_cell_angle_alpha 90.000000
_cell_angle_beta 90.000000
_cell_angle_gamma 90.000000
_cell_volume 3193.425136
_symmetry_space_group_name_H-M "P B A M"
_symmetry_group_IT_number 55
_symmetry_cell_setting 'orthorhombic'
loop_
_space_group_symop_operation_xyz
x,y,z
-x,-y,z
1/2+x,1/2-y,-z
1/2-x,1/2+y,-z
-x,-y,-z
x,y,-z
1/2-x,1/2+y,z
1/2+x,1/2-y,z
loop_
_atom_site_type_symbol
_atom_site_label
_atom_site_fract_x
_atom_site_fract_y
_atom_site_fract_z
Si Si1 0.261053 0.915067 0.323016
Si Si2 0.070652 0.543760 0.177115
Si Si3 0.949994 0.945399 0.320115
Si Si4 0.365032 0.756722 0.177336
Si Si5 0.931087 0.628590 0.822824
Si Si6 0.687869 0.688032 0.173413
Si Si7 0.770562 0.976735 0.820387
Si Si8 0.989874 0.835294 0.824464
O O1 0.255887 0.928966 0.500000
O O2 0.364662 0.911748 0.267487
O O3 0.209863 0.859491 0.289873
O O4 0.209689 0.961764 0.229716
O O5 0.171811 0.540775 0.247328
O O6 0.000000 0.500000 0.248735
O O7 0.032203 0.604940 0.203531
O O8 0.080587 0.529847 0.000000
O O9 0.946661 0.946475 0.500000
O O10 0.848478 0.939988 0.253908
O O11 0.002288 0.891260 0.266631
O O12 0.000000 0.000000 0.259169
O O13 0.418341 0.810181 0.239386
O O14 0.256495 0.761645 0.211824
O O15 0.408874 0.701937 0.247529
O O16 0.385603 0.752318 0.000000
O O17 0.903975 0.625812 0.000000
O O18 0.581652 0.701484 0.191559
O O19 0.709437 0.669428 0.000000
O O20 0.776332 0.969648 0.000000
O O21 0.971982 0.850416 0.000000
#
# Coordination Sequence:
#
# PCOD8226554 Si02
#       8
#     8   8   8   8   8   8   8   8
#     4  11  20  30  49  79 112 147 190 233 273 327
#     4   9  16  29  52  83 114 146 186 229 278 335
#     4  11  25  43  60  81 112 149 189 239 296 351
#     4   8  16  32  55  84 111 137 179 233 278 322
#     4   9  16  32  54  77 110 149 188 231 275 322
#     4   9  18  34  57  81 108 145 185 233 283 329
#     4  11  21  35  56  83 113 148 187 231 283 342
#     4  10  20  37  60  87 112 143 189 234 285 345
#
# _framework density 20.041177999999999
#
# number of rings (size 3 to 8) (size 9 to 14) (size 15 to 20)
#    0.000    2.250    1.250    3.375    0.000    3.500 
#    2.250    4.375    0.000    0.000    0.000    0.000 
#    0.000    0.000    0.000    0.000    0.000    0.000 
#
# Total GULP energy -793152.880750 kJ/mol
# GULP energy per Si atom -12393.013762 kJ/mol
# Density = 1.999556 g / cm^3
# Si number density = 20.041178 Si / 1000 Ang^3
#
#
#
# Elastic Constant Matrix: (Units=GPa)
#
#
# Indices 1 2 3 4 5 6 
#
# 1 130.6323 46.6903 24.3524 0.0000 0.0000 0.0000
# 2 46.6903 93.2519 19.2932 0.0000 0.0000 0.0000
# 3 24.3524 19.2932 45.6215 0.0000 0.0000 0.0000
# 4 0.0000 0.0000 0.0000 11.9620 0.0000 0.0000
# 5 0.0000 0.0000 0.0000 0.0000 13.5557 0.0000
# 6 0.0000 0.0000 0.0000 0.0000 0.0000 33.3243
#
#
#
# Elastic Compliance Matrix: (Units=1/GPa)
#
#
# Indices 1 2 3 4 5 6 
#
# 1 0.009797 -0.004190 -0.003458 0.000000 0.000000 0.000000
# 2 -0.004190 0.013544 -0.003491 0.000000 0.000000 0.000000
# 3 -0.003458 -0.003491 0.025242 0.000000 0.000000 0.000000
# 4 0.000000 0.000000 0.000000 0.083598 0.000000 0.000000
# 5 0.000000 0.000000 0.000000 0.000000 0.073770 0.000000
# 6 0.000000 0.000000 0.000000 0.000000 0.000000 0.030008
#
#
# Mechanical properties :
#
#
# Convention : Reuss Voigt Hill
#
# Bulk Modulus (GPa) = 38.01556 50.01971 44.01764
# Shear Modulus (GPa) = 18.72628 23.71306 21.21967
#
# Velocity S-wave (km/s) = 3.06010 3.44352 3.25746
# Velocity P-wave (km/s) = 5.61208 6.38930 6.01326
#
# Compressibility (1/GPa) = 0.02630502
#
# Stress axis : x y z
#
# Youngs Moduli (GPa) = 102.06955 73.83444 39.61721
#
# Poissons Ratio (x) = 0.30937 0.13699
# Poissons Ratio (y) = 0.42767 0.13831
# Poissons Ratio (z) = 0.35293 0.25776
#
# Static dielectric constant tensor:
#      x y z
#    x 3.910030 0.000000 0.000000 
#    y 0.000000 3.585290 0.000000 
#    z 0.000000 0.000000 3.219080 
# 
# 
# High freq. dielectric constant tensor:
#      x y z
#    x 1.790710 0.000000 0.000000 
#    y 0.000000 1.764200 0.000000 
#    z 0.000000 0.000000 1.740920 
# 
# From -- ./inp_files/6498.got.cif
#   From: 2010.03.12/outbox.cif.g09.slc.cpg/sg55_4_cif.got.tgz:6498.got - 2010.04.16 15:19:21.
