data_PCOD8226490
_publ_section_title
;
Structure prediction by ZEFSAII (Michael W. Deem and Ramdas Pophale) SiO2 
 PCOD8226490
Probable space group: P B A M
;
_chemical_formula_sum "Si O2"
_cell_formula_units_Z 64
_cell_length_a 29.454857
_cell_length_b 12.765931
_cell_length_c 9.273465
_cell_angle_alpha 90.000000
_cell_angle_beta 90.000000
_cell_angle_gamma 90.000000
_cell_volume 3486.995995
_symmetry_space_group_name_H-M "P B A M"
_symmetry_group_IT_number 55
_symmetry_cell_setting 'orthorhombic'
loop_
_space_group_symop_operation_xyz
x,y,z
-x,-y,z
1/2+x,1/2-y,-z
1/2-x,1/2+y,-z
-x,-y,-z
x,y,-z
1/2-x,1/2+y,z
1/2+x,1/2-y,z
loop_
_atom_site_type_symbol
_atom_site_label
_atom_site_fract_x
_atom_site_fract_y
_atom_site_fract_z
Si Si1 0.853375 0.500001 0.830639
Si Si2 0.257790 0.999997 0.669091
Si Si3 0.447321 0.617492 0.668407
Si Si4 0.789224 0.830591 0.156780
Si Si5 0.947322 0.117494 0.331593
Si Si6 0.382972 0.226650 0.832274
Si Si7 0.289224 0.330583 0.843219
Si Si8 0.617029 0.226652 0.832274
O O1 0.805774 0.499999 0.748497
O O2 0.882703 0.396881 0.789624
O O3 0.882703 0.603121 0.789622
O O4 0.841002 0.500002 0.000000
O O5 0.266756 0.999998 0.500000
O O6 0.226473 0.903517 0.713897
O O7 0.226469 0.096470 0.713898
O O8 0.438201 0.630477 0.500000
O O9 0.431616 0.499998 0.717161
O O10 0.499999 0.631529 0.704997
O O11 0.421198 0.709876 0.748459
O O12 0.749997 0.750010 0.128069
O O13 0.834315 0.772885 0.210569
O O14 0.797819 0.886826 0.000000
O O15 0.938202 0.130480 0.500000
O O16 0.921200 0.209881 0.251541
O O17 0.334317 0.272889 0.789427
O O18 0.393438 0.239616 0.000000
O O19 0.297816 0.386820 0.000000
O O20 0.606563 0.239616 0.000000
#
# Coordination Sequence:
#
# PCOD8226490 Si02
#       8
#     8   8   8   8   8   8   8   8
#     4  10  20  40  59  77 112 154 191 226 278 335
#     4  12  24  34  50  79 114 149 188 237 282 324
#     4   9  20  40  62  83 113 149 179 220 283 342
#     4  10  20  37  57  76 107 152 193 228 271 328
#     4   9  20  40  62  83 113 149 179 220 283 342
#     4  10  21  36  60  86 108 144 191 235 275 324
#     4  10  20  37  57  76 107 152 193 228 271 328
#     4  10  21  36  60  86 108 144 191 235 275 324
#
# _framework density 18.353907
#
# number of rings (size 3 to 8) (size 9 to 14) (size 15 to 20)
#    0.000    2.000    2.500    1.875    1.750    3.500 
#    0.000    1.875    0.000    3.750    0.000    0.000 
#    0.000    0.000    0.000    0.000    0.000    0.000 
#
# Total GULP energy -793227.166082 kJ/mol
# GULP energy per Si atom -12394.174470 kJ/mol
# Density = 1.831213 g / cm^3
# Si number density = 18.353907 Si / 1000 Ang^3
#
#
#
# Elastic Constant Matrix: (Units=GPa)
#
#
# Indices 1 2 3 4 5 6 
#
# 1 93.0688 74.5273 46.0302 0.0000 0.0000 0.0000
# 2 74.5273 162.6364 67.9417 0.0000 0.0000 0.0000
# 3 46.0302 67.9417 77.9140 0.0000 0.0000 0.0000
# 4 0.0000 0.0000 0.0000 15.8007 0.0000 0.0000
# 5 0.0000 0.0000 0.0000 0.0000 33.5393 0.0000
# 6 0.0000 0.0000 0.0000 0.0000 0.0000 30.4000
#
#
#
# Elastic Compliance Matrix: (Units=1/GPa)
#
#
# Indices 1 2 3 4 5 6 
#
# 1 0.018370 -0.006110 -0.005525 0.000000 0.000000 0.000000
# 2 -0.006110 0.011704 -0.006597 0.000000 0.000000 0.000000
# 3 -0.005525 -0.006597 0.021851 0.000000 0.000000 0.000000
# 4 0.000000 0.000000 0.000000 0.063288 0.000000 0.000000
# 5 0.000000 0.000000 0.000000 0.000000 0.029816 0.000000
# 6 0.000000 0.000000 0.000000 0.000000 0.000000 0.032895
#
#
# Mechanical properties :
#
#
# Convention : Reuss Voigt Hill
#
# Bulk Modulus (GPa) = 64.67229 78.95749 71.81489
# Shear Modulus (GPa) = 22.77487 25.62267 24.19877
#
# Velocity S-wave (km/s) = 3.52642 3.74041 3.63499
# Velocity P-wave (km/s) = 7.20372 7.85920 7.53859
#
# Compressibility (1/GPa) = 0.01546257
#
# Stress axis : x y z
#
# Youngs Moduli (GPa) = 54.43715 85.43892 45.76491
#
# Poissons Ratio (x) = 0.52203 0.25283
# Poissons Ratio (y) = 0.33261 0.30189
# Poissons Ratio (z) = 0.30074 0.56361
#
# Static dielectric constant tensor:
#      x y z
#    x 2.846230 0.000000 0.000000 
#    y 0.000000 3.573830 0.000000 
#    z 0.000000 0.000000 3.227810 
# 
# 
# High freq. dielectric constant tensor:
#      x y z
#    x 1.700220 0.000000 0.000000 
#    y 0.000000 1.720470 0.000000 
#    z 0.000000 0.000000 1.701950 
# 
# From -- ./inp_files/10739.got.cif
#   From: 2010.03.12/outbox.cif.g09.slc.cpg/sg55_6_cif.got.tgz:10739.got - 2010.04.16 15:19:21.
