data_PCOD8226567
_publ_section_title
;
Structure prediction by ZEFSAII (Michael W. Deem and Ramdas Pophale) SiO2 
 PCOD8226567
Probable space group: P B A M
;
_chemical_formula_sum "Si O2"
_cell_formula_units_Z 56
_cell_length_a 21.768003
_cell_length_b 14.712985
_cell_length_c 8.823235
_cell_angle_alpha 90.000000
_cell_angle_beta 90.000000
_cell_angle_gamma 90.000000
_cell_volume 2825.837781
_symmetry_space_group_name_H-M "P B A M"
_symmetry_group_IT_number 55
_symmetry_cell_setting 'orthorhombic'
loop_
_space_group_symop_operation_xyz
x,y,z
-x,-y,z
1/2+x,1/2-y,-z
1/2-x,1/2+y,-z
-x,-y,-z
x,y,-z
1/2-x,1/2+y,z
1/2+x,1/2-y,z
loop_
_atom_site_type_symbol
_atom_site_label
_atom_site_fract_x
_atom_site_fract_y
_atom_site_fract_z
Si Si1 0.527101 0.643728 0.330344
Si Si2 0.929702 0.487978 0.180273
Si Si3 0.146940 0.340403 0.179438
Si Si4 0.097212 0.149585 0.176469
Si Si5 0.785505 0.176764 0.178912
Si Si6 0.359856 0.478549 0.328140
Si Si7 0.619137 0.804167 0.677553
O O1 0.499489 0.653000 0.500000
O O2 0.473909 0.630495 0.208747
O O3 0.570014 0.555441 0.321949
O O4 0.565312 0.733127 0.286706
O O5 0.889642 0.572443 0.243557
O O6 0.898621 0.398289 0.245937
O O7 0.000000 0.500000 0.236763
O O8 0.927967 0.481591 0.000000
O O9 0.111519 0.250702 0.234061
O O10 0.216280 0.333784 0.240785
O O11 0.147581 0.347132 0.000000
O O12 0.141641 0.080922 0.266351
O O13 0.110809 0.137044 0.000000
O O14 0.818454 0.083226 0.221209
O O15 0.817314 0.264353 0.255614
O O16 0.787750 0.191622 0.000000
O O17 0.334706 0.474406 0.500000
O O18 0.628623 0.818444 0.500000
#
# Coordination Sequence:
#
# PCOD8226567 Si02
#       7
#     8   8   8   8   8   8   8
#     4   9  19  35  53  76 111 146 172 213 272 324
#     4  10  20  37  61  86 113 149 193 237 282 335
#     4   9  21  38  55  80 112 143 181 235 283 319
#     4  11  21  34  55  82 109 140 181 222 266 324
#     4  10  20  38  60  79 105 144 189 229 272 329
#     4  10  21  37  55  79 113 145 176 220 273 325
#     4  10  21  37  57  83 115 147 182 228 282 335
#
# _framework density 19.817132999999998
#
# number of rings (size 3 to 8) (size 9 to 14) (size 15 to 20)
#    0.000    2.143    0.000    3.857    0.000    7.714 
#    0.000   11.429    0.000    0.000    0.000    0.000 
#    0.000    0.000    0.000    0.000    0.000    0.000 
#
# Total GULP energy -694496.042518 kJ/mol
# GULP energy per Si atom -12401.715045 kJ/mol
# Density = 1.977203 g / cm^3
# Si number density = 19.817133 Si / 1000 Ang^3
#
#
#
# Elastic Constant Matrix: (Units=GPa)
#
#
# Indices 1 2 3 4 5 6 
#
# 1 113.0745 46.5592 28.1070 0.0000 0.0000 0.0000
# 2 46.5592 148.1667 28.8381 0.0000 0.0000 0.0000
# 3 28.1070 28.8381 49.5734 0.0000 0.0000 0.0000
# 4 0.0000 0.0000 0.0000 26.4390 0.0000 0.0000
# 5 0.0000 0.0000 0.0000 0.0000 6.5680 0.0000
# 6 0.0000 0.0000 0.0000 0.0000 0.0000 20.4792
#
#
#
# Elastic Compliance Matrix: (Units=1/GPa)
#
#
# Indices 1 2 3 4 5 6 
#
# 1 0.011087 -0.002549 -0.004803 0.000000 0.000000 0.000000
# 2 -0.002549 0.008197 -0.003323 0.000000 0.000000 0.000000
# 3 -0.004803 -0.003323 0.024829 0.000000 0.000000 0.000000
# 4 0.000000 0.000000 0.000000 0.037823 0.000000 0.000000
# 5 0.000000 0.000000 0.000000 0.000000 0.152254 0.000000
# 6 0.000000 0.000000 0.000000 0.000000 0.000000 0.048830
#
#
# Mechanical properties :
#
#
# Convention : Reuss Voigt Hill
#
# Bulk Modulus (GPa) = 43.93336 57.53590 50.73463
# Shear Modulus (GPa) = 16.02778 24.51793 20.27286
#
# Velocity S-wave (km/s) = 2.84700 3.52121 3.20190
# Velocity P-wave (km/s) = 5.74671 6.75488 6.27109
#
# Compressibility (1/GPa) = 0.02276175
#
# Stress axis : x y z
#
# Youngs Moduli (GPa) = 90.19305 121.99644 40.27612
#
# Poissons Ratio (x) = 0.31099 0.19346
# Poissons Ratio (y) = 0.22991 0.13384
# Poissons Ratio (z) = 0.43323 0.40540
#
# Static dielectric constant tensor:
#      x y z
#    x 3.646840 0.000000 0.000000 
#    y 0.000000 3.742740 0.000000 
#    z 0.000000 0.000000 3.439840 
# 
# 
# High freq. dielectric constant tensor:
#      x y z
#    x 1.768340 0.000000 0.000000 
#    y 0.000000 1.784340 0.000000 
#    z 0.000000 0.000000 1.761330 
# 
# From -- ./inp_files/8662.got.cif
#   From: 2010.03.12/outbox.cif.g09.slc.cpg/sg55_5_cif.got.tgz:8662.got - 2010.04.16 15:19:21.
