data_PCOD8226369
_publ_section_title
;
Structure prediction by ZEFSAII (Michael W. Deem and Ramdas Pophale) SiO2 
 PCOD8226369
Probable space group: P B A M
;
_chemical_formula_sum "Si O2"
_cell_formula_units_Z 56
_cell_length_a 20.002215
_cell_length_b 16.138026
_cell_length_c 8.775537
_cell_angle_alpha 90.000000
_cell_angle_beta 90.000000
_cell_angle_gamma 90.000000
_cell_volume 2832.710573
_symmetry_space_group_name_H-M "P B A M"
_symmetry_group_IT_number 55
_symmetry_cell_setting 'orthorhombic'
loop_
_space_group_symop_operation_xyz
x,y,z
-x,-y,z
1/2+x,1/2-y,-z
1/2-x,1/2+y,-z
-x,-y,-z
x,y,-z
1/2-x,1/2+y,z
1/2+x,1/2-y,z
loop_
_atom_site_type_symbol
_atom_site_label
_atom_site_fract_x
_atom_site_fract_y
_atom_site_fract_z
Si Si1 0.176966 0.524981 0.821070
Si Si2 0.183378 0.007388 0.318949
Si Si3 0.890557 0.323883 0.322455
Si Si4 0.449130 0.570868 0.821056
Si Si5 0.529771 0.258765 0.323822
Si Si6 0.847507 0.647449 0.677458
Si Si7 0.698549 0.676437 0.322880
O O1 0.247674 0.545875 0.742141
O O2 0.123279 0.593207 0.770851
O O3 0.147315 0.436664 0.772146
O O4 0.187369 0.526538 0.000000
O O5 0.186473 0.009971 0.500000
O O6 0.121786 0.061378 0.261485
O O7 0.176851 0.913063 0.255762
O O8 0.874217 0.338715 0.500000
O O9 0.967515 0.301383 0.296941
O O10 0.844724 0.250383 0.250715
O O11 0.500000 0.500000 0.764497
O O12 0.480039 0.659040 0.775697
O O13 0.437611 0.565441 0.000000
O O14 0.535884 0.285090 0.500000
O O15 0.595418 0.210152 0.267845
O O16 0.855259 0.624296 0.500000
O O17 0.776789 0.692402 0.708633
O O18 0.681766 0.674302 0.500000
#
# Coordination Sequence:
#
# PCOD8226369 Si02
#       7
#     8   8   8   8   8   8   8
#     4  11  23  38  57  86 118 153 195 242 303 364
#     4  10  20  38  63  87 113 151 200 250 291 344
#     4  10  20  36  58  85 115 151 196 248 296 348
#     4  11  24  39  57  87 129 165 193 236 298 363
#     4  10  22  38  60  88 116 153 205 252 294 346
#     4   9  19  38  59  83 112 150 198 249 298 348
#     4   8  16  32  57  83 109 143 190 243 295 341
#
# _framework density 19.769051999999999
#
# number of rings (size 3 to 8) (size 9 to 14) (size 15 to 20)
#    0.000    2.143    0.000    3.857    2.000    4.000 
#    0.000    6.429    0.000    0.000    0.000    0.000 
#    0.000    0.000    0.000    0.000    0.000    0.000 
#
# Total GULP energy -694591.094519 kJ/mol
# GULP energy per Si atom -12403.412402 kJ/mol
# Density = 1.972406 g / cm^3
# Si number density = 19.769052 Si / 1000 Ang^3
#
#
#
# Elastic Constant Matrix: (Units=GPa)
#
#
# Indices 1 2 3 4 5 6 
#
# 1 95.5643 36.0015 29.5159 0.0000 0.0000 0.0000
# 2 36.0015 75.2911 30.9583 0.0000 0.0000 0.0000
# 3 29.5159 30.9583 74.3388 0.0000 0.0000 0.0000
# 4 0.0000 0.0000 0.0000 21.5411 0.0000 0.0000
# 5 0.0000 0.0000 0.0000 0.0000 19.9494 0.0000
# 6 0.0000 0.0000 0.0000 0.0000 0.0000 34.4263
#
#
#
# Elastic Compliance Matrix: (Units=1/GPa)
#
#
# Indices 1 2 3 4 5 6 
#
# 1 0.013363 -0.005077 -0.003191 0.000000 0.000000 0.000000
# 2 -0.005077 0.017955 -0.005461 0.000000 0.000000 0.000000
# 3 -0.003191 -0.005461 0.016993 0.000000 0.000000 0.000000
# 4 0.000000 0.000000 0.000000 0.046423 0.000000 0.000000
# 5 0.000000 0.000000 0.000000 0.000000 0.050127 0.000000
# 6 0.000000 0.000000 0.000000 0.000000 0.000000 0.029048
#
#
# Mechanical properties :
#
#
# Convention : Reuss Voigt Hill
#
# Bulk Modulus (GPa) = 47.95871 48.68285 48.32078
# Shear Modulus (GPa) = 24.00168 25.09791 24.54979
#
# Velocity S-wave (km/s) = 3.48818 3.56695 3.52778
# Velocity P-wave (km/s) = 6.36674 6.45317 6.41010
#
# Compressibility (1/GPa) = 0.02085127
#
# Stress axis : x y z
#
# Youngs Moduli (GPa) = 74.83614 55.69400 58.84648
#
# Poissons Ratio (x) = 0.28278 0.18778
# Poissons Ratio (y) = 0.37997 0.32139
# Poissons Ratio (z) = 0.23881 0.30417
#
# Static dielectric constant tensor:
#      x y z
#    x 3.671380 0.000000 0.000000 
#    y 0.000000 3.681240 0.000000 
#    z 0.000000 0.000000 3.342700 
# 
# 
# High freq. dielectric constant tensor:
#      x y z
#    x 1.778320 0.000000 0.000000 
#    y 0.000000 1.773950 0.000000 
#    z 0.000000 0.000000 1.747800 
# 
# From -- ./inp_files/8771.got.cif
#   From: 2010.03.12/outbox.cif.g09.slc.cpg/sg55_5_cif.got.tgz:8771.got - 2010.04.16 15:19:21.
