data_PCOD8226432
_publ_section_title
;
Structure prediction by ZEFSAII (Michael W. Deem and Ramdas Pophale) SiO2 
 PCOD8226432
Probable space group: P B A M
;
_chemical_formula_sum "Si O2"
_cell_formula_units_Z 56
_cell_length_a 16.351783
_cell_length_b 19.309118
_cell_length_c 8.986074
_cell_angle_alpha 90.000000
_cell_angle_beta 90.000000
_cell_angle_gamma 90.000000
_cell_volume 2837.249593
_symmetry_space_group_name_H-M "P B A M"
_symmetry_group_IT_number 55
_symmetry_cell_setting 'orthorhombic'
loop_
_space_group_symop_operation_xyz
x,y,z
-x,-y,z
1/2+x,1/2-y,-z
1/2-x,1/2+y,-z
-x,-y,-z
x,y,-z
1/2-x,1/2+y,z
1/2+x,1/2-y,z
loop_
_atom_site_type_symbol
_atom_site_label
_atom_site_fract_x
_atom_site_fract_y
_atom_site_fract_z
Si Si1 0.346746 0.644996 0.828049
Si Si2 0.926867 0.448513 0.174560
Si Si3 0.990052 0.165788 0.671794
Si Si4 0.239278 0.532618 0.672408
Si Si5 0.826262 0.694567 0.171880
Si Si6 0.991260 0.675002 0.326775
Si Si7 0.813425 0.114147 0.671102
O O1 0.438609 0.632381 0.770505
O O2 0.283462 0.599633 0.736446
O O3 0.320508 0.723811 0.800280
O O4 0.342529 0.624059 0.000000
O O5 0.845324 0.481021 0.243179
O O6 0.943585 0.373637 0.245345
O O7 0.000000 0.500000 0.214826
O O8 0.914946 0.439096 0.000000
O O9 0.013146 0.153812 0.500000
O O10 0.980057 0.247048 0.705911
O O11 0.906979 0.127317 0.716293
O O12 0.220562 0.545312 0.500000
O O13 0.296587 0.466438 0.698396
O O14 0.742147 0.661399 0.224871
O O15 0.900753 0.661311 0.263403
O O16 0.841441 0.676918 0.000000
O O17 0.990181 0.657048 0.500000
O O18 0.797659 0.135427 0.500000
#
# Coordination Sequence:
#
# PCOD8226432 Si02
#       7
#     8   8   8   8   8   8   8
#     4  10  22  40  60  87 120 156 198 245 298 355
#     4  11  24  40  59  85 122 160 195 244 300 358
#     4   9  20  39  61  87 116 151 195 244 297 350
#     4  11  24  40  60  86 118 159 201 246 296 353
#     4  10  21  37  59  87 119 156 194 242 300 352
#     4  10  20  36  60  88 115 151 196 242 292 354
#     4  10  22  39  60  87 118 153 198 247 296 354
#
# _framework density 19.737425000000002
#
# number of rings (size 3 to 8) (size 9 to 14) (size 15 to 20)
#    0.000    1.857    0.000    3.000    2.000    8.000 
#    0.000    2.857    0.000    0.000    0.000    0.000 
#    0.000    0.000    0.000    0.000    0.000    0.000 
#
# Total GULP energy -694805.138780 kJ/mol
# GULP energy per Si atom -12407.234621 kJ/mol
# Density = 1.969250 g / cm^3
# Si number density = 19.737425 Si / 1000 Ang^3
#
#
#
# Elastic Constant Matrix: (Units=GPa)
#
#
# Indices 1 2 3 4 5 6 
#
# 1 93.2399 38.6265 47.8170 0.0000 0.0000 0.0000
# 2 38.6265 61.9221 45.2382 0.0000 0.0000 0.0000
# 3 47.8170 45.2382 97.8239 0.0000 0.0000 0.0000
# 4 0.0000 0.0000 0.0000 23.6505 0.0000 0.0000
# 5 0.0000 0.0000 0.0000 0.0000 21.4242 0.0000
# 6 0.0000 0.0000 0.0000 0.0000 0.0000 33.4779
#
#
#
# Elastic Compliance Matrix: (Units=1/GPa)
#
#
# Indices 1 2 3 4 5 6 
#
# 1 0.015819 -0.006371 -0.004786 0.000000 0.000000 0.000000
# 2 -0.006371 0.026955 -0.009351 0.000000 0.000000 0.000000
# 3 -0.004786 -0.009351 0.016886 0.000000 0.000000 0.000000
# 4 0.000000 0.000000 0.000000 0.042282 0.000000 0.000000
# 5 0.000000 0.000000 0.000000 0.000000 0.046676 0.000000
# 6 0.000000 0.000000 0.000000 0.000000 0.000000 0.029870
#
#
# Mechanical properties :
#
#
# Convention : Reuss Voigt Hill
#
# Bulk Modulus (GPa) = 53.63715 57.37214 55.50465
# Shear Modulus (GPa) = 22.15132 23.79748 22.97440
#
# Velocity S-wave (km/s) = 3.35371 3.47609 3.41545
# Velocity P-wave (km/s) = 6.49853 6.72620 6.61334
#
# Compressibility (1/GPa) = 0.01864379
#
# Stress axis : x y z
#
# Youngs Moduli (GPa) = 63.21561 37.09876 59.21992
#
# Poissons Ratio (x) = 0.23636 0.28343
# Poissons Ratio (y) = 0.40276 0.55376
# Poissons Ratio (z) = 0.30255 0.34691
#
# Static dielectric constant tensor:
#      x y z
#    x 3.605110 0.000000 0.000000 
#    y 0.000000 3.543450 0.000000 
#    z 0.000000 0.000000 3.677690 
# 
# 
# High freq. dielectric constant tensor:
#      x y z
#    x 1.774250 0.000000 0.000000 
#    y 0.000000 1.770900 0.000000 
#    z 0.000000 0.000000 1.778340 
# 
# From -- ./inp_files/6000.got.cif
#   From: 2010.03.12/outbox.cif.g09.slc.cpg/sg55_3_cif.got.tgz:6000.got - 2010.04.16 15:19:21.
