data_PCOD8226807
_publ_section_title
;
Structure prediction by ZEFSAII (Michael W. Deem and Ramdas Pophale) SiO2 
 PCOD8226807
Probable space group: P B A M
;
_chemical_formula_sum "Si O2"
_cell_formula_units_Z 48
_cell_length_a 9.917130
_cell_length_b 30.709098
_cell_length_c 7.588894
_cell_angle_alpha 90.000000
_cell_angle_beta 90.000000
_cell_angle_gamma 90.000000
_cell_volume 2311.168200
_symmetry_space_group_name_H-M "P B A M"
_symmetry_group_IT_number 55
_symmetry_cell_setting 'orthorhombic'
loop_
_space_group_symop_operation_xyz
x,y,z
-x,-y,z
1/2+x,1/2-y,-z
1/2-x,1/2+y,-z
-x,-y,-z
x,y,-z
1/2-x,1/2+y,z
1/2+x,1/2-y,z
loop_
_atom_site_type_symbol
_atom_site_label
_atom_site_fract_x
_atom_site_fract_y
_atom_site_fract_z
Si Si1 0.025073 0.639137 0.800367
Si Si2 0.930862 0.292637 0.500000
Si Si3 0.380609 0.709502 0.500000
Si Si4 0.244748 0.896374 0.293626
Si Si5 0.752895 0.925278 0.795966
Si Si6 0.529169 0.355144 0.796054
Si Si7 0.358366 0.486888 0.699197
O O1 0.875411 0.620240 0.807193
O O2 0.035660 0.680773 0.676249
O O3 0.126408 0.602342 0.724558
O O4 0.067533 0.652357 0.000000
O O5 0.776168 0.277056 0.500000
O O6 0.028055 0.251737 0.500000
O O7 0.410377 0.682907 0.677318
O O8 0.277285 0.897833 0.500000
O O9 0.207708 0.944032 0.213538
O O10 0.125902 0.862470 0.252947
O O11 0.890625 0.899551 0.753743
O O12 0.756424 0.972273 0.702776
O O13 0.734892 0.934691 0.000000
O O14 0.546404 0.341544 0.000000
O O15 0.500000 0.500000 0.794554
O O16 0.391506 0.473222 0.500000
#
# Coordination Sequence:
#
# PCOD8226807 Si02
#       7
#     8   4   4   8   8   8   8
#     4  11  25  46  69  95 134 178 219 268 331 396
#     4  12  28  48  74 101 132 168 207 273 335 401
#     4  12  28  46  74 101 133 167 210 270 332 402
#     4  11  22  39  65  99 135 180 225 272 327 377
#     4  10  22  39  63  91 126 179 224 262 322 380
#     4  11  23  42  69  97 131 177 220 263 323 391
#     4  10  21  34  58  94 133 174 223 275 320 372
#
# _framework density 20.768716999999999
#
# number of rings (size 3 to 8) (size 9 to 14) (size 15 to 20)
#    0.000    1.167    5.000    0.500    4.667    3.000 
#    0.000    3.333    0.000    0.000    0.000    0.000 
#    0.000    0.000    0.000    0.000    0.000    0.000 
#
# Total GULP energy -595345.762255 kJ/mol
# GULP energy per Si atom -12403.036714 kJ/mol
# Density = 2.072145 g / cm^3
# Si number density = 20.768717 Si / 1000 Ang^3
#
#
#
# Elastic Constant Matrix: (Units=GPa)
#
#
# Indices 1 2 3 4 5 6 
#
# 1 113.2467 36.2591 11.9662 0.0000 0.0000 0.0000
# 2 36.2591 112.8174 38.7498 0.0000 0.0000 0.0000
# 3 11.9662 38.7498 90.1043 0.0000 0.0000 0.0000
# 4 0.0000 0.0000 0.0000 4.9565 0.0000 0.0000
# 5 0.0000 0.0000 0.0000 0.0000 19.4070 0.0000
# 6 0.0000 0.0000 0.0000 0.0000 0.0000 40.8570
#
#
#
# Elastic Compliance Matrix: (Units=1/GPa)
#
#
# Indices 1 2 3 4 5 6 
#
# 1 0.009843 -0.003185 0.000063 0.000000 0.000000 0.000000
# 2 -0.003185 0.011431 -0.004493 0.000000 0.000000 0.000000
# 3 0.000063 -0.004493 0.013022 0.000000 0.000000 0.000000
# 4 0.000000 0.000000 0.000000 0.201754 0.000000 0.000000
# 5 0.000000 0.000000 0.000000 0.000000 0.051528 0.000000
# 6 0.000000 0.000000 0.000000 0.000000 0.000000 0.024476
#
#
# Mechanical properties :
#
#
# Convention : Reuss Voigt Hill
#
# Bulk Modulus (GPa) = 52.45094 54.45762 53.45428
# Shear Modulus (GPa) = 14.98624 28.32366 21.65495
#
# Velocity S-wave (km/s) = 2.68913 3.69693 3.23255
# Velocity P-wave (km/s) = 5.91198 6.67090 6.30287
#
# Compressibility (1/GPa) = 0.01906544
#
# Stress axis : x y z
#
# Youngs Moduli (GPa) = 101.59010 87.48327 76.79242
#
# Poissons Ratio (x) = 0.27865 -0.00480
# Poissons Ratio (y) = 0.32358 0.34502
# Poissons Ratio (z) = -0.00635 0.39305
#
# Static dielectric constant tensor:
#      x y z
#    x 3.902580 0.000000 0.000000 
#    y 0.000000 3.666830 0.000000 
#    z 0.000000 0.000000 3.720640 
# 
# 
# High freq. dielectric constant tensor:
#      x y z
#    x 1.820360 0.000000 0.000000 
#    y 0.000000 1.799370 0.000000 
#    z 0.000000 0.000000 1.815750 
# 
# From -- ./inp_files/2934.got.cif
#   From: 2010.03.12/outbox.cif.g09.slc.cpg/sg55_2_cif.got.tgz:2934.got - 2010.04.16 15:19:21.
