data_PCOD8226168
_publ_section_title
;
Structure prediction by ZEFSAII (Michael W. Deem and Ramdas Pophale) SiO2 
 PCOD8226168
Probable space group: P B A M
;
_chemical_formula_sum "Si O2"
_cell_formula_units_Z 56
_cell_length_a 16.492388
_cell_length_b 19.856145
_cell_length_c 8.807068
_cell_angle_alpha 90.000000
_cell_angle_beta 90.000000
_cell_angle_gamma 90.000000
_cell_volume 2884.096773
_symmetry_space_group_name_H-M "P B A M"
_symmetry_group_IT_number 55
_symmetry_cell_setting 'orthorhombic'
loop_
_space_group_symop_operation_xyz
x,y,z
-x,-y,z
1/2+x,1/2-y,-z
1/2-x,1/2+y,-z
-x,-y,-z
x,y,-z
1/2-x,1/2+y,z
1/2+x,1/2-y,z
loop_
_atom_site_type_symbol
_atom_site_label
_atom_site_fract_x
_atom_site_fract_y
_atom_site_fract_z
Si Si1 0.490357 0.806376 0.820387
Si Si2 0.697115 0.621830 0.321267
Si Si3 0.260995 0.011969 0.180726
Si Si4 0.466112 0.340407 0.819784
Si Si5 0.311142 0.774188 0.179324
Si Si6 0.437867 0.055852 0.819180
Si Si7 0.644030 0.372609 0.820322
O O1 0.531971 0.737334 0.763065
O O2 0.395844 0.809478 0.774423
O O3 0.536494 0.871189 0.752051
O O4 0.495893 0.806184 0.000000
O O5 0.698490 0.615609 0.500000
O O6 0.747052 0.560785 0.250230
O O7 0.604966 0.619690 0.263388
O O8 0.738115 0.691184 0.268584
O O9 0.347949 0.038584 0.237145
O O10 0.193016 0.063538 0.244164
O O11 0.258170 0.005869 0.000000
O O12 0.550247 0.375922 0.769261
O O13 0.453402 0.345075 0.000000
O O14 0.313804 0.696601 0.233828
O O15 0.294739 0.780285 0.000000
O O16 0.500000 0.000000 0.755986
O O17 0.441723 0.057843 0.000000
O O18 0.647414 0.372617 0.000000
#
# Coordination Sequence:
#
# PCOD8226168 Si02
#       7
#     8   8   8   8   8   8   8
#     4   8  15  29  54  87 111 132 169 222 277 330
#     4  12  25  37  50  76 112 150 192 223 263 326
#     4  10  20  35  56  80 108 143 182 228 278 325
#     4   9  18  35  58  81 106 136 178 232 284 326
#     4   9  17  34  60  85 110 138 175 225 280 328
#     4   9  16  26  48  83 115 138 168 212 266 326
#     4   8  17  34  59  89 108 130 179 237 286 332
#
# _framework density 19.416824999999999
#
# number of rings (size 3 to 8) (size 9 to 14) (size 15 to 20)
#    0.000    2.714    0.000    3.857    2.000    2.857 
#    0.000    7.143    0.000    3.857    0.000    0.000 
#    0.000    0.000    0.000    0.000    0.000    0.000 
#
# Total GULP energy -694296.479558 kJ/mol
# GULP energy per Si atom -12398.151421 kJ/mol
# Density = 1.937263 g / cm^3
# Si number density = 19.416825 Si / 1000 Ang^3
#
#
#
# Elastic Constant Matrix: (Units=GPa)
#
#
# Indices 1 2 3 4 5 6 
#
# 1 109.8668 28.3082 28.6490 0.0000 0.0000 0.0000
# 2 28.3082 59.5332 19.5029 0.0000 0.0000 0.0000
# 3 28.6490 19.5029 35.0539 0.0000 0.0000 0.0000
# 4 0.0000 0.0000 0.0000 2.9313 0.0000 0.0000
# 5 0.0000 0.0000 0.0000 0.0000 2.4836 0.0000
# 6 0.0000 0.0000 0.0000 0.0000 0.0000 41.0433
#
#
#
# Elastic Compliance Matrix: (Units=1/GPa)
#
#
# Indices 1 2 3 4 5 6 
#
# 1 0.012003 -0.003050 -0.008113 0.000000 0.000000 0.000000
# 2 -0.003050 0.021316 -0.009367 0.000000 0.000000 0.000000
# 3 -0.008113 -0.009367 0.040370 0.000000 0.000000 0.000000
# 4 0.000000 0.000000 0.000000 0.341146 0.000000 0.000000
# 5 0.000000 0.000000 0.000000 0.000000 0.402639 0.000000
# 6 0.000000 0.000000 0.000000 0.000000 0.000000 0.024365
#
#
# Mechanical properties :
#
#
# Convention : Reuss Voigt Hill
#
# Bulk Modulus (GPa) = 30.64757 39.70824 35.17790
# Shear Modulus (GPa) = 5.59425 17.82456 11.70940
#
# Velocity S-wave (km/s) = 1.69923 3.03313 2.45838
# Velocity P-wave (km/s) = 4.43488 5.72375 5.12003
#
# Compressibility (1/GPa) = 0.03262902
#
# Stress axis : x y z
#
# Youngs Moduli (GPa) = 83.30982 46.91282 24.77087
#
# Poissons Ratio (x) = 0.14307 0.20098
# Poissons Ratio (y) = 0.25407 0.23203
# Poissons Ratio (z) = 0.67593 0.43944
#
# Static dielectric constant tensor:
#      x y z
#    x 3.764200 0.000000 0.000000 
#    y 0.000000 3.881730 0.000000 
#    z 0.000000 0.000000 2.912020 
# 
# 
# High freq. dielectric constant tensor:
#      x y z
#    x 1.767980 0.000000 0.000000 
#    y 0.000000 1.764650 0.000000 
#    z 0.000000 0.000000 1.690900 
# 
# From -- ./inp_files/6010.got.cif
#   From: 2010.03.12/outbox.cif.g09.slc.cpg/sg55_4_cif.got.tgz:6010.got - 2010.04.16 15:19:21.
