data_PCOD8226055
_publ_section_title
;
Structure prediction by ZEFSAII (Michael W. Deem and Ramdas Pophale) SiO2 
 PCOD8226055
Probable space group: P B A M
;
_chemical_formula_sum "Si O2"
_cell_formula_units_Z 64
_cell_length_a 28.397528
_cell_length_b 12.502061
_cell_length_c 9.272550
_cell_angle_alpha 90.000000
_cell_angle_beta 90.000000
_cell_angle_gamma 90.000000
_cell_volume 3292.011426
_symmetry_space_group_name_H-M "P B A M"
_symmetry_group_IT_number 55
_symmetry_cell_setting 'orthorhombic'
loop_
_space_group_symop_operation_xyz
x,y,z
-x,-y,z
1/2+x,1/2-y,-z
1/2-x,1/2+y,-z
-x,-y,-z
x,y,-z
1/2-x,1/2+y,z
1/2+x,1/2-y,z
loop_
_atom_site_type_symbol
_atom_site_label
_atom_site_fract_x
_atom_site_fract_y
_atom_site_fract_z
Si Si1 0.702171 0.421733 0.833277
Si Si2 0.514212 0.882064 0.829234
Si Si3 0.195570 0.492252 0.831953
Si Si4 0.669347 0.212693 0.669361
Si Si5 0.447171 0.511880 0.333934
Si Si6 0.868634 0.104643 0.831162
Si Si7 0.436227 0.756238 0.335747
Si Si8 0.880732 0.341555 0.170657
O O1 0.757040 0.441254 0.807221
O O2 0.685500 0.324703 0.735283
O O3 0.674918 0.529793 0.785805
O O4 0.691653 0.393957 0.000000
O O5 0.476816 0.799233 0.766695
O O6 0.566333 0.856406 0.768433
O O7 0.500000 0.000000 0.777690
O O8 0.512313 0.870908 0.000000
O O9 0.198269 0.382629 0.743096
O O10 0.153096 0.565065 0.769981
O O11 0.188959 0.463413 0.000000
O O12 0.680111 0.215904 0.500000
O O13 0.614085 0.190639 0.699680
O O14 0.500000 0.500000 0.276731
O O15 0.443713 0.477699 0.500000
O O16 0.416402 0.430598 0.243609
O O17 0.428831 0.631050 0.307975
O O18 0.859042 0.227006 0.782777
O O19 0.877930 0.098975 0.000000
O O20 0.451617 0.778191 0.500000
O O21 0.882003 0.351430 0.000000
#
# Coordination Sequence:
#
# PCOD8226055 Si02
#       8
#     8   8   8   8   8   8   8   8
#     4  10  22  38  62  90 113 150 197 244 296 352
#     4  10  20  34  55  82 112 150 195 239 290 348
#     4  10  22  40  65  89 116 153 198 247 294 350
#     4  11  23  40  61  86 122 156 192 242 295 354
#     4  10  20  35  54  78 111 152 193 232 284 345
#     4  10  20  35  56  84 115 146 189 240 293 348
#     4  10  21  36  54  80 113 152 193 237 286 341
#     4   9  19  36  57  85 120 152 187 244 300 344
#
# _framework density 19.441002000000001
#
# number of rings (size 3 to 8) (size 9 to 14) (size 15 to 20)
#    0.000    2.000    1.250    1.875    1.750    3.500 
#    0.000    1.250    0.000    0.000    0.000    0.000 
#    0.000    0.000    0.000    0.000    0.000    0.000 
#
# Total GULP energy -793761.619778 kJ/mol
# GULP energy per Si atom -12402.525309 kJ/mol
# Density = 1.939675 g / cm^3
# Si number density = 19.441002 Si / 1000 Ang^3
#
#
#
# Elastic Constant Matrix: (Units=GPa)
#
#
# Indices 1 2 3 4 5 6 
#
# 1 99.2356 49.1324 39.5288 0.0000 0.0000 0.0000
# 2 49.1324 116.4610 47.2319 0.0000 0.0000 0.0000
# 3 39.5288 47.2319 53.8608 0.0000 0.0000 0.0000
# 4 0.0000 0.0000 0.0000 13.6618 0.0000 0.0000
# 5 0.0000 0.0000 0.0000 0.0000 12.8780 0.0000
# 6 0.0000 0.0000 0.0000 0.0000 0.0000 32.8129
#
#
#
# Elastic Compliance Matrix: (Units=1/GPa)
#
#
# Indices 1 2 3 4 5 6 
#
# 1 0.014829 -0.002859 -0.008376 0.000000 0.000000 0.000000
# 2 -0.002859 0.013877 -0.010071 0.000000 0.000000 0.000000
# 3 -0.008376 -0.010071 0.033545 0.000000 0.000000 0.000000
# 4 0.000000 0.000000 0.000000 0.073197 0.000000 0.000000
# 5 0.000000 0.000000 0.000000 0.000000 0.077652 0.000000
# 6 0.000000 0.000000 0.000000 0.000000 0.000000 0.030476
#
#
# Mechanical properties :
#
#
# Convention : Reuss Voigt Hill
#
# Bulk Modulus (GPa) = 50.91835 60.14929 55.53382
# Shear Modulus (GPa) = 17.08038 20.78149 18.93094
#
# Velocity S-wave (km/s) = 2.96729 3.27303 3.12390
# Velocity P-wave (km/s) = 6.16343 6.72980 6.45283
#
# Compressibility (1/GPa) = 0.01963928
#
# Stress axis : x y z
#
# Youngs Moduli (GPa) = 67.43548 72.06117 29.81083
#
# Poissons Ratio (x) = 0.20603 0.24969
# Poissons Ratio (y) = 0.19281 0.30022
# Poissons Ratio (z) = 0.56483 0.72572
#
# Static dielectric constant tensor:
#      x y z
#    x 3.655990 0.000000 0.000000 
#    y 0.000000 3.654970 0.000000 
#    z 0.000000 0.000000 3.322960 
# 
# 
# High freq. dielectric constant tensor:
#      x y z
#    x 1.766220 0.000000 0.000000 
#    y 0.000000 1.767030 0.000000 
#    z 0.000000 0.000000 1.733690 
# 
# From -- ./inp_files/10713.got.cif
#   From: 2010.03.12/outbox.cif.g09.slc.cpg/sg55_6_cif.got.tgz:10713.got - 2010.04.16 15:19:21.
