data_PCOD8226526
_publ_section_title
;
Structure prediction by ZEFSAII (Michael W. Deem and Ramdas Pophale) SiO2 
 PCOD8226526
Probable space group: P B A M
;
_chemical_formula_sum "Si O2"
_cell_formula_units_Z 64
_cell_length_a 14.386173
_cell_length_b 25.156599
_cell_length_c 8.974484
_cell_angle_alpha 90.000000
_cell_angle_beta 90.000000
_cell_angle_gamma 90.000000
_cell_volume 3247.930244
_symmetry_space_group_name_H-M "P B A M"
_symmetry_group_IT_number 55
_symmetry_cell_setting 'orthorhombic'
loop_
_space_group_symop_operation_xyz
x,y,z
-x,-y,z
1/2+x,1/2-y,-z
1/2-x,1/2+y,-z
-x,-y,-z
x,y,-z
1/2-x,1/2+y,z
1/2+x,1/2-y,z
loop_
_atom_site_type_symbol
_atom_site_label
_atom_site_fract_x
_atom_site_fract_y
_atom_site_fract_z
Si Si1 0.254472 0.073414 0.823637
Si Si2 0.650054 0.725191 0.673259
Si Si3 0.107766 0.369121 0.673550
Si Si4 0.603360 0.509480 0.823212
Si Si5 0.297307 0.383062 0.823723
Si Si6 0.446622 0.054091 0.327854
Si Si7 0.286588 0.692474 0.824690
Si Si8 0.440151 0.749086 0.329491
O O1 0.353186 0.053797 0.766004
O O2 0.235101 0.133202 0.769452
O O3 0.173124 0.035490 0.759644
O O4 0.256314 0.070108 0.000000
O O5 0.673110 0.717436 0.500000
O O6 0.657436 0.668664 0.751780
O O7 0.721052 0.766990 0.739589
O O8 0.549056 0.749161 0.702207
O O9 0.126240 0.380517 0.500000
O O10 0.192908 0.393013 0.766610
O O11 0.100048 0.306953 0.708305
O O12 0.012646 0.397523 0.723950
O O13 0.500000 0.500000 0.756968
O O14 0.639665 0.567259 0.773798
O O15 0.600229 0.505261 0.000000
O O16 0.294854 0.376144 0.000000
O O17 0.419366 0.059976 0.500000
O O18 0.500000 0.000000 0.295085
O O19 0.392145 0.706308 0.778910
O O20 0.272927 0.698920 0.000000
O O21 0.419231 0.733684 0.500000
#
# Coordination Sequence:
#
# PCOD8226526 Si02
#       8
#     8   8   8   8   8   8   8   8
#     4  10  22  39  60  88 120 156 198 249 302 353
#     4  11  23  40  61  86 122 163 200 241 300 363
#     4  10  20  37  59  84 118 157 193 237 296 359
#     4   9  20  39  61  84 117 160 200 241 299 360
#     4  11  22  36  61  91 116 153 202 248 296 348
#     4  10  21  37  60  89 119 156 197 240 295 355
#     4  11  23  38  60  91 122 153 198 251 297 349
#     4  10  22  38  58  82 113 160 201 238 294 359
#
# _framework density 19.704857000000001
#
# number of rings (size 3 to 8) (size 9 to 14) (size 15 to 20)
#    0.000    1.750    1.250    2.625    1.750    3.750 
#    0.000    0.625    0.000    1.875    0.000    0.000 
#    0.000    0.000    0.000    0.000    0.000    0.000 
#
# Total GULP energy -793860.512348 kJ/mol
# GULP energy per Si atom -12404.070505 kJ/mol
# Density = 1.966001 g / cm^3
# Si number density = 19.704857 Si / 1000 Ang^3
#
#
#
# Elastic Constant Matrix: (Units=GPa)
#
#
# Indices 1 2 3 4 5 6 
#
# 1 125.0442 55.7395 35.2883 0.0000 0.0000 0.0000
# 2 55.7395 127.3947 43.0682 0.0000 0.0000 0.0000
# 3 35.2883 43.0682 52.5160 0.0000 0.0000 0.0000
# 4 0.0000 0.0000 0.0000 13.1597 0.0000 0.0000
# 5 0.0000 0.0000 0.0000 0.0000 34.2914 0.0000
# 6 0.0000 0.0000 0.0000 0.0000 0.0000 37.4123
#
#
#
# Elastic Compliance Matrix: (Units=1/GPa)
#
#
# Indices 1 2 3 4 5 6 
#
# 1 0.010692 -0.003112 -0.004632 0.000000 0.000000 0.000000
# 2 -0.003112 0.011767 -0.007559 0.000000 0.000000 0.000000
# 3 -0.004632 -0.007559 0.028353 0.000000 0.000000 0.000000
# 4 0.000000 0.000000 0.000000 0.075990 0.000000 0.000000
# 5 0.000000 0.000000 0.000000 0.000000 0.029162 0.000000
# 6 0.000000 0.000000 0.000000 0.000000 0.000000 0.026729
#
#
# Mechanical properties :
#
#
# Convention : Reuss Voigt Hill
#
# Bulk Modulus (GPa) = 49.49052 63.68298 56.58675
# Shear Modulus (GPa) = 22.72392 28.36329 25.54361
#
# Velocity S-wave (km/s) = 3.39959 3.79807 3.60434
# Velocity P-wave (km/s) = 6.37024 7.18487 6.78978
#
# Compressibility (1/GPa) = 0.02020589
#
# Stress axis : x y z
#
# Youngs Moduli (GPa) = 93.53162 84.98684 35.26945
#
# Poissons Ratio (x) = 0.26447 0.16337
# Poissons Ratio (y) = 0.29107 0.26659
# Poissons Ratio (z) = 0.43325 0.64238
#
# Static dielectric constant tensor:
#      x y z
#    x 3.789990 0.000000 0.000000 
#    y 0.000000 3.845590 0.000000 
#    z 0.000000 0.000000 3.432270 
# 
# 
# High freq. dielectric constant tensor:
#      x y z
#    x 1.782980 0.000000 0.000000 
#    y 0.000000 1.781000 0.000000 
#    z 0.000000 0.000000 1.751530 
# 
# From -- ./inp_files/6731.got.cif
#   From: 2010.03.12/outbox.cif.g09.slc.cpg/sg55_4_cif.got.tgz:6731.got - 2010.04.16 15:19:21.
