data_PCOD8226852
_publ_section_title
;
Structure prediction by ZEFSAII (Michael W. Deem and Ramdas Pophale) SiO2 
 PCOD8226852
Probable space group: P B A M
;
_chemical_formula_sum "Si O2"
_cell_formula_units_Z 56
_cell_length_a 17.299644
_cell_length_b 11.569801
_cell_length_c 13.620754
_cell_angle_alpha 90.000000
_cell_angle_beta 90.000000
_cell_angle_gamma 90.000000
_cell_volume 2726.240747
_symmetry_space_group_name_H-M "P B A M"
_symmetry_group_IT_number 55
_symmetry_cell_setting 'orthorhombic'
loop_
_space_group_symop_operation_xyz
x,y,z
-x,-y,z
1/2+x,1/2-y,-z
1/2-x,1/2+y,-z
-x,-y,-z
x,y,-z
1/2-x,1/2+y,z
1/2+x,1/2-y,z
loop_
_atom_site_type_symbol
_atom_site_label
_atom_site_fract_x
_atom_site_fract_y
_atom_site_fract_z
Si Si1 0.914891 0.541165 0.884051
Si Si2 0.913757 0.020909 0.110711
Si Si3 0.966000 0.872918 0.393203
Si Si4 0.810484 0.978840 0.386765
Si Si5 0.666624 0.275421 0.111660
Si Si6 0.891362 0.176963 0.287856
Si Si7 0.299516 0.118577 0.229994
O O1 0.892421 0.673475 0.853179
O O2 0.844890 0.461543 0.846356
O O3 0.000000 0.500000 0.843561
O O4 0.916402 0.528002 0.000000
O O5 0.876344 0.114177 0.183221
O O6 0.872816 0.899196 0.118872
O O7 0.910294 0.070958 0.000000
O O8 0.000000 0.000000 0.146849
O O9 0.970364 0.811427 0.500000
O O10 0.017559 0.806727 0.313107
O O11 0.876391 0.882914 0.360059
O O12 0.000000 0.000000 0.402937
O O13 0.783657 0.967241 0.500000
O O14 0.846200 0.106307 0.372123
O O15 0.740654 0.960947 0.311876
O O16 0.743209 0.288425 0.177266
O O17 0.691681 0.248030 0.000000
O O18 0.861554 0.306246 0.287820
#
# Coordination Sequence:
#
# PCOD8226852 Si02
#       7
#     8   8   8   8   8   8   8
#     4  10  24  45  64  86 125 174 213 246 303 382
#     4  10  21  35  58  91 121 150 194 253 313 363
#     4   8  16  33  58  82 109 145 187 240 302 359
#     4  10  21  39  59  86 122 154 194 251 314 368
#     4  10  22  40  61  85 121 159 204 257 304 366
#     4  11  21  35  59  87 121 152 197 252 306 366
#     4  12  24  37  60  91 121 161 205 255 304 366
#
# _framework density 20.541105000000002
#
# number of rings (size 3 to 8) (size 9 to 14) (size 15 to 20)
#    0.000    1.857    1.429    3.857    2.000    2.286 
#    0.000    0.000    0.000    0.429    0.000    0.000 
#    0.000    0.000    0.000    0.000    0.000    0.000 
#
# Total GULP energy -694078.755698 kJ/mol
# GULP energy per Si atom -12394.263495 kJ/mol
# Density = 2.049435 g / cm^3
# Si number density = 20.541105 Si / 1000 Ang^3
#
#
#
# Elastic Constant Matrix: (Units=GPa)
#
#
# Indices 1 2 3 4 5 6 
#
# 1 73.1522 10.4404 27.4616 0.0000 0.0000 0.0000
# 2 10.4404 32.4164 7.5032 0.0000 0.0000 0.0000
# 3 27.4616 7.5032 58.0821 0.0000 0.0000 0.0000
# 4 0.0000 0.0000 0.0000 10.6903 0.0000 0.0000
# 5 0.0000 0.0000 0.0000 0.0000 32.9332 0.0000
# 6 0.0000 0.0000 0.0000 0.0000 0.0000 32.9683
#
#
#
# Elastic Compliance Matrix: (Units=1/GPa)
#
#
# Indices 1 2 3 4 5 6 
#
# 1 0.017048 -0.003737 -0.007578 0.000000 0.000000 0.000000
# 2 -0.003737 0.032618 -0.002447 0.000000 0.000000 0.000000
# 3 -0.007578 -0.002447 0.021116 0.000000 0.000000 0.000000
# 4 0.000000 0.000000 0.000000 0.093543 0.000000 0.000000
# 5 0.000000 0.000000 0.000000 0.000000 0.030365 0.000000
# 6 0.000000 0.000000 0.000000 0.000000 0.000000 0.030332
#
#
# Mechanical properties :
#
#
# Convention : Reuss Voigt Hill
#
# Bulk Modulus (GPa) = 23.11628 28.27347 25.69488
# Shear Modulus (GPa) = 18.72906 23.20138 20.96522
#
# Velocity S-wave (km/s) = 3.02285 3.36446 3.19822
# Velocity P-wave (km/s) = 4.84372 5.37467 5.11609
#
# Compressibility (1/GPa) = 0.04325955
#
# Stress axis : x y z
#
# Youngs Moduli (GPa) = 58.65726 30.65750 47.35758
#
# Poissons Ratio (x) = 0.11456 0.35887
# Poissons Ratio (y) = 0.21919 0.11588
# Poissons Ratio (z) = 0.44449 0.07502
#
# Static dielectric constant tensor:
#      x y z
#    x 3.622670 0.000000 0.000000 
#    y 0.000000 3.426820 0.000000 
#    z 0.000000 0.000000 3.830890 
# 
# 
# High freq. dielectric constant tensor:
#      x y z
#    x 1.805260 0.000000 0.000000 
#    y 0.000000 1.770710 0.000000 
#    z 0.000000 0.000000 1.805250 
# 
# From -- ./inp_files/18939.got.cif
#   From: 2010.03.12/outbox.cif.g09.slc.cpg/sg55_10_cif.got.tgz:18939.got - 2010.04.16 15:19:21.
