data_PCOD8226817
_publ_section_title
;
Structure prediction by ZEFSAII (Michael W. Deem and Ramdas Pophale) SiO2 
 PCOD8226817
Probable space group: P B A M
;
_chemical_formula_sum "Si O2"
_cell_formula_units_Z 48
_cell_length_a 29.883345
_cell_length_b 9.536992
_cell_length_c 9.296482
_cell_angle_alpha 90.000000
_cell_angle_beta 90.000000
_cell_angle_gamma 90.000000
_cell_volume 2649.471546
_symmetry_space_group_name_H-M "P B A M"
_symmetry_group_IT_number 55
_symmetry_cell_setting 'orthorhombic'
loop_
_space_group_symop_operation_xyz
x,y,z
-x,-y,z
1/2+x,1/2-y,-z
1/2-x,1/2+y,-z
-x,-y,-z
x,y,-z
1/2-x,1/2+y,z
1/2+x,1/2-y,z
loop_
_atom_site_type_symbol
_atom_site_label
_atom_site_fract_x
_atom_site_fract_y
_atom_site_fract_z
Si Si1 0.298902 0.320126 0.333577
Si Si2 0.442034 0.860188 0.335466
Si Si3 0.386281 0.355906 0.167798
Si Si4 0.214852 0.140787 0.333475
Si Si5 0.955547 0.318467 0.664354
Si Si6 0.127509 0.177987 0.167813
O O1 0.311475 0.299639 0.500000
O O2 0.343011 0.286948 0.242076
O O3 0.260982 0.211694 0.283625
O O4 0.280714 0.475894 0.303223
O O5 0.429818 0.823033 0.500000
O O6 0.492060 0.810020 0.300240
O O7 0.409018 0.783717 0.227767
O O8 0.437324 0.025548 0.309085
O O9 0.431114 0.288796 0.230458
O O10 0.388448 0.520659 0.201452
O O11 0.383368 0.323997 0.000000
O O12 0.205182 0.173412 0.500000
O O13 0.174790 0.208534 0.242932
O O14 0.946665 0.273682 0.500000
O O15 0.133476 0.205194 0.000000
#
# Coordination Sequence:
#
# PCOD8226817 Si02
#       6
#     8   8   8   8   8   8
#     4   9  18  33  52  73  98 130 169 211 252 295
#     4   9  19  36  56  77 101 131 170 214 256 300
#     4  10  21  35  51  75 107 139 170 206 250 302
#     4   9  18  33  52  73  98 130 169 211 252 295
#     4   9  19  36  56  77 101 131 170 214 256 300
#     4  10  21  35  51  75 107 139 170 206 250 302
#
# _framework density 18.116820000000001
#
# number of rings (size 3 to 8) (size 9 to 14) (size 15 to 20)
#    0.000    2.667    0.000    2.000    0.000    6.000 
#    0.000    8.333    0.000    0.000    0.000    0.000 
#    0.000    0.000    0.000    0.000    0.000    0.000 
#
# Total GULP energy -595361.299205 kJ/mol
# GULP energy per Si atom -12403.360400 kJ/mol
# Density = 1.807559 g / cm^3
# Si number density = 18.116820 Si / 1000 Ang^3
#
#
#
# Elastic Constant Matrix: (Units=GPa)
#
#
# Indices 1 2 3 4 5 6 
#
# 1 23.9512 -6.6537 10.0770 0.0000 0.0000 0.0000
# 2 -6.6537 13.7960 5.2418 0.0000 0.0000 0.0000
# 3 10.0770 5.2418 54.9032 0.0000 0.0000 0.0000
# 4 0.0000 0.0000 0.0000 27.9728 0.0000 0.0000
# 5 0.0000 0.0000 0.0000 0.0000 10.5492 0.0000
# 6 0.0000 0.0000 0.0000 0.0000 0.0000 38.3336
#
#
#
# Elastic Compliance Matrix: (Units=1/GPa)
#
#
# Indices 1 2 3 4 5 6 
#
# 1 0.056372 0.032291 -0.013430 0.000000 0.000000 0.000000
# 2 0.032291 0.093710 -0.014874 0.000000 0.000000 0.000000
# 3 -0.013430 -0.014874 0.022099 0.000000 0.000000 0.000000
# 4 0.000000 0.000000 0.000000 0.035749 0.000000 0.000000
# 5 0.000000 0.000000 0.000000 0.000000 0.094794 0.000000
# 6 0.000000 0.000000 0.000000 0.000000 0.000000 0.026087
#
#
# Mechanical properties :
#
#
# Convention : Reuss Voigt Hill
#
# Bulk Modulus (GPa) = 5.55073 12.22006 8.88539
# Shear Modulus (GPa) = 13.12721 20.97012 17.04866
#
# Velocity S-wave (km/s) = 2.69474 3.40589 3.07097
# Velocity P-wave (km/s) = 3.57108 4.71450 4.18206
#
# Compressibility (1/GPa) = 0.18015648
#
# Stress axis : x y z
#
# Youngs Moduli (GPa) = 17.73917 10.67122 45.25131
#
# Poissons Ratio (x) = -0.34458 0.60771
# Poissons Ratio (y) = -0.57281 0.67305
# Poissons Ratio (z) = 0.23823 0.15872
#
# Static dielectric constant tensor:
#      x y z
#    x 3.331600 0.000000 0.000000 
#    y 0.000000 3.262680 0.000000 
#    z 0.000000 0.000000 3.295670 
# 
# 
# High freq. dielectric constant tensor:
#      x y z
#    x 1.706050 0.000000 0.000000 
#    y 0.000000 1.696780 0.000000 
#    z 0.000000 0.000000 1.700010 
# 
# From -- ./inp_files/2790.got.cif
#   From: 2010.03.12/outbox.cif.g09.slc.cpg/sg55_2_cif.got.tgz:2790.got - 2010.04.16 15:19:21.
