data_PCOD8226928
_publ_section_title
;
Structure prediction by ZEFSAII (Michael W. Deem and Ramdas Pophale) SiO2 
 PCOD8226928
Probable space group: P B A M
;
_chemical_formula_sum "Si O2"
_cell_formula_units_Z 48
_cell_length_a 14.229280
_cell_length_b 20.010502
_cell_length_c 8.847134
_cell_angle_alpha 90.000000
_cell_angle_beta 90.000000
_cell_angle_gamma 90.000000
_cell_volume 2519.089017
_symmetry_space_group_name_H-M "P B A M"
_symmetry_group_IT_number 55
_symmetry_cell_setting 'orthorhombic'
loop_
_space_group_symop_operation_xyz
x,y,z
-x,-y,z
1/2+x,1/2-y,-z
1/2-x,1/2+y,-z
-x,-y,-z
x,y,-z
1/2-x,1/2+y,z
1/2+x,1/2-y,z
loop_
_atom_site_type_symbol
_atom_site_label
_atom_site_fract_x
_atom_site_fract_y
_atom_site_fract_z
Si Si1 0.833355 0.572797 0.176120
Si Si2 0.016047 0.622003 0.322627
Si Si3 0.020764 0.775527 0.677917
Si Si4 0.784464 0.438717 0.322112
Si Si5 0.215386 0.795879 0.823859
Si Si6 0.838255 0.829730 0.821320
O O1 0.939837 0.578650 0.233726
O O2 0.779994 0.514374 0.264554
O O3 0.779725 0.640930 0.212648
O O4 0.834228 0.555806 0.000000
O O5 0.997807 0.613143 0.500000
O O6 0.009724 0.698756 0.271096
O O7 0.117182 0.594477 0.274544
O O8 0.010647 0.783089 0.500000
O O9 0.121196 0.803395 0.728140
O O10 0.942284 0.819778 0.757968
O O11 0.768909 0.436485 0.500000
O O12 0.700438 0.398926 0.243228
O O13 0.271311 0.730651 0.767505
O O14 0.189929 0.790816 0.000000
O O15 0.844007 0.833336 0.000000
#
# Coordination Sequence:
#
# PCOD8226928 Si02
#       6
#     8   8   8   8   8   8
#     4  11  23  39  59  88 121 159 200 243 296 355
#     4  10  21  36  57  87 123 157 191 241 297 352
#     4  11  22  37  61  91 120 153 197 245 294 348
#     4  11  23  40  59  87 123 160 199 244 297 354
#     4  10  22  39  60  86 119 155 197 243 292 349
#     4  11  22  39  62  88 119 157 198 245 295 350
#
# _framework density 19.054507999999998
#
# number of rings (size 3 to 8) (size 9 to 14) (size 15 to 20)
#    0.000    1.333    3.333    2.500    0.000    6.000 
#    0.000    0.833    0.000    5.000    0.000    0.000 
#    0.000    0.000    0.000    0.000    0.000    0.000 
#
# Total GULP energy -595578.838501 kJ/mol
# GULP energy per Si atom -12407.892469 kJ/mol
# Density = 1.901114 g / cm^3
# Si number density = 19.054508 Si / 1000 Ang^3
#
#
#
# Elastic Constant Matrix: (Units=GPa)
#
#
# Indices 1 2 3 4 5 6 
#
# 1 72.2018 -0.0861 32.3682 0.0000 0.0000 0.0000
# 2 -0.0861 50.9637 18.8847 0.0000 0.0000 0.0000
# 3 32.3682 18.8847 64.3524 0.0000 0.0000 0.0000
# 4 0.0000 0.0000 0.0000 33.7755 0.0000 0.0000
# 5 0.0000 0.0000 0.0000 0.0000 35.1417 0.0000
# 6 0.0000 0.0000 0.0000 0.0000 0.0000 27.0830
#
#
#
# Elastic Compliance Matrix: (Units=1/GPa)
#
#
# Indices 1 2 3 4 5 6 
#
# 1 0.018553 0.003915 -0.010481 0.000000 0.000000 0.000000
# 2 0.003915 0.022842 -0.008672 0.000000 0.000000 0.000000
# 3 -0.010481 -0.008672 0.023356 0.000000 0.000000 0.000000
# 4 0.000000 0.000000 0.000000 0.029607 0.000000 0.000000
# 5 0.000000 0.000000 0.000000 0.000000 0.028456 0.000000
# 6 0.000000 0.000000 0.000000 0.000000 0.000000 0.036924
#
#
# Mechanical properties :
#
#
# Convention : Reuss Voigt Hill
#
# Bulk Modulus (GPa) = 29.17575 32.20571 30.69073
# Shear Modulus (GPa) = 24.79664 28.29010 26.54337
#
# Velocity S-wave (km/s) = 3.61134 3.85735 3.73637
# Velocity P-wave (km/s) = 5.72136 6.06444 5.89540
#
# Compressibility (1/GPa) = 0.03427504
#
# Stress axis : x y z
#
# Youngs Moduli (GPa) = 53.89854 43.77896 42.81519
#
# Poissons Ratio (x) = -0.17140 0.44874
# Poissons Ratio (y) = -0.21102 0.37131
# Poissons Ratio (z) = 0.56491 0.37967
#
# Static dielectric constant tensor:
#      x y z
#    x 3.426510 0.000000 0.000000 
#    y 0.000000 3.509860 0.000000 
#    z 0.000000 0.000000 3.482280 
# 
# 
# High freq. dielectric constant tensor:
#      x y z
#    x 1.741040 0.000000 0.000000 
#    y 0.000000 1.740730 0.000000 
#    z 0.000000 0.000000 1.747740 
# 
# From -- ./inp_files/4086.got.cif
#   From: 2010.03.12/outbox.cif.g09.slc.cpg/sg55_3_cif.got.tgz:4086.got - 2010.04.16 15:19:21.
