data_PCOD8226943
_publ_section_title
;
Structure prediction by ZEFSAII (Michael W. Deem and Ramdas Pophale) SiO2 
 PCOD8226943
Probable space group: P B A M
;
_chemical_formula_sum "Si O2"
_cell_formula_units_Z 64
_cell_length_a 24.503446
_cell_length_b 14.447193
_cell_length_c 8.998111
_cell_angle_alpha 90.000000
_cell_angle_beta 90.000000
_cell_angle_gamma 90.000000
_cell_volume 3185.385404
_symmetry_space_group_name_H-M "P B A M"
_symmetry_group_IT_number 55
_symmetry_cell_setting 'orthorhombic'
loop_
_space_group_symop_operation_xyz
x,y,z
-x,-y,z
1/2+x,1/2-y,-z
1/2-x,1/2+y,-z
-x,-y,-z
x,y,-z
1/2-x,1/2+y,z
1/2+x,1/2-y,z
loop_
_atom_site_type_symbol
_atom_site_label
_atom_site_fract_x
_atom_site_fract_y
_atom_site_fract_z
Si Si1 0.375287 0.935413 0.667190
Si Si2 0.742028 0.136435 0.325745
Si Si3 0.739873 0.334229 0.823682
Si Si4 0.565341 0.749323 0.175313
Si Si5 0.671123 0.482507 0.673203
Si Si6 0.520182 0.098402 0.824849
Si Si7 0.347669 0.137027 0.670269
Si Si8 0.553466 0.559843 0.670879
O O1 0.385149 0.901340 0.500000
O O2 0.314065 0.913692 0.717234
O O3 0.418622 0.881638 0.768583
O O4 0.384875 0.045643 0.681305
O O5 0.745814 0.159636 0.500000
O O6 0.743159 0.229719 0.232612
O O7 0.792197 0.070463 0.277174
O O8 0.687326 0.389999 0.763152
O O9 0.792971 0.385782 0.760545
O O10 0.738943 0.335756 0.000000
O O11 0.518235 0.818879 0.230533
O O12 0.621385 0.776263 0.257218
O O13 0.548601 0.647017 0.221365
O O14 0.574792 0.755648 0.000000
O O15 0.680698 0.462009 0.500000
O O16 0.607842 0.502042 0.709593
O O17 0.500000 0.000000 0.759421
O O18 0.521492 0.094583 0.000000
O O19 0.333085 0.161402 0.500000
O O20 0.500000 0.500000 0.702757
O O21 0.555543 0.593216 0.500000
#
# Coordination Sequence:
#
# PCOD8226943 Si02
#       8
#     8   8   8   8   8   8   8   8
#     4  10  21  36  59  88 116 155 206 254 298 352
#     4  10  21  40  62  88 122 163 209 253 306 363
#     4  12  25  38  60  94 127 162 203 250 308 374
#     4  11  23  39  62  92 123 164 209 252 311 371
#     4  10  21  42  67  89 121 163 206 259 312 362
#     4  10  21  37  56  84 127 167 195 236 302 367
#     4  11  21  38  62  89 121 159 205 253 304 360
#     4  10  23  43  67  93 120 160 214 266 312 361
#
# _framework density 20.091760000000001
#
# number of rings (size 3 to 8) (size 9 to 14) (size 15 to 20)
#    0.000    1.500    2.500    2.625    0.000    5.500 
#    0.000    3.750    0.000    0.000    0.000    0.000 
#    0.000    0.000    0.000    0.000    0.000    0.000 
#
# Total GULP energy -793801.698497 kJ/mol
# GULP energy per Si atom -12403.151539 kJ/mol
# Density = 2.004603 g / cm^3
# Si number density = 20.091760 Si / 1000 Ang^3
#
#
#
# Elastic Constant Matrix: (Units=GPa)
#
#
# Indices 1 2 3 4 5 6 
#
# 1 136.4417 43.6929 41.5199 0.0000 0.0000 0.0000
# 2 43.6929 86.0004 43.3917 0.0000 0.0000 0.0000
# 3 41.5199 43.3917 78.5878 0.0000 0.0000 0.0000
# 4 0.0000 0.0000 0.0000 31.1660 0.0000 0.0000
# 5 0.0000 0.0000 0.0000 0.0000 29.5437 0.0000
# 6 0.0000 0.0000 0.0000 0.0000 0.0000 30.3616
#
#
#
# Elastic Compliance Matrix: (Units=1/GPa)
#
#
# Indices 1 2 3 4 5 6 
#
# 1 0.009298 -0.003112 -0.003194 0.000000 0.000000 0.000000
# 2 -0.003112 0.017160 -0.007830 0.000000 0.000000 0.000000
# 3 -0.003194 -0.007830 0.018735 0.000000 0.000000 0.000000
# 4 0.000000 0.000000 0.000000 0.032086 0.000000 0.000000
# 5 0.000000 0.000000 0.000000 0.000000 0.033848 0.000000
# 6 0.000000 0.000000 0.000000 0.000000 0.000000 0.032936
#
#
# Mechanical properties :
#
#
# Convention : Reuss Voigt Hill
#
# Bulk Modulus (GPa) = 59.10131 62.02657 60.56394
# Shear Modulus (GPa) = 28.09353 29.70928 28.90140
#
# Velocity S-wave (km/s) = 3.74339 3.84953 3.79683
# Velocity P-wave (km/s) = 6.93999 7.12020 7.03067
#
# Compressibility (1/GPa) = 0.01692010
#
# Stress axis : x y z
#
# Youngs Moduli (GPa) = 107.55381 58.27522 53.37471
#
# Poissons Ratio (x) = 0.18137 0.17047
# Poissons Ratio (y) = 0.33474 0.41795
# Poissons Ratio (z) = 0.34350 0.45632
#
# Static dielectric constant tensor:
#      x y z
#    x 3.756050 0.000000 0.000000 
#    y 0.000000 3.600130 0.000000 
#    z 0.000000 0.000000 3.496870 
# 
# 
# High freq. dielectric constant tensor:
#      x y z
#    x 1.792230 0.000000 0.000000 
#    y 0.000000 1.782310 0.000000 
#    z 0.000000 0.000000 1.774690 
# 
# From -- ./inp_files/9774.got.cif
#   From: 2010.03.12/outbox.cif.g09.slc.cpg/sg55_5_cif.got.tgz:9774.got - 2010.04.16 15:19:21.
