data_PCOD8226816
_publ_section_title
;
Structure prediction by ZEFSAII (Michael W. Deem and Ramdas Pophale) SiO2 
 PCOD8226816
Probable space group: P B A M
;
_chemical_formula_sum "Si O2"
_cell_formula_units_Z 56
_cell_length_a 22.478035
_cell_length_b 14.240016
_cell_length_c 9.187170
_cell_angle_alpha 90.000000
_cell_angle_beta 90.000000
_cell_angle_gamma 90.000000
_cell_volume 2940.698994
_symmetry_space_group_name_H-M "P B A M"
_symmetry_group_IT_number 55
_symmetry_cell_setting 'orthorhombic'
loop_
_space_group_symop_operation_xyz
x,y,z
-x,-y,z
1/2+x,1/2-y,-z
1/2-x,1/2+y,-z
-x,-y,-z
x,y,-z
1/2-x,1/2+y,z
1/2+x,1/2-y,z
loop_
_atom_site_type_symbol
_atom_site_label
_atom_site_fract_x
_atom_site_fract_y
_atom_site_fract_z
Si Si1 0.159712 0.101043 0.667320
Si Si2 0.853480 0.081397 0.831168
Si Si3 0.782986 0.603295 0.163560
Si Si4 0.507211 0.107605 0.827243
Si Si5 0.893960 0.279794 0.828074
Si Si6 0.116847 0.301293 0.666973
Si Si7 0.218898 0.610783 0.166603
O O1 0.172976 0.078247 0.500000
O O2 0.114617 0.188416 0.683938
O O3 0.221707 0.127092 0.742646
O O4 0.128424 0.010140 0.739206
O O5 0.786235 0.112259 0.796250
O O6 0.895931 0.168965 0.788643
O O7 0.859645 0.054169 0.000000
O O8 0.818930 0.664567 0.278524
O O9 0.803780 0.495823 0.175202
O O10 0.794442 0.641082 0.000000
O O11 0.451857 0.168011 0.764615
O O12 0.566640 0.150576 0.762403
O O13 0.500000 0.000000 0.777158
O O14 0.512007 0.114822 0.000000
O O15 0.833703 0.326035 0.765106
O O16 0.892390 0.294890 0.000000
O O17 0.108639 0.331264 0.500000
O O18 0.233298 0.638862 0.000000
#
# Coordination Sequence:
#
# PCOD8226816 Si02
#       7
#     8   8   8   8   8   8   8
#     4  10  21  35  50  74 108 141 174 211 253 304
#     4   9  18  33  54  79 104 132 170 214 259 306
#     4   9  17  30  52  80 106 135 170 210 259 310
#     4  10  21  38  59  80 103 133 170 213 259 307
#     4   9  17  32  55  80 103 130 170 217 259 303
#     4  11  23  36  51  74 106 143 178 212 253 303
#     4   9  17  32  55  81 108 136 167 208 260 313
#
# _framework density 19.043092000000001
#
# number of rings (size 3 to 8) (size 9 to 14) (size 15 to 20)
#    0.000    2.429    0.000    3.429    0.000    8.286 
#    0.000    2.857    0.000    4.286    0.000    0.000 
#    0.000    0.000    0.000    0.000    0.000    0.000 
#
# Total GULP energy -694396.453711 kJ/mol
# GULP energy per Si atom -12399.936673 kJ/mol
# Density = 1.899975 g / cm^3
# Si number density = 19.043092 Si / 1000 Ang^3
#
#
#
# Elastic Constant Matrix: (Units=GPa)
#
#
# Indices 1 2 3 4 5 6 
#
# 1 57.3928 53.7678 30.7438 0.0000 0.0000 0.0000
# 2 53.7678 122.1492 47.3238 0.0000 0.0000 0.0000
# 3 30.7438 47.3238 62.7365 0.0000 0.0000 0.0000
# 4 0.0000 0.0000 0.0000 24.0108 0.0000 0.0000
# 5 0.0000 0.0000 0.0000 0.0000 9.0112 0.0000
# 6 0.0000 0.0000 0.0000 0.0000 0.0000 33.2571
#
#
#
# Elastic Compliance Matrix: (Units=1/GPa)
#
#
# Indices 1 2 3 4 5 6 
#
# 1 0.031734 -0.011224 -0.007085 0.000000 0.000000 0.000000
# 2 -0.011224 0.015537 -0.006220 0.000000 0.000000 0.000000
# 3 -0.007085 -0.006220 0.024103 0.000000 0.000000 0.000000
# 4 0.000000 0.000000 0.000000 0.041648 0.000000 0.000000
# 5 0.000000 0.000000 0.000000 0.000000 0.110973 0.000000
# 6 0.000000 0.000000 0.000000 0.000000 0.000000 0.030069
#
#
# Mechanical properties :
#
#
# Convention : Reuss Voigt Hill
#
# Bulk Modulus (GPa) = 44.80775 56.21661 50.51218
# Shear Modulus (GPa) = 16.10001 20.61869 18.35935
#
# Velocity S-wave (km/s) = 2.91082 3.29407 3.10836
# Velocity P-wave (km/s) = 5.90575 6.63722 6.28214
#
# Compressibility (1/GPa) = 0.02231757
#
# Stress axis : x y z
#
# Youngs Moduli (GPa) = 31.51218 64.36284 41.48836
#
# Poissons Ratio (x) = 0.72240 0.29393
# Poissons Ratio (y) = 0.35369 0.25805
# Poissons Ratio (z) = 0.22325 0.40032
#
# Static dielectric constant tensor:
#      x y z
#    x 3.311310 0.000000 0.000000 
#    y 0.000000 3.714220 0.000000 
#    z 0.000000 0.000000 3.262370 
# 
# 
# High freq. dielectric constant tensor:
#      x y z
#    x 1.718770 0.000000 0.000000 
#    y 0.000000 1.756620 0.000000 
#    z 0.000000 0.000000 1.715730 
# 
# From -- ./inp_files/8753.got.cif
#   From: 2010.03.12/outbox.cif.g09.slc.cpg/sg55_5_cif.got.tgz:8753.got - 2010.04.16 15:19:21.
