data_PCOD8226691
_publ_section_title
;
Structure prediction by ZEFSAII (Michael W. Deem and Ramdas Pophale) SiO2 
 PCOD8226691
Probable space group: P B A M
;
_chemical_formula_sum "Si O2"
_cell_formula_units_Z 56
_cell_length_a 11.003594
_cell_length_b 15.742536
_cell_length_c 15.439473
_cell_angle_alpha 90.000000
_cell_angle_beta 90.000000
_cell_angle_gamma 90.000000
_cell_volume 2674.494600
_symmetry_space_group_name_H-M "P B A M"
_symmetry_group_IT_number 55
_symmetry_cell_setting 'orthorhombic'
loop_
_space_group_symop_operation_xyz
x,y,z
-x,-y,z
1/2+x,1/2-y,-z
1/2-x,1/2+y,-z
-x,-y,-z
x,y,-z
1/2-x,1/2+y,z
1/2+x,1/2-y,z
loop_
_atom_site_type_symbol
_atom_site_label
_atom_site_fract_x
_atom_site_fract_y
_atom_site_fract_z
Si Si1 0.452519 0.272003 0.337853
Si Si2 0.273738 0.674257 0.902863
Si Si3 0.295875 0.363716 0.903380
Si Si4 0.012102 0.101028 0.195143
Si Si5 0.416636 0.119863 0.786673
Si Si6 0.195099 0.318419 0.597458
Si Si7 0.668593 0.055059 0.752629
O O1 0.474880 0.361178 0.288826
O O2 0.408329 0.203892 0.269014
O O3 0.580235 0.245058 0.383792
O O4 0.331773 0.278523 0.398505
O O5 0.276901 0.776109 0.892858
O O6 0.352432 0.630529 0.827977
O O7 0.139052 0.639407 0.881193
O O8 0.308372 0.646533 0.000000
O O9 0.439558 0.354571 0.885332
O O10 0.270541 0.430102 0.825316
O O11 0.274356 0.401089 0.000000
O O12 0.000000 0.000000 0.200265
O O13 0.553546 0.092834 0.803182
O O14 0.346436 0.044693 0.734311
O O15 0.176689 0.351965 0.500000
O O16 0.191126 0.398335 0.661982
#
# Coordination Sequence:
#
# PCOD8226691 Si02
#       7
#     8   8   8   8   8   8   8
#     4  11  22  43  68  94 127 171 215 264 328 395
#     4  11  23  37  58  88 126 169 218 266 315 380
#     4  11  23  39  60  91 128 169 215 263 315 381
#     4  12  24  40  64  92 127 172 220 268 325 386
#     4  10  20  38  63  85 120 162 211 254 324 383
#     4  11  23  42  68  98 132 166 214 267 328 395
#     4  10  21  38  61  91 120 162 204 265 318 384
#
# _framework density 20.938535999999999
#
# number of rings (size 3 to 8) (size 9 to 14) (size 15 to 20)
#    0.000    1.143    2.857    4.286    0.000    3.429 
#    0.000    7.857    0.000    0.857    0.000    0.000 
#    0.000    0.000    0.000    0.000    0.000    0.000 
#
# Total GULP energy -693829.478435 kJ/mol
# GULP energy per Si atom -12389.812115 kJ/mol
# Density = 2.089088 g / cm^3
# Si number density = 20.938536 Si / 1000 Ang^3
#
#
#
# Elastic Constant Matrix: (Units=GPa)
#
#
# Indices 1 2 3 4 5 6 
#
# 1 99.9139 20.6720 41.0800 0.0000 0.0000 0.0000
# 2 20.6720 91.2649 31.0195 0.0000 0.0000 0.0000
# 3 41.0800 31.0195 121.5866 0.0000 0.0000 0.0000
# 4 0.0000 0.0000 0.0000 10.5497 0.0000 0.0000
# 5 0.0000 0.0000 0.0000 0.0000 23.1035 0.0000
# 6 0.0000 0.0000 0.0000 0.0000 0.0000 28.2012
#
#
#
# Elastic Compliance Matrix: (Units=1/GPa)
#
#
# Indices 1 2 3 4 5 6 
#
# 1 0.011794 -0.001442 -0.003617 0.000000 0.000000 0.000000
# 2 -0.001442 0.012174 -0.002619 0.000000 0.000000 0.000000
# 3 -0.003617 -0.002619 0.010115 0.000000 0.000000 0.000000
# 4 0.000000 0.000000 0.000000 0.094789 0.000000 0.000000
# 5 0.000000 0.000000 0.000000 0.000000 0.043283 0.000000
# 6 0.000000 0.000000 0.000000 0.000000 0.000000 0.035460
#
#
# Mechanical properties :
#
#
# Convention : Reuss Voigt Hill
#
# Bulk Modulus (GPa) = 53.39774 55.36760 54.38267
# Shear Modulus (GPa) = 21.81382 27.03714 24.42548
#
# Velocity S-wave (km/s) = 3.23120 3.59731 3.41916
# Velocity P-wave (km/s) = 6.28318 6.61472 6.45108
#
# Compressibility (1/GPa) = 0.01872738
#
# Stress axis : x y z
#
# Youngs Moduli (GPa) = 84.78821 82.14378 98.86628
#
# Poissons Ratio (x) = 0.11846 0.35759
# Poissons Ratio (y) = 0.12227 0.25889
# Poissons Ratio (z) = 0.30667 0.21510
#
# Static dielectric constant tensor:
#      x y z
#    x 4.308880 0.000000 0.000000 
#    y 0.000000 3.743150 0.000000 
#    z 0.000000 0.000000 3.529820 
# 
# 
# High freq. dielectric constant tensor:
#      x y z
#    x 1.845620 0.000000 0.000000 
#    y 0.000000 1.815360 0.000000 
#    z 0.000000 0.000000 1.794460 
# 
# From -- ./inp_files/18365.got.cif
#   From: 2010.03.12/outbox.cif.g09.slc.cpg/sg55_10_cif.got.tgz:18365.got - 2010.04.16 15:19:21.
