data_PCOD8226351
_publ_section_title
;
Structure prediction by ZEFSAII (Michael W. Deem and Ramdas Pophale) SiO2 
 PCOD8226351
Probable space group: P B A M
;
_chemical_formula_sum "Si O2"
_cell_formula_units_Z 64
_cell_length_a 18.852286
_cell_length_b 9.711706
_cell_length_c 18.162367
_cell_angle_alpha 90.000000
_cell_angle_beta 90.000000
_cell_angle_gamma 90.000000
_cell_volume 3325.308889
_symmetry_space_group_name_H-M "P B A M"
_symmetry_group_IT_number 55
_symmetry_cell_setting 'orthorhombic'
loop_
_space_group_symop_operation_xyz
x,y,z
-x,-y,z
1/2+x,1/2-y,-z
1/2-x,1/2+y,-z
-x,-y,-z
x,y,-z
1/2-x,1/2+y,z
1/2+x,1/2-y,z
loop_
_atom_site_type_symbol
_atom_site_label
_atom_site_fract_x
_atom_site_fract_y
_atom_site_fract_z
Si Si1 0.821968 0.829477 0.585193
Si Si2 0.758929 0.096098 0.658692
Si Si3 0.176178 0.426995 0.083128
Si Si4 0.052948 0.209230 0.313079
Si Si5 0.130901 0.454113 0.760540
Si Si6 0.923142 0.996937 0.183847
Si Si7 0.103851 0.765117 0.719286
Si Si8 0.195677 0.116483 0.081379
O O1 0.822740 0.867621 0.500000
O O2 0.784897 0.681787 0.597986
O O3 0.903580 0.817947 0.612076
O O4 0.777709 0.945178 0.628914
O O5 0.710940 0.082543 0.732857
O O6 0.830174 0.180999 0.672885
O O7 0.120854 0.437161 0.150583
O O8 0.233816 0.539842 0.105935
O O9 0.212576 0.277851 0.084329
O O10 0.144382 0.454682 0.000000
O O11 0.074272 0.353316 0.276098
O O12 0.073137 0.083508 0.260457
O O13 0.968526 0.211651 0.327768
O O14 0.111716 0.606306 0.736726
O O15 0.899463 0.152379 0.203081
O O16 0.869272 0.918945 0.132593
O O17 0.000000 0.000000 0.144422
O O18 0.173915 0.068078 0.000000
#
# Coordination Sequence:
#
# PCOD8226351 Si02
#       8
#     8   8   8   8   8   8   8   8
#     4  11  23  41  62  91 126 156 192 246 300 353
#     4  11  22  38  63  93 117 156 200 244 291 358
#     4  10  22  35  56  86 117 150 195 247 299 353
#     4  10  22  40  62  86 119 153 200 241 293 356
#     4  11  22  37  64  86 119 160 201 244 304 348
#     4  10  20  36  58  83 110 147 195 243 280 345
#     4  11  22  38  61  91 118 149 204 248 285 348
#     4  10  21  37  54  81 116 150 189 244 304 350
#
# _framework density 19.246331000000001
#
# number of rings (size 3 to 8) (size 9 to 14) (size 15 to 20)
#    0.000    1.500    3.750    1.500    3.500    0.250 
#    0.000    1.875    0.000    3.750    0.000    0.000 
#    0.000    0.000    0.000    0.000    0.000    0.000 
#
# Total GULP energy -793453.639132 kJ/mol
# GULP energy per Si atom -12397.713111 kJ/mol
# Density = 1.920253 g / cm^3
# Si number density = 19.246331 Si / 1000 Ang^3
#
#
#
# Elastic Constant Matrix: (Units=GPa)
#
#
# Indices 1 2 3 4 5 6 
#
# 1 74.7838 11.0929 20.7311 0.0000 0.0000 0.0000
# 2 11.0929 89.6118 3.4172 0.0000 0.0000 0.0000
# 3 20.7311 3.4172 77.9826 0.0000 0.0000 0.0000
# 4 0.0000 0.0000 0.0000 22.1716 0.0000 0.0000
# 5 0.0000 0.0000 0.0000 0.0000 11.2779 0.0000
# 6 0.0000 0.0000 0.0000 0.0000 0.0000 27.8151
#
#
#
# Elastic Compliance Matrix: (Units=1/GPa)
#
#
# Indices 1 2 3 4 5 6 
#
# 1 0.014681 -0.001671 -0.003830 0.000000 0.000000 0.000000
# 2 -0.001671 0.011368 -0.000054 0.000000 0.000000 0.000000
# 3 -0.003830 -0.000054 0.013844 0.000000 0.000000 0.000000
# 4 0.000000 0.000000 0.000000 0.045103 0.000000 0.000000
# 5 0.000000 0.000000 0.000000 0.000000 0.088669 0.000000
# 6 0.000000 0.000000 0.000000 0.000000 0.000000 0.035952
#
#
# Mechanical properties :
#
#
# Convention : Reuss Voigt Hill
#
# Bulk Modulus (GPa) = 34.74192 34.76227 34.75210
# Shear Modulus (GPa) = 21.70877 26.06204 23.88540
#
# Velocity S-wave (km/s) = 3.36213 3.68384 3.52666
# Velocity P-wave (km/s) = 5.75867 6.01625 5.88887
#
# Compressibility (1/GPa) = 0.02878367
#
# Stress axis : x y z
#
# Youngs Moduli (GPa) = 68.11319 87.96474 72.23434
#
# Poissons Ratio (x) = 0.14702 0.27664
# Poissons Ratio (y) = 0.11384 0.00389
# Poissons Ratio (z) = 0.26085 0.00474
#
# Static dielectric constant tensor:
#      x y z
#    x 3.597360 0.000000 0.000000 
#    y 0.000000 3.754520 0.000000 
#    z 0.000000 0.000000 3.394230 
# 
# 
# High freq. dielectric constant tensor:
#      x y z
#    x 1.741460 0.000000 0.000000 
#    y 0.000000 1.772250 0.000000 
#    z 0.000000 0.000000 1.726700 
# 
# From -- ./inp_files/21955.got.cif
#   From: 2010.03.12/outbox.cif.g09.slc.cpg/sg55_11_cif.got.tgz:21955.got - 2010.04.16 15:19:21.
