data_PCOD8226311
_publ_section_title
;
Structure prediction by ZEFSAII (Michael W. Deem and Ramdas Pophale) SiO2 
 PCOD8226311
Probable space group: P B A M
;
_chemical_formula_sum "Si O2"
_cell_formula_units_Z 56
_cell_length_a 22.812509
_cell_length_b 13.871007
_cell_length_c 9.647341
_cell_angle_alpha 90.000000
_cell_angle_beta 90.000000
_cell_angle_gamma 90.000000
_cell_volume 3052.731961
_symmetry_space_group_name_H-M "P B A M"
_symmetry_group_IT_number 55
_symmetry_cell_setting 'orthorhombic'
loop_
_space_group_symop_operation_xyz
x,y,z
-x,-y,z
1/2+x,1/2-y,-z
1/2-x,1/2+y,-z
-x,-y,-z
x,y,-z
1/2-x,1/2+y,z
1/2+x,1/2-y,z
loop_
_atom_site_type_symbol
_atom_site_label
_atom_site_fract_x
_atom_site_fract_y
_atom_site_fract_z
Si Si1 0.034688 0.218410 0.839402
Si Si2 0.150738 0.601857 0.341623
Si Si3 0.034038 0.597773 0.836977
Si Si4 0.168998 0.814186 0.656905
Si Si5 0.733870 0.498097 0.338555
Si Si6 0.075115 0.896647 0.843563
Si Si7 0.863833 0.906611 0.838373
O O1 0.099877 0.188247 0.785215
O O2 0.006506 0.315566 0.774615
O O3 0.992869 0.125814 0.814204
O O4 0.042354 0.239842 0.000000
O O5 0.128553 0.590173 0.500000
O O6 0.095969 0.594188 0.240279
O O7 0.187048 0.702630 0.325599
O O8 0.197963 0.519375 0.302458
O O9 0.000000 0.500000 0.806411
O O10 0.046809 0.612269 0.000000
O O11 0.151346 0.837960 0.500000
O O12 0.219428 0.890618 0.702876
O O13 0.111341 0.825381 0.747335
O O14 0.722047 0.477185 0.500000
O O15 0.693975 0.423366 0.251965
O O16 0.090243 0.006864 0.814061
O O17 0.091562 0.868042 0.000000
O O18 0.845911 0.898411 0.000000
#
# Coordination Sequence:
#
# PCOD8226311 Si02
#       7
#     8   8   8   8   8   8   8
#     4   9  16  29  49  73 102 133 162 201 252 300
#     4  10  20  36  57  76  99 135 175 213 254 303
#     4  10  21  37  56  77 103 135 172 213 257 304
#     4   9  17  31  51  72  97 130 168 208 251 302
#     4   9  19  35  51  73 105 136 169 212 259 302
#     4   9  15  26  48  74  97 127 163 199 245 301
#     4   9  17  29  48  75 104 130 163 204 248 304
#
# _framework density 18.344225000000002
#
# number of rings (size 3 to 8) (size 9 to 14) (size 15 to 20)
#    0.000    2.714    1.429    0.429    0.000    2.571 
#    2.571    1.429    0.000    3.429    0.000    0.000 
#    0.000    0.000    0.000    0.000    0.000    0.000 
#
# Total GULP energy -693861.105397 kJ/mol
# GULP energy per Si atom -12390.376882 kJ/mol
# Density = 1.830247 g / cm^3
# Si number density = 18.344225 Si / 1000 Ang^3
#
#
#
# Elastic Constant Matrix: (Units=GPa)
#
#
# Indices 1 2 3 4 5 6 
#
# 1 86.8824 50.1678 36.7762 0.0000 0.0000 0.0000
# 2 50.1678 71.6333 28.6550 0.0000 0.0000 0.0000
# 3 36.7762 28.6550 47.1700 0.0000 0.0000 0.0000
# 4 0.0000 0.0000 0.0000 17.8276 0.0000 0.0000
# 5 0.0000 0.0000 0.0000 0.0000 4.6737 0.0000
# 6 0.0000 0.0000 0.0000 0.0000 0.0000 21.7716
#
#
#
# Elastic Compliance Matrix: (Units=1/GPa)
#
#
# Indices 1 2 3 4 5 6 
#
# 1 0.022764 -0.011681 -0.010651 0.000000 0.000000 0.000000
# 2 -0.011681 0.024436 -0.005737 0.000000 0.000000 0.000000
# 3 -0.010651 -0.005737 0.032989 0.000000 0.000000 0.000000
# 4 0.000000 0.000000 0.000000 0.056093 0.000000 0.000000
# 5 0.000000 0.000000 0.000000 0.000000 0.213965 0.000000
# 6 0.000000 0.000000 0.000000 0.000000 0.000000 0.045931
#
#
# Mechanical properties :
#
#
# Convention : Reuss Voigt Hill
#
# Bulk Modulus (GPa) = 41.58120 48.54263 45.06192
# Shear Modulus (GPa) = 10.86169 14.86035 12.86102
#
# Velocity S-wave (km/s) = 2.43596 2.84928 2.65069
# Velocity P-wave (km/s) = 5.53428 6.11098 5.82977
#
# Compressibility (1/GPa) = 0.02404933
#
# Stress axis : x y z
#
# Youngs Moduli (GPa) = 43.92988 40.92338 30.31278
#
# Poissons Ratio (x) = 0.47805 0.32287
# Poissons Ratio (y) = 0.51317 0.17390
# Poissons Ratio (z) = 0.46791 0.23477
#
# Static dielectric constant tensor:
#      x y z
#    x 3.289170 0.000000 0.000000 
#    y 0.000000 3.616580 0.000000 
#    z 0.000000 0.000000 3.255820 
# 
# 
# High freq. dielectric constant tensor:
#      x y z
#    x 1.696560 0.000000 0.000000 
#    y 0.000000 1.712340 0.000000 
#    z 0.000000 0.000000 1.690290 
# 
# From -- ./inp_files/8732.got.cif
#   From: 2010.03.12/outbox.cif.g09.slc.cpg/sg55_5_cif.got.tgz:8732.got - 2010.04.16 15:19:21.
