data_PCOD8226636
_publ_section_title
;
Structure prediction by ZEFSAII (Michael W. Deem and Ramdas Pophale) SiO2 
 PCOD8226636
Probable space group: P B A M
;
_chemical_formula_sum "Si O2"
_cell_formula_units_Z 56
_cell_length_a 11.918293
_cell_length_b 17.384768
_cell_length_c 13.611599
_cell_angle_alpha 90.000000
_cell_angle_beta 90.000000
_cell_angle_gamma 90.000000
_cell_volume 2820.279194
_symmetry_space_group_name_H-M "P B A M"
_symmetry_group_IT_number 55
_symmetry_cell_setting 'orthorhombic'
loop_
_space_group_symop_operation_xyz
x,y,z
-x,-y,z
1/2+x,1/2-y,-z
1/2-x,1/2+y,-z
-x,-y,-z
x,y,-z
1/2-x,1/2+y,z
1/2+x,1/2-y,z
loop_
_atom_site_type_symbol
_atom_site_label
_atom_site_fract_x
_atom_site_fract_y
_atom_site_fract_z
Si Si1 0.425475 0.929141 0.389292
Si Si2 0.513172 0.834704 0.220324
Si Si3 0.195383 0.372561 0.887360
Si Si4 0.823169 0.450227 0.886480
Si Si5 0.910078 0.942846 0.211743
Si Si6 0.094910 0.831046 0.245175
Si Si7 0.833367 0.047308 0.387211
O O1 0.451350 0.903443 0.500000
O O2 0.455974 0.856773 0.322892
O O3 0.299220 0.956450 0.375781
O O4 0.500000 0.000000 0.355513
O O5 0.408440 0.818843 0.146855
O O6 0.592738 0.901054 0.178794
O O7 0.590037 0.760761 0.242050
O O8 0.153270 0.459763 0.868535
O O9 0.310853 0.359063 0.830831
O O10 0.221770 0.355542 0.000000
O O11 0.696268 0.431126 0.856871
O O12 0.841110 0.427970 0.000000
O O13 0.969846 0.860307 0.219466
O O14 0.882232 0.978905 0.319456
O O15 0.000000 0.000000 0.160028
O O16 0.125946 0.868136 0.350921
O O17 0.871323 0.034831 0.500000
#
# Coordination Sequence:
#
# PCOD8226636 Si02
#       7
#     8   8   8   8   8   8   8
#     4  10  20  37  65  94 122 161 206 258 314 372
#     4  12  24  40  63  90 130 164 209 266 322 382
#     4  11  23  43  64  88 121 165 218 268 316 377
#     4  11  23  40  67  94 119 165 223 265 310 376
#     4  10  20  39  62  91 128 165 206 257 315 372
#     4  11  25  40  59  93 131 167 203 260 325 380
#     4  10  20  40  68  96 125 164 213 257 312 381
#
# _framework density 19.856190999999999
#
# number of rings (size 3 to 8) (size 9 to 14) (size 15 to 20)
#    0.000    1.286    4.286    2.571    2.000    6.286 
#    0.000    0.000    0.000    0.000    0.000    0.000 
#    0.000    0.000    0.000    0.000    0.000    0.000 
#
# Total GULP energy -694329.696556 kJ/mol
# GULP energy per Si atom -12398.744581 kJ/mol
# Density = 1.981100 g / cm^3
# Si number density = 19.856191 Si / 1000 Ang^3
#
#
#
# Elastic Constant Matrix: (Units=GPa)
#
#
# Indices 1 2 3 4 5 6 
#
# 1 95.1417 29.8312 31.0041 0.0000 0.0000 0.0000
# 2 29.8312 75.8446 35.8461 0.0000 0.0000 0.0000
# 3 31.0041 35.8461 74.2463 0.0000 0.0000 0.0000
# 4 0.0000 0.0000 0.0000 5.4826 0.0000 0.0000
# 5 0.0000 0.0000 0.0000 0.0000 16.5448 0.0000
# 6 0.0000 0.0000 0.0000 0.0000 0.0000 28.4564
#
#
#
# Elastic Compliance Matrix: (Units=1/GPa)
#
#
# Indices 1 2 3 4 5 6 
#
# 1 0.012752 -0.003238 -0.003762 0.000000 0.000000 0.000000
# 2 -0.003238 0.017905 -0.007293 0.000000 0.000000 0.000000
# 3 -0.003762 -0.007293 0.018560 0.000000 0.000000 0.000000
# 4 0.000000 0.000000 0.000000 0.182396 0.000000 0.000000
# 5 0.000000 0.000000 0.000000 0.000000 0.060442 0.000000
# 6 0.000000 0.000000 0.000000 0.000000 0.000000 0.035141
#
#
# Mechanical properties :
#
#
# Convention : Reuss Voigt Hill
#
# Bulk Modulus (GPa) = 48.46567 48.73281 48.59924
# Shear Modulus (GPa) = 13.78710 20.00018 16.89364
#
# Velocity S-wave (km/s) = 2.63791 3.17717 2.92001
# Velocity P-wave (km/s) = 5.80856 6.16890 5.99144
#
# Compressibility (1/GPa) = 0.02063316
#
# Stress axis : x y z
#
# Youngs Moduli (GPa) = 78.42143 55.85076 53.87830
#
# Poissons Ratio (x) = 0.18082 0.20268
# Poissons Ratio (y) = 0.25389 0.39291
# Poissons Ratio (z) = 0.29500 0.40729
#
# Static dielectric constant tensor:
#      x y z
#    x 3.875000 0.000000 0.000000 
#    y 0.000000 3.427480 0.000000 
#    z 0.000000 0.000000 3.732010 
# 
# 
# High freq. dielectric constant tensor:
#      x y z
#    x 1.799090 0.000000 0.000000 
#    y 0.000000 1.748020 0.000000 
#    z 0.000000 0.000000 1.776550 
# 
# From -- ./inp_files/18379.got.cif
#   From: 2010.03.12/outbox.cif.g09.slc.cpg/sg55_10_cif.got.tgz:18379.got - 2010.04.16 15:19:21.
