data_PCOD8226640
_publ_section_title
;
Structure prediction by ZEFSAII (Michael W. Deem and Ramdas Pophale) SiO2 
 PCOD8226640
Probable space group: P B A M
;
_chemical_formula_sum "Si O2"
_cell_formula_units_Z 56
_cell_length_a 16.798495
_cell_length_b 11.440960
_cell_length_c 13.594477
_cell_angle_alpha 90.000000
_cell_angle_beta 90.000000
_cell_angle_gamma 90.000000
_cell_volume 2612.734897
_symmetry_space_group_name_H-M "P B A M"
_symmetry_group_IT_number 55
_symmetry_cell_setting 'orthorhombic'
loop_
_space_group_symop_operation_xyz
x,y,z
-x,-y,z
1/2+x,1/2-y,-z
1/2-x,1/2+y,-z
-x,-y,-z
x,y,-z
1/2-x,1/2+y,z
1/2+x,1/2-y,z
loop_
_atom_site_type_symbol
_atom_site_label
_atom_site_fract_x
_atom_site_fract_y
_atom_site_fract_z
Si Si1 0.096806 0.828442 0.196831
Si Si2 0.216274 0.654044 0.242462
Si Si3 0.847792 0.935417 0.885733
Si Si4 0.008733 0.863391 0.609031
Si Si5 0.087614 0.467956 0.716421
Si Si6 0.948137 0.706062 0.112710
Si Si7 0.154696 0.253350 0.614499
O O1 0.184595 0.771255 0.187798
O O2 0.075023 0.827112 0.312579
O O3 0.036987 0.750294 0.133228
O O4 0.097951 0.960198 0.156252
O O5 0.262811 0.569297 0.167810
O O6 0.136976 0.586943 0.276308
O O7 0.270926 0.692652 0.333069
O O8 0.889413 0.812667 0.863166
O O9 0.834033 0.958167 0.000000
O O10 0.031167 0.814065 0.500000
O O11 0.924725 0.814437 0.646385
O O12 0.000000 0.000000 0.602923
O O13 0.075917 0.404657 0.821659
O O14 0.139437 0.387563 0.643530
O O15 0.000000 0.500000 0.673211
O O16 0.941327 0.666037 0.000000
O O17 0.172932 0.244197 0.500000
#
# Coordination Sequence:
#
# PCOD8226640 Si02
#       7
#     8   8   8   8   8   8   8
#     4  12  22  42  68  95 132 175 230 285 342 404
#     4  12  25  43  66  94 142 181 221 281 342 406
#     4  11  25  42  66  97 132 176 227 285 344 405
#     4  10  20  37  66  97 128 168 220 279 338 401
#     4  12  24  47  69 100 140 183 223 283 341 407
#     4  11  23  43  69  99 132 175 231 285 340 407
#     4  11  24  44  68  99 134 175 227 276 339 410
#
# _framework density 21.433479999999999
#
# number of rings (size 3 to 8) (size 9 to 14) (size 15 to 20)
#    0.000    0.714    4.286    3.429    0.000    4.571 
#    0.000    1.429    0.000    0.000    0.000    0.000 
#    0.000    0.000    0.000    0.000    0.000    0.000 
#
# Total GULP energy -694621.239520 kJ/mol
# GULP energy per Si atom -12403.950706 kJ/mol
# Density = 2.138470 g / cm^3
# Si number density = 21.433480 Si / 1000 Ang^3
#
#
#
# Elastic Constant Matrix: (Units=GPa)
#
#
# Indices 1 2 3 4 5 6 
#
# 1 104.1518 31.5672 46.3182 0.0000 0.0000 0.0000
# 2 31.5672 81.1023 25.8208 0.0000 0.0000 0.0000
# 3 46.3182 25.8208 94.2733 0.0000 0.0000 0.0000
# 4 0.0000 0.0000 0.0000 18.9440 0.0000 0.0000
# 5 0.0000 0.0000 0.0000 0.0000 21.0491 0.0000
# 6 0.0000 0.0000 0.0000 0.0000 0.0000 47.2542
#
#
#
# Elastic Compliance Matrix: (Units=1/GPa)
#
#
# Indices 1 2 3 4 5 6 
#
# 1 0.013058 -0.003330 -0.005504 0.000000 0.000000 0.000000
# 2 -0.003330 0.014357 -0.002296 0.000000 0.000000 0.000000
# 3 -0.005504 -0.002296 0.013940 0.000000 0.000000 0.000000
# 4 0.000000 0.000000 0.000000 0.052787 0.000000 0.000000
# 5 0.000000 0.000000 0.000000 0.000000 0.047508 0.000000
# 6 0.000000 0.000000 0.000000 0.000000 0.000000 0.021162
#
#
# Mechanical properties :
#
#
# Convention : Reuss Voigt Hill
#
# Bulk Modulus (GPa) = 52.36746 54.10441 53.23594
# Shear Modulus (GPa) = 26.11800 29.17089 27.64444
#
# Velocity S-wave (km/s) = 3.49458 3.69317 3.59524
# Velocity P-wave (km/s) = 6.38501 6.59422 6.49046
#
# Compressibility (1/GPa) = 0.01909583
#
# Stress axis : x y z
#
# Youngs Moduli (GPa) = 76.57940 69.65037 71.73419
#
# Poissons Ratio (x) = 0.23197 0.39480
# Poissons Ratio (y) = 0.25504 0.16471
# Poissons Ratio (z) = 0.42146 0.15992
#
# Static dielectric constant tensor:
#      x y z
#    x 3.850460 0.000000 0.000000 
#    y 0.000000 3.855570 0.000000 
#    z 0.000000 0.000000 4.040840 
# 
# 
# High freq. dielectric constant tensor:
#      x y z
#    x 1.842040 0.000000 0.000000 
#    y 0.000000 1.850380 0.000000 
#    z 0.000000 0.000000 1.841960 
# 
# From -- ./inp_files/18388.got.cif
#   From: 2010.03.12/outbox.cif.g09.slc.cpg/sg55_10_cif.got.tgz:18388.got - 2010.04.16 15:19:21.
