data_PCOD8226310
_publ_section_title
;
Structure prediction by ZEFSAII (Michael W. Deem and Ramdas Pophale) SiO2 
 PCOD8226310
Probable space group: P B A M
;
_chemical_formula_sum "Si O2"
_cell_formula_units_Z 64
_cell_length_a 15.790271
_cell_length_b 21.690969
_cell_length_c 8.828053
_cell_angle_alpha 90.000000
_cell_angle_beta 90.000000
_cell_angle_gamma 90.000000
_cell_volume 3023.663582
_symmetry_space_group_name_H-M "P B A M"
_symmetry_group_IT_number 55
_symmetry_cell_setting 'orthorhombic'
loop_
_space_group_symop_operation_xyz
x,y,z
-x,-y,z
1/2+x,1/2-y,-z
1/2-x,1/2+y,-z
-x,-y,-z
x,y,-z
1/2-x,1/2+y,z
1/2+x,1/2-y,z
loop_
_atom_site_type_symbol
_atom_site_label
_atom_site_fract_x
_atom_site_fract_y
_atom_site_fract_z
Si Si1 0.740959 0.520555 0.176701
Si Si2 0.357299 0.758241 0.177685
Si Si3 0.444360 0.443341 0.820613
Si Si4 0.537287 0.933916 0.337251
Si Si5 0.639774 0.115520 0.673275
Si Si6 0.816715 0.396698 0.169335
Si Si7 0.686087 0.774103 0.675947
Si Si8 0.533547 0.696898 0.819859
O O1 0.651440 0.546153 0.233996
O O2 0.813406 0.553639 0.273513
O O3 0.741709 0.445893 0.203177
O O4 0.756177 0.534637 0.000000
O O5 0.335572 0.828199 0.219434
O O6 0.279629 0.722453 0.251953
O O7 0.448202 0.732057 0.236961
O O8 0.353322 0.748128 0.000000
O O9 0.500000 0.500000 0.751740
O O10 0.473299 0.374895 0.766528
O O11 0.450578 0.446555 0.000000
O O12 0.581417 0.917087 0.500000
O O13 0.460553 0.887241 0.308275
O O14 0.597688 0.936108 0.190458
O O15 0.500000 0.000000 0.357615
O O16 0.666255 0.129224 0.500000
O O17 0.837667 0.344767 0.293737
O O18 0.808377 0.369275 0.000000
O O19 0.689961 0.757883 0.500000
O O20 0.618063 0.727875 0.750794
O O21 0.542722 0.701283 0.000000
#
# Coordination Sequence:
#
# PCOD8226310 Si02
#       8
#     8   8   8   8   8   8   8   8
#     4  10  21  36  60  92 124 160 203 258 312 372
#     4  11  24  41  65  94 126 164 215 266 317 378
#     4   9  19  37  65  94 121 152 194 247 312 372
#     4  10  20  36  56  84 124 167 202 244 304 370
#     4  11  22  37  60  88 123 165 209 251 309 376
#     4  11  23  37  59  91 126 163 211 261 312 371
#     4  12  26  43  65  91 127 172 215 264 324 385
#     4  10  22  42  69  98 128 167 211 266 322 379
#
# _framework density 21.166377000000001
#
# number of rings (size 3 to 8) (size 9 to 14) (size 15 to 20)
#    0.000    1.500    1.250    3.750    1.750    5.750 
#    0.000    0.000    0.000    0.750    0.000    0.000 
#    0.000    0.000    0.000    0.000    0.000    0.000 
#
# Total GULP energy -793021.043588 kJ/mol
# GULP energy per Si atom -12390.953806 kJ/mol
# Density = 2.111820 g / cm^3
# Si number density = 21.166377 Si / 1000 Ang^3
#
#
#
# Elastic Constant Matrix: (Units=GPa)
#
#
# Indices 1 2 3 4 5 6 
#
# 1 100.1975 32.8233 38.3444 0.0000 0.0000 0.0000
# 2 32.8233 113.3327 30.0010 0.0000 0.0000 0.0000
# 3 38.3444 30.0010 69.3562 0.0000 0.0000 0.0000
# 4 0.0000 0.0000 0.0000 24.8481 0.0000 0.0000
# 5 0.0000 0.0000 0.0000 0.0000 23.6497 0.0000
# 6 0.0000 0.0000 0.0000 0.0000 0.0000 29.8452
#
#
#
# Elastic Compliance Matrix: (Units=1/GPa)
#
#
# Indices 1 2 3 4 5 6 
#
# 1 0.013094 -0.002119 -0.006323 0.000000 0.000000 0.000000
# 2 -0.002119 0.010307 -0.003287 0.000000 0.000000 0.000000
# 3 -0.006323 -0.003287 0.019336 0.000000 0.000000 0.000000
# 4 0.000000 0.000000 0.000000 0.040245 0.000000 0.000000
# 5 0.000000 0.000000 0.000000 0.000000 0.042284 0.000000
# 6 0.000000 0.000000 0.000000 0.000000 0.000000 0.033506
#
#
# Mechanical properties :
#
#
# Convention : Reuss Voigt Hill
#
# Bulk Modulus (GPa) = 51.86724 53.91376 52.89050
# Shear Modulus (GPa) = 26.50332 27.78311 27.14322
#
# Velocity S-wave (km/s) = 3.54240 3.62692 3.58491
# Velocity P-wave (km/s) = 6.42567 6.56248 6.49443
#
# Compressibility (1/GPa) = 0.01927999
#
# Stress axis : x y z
#
# Youngs Moduli (GPa) = 76.37135 97.01811 51.71724
#
# Poissons Ratio (x) = 0.20553 0.32699
# Poissons Ratio (y) = 0.16179 0.17001
# Poissons Ratio (z) = 0.48288 0.31893
#
# Static dielectric constant tensor:
#      x y z
#    x 2.881580 0.000000 0.000000 
#    y 0.000000 4.458420 0.000000 
#    z 0.000000 0.000000 3.608390 
# 
# 
# High freq. dielectric constant tensor:
#      x y z
#    x 1.833460 0.000000 0.000000 
#    y 0.000000 1.844900 0.000000 
#    z 0.000000 0.000000 1.808970 
# 
# From -- ./inp_files/6723.got.cif
#   From: 2010.03.12/outbox.cif.g09.slc.cpg/sg55_4_cif.got.tgz:6723.got - 2010.04.16 15:19:21.
