data_PCOD8226846
_publ_section_title
;
Structure prediction by ZEFSAII (Michael W. Deem and Ramdas Pophale) SiO2 
 PCOD8226846
Probable space group: P B A M
;
_chemical_formula_sum "Si O2"
_cell_formula_units_Z 64
_cell_length_a 11.014707
_cell_length_b 32.230091
_cell_length_c 8.818991
_cell_angle_alpha 90.000000
_cell_angle_beta 90.000000
_cell_angle_gamma 90.000000
_cell_volume 3130.785979
_symmetry_space_group_name_H-M "P B A M"
_symmetry_group_IT_number 55
_symmetry_cell_setting 'orthorhombic'
loop_
_space_group_symop_operation_xyz
x,y,z
-x,-y,z
1/2+x,1/2-y,-z
1/2-x,1/2+y,-z
-x,-y,-z
x,y,-z
1/2-x,1/2+y,z
1/2+x,1/2-y,z
loop_
_atom_site_type_symbol
_atom_site_label
_atom_site_fract_x
_atom_site_fract_y
_atom_site_fract_z
Si Si1 0.652627 0.098500 0.169677
Si Si2 0.528526 0.178247 0.168625
Si Si3 0.374752 0.339999 0.825752
Si Si4 0.131594 0.486122 0.322669
Si Si5 0.776347 0.727777 0.324010
Si Si6 0.117161 0.025920 0.680476
Si Si7 0.749953 0.312144 0.829012
Si Si8 0.104625 0.120355 0.321405
O O1 0.537227 0.128620 0.196637
O O2 0.770922 0.126145 0.197017
O O3 0.648773 0.062373 0.292105
O O4 0.651816 0.079415 0.000000
O O5 0.599587 0.202758 0.298153
O O6 0.392767 0.193118 0.174231
O O7 0.585578 0.187132 0.000000
O O8 0.332102 0.294919 0.766903
O O9 0.485392 0.354804 0.724352
O O10 0.415247 0.335817 0.000000
O O11 0.127548 0.494661 0.500000
O O12 0.251995 0.509365 0.255852
O O13 0.000000 0.500000 0.252019
O O14 0.743078 0.728722 0.500000
O O15 0.803543 0.773900 0.264968
O O16 0.117950 0.022838 0.500000
O O17 0.101046 0.073049 0.738026
O O18 0.000000 0.000000 0.742858
O O19 0.717703 0.356000 0.753179
O O20 0.698834 0.310777 0.000000
O O21 0.120689 0.120841 0.500000
#
# Coordination Sequence:
#
# PCOD8226846 Si02
#       8
#     8   8   8   8   8   8   8   8
#     4   9  19  37  60  86 114 150 198 246 291 350
#     4   9  21  41  62  84 116 159 202 242 298 363
#     4  10  21  40  63  87 120 159 199 242 297 363
#     4  10  21  35  56  86 118 156 199 244 302 369
#     4  11  23  39  62  91 120 152 200 253 297 350
#     4   9  19  37  59  85 121 160 197 247 310 370
#     4  11  24  41  61  84 120 164 200 243 303 364
#     4  11  23  38  61  91 122 156 202 254 304 355
#
# _framework density 20.442150000000002
#
# number of rings (size 3 to 8) (size 9 to 14) (size 15 to 20)
#    0.000    2.000    0.000    3.750    3.500    4.750 
#    0.000    1.250    0.000    3.375    0.000    0.000 
#    0.000    0.000    0.000    0.000    0.000    0.000 
#
# Total GULP energy -793516.668702 kJ/mol
# GULP energy per Si atom -12398.697948 kJ/mol
# Density = 2.039562 g / cm^3
# Si number density = 20.442150 Si / 1000 Ang^3
#
#
#
# Elastic Constant Matrix: (Units=GPa)
#
#
# Indices 1 2 3 4 5 6 
#
# 1 97.8308 39.1540 19.7467 0.0000 0.0000 0.0000
# 2 39.1540 129.1447 35.6707 0.0000 0.0000 0.0000
# 3 19.7467 35.6707 68.5077 0.0000 0.0000 0.0000
# 4 0.0000 0.0000 0.0000 30.9595 0.0000 0.0000
# 5 0.0000 0.0000 0.0000 0.0000 24.3990 0.0000
# 6 0.0000 0.0000 0.0000 0.0000 0.0000 24.8653
#
#
#
# Elastic Compliance Matrix: (Units=1/GPa)
#
#
# Indices 1 2 3 4 5 6 
#
# 1 0.011820 -0.003087 -0.001800 0.000000 0.000000 0.000000
# 2 -0.003087 0.009850 -0.004239 0.000000 0.000000 0.000000
# 3 -0.001800 -0.004239 0.017323 0.000000 0.000000 0.000000
# 4 0.000000 0.000000 0.000000 0.032300 0.000000 0.000000
# 5 0.000000 0.000000 0.000000 0.000000 0.040985 0.000000
# 6 0.000000 0.000000 0.000000 0.000000 0.000000 0.040217
#
#
# Mechanical properties :
#
#
# Convention : Reuss Voigt Hill
#
# Bulk Modulus (GPa) = 48.21115 53.84733 51.02924
# Shear Modulus (GPa) = 28.14359 29.43889 28.79124
#
# Velocity S-wave (km/s) = 3.71447 3.79899 3.75697
# Velocity P-wave (km/s) = 6.48319 6.75586 6.62093
#
# Compressibility (1/GPa) = 0.02074209
#
# Stress axis : x y z
#
# Youngs Moduli (GPa) = 84.59995 101.52437 57.72705
#
# Poissons Ratio (x) = 0.31336 0.10391
# Poissons Ratio (y) = 0.26112 0.24470
# Poissons Ratio (z) = 0.15228 0.43036
#
# Static dielectric constant tensor:
#      x y z
#    x 3.863960 0.000000 0.000000 
#    y 0.000000 3.755870 0.000000 
#    z 0.000000 0.000000 3.550380 
# 
# 
# High freq. dielectric constant tensor:
#      x y z
#    x 1.804090 0.000000 0.000000 
#    y 0.000000 1.804310 0.000000 
#    z 0.000000 0.000000 1.781300 
# 
# From -- ./inp_files/4685.got.cif
#   From: 2010.03.12/outbox.cif.g09.slc.cpg/sg55_3_cif.got.tgz:4685.got - 2010.04.16 15:19:21.
