data_PCOD8226029
_publ_section_title
;
Structure prediction by ZEFSAII (Michael W. Deem and Ramdas Pophale) SiO2 
 PCOD8226029
Probable space group: P B A M
;
_chemical_formula_sum "Si O2"
_cell_formula_units_Z 40
_cell_length_a 8.805686
_cell_length_b 25.123777
_cell_length_c 9.113830
_cell_angle_alpha 90.000000
_cell_angle_beta 90.000000
_cell_angle_gamma 90.000000
_cell_volume 2016.271672
_symmetry_space_group_name_H-M "P B A M"
_symmetry_group_IT_number 55
_symmetry_cell_setting 'orthorhombic'
loop_
_space_group_symop_operation_xyz
x,y,z
-x,-y,z
1/2+x,1/2-y,-z
1/2-x,1/2+y,-z
-x,-y,-z
x,y,-z
1/2-x,1/2+y,z
1/2+x,1/2-y,z
loop_
_atom_site_type_symbol
_atom_site_label
_atom_site_fract_x
_atom_site_fract_y
_atom_site_fract_z
Si Si1 0.390894 0.817574 0.331448
Si Si2 0.676841 0.487012 0.665873
Si Si3 0.889667 0.884984 0.828879
Si Si4 0.764216 0.290854 0.668969
Si Si5 0.235979 0.910419 0.828984
O O1 0.372646 0.835264 0.500000
O O2 0.559668 0.798120 0.296383
O O3 0.276076 0.769900 0.293312
O O4 0.355647 0.867614 0.229274
O O5 0.500000 0.500000 0.670576
O O6 0.737505 0.482515 0.500000
O O7 0.705567 0.431072 0.746890
O O8 0.767839 0.533615 0.748504
O O9 0.836142 0.828180 0.771664
O O10 0.067494 0.889706 0.793958
O O11 0.855942 0.890542 0.000000
O O12 0.724307 0.303801 0.500000
O O13 0.262176 0.919588 0.000000
#
# Coordination Sequence:
#
# PCOD8226029 Si02
#       5
#     8   8   8   8   8
#     4  10  21  37  57  80 106 139 180 224 269 318
#     4   9  17  31  54  81 108 141 180 220 262 311
#     4  10  20  34  54  81 112 144 178 218 265 317
#     4  10  21  37  57  80 106 139 180 224 269 318
#     4  10  20  34  54  81 112 144 178 218 265 317
#
# _framework density 19.838598000000001
#
# number of rings (size 3 to 8) (size 9 to 14) (size 15 to 20)
#    0.000    2.200    0.000    3.000    0.000    8.000 
#    0.000    1.000    0.000    6.000    0.000    0.000 
#    0.000    0.000    0.000    0.000    0.000    0.000 
#
# Total GULP energy -496192.448422 kJ/mol
# GULP energy per Si atom -12404.811211 kJ/mol
# Density = 1.979344 g / cm^3
# Si number density = 19.838598 Si / 1000 Ang^3
#
#
#
# Elastic Constant Matrix: (Units=GPa)
#
#
# Indices 1 2 3 4 5 6 
#
# 1 29.6995 -7.0709 15.1180 0.0000 0.0000 0.0000
# 2 -7.0709 46.0932 21.0503 0.0000 0.0000 0.0000
# 3 15.1180 21.0503 89.0868 0.0000 0.0000 0.0000
# 4 0.0000 0.0000 0.0000 33.0357 0.0000 0.0000
# 5 0.0000 0.0000 0.0000 0.0000 25.3521 0.0000
# 6 0.0000 0.0000 0.0000 0.0000 0.0000 26.5394
#
#
#
# Elastic Compliance Matrix: (Units=1/GPa)
#
#
# Indices 1 2 3 4 5 6 
#
# 1 0.041019 0.010617 -0.009470 0.000000 0.000000 0.000000
# 2 0.010617 0.027068 -0.008198 0.000000 0.000000 0.000000
# 3 -0.009470 -0.008198 0.014769 0.000000 0.000000 0.000000
# 4 0.000000 0.000000 0.000000 0.030270 0.000000 0.000000
# 5 0.000000 0.000000 0.000000 0.000000 0.039445 0.000000
# 6 0.000000 0.000000 0.000000 0.000000 0.000000 0.037680
#
#
# Mechanical properties :
#
#
# Convention : Reuss Voigt Hill
#
# Bulk Modulus (GPa) = 14.54434 24.78603 19.66519
# Shear Modulus (GPa) = 22.00044 26.03757 24.01900
#
# Velocity S-wave (km/s) = 3.33373 3.62673 3.48332
# Velocity P-wave (km/s) = 4.70804 5.48257 5.11000
#
# Compressibility (1/GPa) = 0.06875525
#
# Stress axis : x y z
#
# Youngs Moduli (GPa) = 24.37917 36.94454 67.70953
#
# Poissons Ratio (x) = -0.39224 0.64118
# Poissons Ratio (y) = -0.25884 0.55505
# Poissons Ratio (z) = 0.23086 0.30285
#
# Static dielectric constant tensor:
#      x y z
#    x 3.347970 0.000000 0.000000 
#    y 0.000000 3.655250 0.000000 
#    z 0.000000 0.000000 3.614350 
# 
# 
# High freq. dielectric constant tensor:
#      x y z
#    x 1.749290 0.000000 0.000000 
#    y 0.000000 1.784080 0.000000 
#    z 0.000000 0.000000 1.776750 
# 
# From -- ./inp_files/2279.got.cif
#   From: 2010.03.12/outbox.cif.g09.slc.cpg/sg55_2_cif.got.tgz:2279.got - 2010.04.16 15:19:21.
