data_PCOD8226522
_publ_section_title
;
Structure prediction by ZEFSAII (Michael W. Deem and Ramdas Pophale) SiO2 
 PCOD8226522
Probable space group: P B A M
;
_chemical_formula_sum "Si O2"
_cell_formula_units_Z 48
_cell_length_a 9.492684
_cell_length_b 31.287902
_cell_length_c 7.807842
_cell_angle_alpha 90.000000
_cell_angle_beta 90.000000
_cell_angle_gamma 90.000000
_cell_volume 2318.977223
_symmetry_space_group_name_H-M "P B A M"
_symmetry_group_IT_number 55
_symmetry_cell_setting 'orthorhombic'
loop_
_space_group_symop_operation_xyz
x,y,z
-x,-y,z
1/2+x,1/2-y,-z
1/2-x,1/2+y,-z
-x,-y,-z
x,y,-z
1/2-x,1/2+y,z
1/2+x,1/2-y,z
loop_
_atom_site_type_symbol
_atom_site_label
_atom_site_fract_x
_atom_site_fract_y
_atom_site_fract_z
Si Si1 0.873954 0.625955 0.700532
Si Si2 0.445989 0.203650 0.705300
Si Si3 0.987993 0.925434 0.000000
Si Si4 0.127388 0.469821 0.315168
Si Si5 0.630451 0.281888 0.699323
Si Si6 0.789948 0.003827 0.000000
Si Si7 0.051708 0.864961 0.699686
O O1 0.888453 0.630065 0.500000
O O2 0.909921 0.577433 0.759015
O O3 0.715314 0.639213 0.754399
O O4 0.989087 0.658975 0.777943
O O5 0.440780 0.204267 0.500000
O O6 0.551358 0.240428 0.775669
O O7 0.286877 0.210383 0.779421
O O8 0.977730 0.898916 0.175724
O O9 0.130431 0.951666 0.000000
O O10 0.865223 0.959132 0.000000
O O11 0.208532 0.463663 0.500000
O O12 0.207504 0.497223 0.176104
O O13 0.000000 0.500000 0.358660
O O14 0.653039 0.274563 0.500000
O O15 0.526435 0.320907 0.736248
O O16 0.035681 0.878940 0.500000
#
# Coordination Sequence:
#
# PCOD8226522 Si02
#       7
#     8   8   4   8   8   4   8
#     4   9  17  31  53  80 112 151 194 239 290 348
#     4   9  16  28  50  84 118 150 193 237 287 354
#     4  11  24  38  60  85 115 156 196 243 299 355
#     4  10  21  38  61  87 118 156 199 250 303 359
#     4   9  17  29  51  83 117 152 190 237 289 347
#     4  11  23  40  58  85 118 153 196 247 298 356
#     4  10  20  37  59  83 115 155 196 241 295 352
#
# _framework density 20.698778999999998
#
# number of rings (size 3 to 8) (size 9 to 14) (size 15 to 20)
#    0.000    2.333    1.667    1.250    0.000    6.000 
#    0.000    5.000    0.000    5.000    0.000    0.000 
#    0.000    0.000    0.000    0.000    0.000    0.000 
#
# Total GULP energy -594657.309186 kJ/mol
# GULP energy per Si atom -12388.693941 kJ/mol
# Density = 2.065167 g / cm^3
# Si number density = 20.698779 Si / 1000 Ang^3
#
#
#
# Elastic Constant Matrix: (Units=GPa)
#
#
# Indices 1 2 3 4 5 6 
#
# 1 140.8067 87.0469 19.1309 0.0000 0.0000 0.0000
# 2 87.0469 144.0236 23.5763 0.0000 0.0000 0.0000
# 3 19.1309 23.5763 73.5809 0.0000 0.0000 0.0000
# 4 0.0000 0.0000 0.0000 12.4866 0.0000 0.0000
# 5 0.0000 0.0000 0.0000 0.0000 3.5200 0.0000
# 6 0.0000 0.0000 0.0000 0.0000 0.0000 52.6096
#
#
#
# Elastic Compliance Matrix: (Units=1/GPa)
#
#
# Indices 1 2 3 4 5 6 
#
# 1 0.011382 -0.006749 -0.000797 0.000000 0.000000 0.000000
# 2 -0.006749 0.011329 -0.001875 0.000000 0.000000 0.000000
# 3 -0.000797 -0.001875 0.014399 0.000000 0.000000 0.000000
# 4 0.000000 0.000000 0.000000 0.080086 0.000000 0.000000
# 5 0.000000 0.000000 0.000000 0.000000 0.284094 0.000000
# 6 0.000000 0.000000 0.000000 0.000000 0.000000 0.019008
#
#
# Mechanical properties :
#
#
# Convention : Reuss Voigt Hill
#
# Bulk Modulus (GPa) = 54.74119 68.65770 61.69945
# Shear Modulus (GPa) = 11.23013 28.96704 20.09859
#
# Velocity S-wave (km/s) = 2.33180 3.74499 3.11947
# Velocity P-wave (km/s) = 5.80979 7.20707 6.54582
#
# Compressibility (1/GPa) = 0.01826778
#
# Stress axis : x y z
#
# Youngs Moduli (GPa) = 87.85435 88.26622 69.45134
#
# Poissons Ratio (x) = 0.59571 0.05535
# Poissons Ratio (y) = 0.59293 0.13025
# Poissons Ratio (z) = 0.07001 0.16553
#
# Static dielectric constant tensor:
#      x y z
#    x 3.895950 0.000000 0.000000 
#    y 0.000000 4.061510 0.000000 
#    z 0.000000 0.000000 3.345520 
# 
# 
# High freq. dielectric constant tensor:
#      x y z
#    x 1.801000 0.000000 0.000000 
#    y 0.000000 1.822150 0.000000 
#    z 0.000000 0.000000 1.784570 
# 
# From -- ./inp_files/2937.got.cif
#   From: 2010.03.12/outbox.cif.g09.slc.cpg/sg55_2_cif.got.tgz:2937.got - 2010.04.16 15:19:21.
