data_PCOD8226377
_publ_section_title
;
Structure prediction by ZEFSAII (Michael W. Deem and Ramdas Pophale) SiO2 
 PCOD8226377
Probable space group: P B A M
;
_chemical_formula_sum "Si O2"
_cell_formula_units_Z 48
_cell_length_a 9.500527
_cell_length_b 27.864397
_cell_length_c 9.258133
_cell_angle_alpha 90.000000
_cell_angle_beta 90.000000
_cell_angle_gamma 90.000000
_cell_volume 2450.872739
_symmetry_space_group_name_H-M "P B A M"
_symmetry_group_IT_number 55
_symmetry_cell_setting 'orthorhombic'
loop_
_space_group_symop_operation_xyz
x,y,z
-x,-y,z
1/2+x,1/2-y,-z
1/2-x,1/2+y,-z
-x,-y,-z
x,y,-z
1/2-x,1/2+y,z
1/2+x,1/2-y,z
loop_
_atom_site_type_symbol
_atom_site_label
_atom_site_fract_x
_atom_site_fract_y
_atom_site_fract_z
Si Si1 0.860099 0.207653 0.328433
Si Si2 0.320139 0.702131 0.672213
Si Si3 0.718894 0.605437 0.662623
Si Si4 0.224856 0.608155 0.166367
Si Si5 0.448109 0.948981 0.834372
Si Si6 0.061890 0.050000 0.337097
O O1 0.864347 0.206472 0.500000
O O2 0.772440 0.253085 0.272413
O O3 0.780017 0.159596 0.273443
O O4 0.020658 0.209880 0.271212
O O5 0.314253 0.696446 0.500000
O O6 0.250837 0.655404 0.740960
O O7 0.779034 0.604357 0.500000
O O8 0.808463 0.568319 0.754797
O O9 0.556094 0.590793 0.664760
O O10 0.315775 0.564185 0.227482
O O11 0.063323 0.592698 0.183212
O O12 0.264966 0.617344 0.000000
O O13 0.500000 0.000000 0.768951
O O14 0.406676 0.957257 0.000000
O O15 0.122525 0.044236 0.500000
O O16 0.000000 0.000000 0.281201
#
# Coordination Sequence:
#
# PCOD8226377 Si02
#       6
#     8   8   8   8   8   8
#     4   9  19  35  59  87 111 144 187 234 288 341
#     4  10  20  38  61  85 115 148 189 239 289 343
#     4  10  20  36  58  87 115 141 189 242 286 341
#     4  11  23  38  57  84 117 154 195 235 286 348
#     4  10  23  41  57  79 116 158 196 234 281 341
#     4  10  20  36  60  87 115 148 188 240 294 344
#
# _framework density 19.584859999999999
#
# number of rings (size 3 to 8) (size 9 to 14) (size 15 to 20)
#    0.000    2.000    1.667    1.500    2.333    2.667 
#    0.000    1.667    0.000    0.000    0.000    0.000 
#    0.000    0.000    0.000    0.000    0.000    0.000 
#
# Total GULP energy -595289.646182 kJ/mol
# GULP energy per Si atom -12401.867629 kJ/mol
# Density = 1.954028 g / cm^3
# Si number density = 19.584860 Si / 1000 Ang^3
#
#
#
# Elastic Constant Matrix: (Units=GPa)
#
#
# Indices 1 2 3 4 5 6 
#
# 1 62.0244 14.1642 21.4749 0.0000 0.0000 0.0000
# 2 14.1642 109.4401 16.5532 0.0000 0.0000 0.0000
# 3 21.4749 16.5532 48.7054 0.0000 0.0000 0.0000
# 4 0.0000 0.0000 0.0000 23.5542 0.0000 0.0000
# 5 0.0000 0.0000 0.0000 0.0000 18.2539 0.0000
# 6 0.0000 0.0000 0.0000 0.0000 0.0000 37.8690
#
#
#
# Elastic Compliance Matrix: (Units=1/GPa)
#
#
# Indices 1 2 3 4 5 6 
#
# 1 0.019193 -0.001269 -0.008031 0.000000 0.000000 0.000000
# 2 -0.001269 0.009717 -0.002743 0.000000 0.000000 0.000000
# 3 -0.008031 -0.002743 0.025005 0.000000 0.000000 0.000000
# 4 0.000000 0.000000 0.000000 0.042455 0.000000 0.000000
# 5 0.000000 0.000000 0.000000 0.000000 0.054783 0.000000
# 6 0.000000 0.000000 0.000000 0.000000 0.000000 0.026407
#
#
# Mechanical properties :
#
#
# Convention : Reuss Voigt Hill
#
# Bulk Modulus (GPa) = 33.52523 36.06162 34.79343
# Shear Modulus (GPa) = 23.63076 27.13392 25.38234
#
# Velocity S-wave (km/s) = 3.47736 3.72621 3.60393
# Velocity P-wave (km/s) = 5.76869 6.07995 5.92636
#
# Compressibility (1/GPa) = 0.02982828
#
# Stress axis : x y z
#
# Youngs Moduli (GPa) = 52.10178 102.91738 39.99237
#
# Poissons Ratio (x) = 0.13064 0.32118
# Poissons Ratio (y) = 0.06613 0.10968
# Poissons Ratio (z) = 0.41844 0.28226
#
# Static dielectric constant tensor:
#      x y z
#    x 3.528240 0.000000 0.000000 
#    y 0.000000 3.767830 0.000000 
#    z 0.000000 0.000000 3.303440 
# 
# 
# High freq. dielectric constant tensor:
#      x y z
#    x 1.762530 0.000000 0.000000 
#    y 0.000000 1.781890 0.000000 
#    z 0.000000 0.000000 1.732480 
# 
# From -- ./inp_files/2817.got.cif
#   From: 2010.03.12/outbox.cif.g09.slc.cpg/sg55_2_cif.got.tgz:2817.got - 2010.04.16 15:19:21.
