data_PCOD8226981
_publ_section_title
;
Structure prediction by ZEFSAII (Michael W. Deem and Ramdas Pophale) SiO2 
 PCOD8226981
Probable space group: P B A M
;
_chemical_formula_sum "Si O2"
_cell_formula_units_Z 40
_cell_length_a 9.649972
_cell_length_b 28.074733
_cell_length_c 7.782196
_cell_angle_alpha 90.000000
_cell_angle_beta 90.000000
_cell_angle_gamma 90.000000
_cell_volume 2108.355555
_symmetry_space_group_name_H-M "P B A M"
_symmetry_group_IT_number 55
_symmetry_cell_setting 'orthorhombic'
loop_
_space_group_symop_operation_xyz
x,y,z
-x,-y,z
1/2+x,1/2-y,-z
1/2-x,1/2+y,-z
-x,-y,-z
x,y,-z
1/2-x,1/2+y,z
1/2+x,1/2-y,z
loop_
_atom_site_type_symbol
_atom_site_label
_atom_site_fract_x
_atom_site_fract_y
_atom_site_fract_z
Si Si1 0.362134 0.060422 0.200792
Si Si2 0.677046 0.046124 0.799255
Si Si3 0.172537 0.143148 0.691389
Si Si4 0.848645 0.789393 0.000000
Si Si5 0.171683 0.804007 0.000000
Si Si6 0.360240 0.371073 0.308433
O O1 0.524150 0.065570 0.242751
O O2 0.282693 0.100783 0.304314
O O3 0.308946 0.008545 0.261331
O O4 0.333427 0.067144 0.000000
O O5 0.788344 0.077531 0.698955
O O6 0.707357 0.049945 0.000000
O O7 0.177406 0.165797 0.500000
O O8 0.206459 0.183686 0.830355
O O9 0.022070 0.121124 0.732428
O O10 0.014979 0.784180 0.000000
O O11 0.782804 0.737662 0.000000
O O12 0.203820 0.835005 0.830412
O O13 0.339192 0.349760 0.500000
#
# Coordination Sequence:
#
# PCOD8226981 Si02
#       6
#     8   8   8   4   4   8
#     4   9  18  33  54  81 113 148 185 223 264 314
#     4   9  18  33  54  81 113 148 185 223 264 314
#     4  10  21  37  57  82 111 143 181 222 267 322
#     4  10  22  40  59  80 107 139 176 225 277 324
#     4  10  22  40  59  80 107 139 176 225 277 324
#     4  10  21  37  57  82 111 143 181 222 267 322
#
# _framework density 18.972132999999999
#
# number of rings (size 3 to 8) (size 9 to 14) (size 15 to 20)
#    0.000    2.400    2.000    1.200    0.000    4.800 
#    0.000    6.000    0.000    0.000    0.000    0.000 
#    0.000    0.000    0.000    0.000    0.000    0.000 
#
# Total GULP energy -496026.695142 kJ/mol
# GULP energy per Si atom -12400.667379 kJ/mol
# Density = 1.892895 g / cm^3
# Si number density = 18.972133 Si / 1000 Ang^3
#
#
#
# Elastic Constant Matrix: (Units=GPa)
#
#
# Indices 1 2 3 4 5 6 
#
# 1 21.8087 0.0986 3.0691 0.0000 0.0000 0.0000
# 2 0.0986 36.9781 11.8931 0.0000 0.0000 0.0000
# 3 3.0691 11.8931 89.5117 0.0000 0.0000 0.0000
# 4 0.0000 0.0000 0.0000 11.1151 0.0000 0.0000
# 5 0.0000 0.0000 0.0000 0.0000 21.9744 0.0000
# 6 0.0000 0.0000 0.0000 0.0000 0.0000 39.1755
#
#
#
# Elastic Compliance Matrix: (Units=1/GPa)
#
#
# Indices 1 2 3 4 5 6 
#
# 1 0.046081 0.000402 -0.001633 0.000000 0.000000 0.000000
# 2 0.000402 0.028254 -0.003768 0.000000 0.000000 0.000000
# 3 -0.001633 -0.003768 0.011728 0.000000 0.000000 0.000000
# 4 0.000000 0.000000 0.000000 0.089968 0.000000 0.000000
# 5 0.000000 0.000000 0.000000 0.000000 0.045507 0.000000
# 6 0.000000 0.000000 0.000000 0.000000 0.000000 0.025526
#
#
# Mechanical properties :
#
#
# Convention : Reuss Voigt Hill
#
# Bulk Modulus (GPa) = 13.14648 19.82445 16.48547
# Shear Modulus (GPa) = 17.70427 23.33552 20.51989
#
# Velocity S-wave (km/s) = 3.05810 3.51092 3.29231
# Velocity P-wave (km/s) = 4.40610 5.18723 4.81254
#
# Compressibility (1/GPa) = 0.07606597
#
# Stress axis : x y z
#
# Youngs Moduli (GPa) = 21.70075 35.39349 85.26358
#
# Poissons Ratio (x) = -0.01425 0.13928
# Poissons Ratio (y) = -0.00873 0.32125
# Poissons Ratio (z) = 0.03545 0.13335
#
# Static dielectric constant tensor:
#      x y z
#    x 3.394050 0.000000 0.000000 
#    y 0.000000 3.292620 0.000000 
#    z 0.000000 0.000000 3.580640 
# 
# 
# High freq. dielectric constant tensor:
#      x y z
#    x 1.732240 0.000000 0.000000 
#    y 0.000000 1.719490 0.000000 
#    z 0.000000 0.000000 1.746510 
# 
# From -- ./inp_files/2367.got.cif
#   From: 2010.03.12/outbox.cif.g09.slc.cpg/sg55_2_cif.got.tgz:2367.got - 2010.04.16 15:19:21.
