data_PCOD8226989
_publ_section_title
;
Structure prediction by ZEFSAII (Michael W. Deem and Ramdas Pophale) SiO2 
 PCOD8226989
Probable space group: P B A M
;
_chemical_formula_sum "Si O2"
_cell_formula_units_Z 64
_cell_length_a 11.445567
_cell_length_b 33.437458
_cell_length_c 8.554430
_cell_angle_alpha 90.000000
_cell_angle_beta 90.000000
_cell_angle_gamma 90.000000
_cell_volume 3273.871601
_symmetry_space_group_name_H-M "P B A M"
_symmetry_group_IT_number 55
_symmetry_cell_setting 'orthorhombic'
loop_
_space_group_symop_operation_xyz
x,y,z
-x,-y,z
1/2+x,1/2-y,-z
1/2-x,1/2+y,-z
-x,-y,-z
x,y,-z
1/2-x,1/2+y,z
1/2+x,1/2-y,z
loop_
_atom_site_type_symbol
_atom_site_label
_atom_site_fract_x
_atom_site_fract_y
_atom_site_fract_z
Si Si1 0.408343 0.786138 0.179992
Si Si2 0.903113 0.943360 0.314652
Si Si3 0.960797 0.358408 0.319912
Si Si4 0.827024 0.172620 0.820790
Si Si5 0.846302 0.029301 0.682544
Si Si6 0.285825 0.634350 0.819419
Si Si7 0.440564 0.701114 0.679669
Si Si8 0.696168 0.100933 0.681592
O O1 0.491059 0.814162 0.284175
O O2 0.272428 0.794576 0.216933
O O3 0.433992 0.740300 0.214609
O O4 0.436601 0.795584 0.000000
O O5 0.890896 0.935626 0.500000
O O6 0.848889 0.906571 0.223437
O O7 0.037349 0.947946 0.258079
O O8 0.835417 0.983728 0.256584
O O9 0.922947 0.360221 0.500000
O O10 0.851411 0.369505 0.213603
O O11 0.060149 0.391542 0.281710
O O12 0.776097 0.128957 0.787913
O O13 0.936185 0.179755 0.708710
O O14 0.868336 0.175121 0.000000
O O15 0.865097 0.024915 0.500000
O O16 0.730987 0.055193 0.724431
O O17 0.336115 0.671144 0.720429
O O18 0.307027 0.643725 0.000000
O O19 0.429359 0.713605 0.500000
O O20 0.722843 0.110333 0.500000
#
# Coordination Sequence:
#
# PCOD8226989 Si02
#       8
#     8   8   8   8   8   8   8   8
#     4  10  22  40  60  83 114 148 184 228 282 337
#     4   9  17  33  57  86 118 150 187 231 287 347
#     4  10  21  38  59  82 111 151 196 239 283 338
#     4  10  21  37  57  83 115 146 181 227 283 337
#     4   8  15  30  57  88 116 147 184 234 287 339
#     4  12  25  40  57  80 114 152 191 237 295 349
#     4  12  25  39  59  83 110 145 190 236 280 337
#     4   9  17  33  58  85 112 147 193 236 280 334
#
# _framework density 19.548719999999999
#
# number of rings (size 3 to 8) (size 9 to 14) (size 15 to 20)
#    0.000    2.000    0.000    4.875    1.750    3.000 
#    0.000    2.500    0.000    3.750    0.000    0.000 
#    0.000    0.000    0.000    0.000    0.000    0.000 
#
# Total GULP energy -793678.021486 kJ/mol
# GULP energy per Si atom -12401.219086 kJ/mol
# Density = 1.950423 g / cm^3
# Si number density = 19.548720 Si / 1000 Ang^3
#
#
#
# Elastic Constant Matrix: (Units=GPa)
#
#
# Indices 1 2 3 4 5 6 
#
# 1 77.0092 23.7463 19.5359 0.0000 0.0000 0.0000
# 2 23.7463 81.8158 9.7509 0.0000 0.0000 0.0000
# 3 19.5359 9.7509 54.8740 0.0000 0.0000 0.0000
# 4 0.0000 0.0000 0.0000 18.5828 0.0000 0.0000
# 5 0.0000 0.0000 0.0000 0.0000 27.0808 0.0000
# 6 0.0000 0.0000 0.0000 0.0000 0.0000 18.4183
#
#
#
# Elastic Compliance Matrix: (Units=1/GPa)
#
#
# Indices 1 2 3 4 5 6 
#
# 1 0.015403 -0.003900 -0.004791 0.000000 0.000000 0.000000
# 2 -0.003900 0.013474 -0.001006 0.000000 0.000000 0.000000
# 3 -0.004791 -0.001006 0.020108 0.000000 0.000000 0.000000
# 4 0.000000 0.000000 0.000000 0.053813 0.000000 0.000000
# 5 0.000000 0.000000 0.000000 0.000000 0.036926 0.000000
# 6 0.000000 0.000000 0.000000 0.000000 0.000000 0.054294
#
#
# Mechanical properties :
#
#
# Convention : Reuss Voigt Hill
#
# Bulk Modulus (GPa) = 33.79231 35.52947 34.66089
# Shear Modulus (GPa) = 22.39378 23.52745 22.96062
#
# Velocity S-wave (km/s) = 3.38825 3.47296 3.43086
# Velocity P-wave (km/s) = 5.71233 5.85629 5.78476
#
# Compressibility (1/GPa) = 0.02959253
#
# Stress axis : x y z
#
# Youngs Moduli (GPa) = 64.92116 74.21525 49.73163
#
# Poissons Ratio (x) = 0.28942 0.23826
# Poissons Ratio (y) = 0.25317 0.05003
# Poissons Ratio (z) = 0.31103 0.07466
#
# Static dielectric constant tensor:
#      x y z
#    x 3.570550 0.000000 0.000000 
#    y 0.000000 3.594730 0.000000 
#    z 0.000000 0.000000 3.415440 
# 
# 
# High freq. dielectric constant tensor:
#      x y z
#    x 1.757950 0.000000 0.000000 
#    y 0.000000 1.761680 0.000000 
#    z 0.000000 0.000000 1.752390 
# 
# From -- ./inp_files/4544.got.cif
#   From: 2010.03.12/outbox.cif.g09.slc.cpg/sg55_3_cif.got.tgz:4544.got - 2010.04.16 15:19:21.
