data_PCOD8226374
_publ_section_title
;
Structure prediction by ZEFSAII (Michael W. Deem and Ramdas Pophale) SiO2 
 PCOD8226374
Probable space group: P B A M
;
_chemical_formula_sum "Si O2"
_cell_formula_units_Z 64
_cell_length_a 23.809830
_cell_length_b 15.305486
_cell_length_c 8.947333
_cell_angle_alpha 90.000000
_cell_angle_beta 90.000000
_cell_angle_gamma 90.000000
_cell_volume 3260.596216
_symmetry_space_group_name_H-M "P B A M"
_symmetry_group_IT_number 55
_symmetry_cell_setting 'orthorhombic'
loop_
_space_group_symop_operation_xyz
x,y,z
-x,-y,z
1/2+x,1/2-y,-z
1/2-x,1/2+y,-z
-x,-y,-z
x,y,-z
1/2-x,1/2+y,z
1/2+x,1/2-y,z
loop_
_atom_site_type_symbol
_atom_site_label
_atom_site_fract_x
_atom_site_fract_y
_atom_site_fract_z
Si Si1 0.645370 0.914219 0.672021
Si Si2 0.138194 0.390363 0.329415
Si Si3 0.374472 0.592464 0.822456
Si Si4 0.358776 0.414558 0.322906
Si Si5 0.573224 0.754966 0.322778
Si Si6 0.251739 0.647221 0.174160
Si Si7 0.446735 0.739375 0.324703
Si Si8 0.748307 0.652586 0.825826
O O1 0.655921 0.891692 0.500000
O O2 0.604012 0.841303 0.742882
O O3 0.706201 0.914827 0.749247
O O4 0.617974 0.009718 0.693219
O O5 0.158288 0.374859 0.500000
O O6 0.086129 0.328644 0.289034
O O7 0.188550 0.369869 0.218090
O O8 0.387714 0.498491 0.751331
O O9 0.313639 0.624984 0.764785
O O10 0.420907 0.659268 0.765281
O O11 0.377465 0.586621 0.000000
O O12 0.359293 0.424733 0.500000
O O13 0.393872 0.330773 0.267720
O O14 0.294782 0.406727 0.266686
O O15 0.572472 0.760023 0.500000
O O16 0.509689 0.752391 0.263317
O O17 0.236575 0.746724 0.212854
O O18 0.249730 0.628145 0.000000
O O19 0.445465 0.716822 0.500000
O O20 0.740120 0.632552 0.000000
#
# Coordination Sequence:
#
# PCOD8226374 Si02
#       8
#     8   8   8   8   8   8   8   8
#     4  10  20  36  58  86 116 147 185 233 282 338
#     4  10  21  35  58  89 116 147 191 236 284 337
#     4  11  23  40  59  85 117 152 190 235 289 342
#     4  11  22  38  60  87 115 150 191 235 285 342
#     4   9  20  38  59  82 113 150 190 236 288 335
#     4  10  21  36  56  82 113 150 186 226 282 341
#     4  10  21  39  60  83 112 151 195 239 284 338
#     4  11  21  36  58  84 117 152 186 231 286 342
#
# _framework density 19.628312999999999
#
# number of rings (size 3 to 8) (size 9 to 14) (size 15 to 20)
#    0.000    1.750    2.500    1.875    0.000    5.000 
#    0.000    6.875    0.000    0.000    0.000    2.625 
#    0.000    0.000    0.000    0.000    0.000    0.000 
#
# Total GULP energy -793870.687132 kJ/mol
# GULP energy per Si atom -12404.229486 kJ/mol
# Density = 1.958364 g / cm^3
# Si number density = 19.628313 Si / 1000 Ang^3
#
#
#
# Elastic Constant Matrix: (Units=GPa)
#
#
# Indices 1 2 3 4 5 6 
#
# 1 126.6058 46.6429 30.3895 0.0000 0.0000 0.0000
# 2 46.6429 112.7124 44.0360 0.0000 0.0000 0.0000
# 3 30.3895 44.0360 48.5469 0.0000 0.0000 0.0000
# 4 0.0000 0.0000 0.0000 24.9744 0.0000 0.0000
# 5 0.0000 0.0000 0.0000 0.0000 15.0735 0.0000
# 6 0.0000 0.0000 0.0000 0.0000 0.0000 16.9813
#
#
#
# Elastic Compliance Matrix: (Units=1/GPa)
#
#
# Indices 1 2 3 4 5 6 
#
# 1 0.009748 -0.002556 -0.003784 0.000000 0.000000 0.000000
# 2 -0.002556 0.014412 -0.011473 0.000000 0.000000 0.000000
# 3 -0.003784 -0.011473 0.033375 0.000000 0.000000 0.000000
# 4 0.000000 0.000000 0.000000 0.040041 0.000000 0.000000
# 5 0.000000 0.000000 0.000000 0.000000 0.066342 0.000000
# 6 0.000000 0.000000 0.000000 0.000000 0.000000 0.058888
#
#
# Mechanical properties :
#
#
# Convention : Reuss Voigt Hill
#
# Bulk Modulus (GPa) = 45.64311 58.88911 52.26611
# Shear Modulus (GPa) = 18.81571 22.52563 20.67067
#
# Velocity S-wave (km/s) = 3.09949 3.39131 3.24868
# Velocity P-wave (km/s) = 6.00943 6.73810 6.38417
#
# Compressibility (1/GPa) = 0.02190911
#
# Stress axis : x y z
#
# Youngs Moduli (GPa) = 102.58121 69.38533 29.96289
#
# Poissons Ratio (x) = 0.17733 0.11338
# Poissons Ratio (y) = 0.26216 0.34377
# Poissons Ratio (z) = 0.38818 0.79608
#
# Static dielectric constant tensor:
#      x y z
#    x 3.573200 0.000000 0.000000 
#    y 0.000000 3.791380 0.000000 
#    z 0.000000 0.000000 3.354200 
# 
# 
# High freq. dielectric constant tensor:
#      x y z
#    x 1.758480 0.000000 0.000000 
#    y 0.000000 1.781480 0.000000 
#    z 0.000000 0.000000 1.747390 
# 
# From -- ./inp_files/9720.got.cif
#   From: 2010.03.12/outbox.cif.g09.slc.cpg/sg55_5_cif.got.tgz:9720.got - 2010.04.16 15:19:21.
