data_PCOD8226630
_publ_section_title
;
Structure prediction by ZEFSAII (Michael W. Deem and Ramdas Pophale) SiO2 
 PCOD8226630
Probable space group: P B A M
;
_chemical_formula_sum "Si O2"
_cell_formula_units_Z 64
_cell_length_a 8.808188
_cell_length_b 15.122573
_cell_length_c 22.484536
_cell_angle_alpha 90.000000
_cell_angle_beta 90.000000
_cell_angle_gamma 90.000000
_cell_volume 2994.995643
_symmetry_space_group_name_H-M "P B A M"
_symmetry_group_IT_number 55
_symmetry_cell_setting 'orthorhombic'
loop_
_space_group_symop_operation_xyz
x,y,z
-x,-y,z
1/2+x,1/2-y,-z
1/2-x,1/2+y,-z
-x,-y,-z
x,y,-z
1/2-x,1/2+y,z
1/2+x,1/2-y,z
loop_
_atom_site_type_symbol
_atom_site_label
_atom_site_fract_x
_atom_site_fract_y
_atom_site_fract_z
Si Si1 0.716325 0.656733 0.625106
Si Si2 0.830101 0.184344 0.761902
Si Si3 0.170959 0.475354 0.820020
Si Si4 0.710952 0.126055 0.066312
Si Si5 0.821876 0.984525 0.434073
Si Si6 0.408408 0.703270 0.568775
Si Si7 0.339587 0.650863 0.812953
Si Si8 0.537731 0.296616 0.932834
O O1 0.666219 0.678226 0.691385
O O2 0.753214 0.552270 0.613621
O O3 0.584484 0.684363 0.579861
O O4 0.863614 0.713904 0.609463
O O5 0.709407 0.113728 0.785287
O O6 0.780339 0.279716 0.786378
O O7 0.998474 0.164297 0.783253
O O8 0.192878 0.457023 0.890286
O O9 0.280903 0.553106 0.798172
O O10 0.000000 0.500000 0.804842
O O11 0.566200 0.191167 0.073114
O O12 0.862147 0.182958 0.081405
O O13 0.721116 0.086797 0.000000
O O14 0.750730 0.999572 0.500000
O O15 0.802867 0.881997 0.414072
O O16 0.000000 0.000000 0.437551
O O17 0.387173 0.727065 0.500000
O O18 0.355088 0.655917 0.884577
O O19 0.581753 0.327771 0.000000
#
# Coordination Sequence:
#
# PCOD8226630 Si02
#       8
#     8   8   8   8   8   8   8   8
#     4  11  22  38  63  92 125 167 212 259 315 376
#     4  12  26  44  64  93 130 176 226 274 322 391
#     4  12  27  43  66  94 127 175 221 276 337 398
#     4  10  22  41  66 101 131 164 218 274 339 404
#     4   8  16  33  58  86 119 156 196 244 298 364
#     4  10  20  37  63  95 127 163 209 259 318 380
#     4  12  24  44  67  90 129 173 223 274 336 393
#     4  10  20  38  68  94 126 166 210 273 337 394
#
# _framework density 21.368980000000001
#
# number of rings (size 3 to 8) (size 9 to 14) (size 15 to 20)
#    0.000    1.375    2.500    3.750    1.750    4.750 
#    0.000    1.875    0.000    2.250    0.000    0.000 
#    0.000    0.000    0.000    0.000    0.000    0.000 
#
# Total GULP energy -793578.185041 kJ/mol
# GULP energy per Si atom -12399.659141 kJ/mol
# Density = 2.132034 g / cm^3
# Si number density = 21.368980 Si / 1000 Ang^3
#
#
#
# Elastic Constant Matrix: (Units=GPa)
#
#
# Indices 1 2 3 4 5 6 
#
# 1 71.6176 16.8439 12.2680 0.0000 0.0000 0.0000
# 2 16.8439 79.2737 14.4529 0.0000 0.0000 0.0000
# 3 12.2680 14.4529 87.7974 0.0000 0.0000 0.0000
# 4 0.0000 0.0000 0.0000 12.6136 0.0000 0.0000
# 5 0.0000 0.0000 0.0000 0.0000 22.5471 0.0000
# 6 0.0000 0.0000 0.0000 0.0000 0.0000 32.9489
#
#
#
# Elastic Compliance Matrix: (Units=1/GPa)
#
#
# Indices 1 2 3 4 5 6 
#
# 1 0.014915 -0.002875 -0.001611 0.000000 0.000000 0.000000
# 2 -0.002875 0.013559 -0.001830 0.000000 0.000000 0.000000
# 3 -0.001611 -0.001830 0.011916 0.000000 0.000000 0.000000
# 4 0.000000 0.000000 0.000000 0.079280 0.000000 0.000000
# 5 0.000000 0.000000 0.000000 0.000000 0.044352 0.000000
# 6 0.000000 0.000000 0.000000 0.000000 0.000000 0.030350
#
#
# Mechanical properties :
#
#
# Convention : Reuss Voigt Hill
#
# Bulk Modulus (GPa) = 36.02614 36.20203 36.11408
# Shear Modulus (GPa) = 23.12060 26.63019 24.87539
#
# Velocity S-wave (km/s) = 3.29290 3.53400 3.41558
# Velocity P-wave (km/s) = 5.59940 5.79917 5.70016
#
# Compressibility (1/GPa) = 0.02775762
#
# Stress axis : x y z
#
# Youngs Moduli (GPa) = 67.04538 73.75075 83.91915
#
# Poissons Ratio (x) = 0.21207 0.13518
# Poissons Ratio (y) = 0.19279 0.15359
# Poissons Ratio (z) = 0.10800 0.13498
#
# Static dielectric constant tensor:
#      x y z
#    x 3.622810 0.000000 0.000000 
#    y 0.000000 4.153490 0.000000 
#    z 0.000000 0.000000 3.962980 
# 
# 
# High freq. dielectric constant tensor:
#      x y z
#    x 1.821250 0.000000 0.000000 
#    y 0.000000 1.838090 0.000000 
#    z 0.000000 0.000000 1.841720 
# 
# From -- ./inp_files/23470.got.cif
#   From: 2010.03.12/outbox.cif.g09.slc.cpg/sg55_12_cif.got.tgz:23470.got - 2010.04.16 15:19:21.
