data_PCOD8226758
_publ_section_title
;
Structure prediction by ZEFSAII (Michael W. Deem and Ramdas Pophale) SiO2 
 PCOD8226758
Probable space group: P B A M
;
_chemical_formula_sum "Si O2"
_cell_formula_units_Z 64
_cell_length_a 24.032112
_cell_length_b 15.009386
_cell_length_c 8.852070
_cell_angle_alpha 90.000000
_cell_angle_beta 90.000000
_cell_angle_gamma 90.000000
_cell_volume 3193.005786
_symmetry_space_group_name_H-M "P B A M"
_symmetry_group_IT_number 55
_symmetry_cell_setting 'orthorhombic'
loop_
_space_group_symop_operation_xyz
x,y,z
-x,-y,z
1/2+x,1/2-y,-z
1/2-x,1/2+y,-z
-x,-y,-z
x,y,-z
1/2-x,1/2+y,z
1/2+x,1/2-y,z
loop_
_atom_site_type_symbol
_atom_site_label
_atom_site_fract_x
_atom_site_fract_y
_atom_site_fract_z
Si Si1 0.822306 0.769121 0.679686
Si Si2 0.556708 0.255005 0.820326
Si Si3 0.630802 0.836969 0.330695
Si Si4 0.755096 0.593960 0.320277
Si Si5 0.133239 0.868508 0.667260
Si Si6 0.026454 0.904352 0.832475
Si Si7 0.763096 0.404183 0.822322
Si Si8 0.011198 0.601729 0.323895
O O1 0.822035 0.778366 0.500000
O O2 0.884461 0.771518 0.741610
O O3 0.794692 0.675455 0.730271
O O4 0.788527 0.853372 0.745451
O O5 0.514857 0.331669 0.758188
O O6 0.531707 0.159868 0.773279
O O7 0.564950 0.259701 0.000000
O O8 0.647894 0.869606 0.500000
O O9 0.616788 0.733817 0.334096
O O10 0.680065 0.852759 0.213301
O O11 0.574835 0.883920 0.273541
O O12 0.757349 0.583058 0.500000
O O13 0.693472 0.616462 0.258821
O O14 0.773163 0.502997 0.241567
O O15 0.134931 0.908762 0.500000
O O16 0.085175 0.919794 0.753323
O O17 0.039021 0.869790 0.000000
O O18 0.000000 0.000000 0.831189
O O19 0.752480 0.407478 0.000000
O O20 0.002717 0.625170 0.500000
O O21 0.000000 0.500000 0.287193
#
# Coordination Sequence:
#
# PCOD8226758 Si02
#       8
#     8   8   8   8   8   8   8   8
#     4  11  24  45  68  89 123 168 213 258 307 369
#     4  11  24  41  61  91 130 165 203 256 317 373
#     4  10  20  40  65  89 123 161 210 261 303 364
#     4  10  23  43  65  90 121 162 209 256 308 364
#     4  10  20  39  66  92 116 152 208 263 301 350
#     4  10  23  41  60  87 126 166 200 244 307 370
#     4  12  26  41  63  95 129 163 203 254 318 377
#     4  10  22  40  64  92 121 164 213 255 306 367
#
# _framework density 20.043809
#
# number of rings (size 3 to 8) (size 9 to 14) (size 15 to 20)
#    0.000    1.500    2.500    1.875    3.500    3.500 
#    0.000    0.000    0.000    0.000    0.000    0.000 
#    0.000    0.000    0.000    0.000    0.000    0.000 
#
# Total GULP energy -793681.506524 kJ/mol
# GULP energy per Si atom -12401.273539 kJ/mol
# Density = 1.999819 g / cm^3
# Si number density = 20.043809 Si / 1000 Ang^3
#
#
#
# Elastic Constant Matrix: (Units=GPa)
#
#
# Indices 1 2 3 4 5 6 
#
# 1 108.4527 2.6569 25.8463 0.0000 0.0000 0.0000
# 2 2.6569 57.8194 17.3815 0.0000 0.0000 0.0000
# 3 25.8463 17.3815 62.3897 0.0000 0.0000 0.0000
# 4 0.0000 0.0000 0.0000 19.7875 0.0000 0.0000
# 5 0.0000 0.0000 0.0000 0.0000 4.2166 0.0000
# 6 0.0000 0.0000 0.0000 0.0000 0.0000 29.3073
#
#
#
# Elastic Compliance Matrix: (Units=1/GPa)
#
#
# Indices 1 2 3 4 5 6 
#
# 1 0.010272 0.000881 -0.004501 0.000000 0.000000 0.000000
# 2 0.000881 0.018952 -0.005645 0.000000 0.000000 0.000000
# 3 -0.004501 -0.005645 0.019465 0.000000 0.000000 0.000000
# 4 0.000000 0.000000 0.000000 0.050537 0.000000 0.000000
# 5 0.000000 0.000000 0.000000 0.000000 0.237161 0.000000
# 6 0.000000 0.000000 0.000000 0.000000 0.000000 0.034121
#
#
# Mechanical properties :
#
#
# Convention : Reuss Voigt Hill
#
# Bulk Modulus (GPa) = 33.15686 35.60347 34.38017
# Shear Modulus (GPa) = 12.52851 22.84741 17.68796
#
# Velocity S-wave (km/s) = 2.50282 3.37986 2.97385
# Velocity P-wave (km/s) = 4.99302 5.74741 5.38345
#
# Compressibility (1/GPa) = 0.03015967
#
# Stress axis : x y z
#
# Youngs Moduli (GPa) = 97.35557 52.76577 51.37315
#
# Poissons Ratio (x) = -0.04649 0.23121
# Poissons Ratio (y) = -0.08577 0.28999
# Poissons Ratio (z) = 0.43817 0.29785
#
# Static dielectric constant tensor:
#      x y z
#    x 3.720650 0.000000 0.000000 
#    y 0.000000 3.788690 0.000000 
#    z 0.000000 0.000000 3.650880 
# 
# 
# High freq. dielectric constant tensor:
#      x y z
#    x 1.796500 0.000000 0.000000 
#    y 0.000000 1.789030 0.000000 
#    z 0.000000 0.000000 1.770860 
# 
# From -- ./inp_files/9709.got.cif
#   From: 2010.03.12/outbox.cif.g09.slc.cpg/sg55_5_cif.got.tgz:9709.got - 2010.04.16 15:19:21.
