data_PCOD8226211
_publ_section_title
;
Structure prediction by ZEFSAII (Michael W. Deem and Ramdas Pophale) SiO2 
 PCOD8226211
Probable space group: P B A M
;
_chemical_formula_sum "Si O2"
_cell_formula_units_Z 40
_cell_length_a 10.390354
_cell_length_b 20.875408
_cell_length_c 9.465148
_cell_angle_alpha 90.000000
_cell_angle_beta 90.000000
_cell_angle_gamma 90.000000
_cell_volume 2053.017851
_symmetry_space_group_name_H-M "P B A M"
_symmetry_group_IT_number 55
_symmetry_cell_setting 'orthorhombic'
loop_
_space_group_symop_operation_xyz
x,y,z
-x,-y,z
1/2+x,1/2-y,-z
1/2-x,1/2+y,-z
-x,-y,-z
x,y,-z
1/2-x,1/2+y,z
1/2+x,1/2-y,z
loop_
_atom_site_type_symbol
_atom_site_label
_atom_site_fract_x
_atom_site_fract_y
_atom_site_fract_z
Si Si1 0.454293 0.070720 0.666124
Si Si2 0.025198 0.310603 0.837418
Si Si3 0.189258 0.788185 0.837255
Si Si4 0.173711 0.045700 0.333621
Si Si5 0.096036 0.907540 0.332775
O O1 0.473125 0.082392 0.500000
O O2 0.535351 0.124249 0.747643
O O3 0.306137 0.077826 0.716484
O O4 0.500000 0.000000 0.708700
O O5 0.159193 0.271127 0.818024
O O6 0.904004 0.268629 0.782876
O O7 0.005233 0.329909 0.000000
O O8 0.164120 0.850451 0.746062
O O9 0.156467 0.803020 0.000000
O O10 0.172650 0.037606 0.500000
O O11 0.054768 0.090464 0.288267
O O12 0.160526 0.973179 0.276395
O O13 0.113291 0.897900 0.500000
#
# Coordination Sequence:
#
# PCOD8226211 Si02
#       5
#     8   8   8   8   8
#     4  10  20  35  57  84 113 142 180 228 275 322
#     4  10  23  40  57  79 110 148 184 224 274 325
#     4  10  22  39  56  77 109 144 182 226 271 318
#     4   8  16  31  53  83 114 141 173 220 273 321
#     4   9  17  33  57  81 109 144 179 218 269 323
#
# _framework density 19.483512999999999
#
# number of rings (size 3 to 8) (size 9 to 14) (size 15 to 20)
#    0.000    2.600    0.000    2.400    2.800    3.600 
#    0.000    3.000    0.000    0.000    0.000    0.000 
#    0.000    0.000    0.000    0.000    0.000    0.000 
#
# Total GULP energy -495860.951603 kJ/mol
# GULP energy per Si atom -12396.523790 kJ/mol
# Density = 1.943917 g / cm^3
# Si number density = 19.483513 Si / 1000 Ang^3
#
#
#
# Elastic Constant Matrix: (Units=GPa)
#
#
# Indices 1 2 3 4 5 6 
#
# 1 115.8701 45.7154 26.0390 0.0000 0.0000 0.0000
# 2 45.7154 81.6181 32.4676 0.0000 0.0000 0.0000
# 3 26.0390 32.4676 39.2045 0.0000 0.0000 0.0000
# 4 0.0000 0.0000 0.0000 57.6513 0.0000 0.0000
# 5 0.0000 0.0000 0.0000 0.0000 23.0049 0.0000
# 6 0.0000 0.0000 0.0000 0.0000 0.0000 32.7867
#
#
#
# Elastic Compliance Matrix: (Units=1/GPa)
#
#
# Indices 1 2 3 4 5 6 
#
# 1 0.011374 -0.005019 -0.003398 0.000000 0.000000 0.000000
# 2 -0.005019 0.020486 -0.013632 0.000000 0.000000 0.000000
# 3 -0.003398 -0.013632 0.039054 0.000000 0.000000 0.000000
# 4 0.000000 0.000000 0.000000 0.017346 0.000000 0.000000
# 5 0.000000 0.000000 0.000000 0.000000 0.043469 0.000000
# 6 0.000000 0.000000 0.000000 0.000000 0.000000 0.030500
#
#
# Mechanical properties :
#
#
# Convention : Reuss Voigt Hill
#
# Bulk Modulus (GPa) = 37.29166 49.45967 43.37566
# Shear Modulus (GPa) = 23.22695 31.51995 27.37345
#
# Velocity S-wave (km/s) = 3.45647 4.02652 3.75234
# Velocity P-wave (km/s) = 5.92548 6.85986 6.40972
#
# Compressibility (1/GPa) = 0.02681565
#
# Stress axis : x y z
#
# Youngs Moduli (GPa) = 87.91815 48.81271 25.60556
#
# Poissons Ratio (x) = 0.24500 0.08701
# Poissons Ratio (y) = 0.44128 0.34907
# Poissons Ratio (z) = 0.29874 0.66544
#
# Static dielectric constant tensor:
#      x y z
#    x 4.422940 0.000000 0.000000 
#    y 0.000000 3.340530 0.000000 
#    z 0.000000 0.000000 3.201110 
# 
# 
# High freq. dielectric constant tensor:
#      x y z
#    x 1.781830 0.000000 0.000000 
#    y 0.000000 1.746300 0.000000 
#    z 0.000000 0.000000 1.726120 
# 
# From -- ./inp_files/3854.got.cif
#   From: 2010.03.12/outbox.cif.g09.slc.cpg/sg55_2_cif.got.tgz:3854.got - 2010.04.16 15:19:21.
