data_PCOD8226779
_publ_section_title
;
Structure prediction by ZEFSAII (Michael W. Deem and Ramdas Pophale) SiO2 
 PCOD8226779
Probable space group: P B A M
;
_chemical_formula_sum "Si O2"
_cell_formula_units_Z 48
_cell_length_a 9.417671
_cell_length_b 28.811367
_cell_length_c 8.653565
_cell_angle_alpha 90.000000
_cell_angle_beta 90.000000
_cell_angle_gamma 90.000000
_cell_volume 2348.023501
_symmetry_space_group_name_H-M "P B A M"
_symmetry_group_IT_number 55
_symmetry_cell_setting 'orthorhombic'
loop_
_space_group_symop_operation_xyz
x,y,z
-x,-y,z
1/2+x,1/2-y,-z
1/2-x,1/2+y,-z
-x,-y,-z
x,y,-z
1/2-x,1/2+y,z
1/2+x,1/2-y,z
loop_
_atom_site_type_symbol
_atom_site_label
_atom_site_fract_x
_atom_site_fract_y
_atom_site_fract_z
Si Si1 0.798705 0.882821 0.817617
Si Si2 0.194493 0.290453 0.815778
Si Si3 0.983275 0.797143 0.182863
Si Si4 0.341202 0.517048 0.327031
Si Si5 0.888555 0.540896 0.827004
Si Si6 0.999596 0.630829 0.319939
O O1 0.829193 0.931328 0.737428
O O2 0.646647 0.862001 0.770467
O O3 0.919507 0.846510 0.763284
O O4 0.799897 0.890514 0.000000
O O5 0.356821 0.290715 0.754203
O O6 0.117843 0.243903 0.754707
O O7 0.116100 0.333764 0.742097
O O8 0.189180 0.294541 0.000000
O O9 0.984270 0.794657 0.000000
O O10 0.500000 0.500000 0.327759
O O11 0.277297 0.517316 0.500000
O O12 0.261747 0.479755 0.221894
O O13 0.000000 0.500000 0.822664
O O14 0.938550 0.579677 0.708039
O O15 0.875901 0.561827 0.000000
O O16 0.026852 0.638357 0.500000
#
# Coordination Sequence:
#
# PCOD8226779 Si02
#       6
#     8   8   8   8   8   8
#     4  11  22  40  64  93 123 163 213 258 303 363
#     4  10  20  40  66  94 123 159 203 254 306 367
#     4   9  20  38  66  96 123 156 203 257 308 358
#     4  11  25  42  61  91 131 169 203 250 312 369
#     4  11  23  41  66  93 119 161 215 260 301 359
#     4  12  25  40  61  91 126 165 204 254 317 373
#
# _framework density 20.442724999999999
#
# number of rings (size 3 to 8) (size 9 to 14) (size 15 to 20)
#    0.000    1.333    1.667    4.000    2.333    4.667 
#    0.000    5.000    0.000    0.000    0.000    0.000 
#    0.000    0.000    0.000    0.000    0.000    0.000 
#
# Total GULP energy -595377.811459 kJ/mol
# GULP energy per Si atom -12403.704405 kJ/mol
# Density = 2.039620 g / cm^3
# Si number density = 20.442725 Si / 1000 Ang^3
#
#
#
# Elastic Constant Matrix: (Units=GPa)
#
#
# Indices 1 2 3 4 5 6 
#
# 1 137.7794 55.3725 21.1350 0.0000 0.0000 0.0000
# 2 55.3725 81.9580 18.5247 0.0000 0.0000 0.0000
# 3 21.1350 18.5247 53.0952 0.0000 0.0000 0.0000
# 4 0.0000 0.0000 0.0000 -15.8823 0.0000 0.0000
# 5 0.0000 0.0000 0.0000 0.0000 30.6874 0.0000
# 6 0.0000 0.0000 0.0000 0.0000 0.0000 40.0558
#
#
#
# Elastic Compliance Matrix: (Units=1/GPa)
#
#
# Indices 1 2 3 4 5 6 
#
# 1 0.010116 -0.006432 -0.001783 0.000000 0.000000 0.000000
# 2 -0.006432 0.017335 -0.003488 0.000000 0.000000 0.000000
# 3 -0.001783 -0.003488 0.020761 0.000000 0.000000 0.000000
# 4 0.000000 0.000000 0.000000 -0.062963 0.000000 0.000000
# 5 0.000000 0.000000 0.000000 0.000000 0.032587 0.000000
# 6 0.000000 0.000000 0.000000 0.000000 0.000000 0.024965
#
#
# Mechanical properties :
#
#
# Convention : Reuss Voigt Hill
#
# Bulk Modulus (GPa) = 40.31120 51.43300 45.87210
# Shear Modulus (GPa) = 67.13633 22.82554 44.98094
#
# Velocity S-wave (km/s) = 5.73694 3.34512 4.69587
# Velocity P-wave (km/s) = 7.97779 6.33514 7.20344
#
# Compressibility (1/GPa) = 0.02480700
#
# Stress axis : x y z
#
# Youngs Moduli (GPa) = 98.84963 57.68604 48.16792
#
# Poissons Ratio (x) = 0.37103 0.08588
# Poissons Ratio (y) = 0.63579 0.16801
# Poissons Ratio (z) = 0.17624 0.20120
#
# Static dielectric constant tensor:
#      x y z
#    x 4.583080 0.000000 0.000000 
#    y 0.000000 3.770150 0.000000 
#    z 0.000000 0.000000 3.701120 
# 
# 
# High freq. dielectric constant tensor:
#      x y z
#    x 1.813170 0.000000 0.000000 
#    y 0.000000 1.810210 0.000000 
#    z 0.000000 0.000000 1.786380 
# 
# From -- ./inp_files/2876.got.cif
#   From: 2010.03.12/outbox.cif.g09.slc.cpg/sg55_2_cif.got.tgz:2876.got - 2010.04.16 15:19:21.
