data_PCOD8226621
_publ_section_title
;
Structure prediction by ZEFSAII (Michael W. Deem and Ramdas Pophale) SiO2 
 PCOD8226621
Probable space group: P B A M
;
_chemical_formula_sum "Si O2"
_cell_formula_units_Z 40
_cell_length_a 8.699586
_cell_length_b 12.719345
_cell_length_c 17.174670
_cell_angle_alpha 90.000000
_cell_angle_beta 90.000000
_cell_angle_gamma 90.000000
_cell_volume 1900.429372
_symmetry_space_group_name_H-M "P B A M"
_symmetry_group_IT_number 55
_symmetry_cell_setting 'orthorhombic'
loop_
_space_group_symop_operation_xyz
x,y,z
-x,-y,z
1/2+x,1/2-y,-z
1/2-x,1/2+y,-z
-x,-y,-z
x,y,-z
1/2-x,1/2+y,z
1/2+x,1/2-y,z
loop_
_atom_site_type_symbol
_atom_site_label
_atom_site_fract_x
_atom_site_fract_y
_atom_site_fract_z
Si Si1 0.491416 0.878490 0.409085
Si Si2 0.984101 0.881876 0.237880
Si Si3 0.737511 0.754252 0.322219
Si Si4 0.376090 0.317410 0.090443
Si Si5 0.544584 0.110974 0.910248
O O1 0.460080 0.865429 0.500000
O O2 0.651159 0.822077 0.387922
O O3 0.352264 0.825747 0.363278
O O4 0.500000 0.000000 0.384605
O O5 0.119694 0.811168 0.271370
O O6 0.001343 0.880530 0.143564
O O7 0.821974 0.835177 0.264464
O O8 0.000000 0.000000 0.269544
O O9 0.204982 0.342725 0.122252
O O10 0.406399 0.192856 0.102638
O O11 0.403445 0.348262 0.000000
O O12 0.500000 0.000000 0.868903
O O13 0.575221 0.088571 0.000000
#
# Coordination Sequence:
#
# PCOD8226621 Si02
#       5
#     8   8   8   8   8
#     4  10  20  37  63  91 118 151 188 228 277 334
#     4  11  23  39  58  82 115 156 194 236 293 342
#     4  10  22  39  58  86 121 152 188 233 279 343
#     4  10  21  37  57  82 110 147 201 250 288 338
#     4   9  19  36  56  78 107 140 179 238 300 344
#
# _framework density 21.047872999999999
#
# number of rings (size 3 to 8) (size 9 to 14) (size 15 to 20)
#    0.000    2.000    0.000    3.000    0.000    3.600 
#    0.000    9.000    0.000    9.600    0.000    0.000 
#    0.000    0.800    0.000    0.000    0.000    0.000 
#
# Total GULP energy -495978.947952 kJ/mol
# GULP energy per Si atom -12399.473699 kJ/mol
# Density = 2.099997 g / cm^3
# Si number density = 21.047873 Si / 1000 Ang^3
#
#
#
# Elastic Constant Matrix: (Units=GPa)
#
#
# Indices 1 2 3 4 5 6 
#
# 1 62.7529 17.0861 11.1965 0.0000 0.0000 0.0000
# 2 17.0861 115.4761 18.8507 0.0000 0.0000 0.0000
# 3 11.1965 18.8507 61.2686 0.0000 0.0000 0.0000
# 4 0.0000 0.0000 0.0000 23.0208 0.0000 0.0000
# 5 0.0000 0.0000 0.0000 0.0000 22.5323 0.0000
# 6 0.0000 0.0000 0.0000 0.0000 0.0000 29.0311
#
#
#
# Elastic Compliance Matrix: (Units=1/GPa)
#
#
# Indices 1 2 3 4 5 6 
#
# 1 0.016946 -0.002108 -0.002448 0.000000 0.000000 0.000000
# 2 -0.002108 0.009380 -0.002501 0.000000 0.000000 0.000000
# 3 -0.002448 -0.002501 0.017538 0.000000 0.000000 0.000000
# 4 0.000000 0.000000 0.000000 0.043439 0.000000 0.000000
# 5 0.000000 0.000000 0.000000 0.000000 0.044381 0.000000
# 6 0.000000 0.000000 0.000000 0.000000 0.000000 0.034446
#
#
# Mechanical properties :
#
#
# Convention : Reuss Voigt Hill
#
# Bulk Modulus (GPa) = 33.61243 37.08489 35.34866
# Shear Modulus (GPa) = 26.29355 27.74113 27.01734
#
# Velocity S-wave (km/s) = 3.53827 3.63437 3.58664
# Velocity P-wave (km/s) = 5.71810 5.93878 5.82948
#
# Compressibility (1/GPa) = 0.02975090
#
# Stress axis : x y z
#
# Youngs Moduli (GPa) = 59.01013 106.61094 57.01774
#
# Poissons Ratio (x) = 0.22471 0.13960
# Poissons Ratio (y) = 0.12438 0.14259
# Poissons Ratio (z) = 0.14448 0.26661
#
# Static dielectric constant tensor:
#      x y z
#    x 3.884620 0.000000 0.000000 
#    y 0.000000 4.002060 0.000000 
#    z 0.000000 0.000000 3.719590 
# 
# 
# High freq. dielectric constant tensor:
#      x y z
#    x 1.828280 0.000000 0.000000 
#    y 0.000000 1.833470 0.000000 
#    z 0.000000 0.000000 1.815150 
# 
# From -- ./inp_files/20596.got.cif
#   From: 2010.03.12/outbox.cif.g09.slc.cpg/sg55_11_cif.got.tgz:20596.got - 2010.04.16 15:19:21.
