data_PCOD8226857
_publ_section_title
;
Structure prediction by ZEFSAII (Michael W. Deem and Ramdas Pophale) SiO2 
 PCOD8226857
Probable space group: P B A M
;
_chemical_formula_sum "Si O2"
_cell_formula_units_Z 64
_cell_length_a 14.199568
_cell_length_b 9.403681
_cell_length_c 22.111919
_cell_angle_alpha 90.000000
_cell_angle_beta 90.000000
_cell_angle_gamma 90.000000
_cell_volume 2952.564915
_symmetry_space_group_name_H-M "P B A M"
_symmetry_group_IT_number 55
_symmetry_cell_setting 'orthorhombic'
loop_
_space_group_symop_operation_xyz
x,y,z
-x,-y,z
1/2+x,1/2-y,-z
1/2-x,1/2+y,-z
-x,-y,-z
x,y,-z
1/2-x,1/2+y,z
1/2+x,1/2-y,z
loop_
_atom_site_type_symbol
_atom_site_label
_atom_site_fract_x
_atom_site_fract_y
_atom_site_fract_z
Si Si1 0.057671 0.360978 0.386223
Si Si2 0.754183 0.520256 0.334431
Si Si3 0.759226 0.777712 0.255456
Si Si4 0.098507 0.071784 0.566689
Si Si5 0.807149 0.813909 0.123247
Si Si6 0.827097 0.118875 0.068597
Si Si7 0.488143 0.332175 0.849449
Si Si8 0.521616 0.335892 0.719422
O O1 0.161829 0.410051 0.370453
O O2 0.077183 0.241228 0.436584
O O3 0.999641 0.279623 0.332732
O O4 0.000000 0.500000 0.409075
O O5 0.719749 0.630031 0.282412
O O6 0.797607 0.391349 0.295656
O O7 0.672267 0.472332 0.381138
O O8 0.743353 0.786849 0.183418
O O9 0.868080 0.819666 0.266649
O O10 0.135899 0.026057 0.500000
O O11 0.000000 0.000000 0.582210
O O12 0.764182 0.719508 0.069384
O O13 0.913642 0.758718 0.132090
O O14 0.803097 0.977892 0.105496
O O15 0.909317 0.209722 0.101838
O O16 0.856783 0.083750 0.000000
O O17 0.500000 0.500000 0.852395
O O18 0.462449 0.291801 0.779808
O O19 0.500000 0.500000 0.700202
#
# Coordination Sequence:
#
# PCOD8226857 Si02
#       8
#     8   8   8   8   8   8   8   8
#     4  11  25  39  64 100 132 166 214 265 323 382
#     4  11  22  42  62  99 129 168 209 268 324 377
#     4  10  21  35  64  94 125 162 215 264 330 392
#     4  11  26  48  70  94 128 176 222 257 312 386
#     4  10  21  39  57  90 124 159 208 269 320 375
#     4  11  22  37  59  86 120 169 219 259 320 388
#     4   8  18  35  59  85 115 159 214 261 309 374
#     4   9  17  36  60  90 126 165 209 263 327 387
#
# _framework density 21.676068000000001
#
# number of rings (size 3 to 8) (size 9 to 14) (size 15 to 20)
#    0.000    1.875    2.500    2.250    1.750    4.500 
#    0.000    0.625    0.000    1.500    0.000    0.000 
#    0.000    0.000    0.000    0.000    0.000    0.000 
#
# Total GULP energy -792936.492510 kJ/mol
# GULP energy per Si atom -12389.632695 kJ/mol
# Density = 2.162673 g / cm^3
# Si number density = 21.676068 Si / 1000 Ang^3
#
#
#
# Elastic Constant Matrix: (Units=GPa)
#
#
# Indices 1 2 3 4 5 6 
#
# 1 52.5343 40.1878 42.1252 0.0000 0.0000 0.0000
# 2 40.1878 97.1721 28.0540 0.0000 0.0000 0.0000
# 3 42.1252 28.0540 137.5613 0.0000 0.0000 0.0000
# 4 0.0000 0.0000 0.0000 12.1080 0.0000 0.0000
# 5 0.0000 0.0000 0.0000 0.0000 13.5486 0.0000
# 6 0.0000 0.0000 0.0000 0.0000 0.0000 35.7145
#
#
#
# Elastic Compliance Matrix: (Units=1/GPa)
#
#
# Indices 1 2 3 4 5 6 
#
# 1 0.034822 -0.012031 -0.008210 0.000000 0.000000 0.000000
# 2 -0.012031 0.015092 0.000607 0.000000 0.000000 0.000000
# 3 -0.008210 0.000607 0.009660 0.000000 0.000000 0.000000
# 4 0.000000 0.000000 0.000000 0.082590 0.000000 0.000000
# 5 0.000000 0.000000 0.000000 0.000000 0.073808 0.000000
# 6 0.000000 0.000000 0.000000 0.000000 0.000000 0.028000
#
#
# Mechanical properties :
#
#
# Convention : Reuss Voigt Hill
#
# Bulk Modulus (GPa) = 49.25021 56.44463 52.84742
# Shear Modulus (GPa) = 17.24083 24.06759 20.65421
#
# Velocity S-wave (km/s) = 2.82332 3.33578 3.09019
# Velocity P-wave (km/s) = 5.77914 6.39790 6.09638
#
# Compressibility (1/GPa) = 0.02030448
#
# Stress axis : x y z
#
# Youngs Moduli (GPa) = 28.71735 66.26139 103.52077
#
# Poissons Ratio (x) = 0.79721 0.84990
# Poissons Ratio (y) = 0.34551 -0.06279
# Poissons Ratio (z) = 0.23577 -0.04019
#
# Static dielectric constant tensor:
#      x y z
#    x 3.919340 0.000000 0.000000 
#    y 0.000000 4.050410 0.000000 
#    z 0.000000 0.000000 4.018820 
# 
# 
# High freq. dielectric constant tensor:
#      x y z
#    x 1.845780 0.000000 0.000000 
#    y 0.000000 1.840940 0.000000 
#    z 0.000000 0.000000 1.852990 
# 
# From -- ./inp_files/23616.got.cif
#   From: 2010.03.12/outbox.cif.g09.slc.cpg/sg55_12_cif.got.tgz:23616.got - 2010.04.16 15:19:21.
