data_PCOD8226821
_publ_section_title
;
Structure prediction by ZEFSAII (Michael W. Deem and Ramdas Pophale) SiO2 
 PCOD8226821
Probable space group: P B A M
;
_chemical_formula_sum "Si O2"
_cell_formula_units_Z 56
_cell_length_a 18.588431
_cell_length_b 19.079287
_cell_length_c 8.955428
_cell_angle_alpha 90.000000
_cell_angle_beta 90.000000
_cell_angle_gamma 90.000000
_cell_volume 3176.078451
_symmetry_space_group_name_H-M "P B A M"
_symmetry_group_IT_number 55
_symmetry_cell_setting 'orthorhombic'
loop_
_space_group_symop_operation_xyz
x,y,z
-x,-y,z
1/2+x,1/2-y,-z
1/2-x,1/2+y,-z
-x,-y,-z
x,y,-z
1/2-x,1/2+y,z
1/2+x,1/2-y,z
loop_
_atom_site_type_symbol
_atom_site_label
_atom_site_fract_x
_atom_site_fract_y
_atom_site_fract_z
Si Si1 0.487712 0.690780 0.826319
Si Si2 0.262888 0.887039 0.672940
Si Si3 0.232982 0.672606 0.171351
Si Si4 0.064474 0.051461 0.324467
Si Si5 0.287654 0.522033 0.824290
Si Si6 0.862986 0.221568 0.326598
Si Si7 0.643949 0.218771 0.830749
O O1 0.451137 0.627220 0.740738
O O2 0.566271 0.706290 0.766394
O O3 0.438445 0.759538 0.800130
O O4 0.491540 0.671164 0.000000
O O5 0.268776 0.906461 0.500000
O O6 0.192564 0.840779 0.707379
O O7 0.333842 0.843967 0.720718
O O8 0.260382 0.957446 0.769250
O O9 0.244878 0.592428 0.219028
O O10 0.170556 0.704720 0.274538
O O11 0.307736 0.712639 0.198418
O O12 0.208017 0.678839 0.000000
O O13 0.074966 0.058345 0.500000
O O14 0.135927 0.018134 0.256360
O O15 0.000000 0.000000 0.282058
O O16 0.301035 0.517891 0.000000
O O17 0.882658 0.225955 0.500000
O O18 0.654481 0.192256 0.000000
#
# Coordination Sequence:
#
# PCOD8226821 Si02
#       7
#     8   8   8   8   8   8   8
#     4  11  21  35  55  79 106 141 181 222 268 318
#     4  10  21  35  52  78 109 141 178 218 266 320
#     4   9  18  35  55  76 102 135 180 223 262 315
#     4  11  23  35  49  75 113 149 179 216 265 324
#     4  11  21  35  55  79 106 141 181 222 268 318
#     4  10  21  35  52  78 109 141 178 218 266 320
#     4   9  18  35  55  76 102 135 180 223 262 315
#
# _framework density 17.631806999999998
#
# number of rings (size 3 to 8) (size 9 to 14) (size 15 to 20)
#    0.000    1.857    1.429    3.000    0.000    8.571 
#    0.000    0.000    0.000    0.857    0.000    6.000 
#    0.000    0.000    0.000    0.000    0.000    0.000 
#
# Total GULP energy -694632.319496 kJ/mol
# GULP energy per Si atom -12404.148562 kJ/mol
# Density = 1.759168 g / cm^3
# Si number density = 17.631807 Si / 1000 Ang^3
#
#
#
# Elastic Constant Matrix: (Units=GPa)
#
#
# Indices 1 2 3 4 5 6 
#
# 1 15.5330 5.3057 11.1149 0.0000 0.0000 0.0000
# 2 5.3057 90.2876 32.2882 0.0000 0.0000 0.0000
# 3 11.1149 32.2882 44.2411 0.0000 0.0000 0.0000
# 4 0.0000 0.0000 0.0000 23.5899 0.0000 0.0000
# 5 0.0000 0.0000 0.0000 0.0000 27.0684 0.0000
# 6 0.0000 0.0000 0.0000 0.0000 0.0000 19.3444
#
#
#
# Elastic Compliance Matrix: (Units=1/GPa)
#
#
# Indices 1 2 3 4 5 6 
#
# 1 0.079223 0.003332 -0.022335 0.000000 0.000000 0.000000
# 2 0.003332 0.015127 -0.011877 0.000000 0.000000 0.000000
# 3 -0.022335 -0.011877 0.036883 0.000000 0.000000 0.000000
# 4 0.000000 0.000000 0.000000 0.042391 0.000000 0.000000
# 5 0.000000 0.000000 0.000000 0.000000 0.036943 0.000000
# 6 0.000000 0.000000 0.000000 0.000000 0.000000 0.051695
#
#
# Mechanical properties :
#
#
# Convention : Reuss Voigt Hill
#
# Bulk Modulus (GPa) = 14.39424 27.49770 20.94597
# Shear Modulus (GPa) = 14.40166 20.75741 17.57954
#
# Velocity S-wave (km/s) = 2.86107 3.43486 3.16101
# Velocity P-wave (km/s) = 4.36988 5.60003 5.02276
#
# Compressibility (1/GPa) = 0.06947225
#
# Stress axis : x y z
#
# Youngs Moduli (GPa) = 12.62256 66.10484 27.11255
#
# Poissons Ratio (x) = -0.22025 0.60557
# Poissons Ratio (y) = -0.04206 0.32203
# Poissons Ratio (z) = 0.28193 0.78516
#
# Static dielectric constant tensor:
#      x y z
#    x 3.246560 0.000000 0.000000 
#    y 0.000000 3.285690 0.000000 
#    z 0.000000 0.000000 3.355220 
# 
# 
# High freq. dielectric constant tensor:
#      x y z
#    x 1.667580 0.000000 0.000000 
#    y 0.000000 1.676210 0.000000 
#    z 0.000000 0.000000 1.694430 
# 
# From -- ./inp_files/7869.got.cif
#   From: 2010.03.12/outbox.cif.g09.slc.cpg/sg55_4_cif.got.tgz:7869.got - 2010.04.16 15:19:21.
