data_PCOD8226511
_publ_section_title
;
Structure prediction by ZEFSAII (Michael W. Deem and Ramdas Pophale) SiO2 
 PCOD8226511
Probable space group: P B A M
;
_chemical_formula_sum "Si O2"
_cell_formula_units_Z 40
_cell_length_a 8.862575
_cell_length_b 10.708106
_cell_length_c 20.715244
_cell_angle_alpha 90.000000
_cell_angle_beta 90.000000
_cell_angle_gamma 90.000000
_cell_volume 1965.905502
_symmetry_space_group_name_H-M "P B A M"
_symmetry_group_IT_number 55
_symmetry_cell_setting 'orthorhombic'
loop_
_space_group_symop_operation_xyz
x,y,z
-x,-y,z
1/2+x,1/2-y,-z
1/2-x,1/2+y,-z
-x,-y,-z
x,y,-z
1/2-x,1/2+y,z
1/2+x,1/2-y,z
loop_
_atom_site_type_symbol
_atom_site_label
_atom_site_fract_x
_atom_site_fract_y
_atom_site_fract_z
Si Si1 0.195610 0.091498 0.425803
Si Si2 0.216531 0.250594 0.154443
Si Si3 0.461325 0.361023 0.762342
Si Si4 0.961323 0.359620 0.929507
Si Si5 0.124592 0.831198 0.378329
O O1 0.227260 0.060064 0.500000
O O2 0.303285 0.204155 0.404288
O O3 0.026975 0.142028 0.417539
O O4 0.223892 0.959864 0.386717
O O5 0.328934 0.354948 0.184082
O O6 0.323281 0.147615 0.120848
O O7 0.116601 0.198994 0.212778
O O8 0.112548 0.299112 0.097688
O O9 0.500000 0.500000 0.743928
O O10 0.408471 0.297409 0.696275
O O11 0.000000 0.500000 0.941130
O O12 0.923332 0.298879 0.000000
#
# Coordination Sequence:
#
# PCOD8226511 Si02
#       5
#     8   8   8   8   8
#     4  11  22  41  63  89 121 156 199 245 301 358
#     4  10  22  36  58  86 116 156 193 241 296 346
#     4  11  21  38  58  83 120 152 199 243 293 356
#     4  10  20  37  58  85 117 152 195 240 289 347
#     4  11  23  40  62  90 120 160 197 250 299 357
#
# _framework density 20.346858999999998
#
# number of rings (size 3 to 8) (size 9 to 14) (size 15 to 20)
#    0.000    1.400    2.000    5.400    0.000    0.800 
#    0.000    2.000    0.000    9.600    0.000    0.000 
#    0.000    0.000    0.000    0.000    0.000    0.000 
#
# Total GULP energy -495736.713128 kJ/mol
# GULP energy per Si atom -12393.417828 kJ/mol
# Density = 2.030055 g / cm^3
# Si number density = 20.346859 Si / 1000 Ang^3
#
#
#
# Elastic Constant Matrix: (Units=GPa)
#
#
# Indices 1 2 3 4 5 6 
#
# 1 94.2067 29.2180 47.4856 0.0000 0.0000 0.0000
# 2 29.2180 58.5601 37.5428 0.0000 0.0000 0.0000
# 3 47.4856 37.5428 146.2471 0.0000 0.0000 0.0000
# 4 0.0000 0.0000 0.0000 31.6926 0.0000 0.0000
# 5 0.0000 0.0000 0.0000 0.0000 36.7043 0.0000
# 6 0.0000 0.0000 0.0000 0.0000 0.0000 30.0515
#
#
#
# Elastic Compliance Matrix: (Units=1/GPa)
#
#
# Indices 1 2 3 4 5 6 
#
# 1 0.013725 -0.004777 -0.003230 0.000000 0.000000 0.000000
# 2 -0.004777 0.022103 -0.004123 0.000000 0.000000 0.000000
# 3 -0.003230 -0.004123 0.008945 0.000000 0.000000 0.000000
# 4 0.000000 0.000000 0.000000 0.031553 0.000000 0.000000
# 5 0.000000 0.000000 0.000000 0.000000 0.027245 0.000000
# 6 0.000000 0.000000 0.000000 0.000000 0.000000 0.033276
#
#
# Mechanical properties :
#
#
# Convention : Reuss Voigt Hill
#
# Bulk Modulus (GPa) = 48.75036 58.61186 53.68111
# Shear Modulus (GPa) = 29.77175 32.00751 30.88963
#
# Velocity S-wave (km/s) = 3.82934 3.97053 3.90057
# Velocity P-wave (km/s) = 6.60026 7.06321 6.83566
#
# Compressibility (1/GPa) = 0.02051267
#
# Stress axis : x y z
#
# Youngs Moduli (GPa) = 72.86158 45.24239 111.79539
#
# Poissons Ratio (x) = 0.21612 0.36110
# Poissons Ratio (y) = 0.34806 0.46093
# Poissons Ratio (z) = 0.23534 0.18653
#
# Static dielectric constant tensor:
#      x y z
#    x 3.744540 0.000000 0.000000 
#    y 0.000000 4.167870 0.000000 
#    z 0.000000 0.000000 3.896870 
# 
# 
# High freq. dielectric constant tensor:
#      x y z
#    x 1.794790 0.000000 0.000000 
#    y 0.000000 1.785180 0.000000 
#    z 0.000000 0.000000 1.814860 
# 
# From -- ./inp_files/20602.got.cif
#   From: 2010.03.12/outbox.cif.g09.slc.cpg/sg55_11_cif.got.tgz:20602.got - 2010.04.16 15:19:21.
