data_PCOD8226831
_publ_section_title
;
Structure prediction by ZEFSAII (Michael W. Deem and Ramdas Pophale) SiO2 
 PCOD8226831
Probable space group: P B A M
;
_chemical_formula_sum "Si O2"
_cell_formula_units_Z 48
_cell_length_a 11.948725
_cell_length_b 23.213940
_cell_length_c 9.251571
_cell_angle_alpha 90.000000
_cell_angle_beta 90.000000
_cell_angle_gamma 90.000000
_cell_volume 2566.172873
_symmetry_space_group_name_H-M "P B A M"
_symmetry_group_IT_number 55
_symmetry_cell_setting 'orthorhombic'
loop_
_space_group_symop_operation_xyz
x,y,z
-x,-y,z
1/2+x,1/2-y,-z
1/2-x,1/2+y,-z
-x,-y,-z
x,y,-z
1/2-x,1/2+y,z
1/2+x,1/2-y,z
loop_
_atom_site_type_symbol
_atom_site_label
_atom_site_fract_x
_atom_site_fract_y
_atom_site_fract_z
Si Si1 0.004340 0.113648 0.668658
Si Si2 0.161927 0.219824 0.331380
Si Si3 0.318472 0.545177 0.832510
Si Si4 0.336138 0.149650 0.167258
Si Si5 0.209803 0.914512 0.166398
Si Si6 0.410110 0.832176 0.166369
O O1 0.995431 0.100846 0.500000
O O2 0.065001 0.173811 0.701702
O O3 0.071684 0.061208 0.741481
O O4 0.881404 0.117871 0.736232
O O5 0.184497 0.227136 0.500000
O O6 0.277728 0.199855 0.259144
O O7 0.124606 0.280062 0.267338
O O8 0.216310 0.587643 0.793633
O O9 0.279883 0.481319 0.789775
O O10 0.351687 0.549786 0.000000
O O11 0.466093 0.146963 0.208141
O O12 0.317370 0.164776 0.000000
O O13 0.329695 0.886147 0.196071
O O14 0.173642 0.907570 0.000000
O O15 0.403731 0.811947 0.000000
#
# Coordination Sequence:
#
# PCOD8226831 Si02
#       6
#     8   8   8   8   8   8
#     4  10  21  36  55  81 110 145 185 227 273 318
#     4  10  22  38  56  78 108 144 184 228 274 323
#     4   9  18  35  58  82 110 144 180 222 273 325
#     4   9  19  37  59  81 107 142 182 223 272 327
#     4  10  21  35  54  83 114 143 179 223 272 326
#     4  10  22  37  55  82 111 143 182 225 273 325
#
# _framework density 18.704896999999999
#
# number of rings (size 3 to 8) (size 9 to 14) (size 15 to 20)
#    0.000    2.333    0.000    1.500    2.333    6.667 
#    0.000    3.333    0.000    0.000    0.000    7.000 
#    0.000    0.000    0.000    0.000    0.000    0.000 
#
# Total GULP energy -595426.587322 kJ/mol
# GULP energy per Si atom -12404.720569 kJ/mol
# Density = 1.866232 g / cm^3
# Si number density = 18.704897 Si / 1000 Ang^3
#
#
#
# Elastic Constant Matrix: (Units=GPa)
#
#
# Indices 1 2 3 4 5 6 
#
# 1 135.0441 35.7480 47.0441 0.0000 0.0000 0.0000
# 2 35.7480 79.0576 34.2898 0.0000 0.0000 0.0000
# 3 47.0441 34.2898 66.3032 0.0000 0.0000 0.0000
# 4 0.0000 0.0000 0.0000 19.2711 0.0000 0.0000
# 5 0.0000 0.0000 0.0000 0.0000 14.2815 0.0000
# 6 0.0000 0.0000 0.0000 0.0000 0.0000 21.9727
#
#
#
# Elastic Compliance Matrix: (Units=1/GPa)
#
#
# Indices 1 2 3 4 5 6 
#
# 1 0.010046 -0.001871 -0.006161 0.000000 0.000000 0.000000
# 2 -0.001871 0.016655 -0.007286 0.000000 0.000000 0.000000
# 3 -0.006161 -0.007286 0.023222 0.000000 0.000000 0.000000
# 4 0.000000 0.000000 0.000000 0.051891 0.000000 0.000000
# 5 0.000000 0.000000 0.000000 0.000000 0.070020 0.000000
# 6 0.000000 0.000000 0.000000 0.000000 0.000000 0.045511
#
#
# Mechanical properties :
#
#
# Convention : Reuss Voigt Hill
#
# Bulk Modulus (GPa) = 51.84586 57.17430 54.51008
# Shear Modulus (GPa) = 19.65330 21.99327 20.82329
#
# Velocity S-wave (km/s) = 3.24497 3.43272 3.34016
# Velocity P-wave (km/s) = 6.46667 6.80766 6.63935
#
# Compressibility (1/GPa) = 0.01928794
#
# Stress axis : x y z
#
# Youngs Moduli (GPa) = 99.53878 60.04170 43.06326
#
# Poissons Ratio (x) = 0.11231 0.26530
# Poissons Ratio (y) = 0.18620 0.31377
# Poissons Ratio (z) = 0.61324 0.43748
#
# Static dielectric constant tensor:
#      x y z
#    x 3.517750 0.000000 0.000000 
#    y 0.000000 3.453230 0.000000 
#    z 0.000000 0.000000 3.424650 
# 
# 
# High freq. dielectric constant tensor:
#      x y z
#    x 1.728900 0.000000 0.000000 
#    y 0.000000 1.728190 0.000000 
#    z 0.000000 0.000000 1.722740 
# 
# From -- ./inp_files/4028.got.cif
#   From: 2010.03.12/outbox.cif.g09.slc.cpg/sg55_3_cif.got.tgz:4028.got - 2010.04.16 15:19:21.
