data_PCOD8226111
_publ_section_title
;
Structure prediction by ZEFSAII (Michael W. Deem and Ramdas Pophale) SiO2 
 PCOD8226111
Probable space group: P B A M
;
_chemical_formula_sum "Si O2"
_cell_formula_units_Z 40
_cell_length_a 14.459126
_cell_length_b 16.665510
_cell_length_c 9.074500
_cell_angle_alpha 90.000000
_cell_angle_beta 90.000000
_cell_angle_gamma 90.000000
_cell_volume 2186.670549
_symmetry_space_group_name_H-M "P B A M"
_symmetry_group_IT_number 55
_symmetry_cell_setting 'orthorhombic'
loop_
_space_group_symop_operation_xyz
x,y,z
-x,-y,z
1/2+x,1/2-y,-z
1/2-x,1/2+y,-z
-x,-y,-z
x,y,-z
1/2-x,1/2+y,z
1/2+x,1/2-y,z
loop_
_atom_site_type_symbol
_atom_site_label
_atom_site_fract_x
_atom_site_fract_y
_atom_site_fract_z
Si Si1 0.421029 0.150228 0.665313
Si Si2 0.036816 0.233099 0.173974
Si Si3 0.573454 0.430693 0.329752
Si Si4 0.277591 0.022637 0.325234
Si Si5 0.376518 0.867439 0.665241
O O1 0.393081 0.178199 0.500000
O O2 0.439668 0.229593 0.765175
O O3 0.340992 0.095145 0.737158
O O4 0.517414 0.099948 0.659831
O O5 0.044899 0.142952 0.229132
O O6 0.123816 0.286096 0.235697
O O7 0.037290 0.234788 0.000000
O O8 0.500000 0.500000 0.303750
O O9 0.576779 0.403403 0.500000
O O10 0.672601 0.463724 0.277106
O O11 0.291414 0.020106 0.500000
O O12 0.311994 0.936476 0.263077
O O13 0.342533 0.844905 0.500000
#
# Coordination Sequence:
#
# PCOD8226111 Si02
#       5
#     8   8   8   8   8
#     4   8  15  30  55  81 106 131 169 222 273 312
#     4  10  20  35  52  74 110 147 175 210 263 318
#     4  10  21  38  57  77 105 140 184 225 260 309
#     4   9  16  31  57  84 104 135 177 223 271 313
#     4   8  15  30  54  81 107 132 169 222 272 311
#
# _framework density 18.292649999999998
#
# number of rings (size 3 to 8) (size 9 to 14) (size 15 to 20)
#    1.200    1.800    0.000    1.800    0.000    2.800 
#    3.600    4.000    0.000    0.000    0.000    0.000 
#    0.000    0.000    0.000    0.000    0.000    0.000 
#
# Total GULP energy -495562.021194 kJ/mol
# GULP energy per Si atom -12389.050530 kJ/mol
# Density = 1.825101 g / cm^3
# Si number density = 18.292650 Si / 1000 Ang^3
#
#
#
# Elastic Constant Matrix: (Units=GPa)
#
#
# Indices 1 2 3 4 5 6 
#
# 1 84.8477 49.0023 27.6848 0.0000 0.0000 0.0000
# 2 49.0023 118.8902 61.3611 0.0000 0.0000 0.0000
# 3 27.6848 61.3611 94.9182 0.0000 0.0000 0.0000
# 4 0.0000 0.0000 0.0000 7.4276 0.0000 0.0000
# 5 0.0000 0.0000 0.0000 0.0000 6.8029 0.0000
# 6 0.0000 0.0000 0.0000 0.0000 0.0000 11.3771
#
#
#
# Elastic Compliance Matrix: (Units=1/GPa)
#
#
# Indices 1 2 3 4 5 6 
#
# 1 0.015489 -0.006082 -0.000586 0.000000 0.000000 0.000000
# 2 -0.006082 0.015010 -0.007930 0.000000 0.000000 0.000000
# 3 -0.000586 -0.007930 0.015833 0.000000 0.000000 0.000000
# 4 0.000000 0.000000 0.000000 0.134632 0.000000 0.000000
# 5 0.000000 0.000000 0.000000 0.000000 0.146997 0.000000
# 6 0.000000 0.000000 0.000000 0.000000 0.000000 0.087896
#
#
# Mechanical properties :
#
#
# Convention : Reuss Voigt Hill
#
# Bulk Modulus (GPa) = 58.35278 63.86137 61.10707
# Shear Modulus (GPa) = 11.09223 15.82871 13.46047
#
# Velocity S-wave (km/s) = 2.46514 2.94480 2.71558
# Velocity P-wave (km/s) = 6.33020 6.82270 6.58105
#
# Compressibility (1/GPa) = 0.01713715
#
# Stress axis : x y z
#
# Youngs Moduli (GPa) = 64.56006 66.62006 63.16015
#
# Poissons Ratio (x) = 0.40516 0.03703
# Poissons Ratio (y) = 0.39263 0.50085
# Poissons Ratio (z) = 0.03785 0.52829
#
# Static dielectric constant tensor:
#      x y z
#    x 3.228410 0.000000 0.000000 
#    y 0.000000 3.239160 0.000000 
#    z 0.000000 0.000000 2.967630 
# 
# 
# High freq. dielectric constant tensor:
#      x y z
#    x 1.689750 0.000000 0.000000 
#    y 0.000000 1.705930 0.000000 
#    z 0.000000 0.000000 1.670120 
# 
# From -- ./inp_files/5370.got.cif
#   From: 2010.03.12/outbox.cif.g09.slc.cpg/sg55_3_cif.got.tgz:5370.got - 2010.04.16 15:19:21.
