data_PCOD8226830
_publ_section_title
;
Structure prediction by ZEFSAII (Michael W. Deem and Ramdas Pophale) SiO2 
 PCOD8226830
Probable space group: P B A M
;
_chemical_formula_sum "Si O2"
_cell_formula_units_Z 52
_cell_length_a 14.642613
_cell_length_b 23.435515
_cell_length_c 7.504977
_cell_angle_alpha 90.000000
_cell_angle_beta 90.000000
_cell_angle_gamma 90.000000
_cell_volume 2575.386718
_symmetry_space_group_name_H-M "P B A M"
_symmetry_group_IT_number 55
_symmetry_cell_setting 'orthorhombic'
loop_
_space_group_symop_operation_xyz
x,y,z
-x,-y,z
1/2+x,1/2-y,-z
1/2-x,1/2+y,-z
-x,-y,-z
x,y,-z
1/2-x,1/2+y,z
1/2+x,1/2-y,z
loop_
_atom_site_type_symbol
_atom_site_label
_atom_site_fract_x
_atom_site_fract_y
_atom_site_fract_z
Si Si1 0.878998 0.722838 0.710741
Si Si2 0.692147 0.907309 0.697834
Si Si3 0.385769 0.650883 0.696120
Si Si4 0.854310 0.093876 0.000000
Si Si5 0.950087 0.921654 0.000000
Si Si6 0.817392 0.185765 0.712295
Si Si7 0.421382 0.198514 0.711159
Si Si8 0.742268 0.482925 0.000000
O O1 0.880168 0.724314 0.500000
O O2 0.871783 0.787117 0.781620
O O3 0.788972 0.689316 0.773034
O O4 0.974148 0.696374 0.782264
O O5 0.659639 0.927615 0.500000
O O6 0.789063 0.878348 0.680126
O O7 0.625508 0.859399 0.783722
O O8 0.700986 0.961925 0.827255
O O9 0.432269 0.654319 0.500000
O O10 0.451987 0.616464 0.823068
O O11 0.855930 0.132339 0.178040
O O12 0.946599 0.053187 0.000000
O O13 0.766537 0.051561 0.000000
O O14 0.862205 0.961562 0.000000
O O15 0.827919 0.175201 0.500000
O O16 0.870222 0.243537 0.772845
O O17 0.415235 0.196521 0.500000
#
# Coordination Sequence:
#
# PCOD8226830 Si02
#       8
#     8   8   8   4   4   8   8   4
#     4   9  16  29  52  81 115 145 169 209 268 328
#     4   9  17  33  56  79 105 137 178 224 265 310
#     4   9  16  30  52  79 110 140 170 209 263 322
#     4  12  25  38  53  76 107 146 187 220 267 327
#     4  10  21  35  54  77 103 138 182 229 266 307
#     4  10  21  37  55  81 118 147 172 216 269 327
#     4   9  16  30  56  86 111 140 176 215 268 329
#     4  10  23  39  55  75 102 142 189 232 266 307
#
# _framework density 20.191141999999999
#
# number of rings (size 3 to 8) (size 9 to 14) (size 15 to 20)
#    0.000    2.462    1.538    1.154    0.000    3.692 
#    0.000    2.308    0.000    6.462    0.000    4.308 
#    0.000    0.000    0.000    0.000    0.000    0.000 
#
# Total GULP energy -644244.406137 kJ/mol
# GULP energy per Si atom -12389.315503 kJ/mol
# Density = 2.014519 g / cm^3
# Si number density = 20.191142 Si / 1000 Ang^3
#
#
#
# Elastic Constant Matrix: (Units=GPa)
#
#
# Indices 1 2 3 4 5 6 
#
# 1 87.8344 10.7674 14.1201 0.0000 0.0000 0.0000
# 2 10.7674 26.2919 5.7628 0.0000 0.0000 0.0000
# 3 14.1201 5.7628 66.0931 0.0000 0.0000 0.0000
# 4 0.0000 0.0000 0.0000 24.0337 0.0000 0.0000
# 5 0.0000 0.0000 0.0000 0.0000 9.9454 0.0000
# 6 0.0000 0.0000 0.0000 0.0000 0.0000 16.4419
#
#
#
# Elastic Compliance Matrix: (Units=1/GPa)
#
#
# Indices 1 2 3 4 5 6 
#
# 1 0.012301 -0.004549 -0.002231 0.000000 0.000000 0.000000
# 2 -0.004549 0.040458 -0.002556 0.000000 0.000000 0.000000
# 3 -0.002231 -0.002556 0.015830 0.000000 0.000000 0.000000
# 4 0.000000 0.000000 0.000000 0.041608 0.000000 0.000000
# 5 0.000000 0.000000 0.000000 0.000000 0.100549 0.000000
# 6 0.000000 0.000000 0.000000 0.000000 0.000000 0.060820
#
#
# Mechanical properties :
#
#
# Convention : Reuss Voigt Hill
#
# Bulk Modulus (GPa) = 20.03335 26.83556 23.43446
# Shear Modulus (GPa) = 16.29316 20.05547 18.17431
#
# Velocity S-wave (km/s) = 2.84376 3.15505 3.00344
# Velocity P-wave (km/s) = 4.55258 5.15675 4.86406
#
# Compressibility (1/GPa) = 0.04991676
#
# Stress axis : x y z
#
# Youngs Moduli (GPa) = 81.29159 24.71726 63.17217
#
# Poissons Ratio (x) = 0.11243 0.14097
# Poissons Ratio (y) = 0.36977 0.16146
# Poissons Ratio (z) = 0.18140 0.06317
#
# Static dielectric constant tensor:
#      x y z
#    x 3.865890 0.000000 0.000000 
#    y 0.000000 3.395000 0.000000 
#    z 0.000000 0.000000 3.758340 
# 
# 
# High freq. dielectric constant tensor:
#      x y z
#    x 1.786920 0.000000 0.000000 
#    y 0.000000 1.753600 0.000000 
#    z 0.000000 0.000000 1.782110 
# 
# From -- ./inp_files/5954.got.cif
#   From: 2010.03.12/outbox.cif.g09.slc.cpg/sg55_3_cif.got.tgz:5954.got - 2010.04.16 15:19:21.
