data_PCOD8226186
_publ_section_title
;
Structure prediction by ZEFSAII (Michael W. Deem and Ramdas Pophale) SiO2 
 PCOD8226186
Probable space group: P B A M
;
_chemical_formula_sum "Si O2"
_cell_formula_units_Z 48
_cell_length_a 18.928573
_cell_length_b 15.133293
_cell_length_c 8.504737
_cell_angle_alpha 90.000000
_cell_angle_beta 90.000000
_cell_angle_gamma 90.000000
_cell_volume 2436.195872
_symmetry_space_group_name_H-M "P B A M"
_symmetry_group_IT_number 55
_symmetry_cell_setting 'orthorhombic'
loop_
_space_group_symop_operation_xyz
x,y,z
-x,-y,z
1/2+x,1/2-y,-z
1/2-x,1/2+y,-z
-x,-y,-z
x,y,-z
1/2-x,1/2+y,z
1/2+x,1/2-y,z
loop_
_atom_site_type_symbol
_atom_site_label
_atom_site_fract_x
_atom_site_fract_y
_atom_site_fract_z
Si Si1 0.666965 0.848821 0.317149
Si Si2 0.580784 0.003485 0.182425
Si Si3 0.582292 0.505819 0.315642
Si Si4 0.328686 0.340558 0.817362
Si Si5 0.826770 0.845114 0.684631
Si Si6 0.179940 0.350795 0.315289
O O1 0.652686 0.867198 0.500000
O O2 0.652422 0.746660 0.281168
O O3 0.747226 0.873243 0.270162
O O4 0.615286 0.908703 0.214526
O O5 0.618795 0.079847 0.280742
O O6 0.500000 0.000000 0.238363
O O7 0.586753 0.027292 0.000000
O O8 0.500000 0.500000 0.281094
O O9 0.598754 0.518278 0.500000
O O10 0.611621 0.588370 0.220118
O O11 0.618789 0.416855 0.246568
O O12 0.252452 0.379856 0.768902
O O13 0.329180 0.316755 0.000000
O O14 0.836316 0.842505 0.500000
O O15 0.843085 0.746328 0.748781
O O16 0.195639 0.347668 0.500000
#
# Coordination Sequence:
#
# PCOD8226186 Si02
#       6
#     8   8   8   8   8   8
#     4  10  20  37  61  83 107 147 198 242 279 333
#     4  11  24  39  55  83 122 156 187 231 290 347
#     4  10  20  35  56  83 115 150 189 232 278 335
#     4  11  22  37  58  84 115 148 186 237 294 343
#     4   8  17  34  56  82 108 138 184 240 283 320
#     4  10  20  37  60  83 109 147 198 243 280 334
#
# _framework density 19.702850999999999
#
# number of rings (size 3 to 8) (size 9 to 14) (size 15 to 20)
#    0.000    2.000    0.000    5.000    0.000    4.333 
#    0.000    5.833    0.000    0.000    0.000    0.000 
#    0.000    0.000    0.000    0.000    0.000    0.000 
#
# Total GULP energy -595340.804206 kJ/mol
# GULP energy per Si atom -12402.933421 kJ/mol
# Density = 1.965801 g / cm^3
# Si number density = 19.702851 Si / 1000 Ang^3
#
#
#
# Elastic Constant Matrix: (Units=GPa)
#
#
# Indices 1 2 3 4 5 6 
#
# 1 115.2569 65.3286 25.5082 0.0000 0.0000 0.0000
# 2 65.3286 106.5065 15.0836 0.0000 0.0000 0.0000
# 3 25.5082 15.0836 48.2744 0.0000 0.0000 0.0000
# 4 0.0000 0.0000 0.0000 25.5037 0.0000 0.0000
# 5 0.0000 0.0000 0.0000 0.0000 23.6452 0.0000
# 6 0.0000 0.0000 0.0000 0.0000 0.0000 14.5684
#
#
#
# Elastic Compliance Matrix: (Units=1/GPa)
#
#
# Indices 1 2 3 4 5 6 
#
# 1 0.014397 -0.008112 -0.005073 0.000000 0.000000 0.000000
# 2 -0.008112 0.014395 -0.000211 0.000000 0.000000 0.000000
# 3 -0.005073 -0.000211 0.023461 0.000000 0.000000 0.000000
# 4 0.000000 0.000000 0.000000 0.039210 0.000000 0.000000
# 5 0.000000 0.000000 0.000000 0.000000 0.042292 0.000000
# 6 0.000000 0.000000 0.000000 0.000000 0.000000 0.068641
#
#
# Mechanical properties :
#
#
# Convention : Reuss Voigt Hill
#
# Bulk Modulus (GPa) = 39.27599 53.54204 46.40901
# Shear Modulus (GPa) = 21.03700 23.68462 22.36081
#
# Velocity S-wave (km/s) = 3.27113 3.47088 3.37249
# Velocity P-wave (km/s) = 5.85188 6.58000 6.22659
#
# Compressibility (1/GPa) = 0.02546085
#
# Stress axis : x y z
#
# Youngs Moduli (GPa) = 69.45817 69.46854 42.62336
#
# Poissons Ratio (x) = 0.56356 0.21621
# Poissons Ratio (y) = 0.56348 0.00900
# Poissons Ratio (z) = 0.35234 0.01467
#
# Static dielectric constant tensor:
#      x y z
#    x 3.617640 0.000000 0.000000 
#    y 0.000000 3.835050 0.000000 
#    z 0.000000 0.000000 3.403410 
# 
# 
# High freq. dielectric constant tensor:
#      x y z
#    x 1.762220 0.000000 0.000000 
#    y 0.000000 1.780370 0.000000 
#    z 0.000000 0.000000 1.754880 
# 
# From -- ./inp_files/5684.got.cif
#   From: 2010.03.12/outbox.cif.g09.slc.cpg/sg55_3_cif.got.tgz:5684.got - 2010.04.16 15:19:21.
