data_PCOD8226510
_publ_section_title
;
Structure prediction by ZEFSAII (Michael W. Deem and Ramdas Pophale) SiO2 
 PCOD8226510
Probable space group: P B A M
;
_chemical_formula_sum "Si O2"
_cell_formula_units_Z 64
_cell_length_a 30.360078
_cell_length_b 11.893228
_cell_length_c 9.087325
_cell_angle_alpha 90.000000
_cell_angle_beta 90.000000
_cell_angle_gamma 90.000000
_cell_volume 3281.245220
_symmetry_space_group_name_H-M "P B A M"
_symmetry_group_IT_number 55
_symmetry_cell_setting 'orthorhombic'
loop_
_space_group_symop_operation_xyz
x,y,z
-x,-y,z
1/2+x,1/2-y,-z
1/2-x,1/2+y,-z
-x,-y,-z
x,y,-z
1/2-x,1/2+y,z
1/2+x,1/2-y,z
loop_
_atom_site_type_symbol
_atom_site_label
_atom_site_fract_x
_atom_site_fract_y
_atom_site_fract_z
Si Si1 0.798161 0.742295 0.327001
Si Si2 0.624220 0.648237 0.825763
Si Si3 0.826980 0.494526 0.667455
Si Si4 0.367879 0.604920 0.173346
Si Si5 0.291236 0.209824 0.826066
Si Si6 0.055579 0.271916 0.831895
Si Si7 0.042779 0.710476 0.830308
Si Si8 0.927811 0.499862 0.668600
O O1 0.793907 0.764036 0.500000
O O2 0.821388 0.624507 0.290280
O O3 0.826723 0.841114 0.256373
O O4 0.750424 0.737495 0.254307
O O5 0.627094 0.521494 0.765429
O O6 0.666938 0.717134 0.774382
O O7 0.580030 0.707389 0.762370
O O8 0.621050 0.644601 0.000000
O O9 0.811518 0.473234 0.500000
O O10 0.797653 0.418886 0.775541
O O11 0.877591 0.461008 0.689210
O O12 0.413153 0.668632 0.212425
O O13 0.357775 0.607582 0.000000
O O14 0.284063 0.213023 0.000000
O O15 0.066310 0.376384 0.730341
O O16 0.005024 0.232317 0.809839
O O17 0.064024 0.308573 0.000000
O O18 0.041549 0.590049 0.750271
O O19 0.053425 0.685925 0.000000
O O20 0.942112 0.502552 0.500000
#
# Coordination Sequence:
#
# PCOD8226510 Si02
#       8
#     8   8   8   8   8   8   8   8
#     4  11  24  42  61  86 119 155 192 239 291 346
#     4   9  20  38  59  84 116 149 189 238 287 338
#     4  10  22  40  61  86 117 154 194 238 289 344
#     4  10  21  39  60  86 116 152 196 240 287 344
#     4  11  23  39  62  90 117 151 192 241 291 344
#     4  10  21  35  58  87 117 152 193 239 289 345
#     4  10  20  37  58  85 117 152 192 237 291 347
#     4  11  21  36  58  85 118 152 192 239 288 344
#
# _framework density 19.50479
#
# number of rings (size 3 to 8) (size 9 to 14) (size 15 to 20)
#    0.000    1.750    2.500    1.500    1.750    4.000 
#    0.000    3.750    0.000    0.000    0.000    2.625 
#    0.000    0.000    0.000    0.000    0.000    0.000 
#
# Total GULP energy -793851.387442 kJ/mol
# GULP energy per Si atom -12403.927929 kJ/mol
# Density = 1.946040 g / cm^3
# Si number density = 19.504790 Si / 1000 Ang^3
#
#
#
# Elastic Constant Matrix: (Units=GPa)
#
#
# Indices 1 2 3 4 5 6 
#
# 1 109.9376 42.4886 40.7525 0.0000 0.0000 0.0000
# 2 42.4886 121.2739 41.4503 0.0000 0.0000 0.0000
# 3 40.7525 41.4503 70.5232 0.0000 0.0000 0.0000
# 4 0.0000 0.0000 0.0000 19.8838 0.0000 0.0000
# 5 0.0000 0.0000 0.0000 0.0000 24.3255 0.0000
# 6 0.0000 0.0000 0.0000 0.0000 0.0000 27.7158
#
#
#
# Elastic Compliance Matrix: (Units=1/GPa)
#
#
# Indices 1 2 3 4 5 6 
#
# 1 0.012071 -0.002309 -0.005618 0.000000 0.000000 0.000000
# 2 -0.002309 0.010760 -0.004990 0.000000 0.000000 0.000000
# 3 -0.005618 -0.004990 0.020359 0.000000 0.000000 0.000000
# 4 0.000000 0.000000 0.000000 0.050292 0.000000 0.000000
# 5 0.000000 0.000000 0.000000 0.000000 0.041109 0.000000
# 6 0.000000 0.000000 0.000000 0.000000 0.000000 0.036080
#
#
# Mechanical properties :
#
#
# Convention : Reuss Voigt Hill
#
# Bulk Modulus (GPa) = 57.61726 61.23528 59.42627
# Shear Modulus (GPa) = 24.71665 26.18789 25.45227
#
# Velocity S-wave (km/s) = 3.56365 3.66818 3.61629
# Velocity P-wave (km/s) = 6.82180 7.02879 6.92607
#
# Compressibility (1/GPa) = 0.01735591
#
# Stress axis : x y z
#
# Youngs Moduli (GPa) = 82.84291 92.93401 49.11740
#
# Poissons Ratio (x) = 0.21457 0.27596
# Poissons Ratio (y) = 0.19127 0.24511
# Poissons Ratio (z) = 0.46544 0.46376
#
# Static dielectric constant tensor:
#      x y z
#    x 3.725000 0.000000 0.000000 
#    y 0.000000 3.562020 0.000000 
#    z 0.000000 0.000000 3.403970 
# 
# 
# High freq. dielectric constant tensor:
#      x y z
#    x 1.772820 0.000000 0.000000 
#    y 0.000000 1.758850 0.000000 
#    z 0.000000 0.000000 1.745210 
# 
# From -- ./inp_files/4536.got.cif
#   From: 2010.03.12/outbox.cif.g09.slc.cpg/sg55_3_cif.got.tgz:4536.got - 2010.04.16 15:19:21.
