data_PCOD8226325
_publ_section_title
;
Structure prediction by ZEFSAII (Michael W. Deem and Ramdas Pophale) SiO2 
 PCOD8226325
Probable space group: P B A M
;
_chemical_formula_sum "Si O2"
_cell_formula_units_Z 64
_cell_length_a 18.498847
_cell_length_b 19.738041
_cell_length_c 9.120143
_cell_angle_alpha 90.000000
_cell_angle_beta 90.000000
_cell_angle_gamma 90.000000
_cell_volume 3330.046939
_symmetry_space_group_name_H-M "P B A M"
_symmetry_group_IT_number 55
_symmetry_cell_setting 'orthorhombic'
loop_
_space_group_symop_operation_xyz
x,y,z
-x,-y,z
1/2+x,1/2-y,-z
1/2-x,1/2+y,-z
-x,-y,-z
x,y,-z
1/2-x,1/2+y,z
1/2+x,1/2-y,z
loop_
_atom_site_type_symbol
_atom_site_label
_atom_site_fract_x
_atom_site_fract_y
_atom_site_fract_z
Si Si1 0.796824 0.410908 0.831845
Si Si2 0.040509 0.567429 0.168624
Si Si3 0.193147 0.742960 0.826616
Si Si4 0.297025 0.843904 0.328780
Si Si5 0.538482 0.699337 0.173941
Si Si6 0.446457 0.438608 0.670289
Si Si7 0.285580 0.476656 0.328024
Si Si8 0.461502 0.815572 0.328145
O O1 0.874702 0.445665 0.810639
O O2 0.800203 0.334260 0.772352
O O3 0.737460 0.452852 0.743872
O O4 0.772892 0.411342 0.000000
O O5 0.000000 0.500000 0.219702
O O6 0.017355 0.628673 0.271504
O O7 0.022531 0.586446 0.000000
O O8 0.258142 0.783633 0.755240
O O9 0.116474 0.772952 0.774452
O O10 0.199480 0.748291 0.000000
O O11 0.281347 0.834349 0.500000
O O12 0.266347 0.915967 0.273804
O O13 0.381294 0.841023 0.291008
O O14 0.527055 0.623782 0.232220
O O15 0.476044 0.745240 0.245270
O O16 0.529806 0.700968 0.000000
O O17 0.500000 0.500000 0.701669
O O18 0.446922 0.417197 0.500000
O O19 0.366732 0.460153 0.721471
O O20 0.279959 0.487115 0.500000
O O21 0.473012 0.804520 0.500000
#
# Coordination Sequence:
#
# PCOD8226325 Si02
#       8
#     8   8   8   8   8   8   8   8
#     4  10  21  37  56  84 119 152 193 241 288 349
#     4  10  20  36  57  82 117 158 197 242 295 350
#     4  10  21  38  60  85 115 154 200 247 294 351
#     4  10  22  39  59  86 118 153 198 245 294 359
#     4  11  22  40  64  88 120 158 203 252 301 362
#     4  10  22  41  65  91 122 159 203 254 307 359
#     4  10  21  38  59  86 120 157 198 245 296 355
#     4  11  23  37  58  88 121 155 197 248 300 358
#
# _framework density 19.218948000000001
#
# number of rings (size 3 to 8) (size 9 to 14) (size 15 to 20)
#    0.000    1.750    2.500    1.500    0.000    5.000 
#    0.000    3.750    0.000    0.000    0.000    0.000 
#    0.000    0.000    0.000    0.000    0.000    0.000 
#
# Total GULP energy -793955.037258 kJ/mol
# GULP energy per Si atom -12405.547457 kJ/mol
# Density = 1.917520 g / cm^3
# Si number density = 19.218948 Si / 1000 Ang^3
#
#
#
# Elastic Constant Matrix: (Units=GPa)
#
#
# Indices 1 2 3 4 5 6 
#
# 1 82.3319 42.5418 33.5678 0.0000 0.0000 0.0000
# 2 42.5418 127.9809 45.2113 0.0000 0.0000 0.0000
# 3 33.5678 45.2113 54.6029 0.0000 0.0000 0.0000
# 4 0.0000 0.0000 0.0000 38.5604 0.0000 0.0000
# 5 0.0000 0.0000 0.0000 0.0000 29.1227 0.0000
# 6 0.0000 0.0000 0.0000 0.0000 0.0000 40.7792
#
#
#
# Elastic Compliance Matrix: (Units=1/GPa)
#
#
# Indices 1 2 3 4 5 6 
#
# 1 0.016865 -0.002747 -0.008094 0.000000 0.000000 0.000000
# 2 -0.002747 0.011492 -0.007826 0.000000 0.000000 0.000000
# 3 -0.008094 -0.007826 0.029770 0.000000 0.000000 0.000000
# 4 0.000000 0.000000 0.000000 0.025933 0.000000 0.000000
# 5 0.000000 0.000000 0.000000 0.000000 0.034337 0.000000
# 6 0.000000 0.000000 0.000000 0.000000 0.000000 0.024522
#
#
# Mechanical properties :
#
#
# Convention : Reuss Voigt Hill
#
# Bulk Modulus (GPa) = 48.09329 56.39527 52.24428
# Shear Modulus (GPa) = 26.71163 31.26546 28.98854
#
# Velocity S-wave (km/s) = 3.73213 4.03774 3.88794
# Velocity P-wave (km/s) = 6.60681 7.15158 6.88458
#
# Compressibility (1/GPa) = 0.02079292
#
# Stress axis : x y z
#
# Youngs Moduli (GPa) = 59.29372 87.02061 33.59096
#
# Poissons Ratio (x) = 0.23904 0.27187
# Poissons Ratio (y) = 0.16287 0.26289
# Poissons Ratio (z) = 0.47990 0.68105
#
# Static dielectric constant tensor:
#      x y z
#    x 3.527230 0.000000 0.000000 
#    y 0.000000 3.572350 0.000000 
#    z 0.000000 0.000000 3.395330 
# 
# 
# High freq. dielectric constant tensor:
#      x y z
#    x 1.750230 0.000000 0.000000 
#    y 0.000000 1.757440 0.000000 
#    z 0.000000 0.000000 1.741090 
# 
# From -- ./inp_files/8062.got.cif
#   From: 2010.03.12/outbox.cif.g09.slc.cpg/sg55_5_cif.got.tgz:8062.got - 2010.04.16 15:19:21.
