data_PCOD8226836
_publ_section_title
;
Structure prediction by ZEFSAII (Michael W. Deem and Ramdas Pophale) SiO2 
 PCOD8226836
Probable space group: P B A M
;
_chemical_formula_sum "Si O2"
_cell_formula_units_Z 64
_cell_length_a 11.039867
_cell_length_b 31.329834
_cell_length_c 9.713517
_cell_angle_alpha 90.000000
_cell_angle_beta 90.000000
_cell_angle_gamma 90.000000
_cell_volume 3359.684067
_symmetry_space_group_name_H-M "P B A M"
_symmetry_group_IT_number 55
_symmetry_cell_setting 'orthorhombic'
loop_
_space_group_symop_operation_xyz
x,y,z
-x,-y,z
1/2+x,1/2-y,-z
1/2-x,1/2+y,-z
-x,-y,-z
x,y,-z
1/2-x,1/2+y,z
1/2+x,1/2-y,z
loop_
_atom_site_type_symbol
_atom_site_label
_atom_site_fract_x
_atom_site_fract_y
_atom_site_fract_z
Si Si1 0.781083 0.604958 0.151807
Si Si2 0.551453 0.186337 0.846201
Si Si3 0.118090 0.847150 0.654895
Si Si4 0.667696 0.824345 0.656496
Si Si5 0.226625 0.267381 0.341668
Si Si6 0.875537 0.889027 0.654760
Si Si7 0.130191 0.484951 0.161997
Si Si8 0.881979 0.971486 0.162836
O O1 0.671799 0.614708 0.253642
O O2 0.857210 0.564497 0.204612
O O3 0.864756 0.645655 0.143856
O O4 0.727131 0.594467 0.000000
O O5 0.433933 0.170024 0.769343
O O6 0.612924 0.223558 0.756776
O O7 0.521917 0.203507 0.000000
O O8 0.161153 0.856400 0.500000
O O9 0.162856 0.799663 0.696895
O O10 0.974170 0.851001 0.671406
O O11 0.616845 0.823293 0.500000
O O12 0.736343 0.780591 0.688624
O O13 0.749239 0.865754 0.679897
O O14 0.185952 0.273387 0.500000
O O15 0.882227 0.908147 0.500000
O O16 0.897046 0.926227 0.763415
O O17 0.253064 0.508665 0.214915
O O18 0.000000 0.500000 0.226881
O O19 0.122816 0.491805 0.000000
O O20 0.879010 0.963859 0.000000
O O21 0.000000 0.000000 0.202233
#
# Coordination Sequence:
#
# PCOD8226836 Si02
#       8
#     8   8   8   8   8   8   8   8
#     4   9  18  34  56  80 106 139 180 221 269 326
#     4  10  21  35  55  83 115 143 176 228 287 335
#     4   9  18  34  56  81 106 138 180 224 269 320
#     4  10  22  37  57  80 109 150 192 230 270 330
#     4   9  19  36  60  81 103 144 192 230 266 321
#     4  10  22  37  55  83 115 145 183 231 283 332
#     4   9  18  32  54  79 105 141 183 224 267 330
#     4  10  21  37  59  85 110 143 190 235 282 346
#
# _framework density 19.049410999999999
#
# number of rings (size 3 to 8) (size 9 to 14) (size 15 to 20)
#    0.000    2.500    0.000    1.125    3.500    3.250 
#    0.000    0.625    0.000    0.750    0.000    0.000 
#    0.000    0.000    0.000    0.000    0.000    0.000 
#
# Total GULP energy -793277.888259 kJ/mol
# GULP energy per Si atom -12394.967004 kJ/mol
# Density = 1.900605 g / cm^3
# Si number density = 19.049411 Si / 1000 Ang^3
#
#
#
# Elastic Constant Matrix: (Units=GPa)
#
#
# Indices 1 2 3 4 5 6 
#
# 1 90.9187 3.2391 29.4245 0.0000 0.0000 0.0000
# 2 3.2391 57.4569 13.8803 0.0000 0.0000 0.0000
# 3 29.4245 13.8803 65.5125 0.0000 0.0000 0.0000
# 4 0.0000 0.0000 0.0000 18.5859 0.0000 0.0000
# 5 0.0000 0.0000 0.0000 0.0000 12.8687 0.0000
# 6 0.0000 0.0000 0.0000 0.0000 0.0000 -18.0535
#
#
#
# Elastic Compliance Matrix: (Units=1/GPa)
#
#
# Indices 1 2 3 4 5 6 
#
# 1 0.012897 0.000709 -0.005943 0.000000 0.000000 0.000000
# 2 0.000709 0.018382 -0.004213 0.000000 0.000000 0.000000
# 3 -0.005943 -0.004213 0.018826 0.000000 0.000000 0.000000
# 4 0.000000 0.000000 0.000000 0.053804 0.000000 0.000000
# 5 0.000000 0.000000 0.000000 0.000000 0.077708 0.000000
# 6 0.000000 0.000000 0.000000 0.000000 0.000000 -0.055391
#
#
# Mechanical properties :
#
#
# Convention : Reuss Voigt Hill
#
# Bulk Modulus (GPa) = 32.04005 34.10844 33.07424
# Shear Modulus (GPa) = 32.14945 13.83651 22.99298
#
# Velocity S-wave (km/s) = 4.11260 2.69801 3.47799
# Velocity P-wave (km/s) = 6.27752 5.25831 5.79038
#
# Compressibility (1/GPa) = 0.03121094
#
# Stress axis : x y z
#
# Youngs Moduli (GPa) = 77.53842 54.40054 53.11817
#
# Poissons Ratio (x) = -0.03855 0.31566
# Poissons Ratio (y) = -0.05494 0.22378
# Poissons Ratio (z) = 0.46078 0.22919
#
# Static dielectric constant tensor:
#      x y z
#    x 3.701910 0.000000 0.000000 
#    y 0.000000 3.362910 0.000000 
#    z 0.000000 0.000000 3.607500 
# 
# 
# High freq. dielectric constant tensor:
#      x y z
#    x 1.743030 0.000000 0.000000 
#    y 0.000000 1.739130 0.000000 
#    z 0.000000 0.000000 1.726220 
# 
# From -- ./inp_files/4541.got.cif
#   From: 2010.03.12/outbox.cif.g09.slc.cpg/sg55_3_cif.got.tgz:4541.got - 2010.04.16 15:19:21.
