data_PCOD8226849
_publ_section_title
;
Structure prediction by ZEFSAII (Michael W. Deem and Ramdas Pophale) SiO2 
 PCOD8226849
Probable space group: P B A M
;
_chemical_formula_sum "Si O2"
_cell_formula_units_Z 40
_cell_length_a 19.808367
_cell_length_b 5.164024
_cell_length_c 16.472934
_cell_angle_alpha 90.000000
_cell_angle_beta 90.000000
_cell_angle_gamma 90.000000
_cell_volume 1685.030958
_symmetry_space_group_name_H-M "P B A M"
_symmetry_group_IT_number 55
_symmetry_cell_setting 'orthorhombic'
loop_
_space_group_symop_operation_xyz
x,y,z
-x,-y,z
1/2+x,1/2-y,-z
1/2-x,1/2+y,-z
-x,-y,-z
x,y,-z
1/2-x,1/2+y,z
1/2+x,1/2-y,z
loop_
_atom_site_type_symbol
_atom_site_label
_atom_site_fract_x
_atom_site_fract_y
_atom_site_fract_z
Si Si1 0.071345 0.844948 0.174585
Si Si2 0.454329 0.251316 0.000000
Si Si3 0.286991 0.408770 0.758066
Si Si4 0.585206 0.244501 0.410638
Si Si5 0.000000 0.500000 0.713412
Si Si6 0.829980 0.242642 0.590012
O O1 0.089933 0.760065 0.082321
O O2 0.137088 0.983503 0.212657
O O3 0.061317 0.591404 0.229459
O O4 0.000000 0.000000 0.178241
O O5 0.500000 0.500000 0.000000
O O6 0.500000 0.000000 0.000000
O O7 0.239140 0.634878 0.792989
O O8 0.280525 0.369426 0.659817
O O9 0.556889 0.175601 0.500000
O O10 0.608860 0.539243 0.410341
O O11 0.526346 0.231021 0.343939
O O12 0.642635 0.029420 0.388551
O O13 0.794688 0.241354 0.500000
#
# Coordination Sequence:
#
# PCOD8226849 Si02
#       6
#     8   4   8   8   4   8
#     4  11  25  44  73 103 136 175 230 279 344 410
#     4  10  22  42  70 106 136 170 217 283 334 406
#     4  12  27  44  67  99 139 178 225 279 342 402
#     4  10  21  35  57  92 129 171 221 276 335 388
#     4  12  21  35  68  92 136 170 220 275 339 392
#     4  10  21  40  60  84 126 177 228 273 323 392
#
# _framework density 23.738434999999999
#
# number of rings (size 3 to 8) (size 9 to 14) (size 15 to 20)
#    0.000    1.200    3.000    2.700    2.800    0.800 
#    0.000    4.000    0.000    0.000    0.000    0.000 
#    0.000    0.000    0.000    0.000    0.000    0.000 
#
# Total GULP energy -495641.144117 kJ/mol
# GULP energy per Si atom -12391.028603 kJ/mol
# Density = 2.368441 g / cm^3
# Si number density = 23.738435 Si / 1000 Ang^3
#
#
#
# Elastic Constant Matrix: (Units=GPa)
#
#
# Indices 1 2 3 4 5 6 
#
# 1 95.1045 25.4116 26.9586 0.0000 0.0000 0.0000
# 2 25.4116 98.4561 8.1105 0.0000 0.0000 0.0000
# 3 26.9586 8.1105 122.3965 0.0000 0.0000 0.0000
# 4 0.0000 0.0000 0.0000 10.9713 0.0000 0.0000
# 5 0.0000 0.0000 0.0000 0.0000 23.0297 0.0000
# 6 0.0000 0.0000 0.0000 0.0000 0.0000 38.3236
#
#
#
# Elastic Compliance Matrix: (Units=1/GPa)
#
#
# Indices 1 2 3 4 5 6 
#
# 1 0.011981 -0.002891 -0.002447 0.000000 0.000000 0.000000
# 2 -0.002891 0.010910 -0.000086 0.000000 0.000000 0.000000
# 3 -0.002447 -0.000086 0.008715 0.000000 0.000000 0.000000
# 4 0.000000 0.000000 0.000000 0.091147 0.000000 0.000000
# 5 0.000000 0.000000 0.000000 0.000000 0.043422 0.000000
# 6 0.000000 0.000000 0.000000 0.000000 0.000000 0.026094
#
#
# Mechanical properties :
#
#
# Convention : Reuss Voigt Hill
#
# Bulk Modulus (GPa) = 48.17580 48.54650 48.36115
# Shear Modulus (GPa) = 23.80545 31.49668 27.65107
#
# Velocity S-wave (km/s) = 3.17017 3.64651 3.41665
# Velocity P-wave (km/s) = 5.80848 6.18258 5.99845
#
# Compressibility (1/GPa) = 0.02075731
#
# Stress axis : x y z
#
# Youngs Moduli (GPa) = 83.46659 91.65909 114.74575
#
# Poissons Ratio (x) = 0.26495 0.28082
# Poissons Ratio (y) = 0.24127 0.00990
# Poissons Ratio (z) = 0.20427 0.00791
#
# Static dielectric constant tensor:
#      x y z
#    x 3.847140 0.000000 0.000000 
#    y 0.000000 4.314170 0.000000 
#    z 0.000000 0.000000 4.992260 
# 
# 
# High freq. dielectric constant tensor:
#      x y z
#    x 1.907660 0.000000 0.000000 
#    y 0.000000 1.951450 0.000000 
#    z 0.000000 0.000000 1.936100 
# 
# From -- ./inp_files/21880.got.cif
#   From: 2010.03.12/outbox.cif.g09.slc.cpg/sg55_11_cif.got.tgz:21880.got - 2010.04.16 15:19:21.
