data_PCOD8226445
_publ_section_title
;
Structure prediction by ZEFSAII (Michael W. Deem and Ramdas Pophale) SiO2 
 PCOD8226445
Probable space group: P B A M
;
_chemical_formula_sum "Si O2"
_cell_formula_units_Z 64
_cell_length_a 14.971170
_cell_length_b 13.500427
_cell_length_c 15.648100
_cell_angle_alpha 90.000000
_cell_angle_beta 90.000000
_cell_angle_gamma 90.000000
_cell_volume 3162.749965
_symmetry_space_group_name_H-M "P B A M"
_symmetry_group_IT_number 55
_symmetry_cell_setting 'orthorhombic'
loop_
_space_group_symop_operation_xyz
x,y,z
-x,-y,z
1/2+x,1/2-y,-z
1/2-x,1/2+y,-z
-x,-y,-z
x,y,-z
1/2-x,1/2+y,z
1/2+x,1/2-y,z
loop_
_atom_site_type_symbol
_atom_site_label
_atom_site_fract_x
_atom_site_fract_y
_atom_site_fract_z
Si Si1 0.207228 0.856871 0.099443
Si Si2 0.901174 0.531773 0.601030
Si Si3 0.818515 0.932358 0.174903
Si Si4 0.186039 0.638464 0.699070
Si Si5 0.451307 0.592218 0.680083
Si Si6 0.163988 0.251041 0.401309
Si Si7 0.609686 0.238744 0.901275
Si Si8 0.444786 0.261400 0.791291
O O1 0.307256 0.828399 0.128922
O O2 0.136020 0.789175 0.146791
O O3 0.191801 0.971292 0.118000
O O4 0.195172 0.835075 0.000000
O O5 0.895239 0.523392 0.500000
O O6 0.827957 0.456690 0.639065
O O7 0.874468 0.643064 0.630473
O O8 0.000000 0.500000 0.632628
O O9 0.723044 0.893314 0.207913
O O10 0.871574 0.952262 0.262807
O O11 0.867015 0.853564 0.113991
O O12 0.250197 0.719919 0.654172
O O13 0.090194 0.687637 0.717810
O O14 0.500000 0.500000 0.632681
O O15 0.414644 0.670278 0.611124
O O16 0.521081 0.640645 0.744965
O O17 0.192031 0.255137 0.500000
O O18 0.524258 0.208655 0.844364
O O19 0.585827 0.221875 0.000000
#
# Coordination Sequence:
#
# PCOD8226445 Si02
#       8
#     8   8   8   8   8   8   8   8
#     4  11  22  38  61  86 119 161 202 254 312 368
#     4  10  22  41  62  89 126 169 212 256 318 392
#     4  10  21  36  58  88 120 156 205 248 308 376
#     4  11  23  37  63  89 122 163 205 264 313 368
#     4  10  20  36  60  91 126 159 203 262 309 370
#     4  10  23  41  63  93 128 166 211 261 317 383
#     4  10  22  40  60  87 123 160 205 259 312 372
#     4  11  22  39  60  91 118 160 209 253 308 372
#
# _framework density 20.235555999999999
#
# number of rings (size 3 to 8) (size 9 to 14) (size 15 to 20)
#    0.000    1.625    2.500    1.875    1.750    1.250 
#    0.000    2.500    0.000    1.500    0.000    0.000 
#    0.000    0.000    0.000    0.000    0.000    0.000 
#
# Total GULP energy -793629.012717 kJ/mol
# GULP energy per Si atom -12400.453324 kJ/mol
# Density = 2.018950 g / cm^3
# Si number density = 20.235556 Si / 1000 Ang^3
#
#
#
# Elastic Constant Matrix: (Units=GPa)
#
#
# Indices 1 2 3 4 5 6 
#
# 1 112.7929 51.8775 34.3884 0.0000 0.0000 0.0000
# 2 51.8775 112.2766 24.6351 0.0000 0.0000 0.0000
# 3 34.3884 24.6351 54.1997 0.0000 0.0000 0.0000
# 4 0.0000 0.0000 0.0000 30.9479 0.0000 0.0000
# 5 0.0000 0.0000 0.0000 0.0000 29.7798 0.0000
# 6 0.0000 0.0000 0.0000 0.0000 0.0000 34.3364
#
#
#
# Elastic Compliance Matrix: (Units=1/GPa)
#
#
# Indices 1 2 3 4 5 6 
#
# 1 0.012824 -0.004599 -0.006047 0.000000 0.000000 0.000000
# 2 -0.004599 0.011542 -0.002328 0.000000 0.000000 0.000000
# 3 -0.006047 -0.002328 0.023345 0.000000 0.000000 0.000000
# 4 0.000000 0.000000 0.000000 0.032312 0.000000 0.000000
# 5 0.000000 0.000000 0.000000 0.000000 0.033580 0.000000
# 6 0.000000 0.000000 0.000000 0.000000 0.000000 0.029124
#
#
# Mechanical properties :
#
#
# Convention : Reuss Voigt Hill
#
# Bulk Modulus (GPa) = 45.94699 55.67458 50.81078
# Shear Modulus (GPa) = 28.42040 30.23737 29.32889
#
# Velocity S-wave (km/s) = 3.75170 3.86977 3.81119
# Velocity P-wave (km/s) = 6.44379 6.89491 6.67316
#
# Compressibility (1/GPa) = 0.02176421
#
# Stress axis : x y z
#
# Youngs Moduli (GPa) = 77.97610 86.63735 42.83571
#
# Poissons Ratio (x) = 0.39843 0.25901
# Poissons Ratio (y) = 0.35860 0.09974
# Poissons Ratio (z) = 0.47148 0.20173
#
# Static dielectric constant tensor:
#      x y z
#    x 3.818120 0.000000 0.000000 
#    y 0.000000 3.638780 0.000000 
#    z 0.000000 0.000000 3.490060 
# 
# 
# High freq. dielectric constant tensor:
#      x y z
#    x 1.797860 0.000000 0.000000 
#    y 0.000000 1.789540 0.000000 
#    z 0.000000 0.000000 1.781950 
# 
# From -- ./inp_files/21662.got.cif
#   From: 2010.03.12/outbox.cif.g09.slc.cpg/sg55_11_cif.got.tgz:21662.got - 2010.04.16 15:19:21.
