data_PCOD8226669
_publ_section_title
;
Structure prediction by ZEFSAII (Michael W. Deem and Ramdas Pophale) SiO2 
 PCOD8226669
Probable space group: P B A M
;
_chemical_formula_sum "Si O2"
_cell_formula_units_Z 64
_cell_length_a 11.911774
_cell_length_b 30.624396
_cell_length_c 8.756272
_cell_angle_alpha 90.000000
_cell_angle_beta 90.000000
_cell_angle_gamma 90.000000
_cell_volume 3194.208204
_symmetry_space_group_name_H-M "P B A M"
_symmetry_group_IT_number 55
_symmetry_cell_setting 'orthorhombic'
loop_
_space_group_symop_operation_xyz
x,y,z
-x,-y,z
1/2+x,1/2-y,-z
1/2-x,1/2+y,-z
-x,-y,-z
x,y,-z
1/2-x,1/2+y,z
1/2+x,1/2-y,z
loop_
_atom_site_type_symbol
_atom_site_label
_atom_site_fract_x
_atom_site_fract_y
_atom_site_fract_z
Si Si1 0.389670 0.130062 0.319490
Si Si2 0.265149 0.700800 0.822099
Si Si3 0.275022 0.554170 0.676055
Si Si4 0.776301 0.208429 0.675568
Si Si5 0.488775 0.668812 0.325380
Si Si6 0.785433 0.043381 0.323478
Si Si7 0.994989 0.078626 0.178668
Si Si8 0.141122 0.375909 0.318575
O O1 0.394772 0.133075 0.500000
O O2 0.332645 0.174150 0.260748
O O3 0.321136 0.087228 0.266807
O O4 0.515204 0.126671 0.251398
O O5 0.261492 0.751141 0.776474
O O6 0.386463 0.682157 0.781026
O O7 0.245856 0.695694 0.000000
O O8 0.306970 0.563851 0.500000
O O9 0.230673 0.504629 0.695694
O O10 0.383146 0.560723 0.780245
O O11 0.742946 0.217288 0.500000
O O12 0.909950 0.202902 0.691732
O O13 0.711661 0.165843 0.738719
O O14 0.446819 0.666451 0.500000
O O15 0.534132 0.622059 0.273177
O O16 0.814776 0.052758 0.500000
O O17 0.900535 0.043791 0.226959
O O18 0.698835 0.079494 0.258874
O O19 0.989314 0.088259 0.000000
O O20 0.138187 0.376822 0.500000
#
# Coordination Sequence:
#
# PCOD8226669 Si02
#       8
#     8   8   8   8   8   8   8   8
#     4  10  21  39  62  88 119 160 204 247 294 355
#     4  12  26  41  60  91 127 160 195 245 301 356
#     4  10  21  36  60  89 120 160 202 247 300 356
#     4  10  22  41  65  90 117 157 201 247 296 353
#     4  11  22  41  68  91 118 157 204 250 298 353
#     4  10  20  38  61  88 120 157 203 252 299 356
#     4  12  23  36  58  89 125 159 197 248 308 360
#     4   9  19  38  63  89 117 152 202 252 297 349
#
# _framework density 20.036263999999999
#
# number of rings (size 3 to 8) (size 9 to 14) (size 15 to 20)
#    0.000    1.500    2.500    3.000    1.750    3.500 
#    0.000    3.125    0.000    0.000    0.000    2.625 
#    0.000    0.000    0.000    0.000    0.000    0.000 
#
# Total GULP energy -793854.092850 kJ/mol
# GULP energy per Si atom -12403.970201 kJ/mol
# Density = 1.999066 g / cm^3
# Si number density = 20.036264 Si / 1000 Ang^3
#
#
#
# Elastic Constant Matrix: (Units=GPa)
#
#
# Indices 1 2 3 4 5 6 
#
# 1 124.6769 40.8293 22.5049 0.0000 0.0000 0.0000
# 2 40.8293 119.6205 21.4842 0.0000 0.0000 0.0000
# 3 22.5049 21.4842 25.6057 0.0000 0.0000 0.0000
# 4 0.0000 0.0000 0.0000 5.3789 0.0000 0.0000
# 5 0.0000 0.0000 0.0000 0.0000 3.5569 0.0000
# 6 0.0000 0.0000 0.0000 0.0000 0.0000 24.2361
#
#
#
# Elastic Compliance Matrix: (Units=1/GPa)
#
#
# Indices 1 2 3 4 5 6 
#
# 1 0.009984 -0.002157 -0.006966 0.000000 0.000000 0.000000
# 2 -0.002157 0.010309 -0.006754 0.000000 0.000000 0.000000
# 3 -0.006966 -0.006754 0.050843 0.000000 0.000000 0.000000
# 4 0.000000 0.000000 0.000000 0.185912 0.000000 0.000000
# 5 0.000000 0.000000 0.000000 0.000000 0.281144 0.000000
# 6 0.000000 0.000000 0.000000 0.000000 0.000000 0.041261
#
#
# Mechanical properties :
#
#
# Convention : Reuss Voigt Hill
#
# Bulk Modulus (GPa) = 25.39151 48.83776 37.11464
# Shear Modulus (GPa) = 8.00854 18.97337 13.49096
#
# Velocity S-wave (km/s) = 2.00142 3.08060 2.59767
# Velocity P-wave (km/s) = 4.24750 6.08942 5.24987
#
# Compressibility (1/GPa) = 0.03938324
#
# Stress axis : x y z
#
# Youngs Moduli (GPa) = 100.15635 97.00266 19.66848
#
# Poissons Ratio (x) = 0.20922 0.13700
# Poissons Ratio (y) = 0.21602 0.13284
# Poissons Ratio (z) = 0.69765 0.65516
#
# Static dielectric constant tensor:
#      x y z
#    x 3.731900 0.000000 0.000000 
#    y 0.000000 3.810570 0.000000 
#    z 0.000000 0.000000 3.350530 
# 
# 
# High freq. dielectric constant tensor:
#      x y z
#    x 1.783250 0.000000 0.000000 
#    y 0.000000 1.794450 0.000000 
#    z 0.000000 0.000000 1.755880 
# 
# From -- ./inp_files/4485.got.cif
#   From: 2010.03.12/outbox.cif.g09.slc.cpg/sg55_3_cif.got.tgz:4485.got - 2010.04.16 15:19:21.
