data_PCOD8226920
_publ_section_title
;
Structure prediction by ZEFSAII (Michael W. Deem and Ramdas Pophale) SiO2 
 PCOD8226920
Probable space group: P B A M
;
_chemical_formula_sum "Si O2"
_cell_formula_units_Z 64
_cell_length_a 31.672145
_cell_length_b 10.591626
_cell_length_c 9.212554
_cell_angle_alpha 90.000000
_cell_angle_beta 90.000000
_cell_angle_gamma 90.000000
_cell_volume 3090.438892
_symmetry_space_group_name_H-M "P B A M"
_symmetry_group_IT_number 55
_symmetry_cell_setting 'orthorhombic'
loop_
_space_group_symop_operation_xyz
x,y,z
-x,-y,z
1/2+x,1/2-y,-z
1/2-x,1/2+y,-z
-x,-y,-z
x,y,-z
1/2-x,1/2+y,z
1/2+x,1/2-y,z
loop_
_atom_site_type_symbol
_atom_site_label
_atom_site_fract_x
_atom_site_fract_y
_atom_site_fract_z
Si Si1 0.925678 0.175744 0.334692
Si Si2 0.860903 0.762305 0.164336
Si Si3 0.437208 0.570974 0.166707
Si Si4 0.070956 0.437301 0.836690
Si Si5 0.788426 0.430626 0.328949
Si Si6 0.986654 0.715874 0.665405
Si Si7 0.630926 0.841581 0.164530
Si Si8 0.722550 0.217622 0.330171
O O1 0.913453 0.144569 0.500000
O O2 0.882465 0.217426 0.254058
O O3 0.962557 0.281432 0.328022
O O4 0.944930 0.053905 0.258334
O O5 0.887818 0.890954 0.176889
O O6 0.890287 0.648546 0.218996
O O7 0.820091 0.771203 0.263145
O O8 0.845906 0.737019 0.000000
O O9 0.467156 0.676749 0.233116
O O10 0.450343 0.548091 0.000000
O O11 0.030844 0.417103 0.730176
O O12 0.087612 0.579125 0.835096
O O13 0.057794 0.395942 0.000000
O O14 0.797745 0.422992 0.500000
O O15 0.831886 0.417603 0.242242
O O16 0.759287 0.313335 0.277159
O O17 0.768780 0.569532 0.289253
O O18 0.971023 0.732527 0.500000
O O19 0.644404 0.807193 0.000000
O O20 0.717344 0.231549 0.500000
#
# Coordination Sequence:
#
# PCOD8226920 Si02
#       8
#     8   8   8   8   8   8   8   8
#     4  11  24  39  55  82 119 156 196 245 297 354
#     4   9  18  35  58  85 114 145 190 239 285 341
#     4  10  21  37  58  85 118 156 198 245 295 352
#     4   9  19  36  58  83 113 149 194 243 290 347
#     4  10  22  40  60  87 121 157 197 245 299 359
#     4  10  21  36  57  85 116 153 198 245 297 351
#     4  11  23  40  61  84 113 153 197 243 298 355
#     4  10  21  37  60  88 119 156 198 242 296 359
#
# _framework density 20.709033000000002
#
# number of rings (size 3 to 8) (size 9 to 14) (size 15 to 20)
#    0.000    2.000    1.250    2.625    0.000    9.000 
#    0.000    3.750    0.000    0.000    0.000    0.000 
#    0.000    0.000    0.000    0.000    0.000    0.000 
#
# Total GULP energy -793408.038969 kJ/mol
# GULP energy per Si atom -12397.000609 kJ/mol
# Density = 2.066190 g / cm^3
# Si number density = 20.709033 Si / 1000 Ang^3
#
#
#
# Elastic Constant Matrix: (Units=GPa)
#
#
# Indices 1 2 3 4 5 6 
#
# 1 65.9266 30.6124 42.0900 0.0000 0.0000 0.0000
# 2 30.6124 58.1673 32.4813 0.0000 0.0000 0.0000
# 3 42.0900 32.4813 106.0247 0.0000 0.0000 0.0000
# 4 0.0000 0.0000 0.0000 23.8345 0.0000 0.0000
# 5 0.0000 0.0000 0.0000 0.0000 21.7584 0.0000
# 6 0.0000 0.0000 0.0000 0.0000 0.0000 31.9940
#
#
#
# Elastic Compliance Matrix: (Units=1/GPa)
#
#
# Indices 1 2 3 4 5 6 
#
# 1 0.023415 -0.008604 -0.006660 0.000000 0.000000 0.000000
# 2 -0.008604 0.023902 -0.003907 0.000000 0.000000 0.000000
# 3 -0.006660 -0.003907 0.013272 0.000000 0.000000 0.000000
# 4 0.000000 0.000000 0.000000 0.041956 0.000000 0.000000
# 5 0.000000 0.000000 0.000000 0.000000 0.045959 0.000000
# 6 0.000000 0.000000 0.000000 0.000000 0.000000 0.031256
#
#
# Mechanical properties :
#
#
# Convention : Reuss Voigt Hill
#
# Bulk Modulus (GPa) = 44.94720 48.94289 46.94505
# Shear Modulus (GPa) = 22.17125 23.84639 23.00882
#
# Velocity S-wave (km/s) = 3.27556 3.39705 3.33686
# Velocity P-wave (km/s) = 6.00475 6.25072 6.12897
#
# Compressibility (1/GPa) = 0.02224832
#
# Stress axis : x y z
#
# Youngs Moduli (GPa) = 42.70691 41.83826 75.34483
#
# Poissons Ratio (x) = 0.35999 0.50176
# Poissons Ratio (y) = 0.36746 0.29434
# Poissons Ratio (z) = 0.28441 0.16345
#
# Static dielectric constant tensor:
#      x y z
#    x 3.621340 0.000000 0.000000 
#    y 0.000000 3.820450 0.000000 
#    z 0.000000 0.000000 3.779000 
# 
# 
# High freq. dielectric constant tensor:
#      x y z
#    x 1.796870 0.000000 0.000000 
#    y 0.000000 1.808740 0.000000 
#    z 0.000000 0.000000 1.813710 
# 
# From -- ./inp_files/10793.got.cif
#   From: 2010.03.12/outbox.cif.g09.slc.cpg/sg55_6_cif.got.tgz:10793.got - 2010.04.16 15:19:21.
