data_PCOD8226742
_publ_section_title
;
Structure prediction by ZEFSAII (Michael W. Deem and Ramdas Pophale) SiO2 
 PCOD8226742
Probable space group: P B A M
;
_chemical_formula_sum "Si O2"
_cell_formula_units_Z 40
_cell_length_a 9.074890
_cell_length_b 28.958058
_cell_length_c 7.733055
_cell_angle_alpha 90.000000
_cell_angle_beta 90.000000
_cell_angle_gamma 90.000000
_cell_volume 2032.178733
_symmetry_space_group_name_H-M "P B A M"
_symmetry_group_IT_number 55
_symmetry_cell_setting 'orthorhombic'
loop_
_space_group_symop_operation_xyz
x,y,z
-x,-y,z
1/2+x,1/2-y,-z
1/2-x,1/2+y,-z
-x,-y,-z
x,y,-z
1/2-x,1/2+y,z
1/2+x,1/2-y,z
loop_
_atom_site_type_symbol
_atom_site_label
_atom_site_fract_x
_atom_site_fract_y
_atom_site_fract_z
Si Si1 0.574090 0.046146 0.303969
Si Si2 0.921236 0.364556 0.808310
Si Si3 0.928637 0.299298 0.500000
Si Si4 0.082085 0.134144 0.801845
Si Si5 0.097064 0.957392 0.797983
Si Si6 0.917177 0.798214 0.500000
O O1 0.519576 0.053094 0.500000
O O2 0.520308 0.089754 0.194483
O O3 0.749584 0.042297 0.301626
O O4 0.500000 0.000000 0.225306
O O5 0.978769 0.327383 0.670091
O O6 0.752626 0.378528 0.769409
O O7 0.935809 0.342670 0.000000
O O8 0.756104 0.290184 0.500000
O O9 0.008138 0.250928 0.500000
O O10 0.032390 0.174810 0.672898
O O11 0.988407 0.089382 0.754451
O O12 0.054367 0.149977 0.000000
O O13 0.129539 0.962739 0.000000
O O14 0.000000 0.000000 0.729563
#
# Coordination Sequence:
#
# PCOD8226742 Si02
#       6
#     8   8   4   8   8   4
#     4  11  23  36  54  85 120 153 194 234 277 338
#     4  10  20  39  63  83 114 152 188 237 284 332
#     4  10  22  40  57  88 113 144 193 230 286 350
#     4   9  20  38  60  86 113 149 194 234 282 339
#     4  10  21  37  56  83 117 154 196 235 279 336
#     4  10  22  38  61  82 117 150 181 238 290 338
#
# _framework density 19.683308
#
# number of rings (size 3 to 8) (size 9 to 14) (size 15 to 20)
#    0.000    2.000    1.000    1.800    1.400    6.000 
#    0.000    0.000    0.000    0.000    0.000    0.000 
#    0.000    0.000    0.000    0.000    0.000    0.000 
#
# Total GULP energy -496159.505583 kJ/mol
# GULP energy per Si atom -12403.987640 kJ/mol
# Density = 1.963851 g / cm^3
# Si number density = 19.683308 Si / 1000 Ang^3
#
#
#
# Elastic Constant Matrix: (Units=GPa)
#
#
# Indices 1 2 3 4 5 6 
#
# 1 85.5629 64.1054 36.6734 0.0000 0.0000 0.0000
# 2 64.1054 164.8137 71.9511 0.0000 0.0000 0.0000
# 3 36.6734 71.9511 113.5112 0.0000 0.0000 0.0000
# 4 0.0000 0.0000 0.0000 9.6637 0.0000 0.0000
# 5 0.0000 0.0000 0.0000 0.0000 20.9816 0.0000
# 6 0.0000 0.0000 0.0000 0.0000 0.0000 41.5889
#
#
#
# Elastic Compliance Matrix: (Units=1/GPa)
#
#
# Indices 1 2 3 4 5 6 
#
# 1 0.016748 -0.005741 -0.001772 0.000000 0.000000 0.000000
# 2 -0.005741 0.010356 -0.004710 0.000000 0.000000 0.000000
# 3 -0.001772 -0.004710 0.012368 0.000000 0.000000 0.000000
# 4 0.000000 0.000000 0.000000 0.103480 0.000000 0.000000
# 5 0.000000 0.000000 0.000000 0.000000 0.047661 0.000000
# 6 0.000000 0.000000 0.000000 0.000000 0.000000 0.024045
#
#
# Mechanical properties :
#
#
# Convention : Reuss Voigt Hill
#
# Bulk Modulus (GPa) = 66.54825 78.81640 72.68233
# Shear Modulus (GPa) = 20.48240 27.19068 23.83654
#
# Velocity S-wave (km/s) = 3.22933 3.72076 3.48372
# Velocity P-wave (km/s) = 6.91286 7.65428 7.29300
#
# Compressibility (1/GPa) = 0.01502669
#
# Stress axis : x y z
#
# Youngs Moduli (GPa) = 59.70941 96.55813 80.85533
#
# Poissons Ratio (x) = 0.55429 0.14329
# Poissons Ratio (y) = 0.34276 0.38083
# Poissons Ratio (z) = 0.10582 0.45479
#
# Static dielectric constant tensor:
#      x y z
#    x 3.445820 0.000000 0.000000 
#    y 0.000000 3.453780 0.000000 
#    z 0.000000 0.000000 3.694710 
# 
# 
# High freq. dielectric constant tensor:
#      x y z
#    x 1.763180 0.000000 0.000000 
#    y 0.000000 1.757850 0.000000 
#    z 0.000000 0.000000 1.778520 
# 
# From -- ./inp_files/2361.got.cif
#   From: 2010.03.12/outbox.cif.g09.slc.cpg/sg55_2_cif.got.tgz:2361.got - 2010.04.16 15:19:21.
