data_PCOD8226193
_publ_section_title
;
Structure prediction by ZEFSAII (Michael W. Deem and Ramdas Pophale) SiO2 
 PCOD8226193
Probable space group: P B A M
;
_chemical_formula_sum "Si O2"
_cell_formula_units_Z 64
_cell_length_a 26.644979
_cell_length_b 12.628385
_cell_length_c 8.969581
_cell_angle_alpha 90.000000
_cell_angle_beta 90.000000
_cell_angle_gamma 90.000000
_cell_volume 3018.112000
_symmetry_space_group_name_H-M "P B A M"
_symmetry_group_IT_number 55
_symmetry_cell_setting 'orthorhombic'
loop_
_space_group_symop_operation_xyz
x,y,z
-x,-y,z
1/2+x,1/2-y,-z
1/2-x,1/2+y,-z
-x,-y,-z
x,y,-z
1/2-x,1/2+y,z
1/2+x,1/2-y,z
loop_
_atom_site_type_symbol
_atom_site_label
_atom_site_fract_x
_atom_site_fract_y
_atom_site_fract_z
Si Si1 0.969301 0.594847 0.333154
Si Si2 0.668794 0.196935 0.161631
Si Si3 0.211678 0.108778 0.327635
Si Si4 0.858000 0.509671 0.334903
Si Si5 0.347100 0.417844 0.822444
Si Si6 0.819242 0.297560 0.671115
Si Si7 0.941884 0.990032 0.323868
Si Si8 0.561237 0.279865 0.838106
O O1 0.989937 0.615873 0.500000
O O2 0.911868 0.562424 0.338249
O O3 0.979107 0.702271 0.240031
O O4 0.000000 0.500000 0.256053
O O5 0.685891 0.282577 0.280142
O O6 0.677945 0.078950 0.226933
O O7 0.610121 0.210891 0.134252
O O8 0.696427 0.206667 0.000000
O O9 0.199348 0.086317 0.500000
O O10 0.270087 0.130550 0.298152
O O11 0.190131 0.010070 0.233843
O O12 0.833567 0.514054 0.500000
O O13 0.862155 0.384943 0.289600
O O14 0.323932 0.304293 0.776768
O O15 0.403609 0.427598 0.754415
O O16 0.350947 0.425793 0.000000
O O17 0.821354 0.257333 0.500000
O O18 0.936471 0.003643 0.500000
O O19 0.924531 0.874648 0.272306
O O20 0.000000 0.000000 0.272414
O O21 0.540951 0.319852 0.000000
#
# Coordination Sequence:
#
# PCOD8226193 Si02
#       8
#     8   8   8   8   8   8   8   8
#     4   9  18  33  56  85 117 157 206 258 309 366
#     4  10  20  35  58  88 119 153 196 254 316 371
#     4  11  23  40  65  90 120 164 215 263 310 375
#     4   9  19  37  59  84 118 158 203 254 307 368
#     4  12  26  44  66  96 134 171 213 271 335 392
#     4  10  24  43  63  90 125 170 218 262 316 383
#     4  11  24  42  66  93 123 168 221 268 319 387
#     4  10  20  35  56  85 120 157 200 255 316 375
#
# _framework density 21.205310999999998
#
# number of rings (size 3 to 8) (size 9 to 14) (size 15 to 20)
#    0.000    1.750    1.250    2.625    1.750    4.750 
#    0.000    2.500    0.000    0.000    0.000    0.000 
#    0.000    0.000    0.000    0.000    0.000    0.000 
#
# Total GULP energy -793159.452792 kJ/mol
# GULP energy per Si atom -12393.116450 kJ/mol
# Density = 2.115705 g / cm^3
# Si number density = 21.205311 Si / 1000 Ang^3
#
#
#
# Elastic Constant Matrix: (Units=GPa)
#
#
# Indices 1 2 3 4 5 6 
#
# 1 49.5364 17.6974 35.6707 0.0000 0.0000 0.0000
# 2 17.6974 120.6500 54.2299 0.0000 0.0000 0.0000
# 3 35.6707 54.2299 129.4688 0.0000 0.0000 0.0000
# 4 0.0000 0.0000 0.0000 28.9141 0.0000 0.0000
# 5 0.0000 0.0000 0.0000 0.0000 17.6937 0.0000
# 6 0.0000 0.0000 0.0000 0.0000 0.0000 30.1487
#
#
#
# Elastic Compliance Matrix: (Units=1/GPa)
#
#
# Indices 1 2 3 4 5 6 
#
# 1 0.025233 -0.000710 -0.006655 0.000000 0.000000 0.000000
# 2 -0.000710 0.010231 -0.004090 0.000000 0.000000 0.000000
# 3 -0.006655 -0.004090 0.011270 0.000000 0.000000 0.000000
# 4 0.000000 0.000000 0.000000 0.034585 0.000000 0.000000
# 5 0.000000 0.000000 0.000000 0.000000 0.056517 0.000000
# 6 0.000000 0.000000 0.000000 0.000000 0.000000 0.033169
#
#
# Mechanical properties :
#
#
# Convention : Reuss Voigt Hill
#
# Bulk Modulus (GPa) = 41.97243 57.20567 49.58905
# Shear Modulus (GPa) = 24.77015 28.15512 26.46264
#
# Velocity S-wave (km/s) = 3.42147 3.64777 3.53643
# Velocity P-wave (km/s) = 5.95357 6.69158 6.33333
#
# Compressibility (1/GPa) = 0.02382516
#
# Stress axis : x y z
#
# Youngs Moduli (GPa) = 39.63100 97.74369 88.72853
#
# Poissons Ratio (x) = 0.06941 0.59045
# Poissons Ratio (y) = 0.02814 0.36287
# Poissons Ratio (z) = 0.26373 0.39974
#
# Static dielectric constant tensor:
#      x y z
#    x 3.949030 0.000000 0.000000 
#    y 0.000000 3.935150 0.000000 
#    z 0.000000 0.000000 4.192340 
# 
# 
# High freq. dielectric constant tensor:
#      x y z
#    x 1.812910 0.000000 0.000000 
#    y 0.000000 1.837260 0.000000 
#    z 0.000000 0.000000 1.834490 
# 
# From -- ./inp_files/10818.got.cif
#   From: 2010.03.12/outbox.cif.g09.slc.cpg/sg55_6_cif.got.tgz:10818.got - 2010.04.16 15:19:21.
