data_PCOD8226407
_publ_section_title
;
Structure prediction by ZEFSAII (Michael W. Deem and Ramdas Pophale) SiO2 
 PCOD8226407
Probable space group: P B A M
;
_chemical_formula_sum "Si O2"
_cell_formula_units_Z 64
_cell_length_a 15.175337
_cell_length_b 23.523278
_cell_length_c 9.143860
_cell_angle_alpha 90.000000
_cell_angle_beta 90.000000
_cell_angle_gamma 90.000000
_cell_volume 3264.117271
_symmetry_space_group_name_H-M "P B A M"
_symmetry_group_IT_number 55
_symmetry_cell_setting 'orthorhombic'
loop_
_space_group_symop_operation_xyz
x,y,z
-x,-y,z
1/2+x,1/2-y,-z
1/2-x,1/2+y,-z
-x,-y,-z
x,y,-z
1/2-x,1/2+y,z
1/2+x,1/2-y,z
loop_
_atom_site_type_symbol
_atom_site_label
_atom_site_fract_x
_atom_site_fract_y
_atom_site_fract_z
Si Si1 0.016010 0.833954 0.673321
Si Si2 0.507138 0.221965 0.830214
Si Si3 0.943647 0.944808 0.828378
Si Si4 0.255534 0.072183 0.828325
Si Si5 0.695007 0.805275 0.169117
Si Si6 0.380380 0.868370 0.665918
Si Si7 0.208422 0.802448 0.336113
Si Si8 0.600954 0.017659 0.832950
O O1 0.002215 0.834757 0.500000
O O2 0.117752 0.829366 0.722965
O O3 0.967576 0.778925 0.741154
O O4 0.977910 0.891221 0.739646
O O5 0.408510 0.200717 0.801180
O O6 0.567198 0.171351 0.775301
O O7 0.524938 0.233783 0.000000
O O8 0.840404 0.953447 0.787677
O O9 0.955365 0.932690 0.000000
O O10 0.000000 0.000000 0.780923
O O11 0.269601 0.135495 0.761392
O O12 0.333992 0.031528 0.772817
O O13 0.266536 0.078740 0.000000
O O14 0.742633 0.751816 0.244766
O O15 0.719217 0.801851 0.000000
O O16 0.416832 0.863441 0.500000
O O17 0.278174 0.852585 0.672404
O O18 0.386379 0.931888 0.721010
O O19 0.193653 0.780124 0.500000
O O20 0.500000 0.000000 0.825986
O O21 0.626025 0.034604 0.000000
#
# Coordination Sequence:
#
# PCOD8226407 Si02
#       8
#     8   8   8   8   8   8   8   8
#     4  10  21  39  60  82 114 153 191 237 293 345
#     4  10  20  36  59  87 115 149 190 235 289 348
#     4  10  22  38  57  83 115 152 196 244 291 347
#     4   9  19  36  58  85 116 148 189 243 290 335
#     4   9  18  35  59  84 110 144 189 237 286 339
#     4  11  23  37  56  85 120 152 190 235 287 350
#     4   9  21  38  55  80 116 151 184 230 285 348
#     4  10  21  39  62  86 114 152 197 242 289 341
#
# _framework density 19.607139
#
# number of rings (size 3 to 8) (size 9 to 14) (size 15 to 20)
#    0.000    2.250    0.000    1.875    3.500    4.500 
#    0.000    1.250    0.000    0.000    0.000    0.000 
#    0.000    0.000    0.000    0.000    0.000    0.000 
#
# Total GULP energy -793610.689241 kJ/mol
# GULP energy per Si atom -12400.167019 kJ/mol
# Density = 1.956251 g / cm^3
# Si number density = 19.607139 Si / 1000 Ang^3
#
#
#
# Elastic Constant Matrix: (Units=GPa)
#
#
# Indices 1 2 3 4 5 6 
#
# 1 85.0660 54.1524 35.6987 0.0000 0.0000 0.0000
# 2 54.1524 136.7632 44.1681 0.0000 0.0000 0.0000
# 3 35.6987 44.1681 59.5816 0.0000 0.0000 0.0000
# 4 0.0000 0.0000 0.0000 23.6786 0.0000 0.0000
# 5 0.0000 0.0000 0.0000 0.0000 -11.4174 0.0000
# 6 0.0000 0.0000 0.0000 0.0000 0.0000 32.8340
#
#
#
# Elastic Compliance Matrix: (Units=1/GPa)
#
#
# Indices 1 2 3 4 5 6 
#
# 1 0.017760 -0.004727 -0.007136 0.000000 0.000000 0.000000
# 2 -0.004727 0.010872 -0.005227 0.000000 0.000000 0.000000
# 3 -0.007136 -0.005227 0.024934 0.000000 0.000000 0.000000
# 4 0.000000 0.000000 0.000000 0.042232 0.000000 0.000000
# 5 0.000000 0.000000 0.000000 0.000000 -0.087586 0.000000
# 6 0.000000 0.000000 0.000000 0.000000 0.000000 0.030456
#
#
# Mechanical properties :
#
#
# Convention : Reuss Voigt Hill
#
# Bulk Modulus (GPa) = 51.58778 61.04993 56.31886
# Shear Modulus (GPa) = 63.04231 18.84514 40.94373
#
# Velocity S-wave (km/s) = 5.67649 3.10358 4.57465
# Velocity P-wave (km/s) = 8.32654 6.63680 7.52922
#
# Compressibility (1/GPa) = 0.01938444
#
# Stress axis : x y z
#
# Youngs Moduli (GPa) = 56.30664 91.98112 40.10548
#
# Poissons Ratio (x) = 0.43483 0.28621
# Poissons Ratio (y) = 0.26618 0.20963
# Poissons Ratio (z) = 0.40183 0.48077
#
# Static dielectric constant tensor:
#      x y z
#    x 3.593310 0.000000 0.000000 
#    y 0.000000 3.781860 0.000000 
#    z 0.000000 0.000000 3.489320 
# 
# 
# High freq. dielectric constant tensor:
#      x y z
#    x 1.769400 0.000000 0.000000 
#    y 0.000000 1.769530 0.000000 
#    z 0.000000 0.000000 1.749590 
# 
# From -- ./inp_files/6524.got.cif
#   From: 2010.03.12/outbox.cif.g09.slc.cpg/sg55_4_cif.got.tgz:6524.got - 2010.04.16 15:19:21.
