data_PCOD8226259
_publ_section_title
;
Structure prediction by ZEFSAII (Michael W. Deem and Ramdas Pophale) SiO2 
 PCOD8226259
Probable space group: P B A M
;
_chemical_formula_sum "Si O2"
_cell_formula_units_Z 56
_cell_length_a 11.782517
_cell_length_b 21.148513
_cell_length_c 11.710186
_cell_angle_alpha 90.000000
_cell_angle_beta 90.000000
_cell_angle_gamma 90.000000
_cell_volume 2917.975928
_symmetry_space_group_name_H-M "P B A M"
_symmetry_group_IT_number 55
_symmetry_cell_setting 'orthorhombic'
loop_
_space_group_symop_operation_xyz
x,y,z
-x,-y,z
1/2+x,1/2-y,-z
1/2-x,1/2+y,-z
-x,-y,-z
x,y,-z
1/2-x,1/2+y,z
1/2+x,1/2-y,z
loop_
_atom_site_type_symbol
_atom_site_label
_atom_site_fract_x
_atom_site_fract_y
_atom_site_fract_z
Si Si1 0.421523 0.683996 0.713353
Si Si2 0.736737 0.115783 0.235549
Si Si3 0.637026 0.068782 0.000000
Si Si4 0.034486 0.323871 0.632192
Si Si5 0.559735 0.564482 0.631846
Si Si6 0.883072 0.420545 0.000000
Si Si7 0.671267 0.840053 0.205601
Si Si8 0.891048 0.209598 0.125507
O O1 0.439782 0.749066 0.643539
O O2 0.477734 0.624833 0.648319
O O3 0.290519 0.669705 0.732530
O O4 0.480873 0.693556 0.836307
O O5 0.702782 0.087962 0.113801
O O6 0.631878 0.131706 0.316085
O O7 0.823163 0.068274 0.297728
O O8 0.802002 0.181359 0.214909
O O9 0.514150 0.102493 0.000000
O O10 0.623760 0.994763 0.000000
O O11 0.022813 0.340549 0.500000
O O12 0.919070 0.346275 0.692612
O O13 0.500000 0.500000 0.673549
O O14 0.593136 0.559875 0.500000
O O15 0.823295 0.398674 0.881967
O O16 0.632302 0.783635 0.123120
O O17 0.874338 0.180848 0.000000
#
# Coordination Sequence:
#
# PCOD8226259 Si02
#       8
#     8   8   4   8   8   4   8   8
#     4  10  23  38  59  93 124 159 201 253 303 369
#     4  11  21  41  63  90 120 159 202 249 306 370
#     4  11  24  41  64  85 124 163 200 255 309 367
#     4  11  23  39  63  92 122 160 204 255 310 367
#     4  10  23  43  64  87 122 168 210 252 301 360
#     4  11  24  39  61  90 123 164 200 252 308 372
#     4  11  22  39  61  92 121 158 203 249 310 364
#     4  10  20  35  58  90 121 153 190 243 308 364
#
# _framework density 19.191386000000001
#
# number of rings (size 3 to 8) (size 9 to 14) (size 15 to 20)
#    0.000    1.429    4.286    0.857    3.000    1.143 
#    0.000    0.357    0.000    0.857    0.000    0.000 
#    0.000    0.000    0.000    0.000    0.000    0.000 
#
# Total GULP energy -694368.958987 kJ/mol
# GULP energy per Si atom -12399.445696 kJ/mol
# Density = 1.914771 g / cm^3
# Si number density = 19.191386 Si / 1000 Ang^3
#
#
#
# Elastic Constant Matrix: (Units=GPa)
#
#
# Indices 1 2 3 4 5 6 
#
# 1 128.1038 20.8148 51.6138 0.0000 0.0000 0.0000
# 2 20.8148 71.0996 24.9137 0.0000 0.0000 0.0000
# 3 51.6138 24.9137 132.2822 0.0000 0.0000 0.0000
# 4 0.0000 0.0000 0.0000 18.7610 0.0000 0.0000
# 5 0.0000 0.0000 0.0000 0.0000 25.1583 0.0000
# 6 0.0000 0.0000 0.0000 0.0000 0.0000 24.2368
#
#
#
# Elastic Compliance Matrix: (Units=1/GPa)
#
#
# Indices 1 2 3 4 5 6 
#
# 1 0.009424 -0.001574 -0.003381 0.000000 0.000000 0.000000
# 2 -0.001574 0.015322 -0.002271 0.000000 0.000000 0.000000
# 3 -0.003381 -0.002271 0.009306 0.000000 0.000000 0.000000
# 4 0.000000 0.000000 0.000000 0.053302 0.000000 0.000000
# 5 0.000000 0.000000 0.000000 0.000000 0.039748 0.000000
# 6 0.000000 0.000000 0.000000 0.000000 0.000000 0.041260
#
#
# Mechanical properties :
#
#
# Convention : Reuss Voigt Hill
#
# Bulk Modulus (GPa) = 51.02178 58.46337 54.74258
# Shear Modulus (GPa) = 26.40645 29.24077 27.82361
#
# Velocity S-wave (km/s) = 3.71341 3.90762 3.81175
# Velocity P-wave (km/s) = 6.71039 7.13364 6.92525
#
# Compressibility (1/GPa) = 0.01959947
#
# Stress axis : x y z
#
# Youngs Moduli (GPa) = 106.11183 65.26746 107.45298
#
# Poissons Ratio (x) = 0.10275 0.36325
# Poissons Ratio (y) = 0.16706 0.24406
# Poissons Ratio (z) = 0.35872 0.14824
#
# Static dielectric constant tensor:
#      x y z
#    x 3.649330 0.000000 0.000000 
#    y 0.000000 3.447670 0.000000 
#    z 0.000000 0.000000 3.398440 
# 
# 
# High freq. dielectric constant tensor:
#      x y z
#    x 1.754890 0.000000 0.000000 
#    y 0.000000 1.740070 0.000000 
#    z 0.000000 0.000000 1.751080 
# 
# From -- ./inp_files/13544.got.cif
#   From: 2010.03.12/outbox.cif.g09.slc.cpg/sg55_7_cif.got.tgz:13544.got - 2010.04.16 15:19:21.
