data_PCOD8226911
_publ_section_title
;
Structure prediction by ZEFSAII (Michael W. Deem and Ramdas Pophale) SiO2 
 PCOD8226911
Probable space group: P B A M
;
_chemical_formula_sum "Si O2"
_cell_formula_units_Z 64
_cell_length_a 19.042506
_cell_length_b 18.538785
_cell_length_c 9.237297
_cell_angle_alpha 90.000000
_cell_angle_beta 90.000000
_cell_angle_gamma 90.000000
_cell_volume 3260.996077
_symmetry_space_group_name_H-M "P B A M"
_symmetry_group_IT_number 55
_symmetry_cell_setting 'orthorhombic'
loop_
_space_group_symop_operation_xyz
x,y,z
-x,-y,z
1/2+x,1/2-y,-z
1/2-x,1/2+y,-z
-x,-y,-z
x,y,-z
1/2-x,1/2+y,z
1/2+x,1/2-y,z
loop_
_atom_site_type_symbol
_atom_site_label
_atom_site_fract_x
_atom_site_fract_y
_atom_site_fract_z
Si Si1 0.111992 0.357050 0.671438
Si Si2 0.811896 0.522538 0.834907
Si Si3 0.596184 0.409326 0.330657
Si Si4 0.532573 0.641364 0.166141
Si Si5 0.300858 0.718040 0.330418
Si Si6 0.524756 0.805434 0.169818
Si Si7 0.678330 0.857639 0.831022
Si Si8 0.655207 0.539124 0.837760
O O1 0.103480 0.360594 0.500000
O O2 0.135759 0.434592 0.730894
O O3 0.169055 0.296152 0.716182
O O4 0.036405 0.342070 0.739332
O O5 0.804967 0.439563 0.783751
O O6 0.736297 0.560440 0.821429
O O7 0.840220 0.525669 0.000000
O O8 0.584642 0.414149 0.500000
O O9 0.520238 0.407569 0.257378
O O10 0.639627 0.338907 0.284784
O O11 0.637391 0.479191 0.279255
O O12 0.531216 0.722998 0.220467
O O13 0.610872 0.611350 0.190942
O O14 0.509491 0.635892 0.000000
O O15 0.285155 0.714681 0.500000
O O16 0.228526 0.699206 0.249957
O O17 0.597695 0.843597 0.209743
O O18 0.507799 0.812318 0.000000
O O19 0.692101 0.845605 0.000000
O O20 0.640513 0.508869 0.000000
#
# Coordination Sequence:
#
# PCOD8226911 Si02
#       8
#     8   8   8   8   8   8   8   8
#     4  11  24  42  62  87 120 159 199 241 293 352
#     4  10  22  40  62  89 119 154 196 248 298 347
#     4  11  21  36  58  84 119 159 197 238 289 352
#     4  10  21  36  56  84 119 155 195 242 292 351
#     4  10  22  39  59  86 120 155 194 240 290 350
#     4  10  22  40  62  88 115 151 197 247 296 348
#     4  10  22  40  65  92 118 152 198 246 297 350
#     4  10  21  37  57  87 122 156 197 242 293 352
#
# _framework density 19.625903999999998
#
# number of rings (size 3 to 8) (size 9 to 14) (size 15 to 20)
#    0.000    1.750    2.500    1.125    1.750    5.500 
#    0.000    2.500    0.000    0.000    0.000    0.000 
#    0.000    0.000    0.000    0.000    0.000    0.000 
#
# Total GULP energy -793848.722363 kJ/mol
# GULP energy per Si atom -12403.886287 kJ/mol
# Density = 1.958123 g / cm^3
# Si number density = 19.625904 Si / 1000 Ang^3
#
#
#
# Elastic Constant Matrix: (Units=GPa)
#
#
# Indices 1 2 3 4 5 6 
#
# 1 119.1184 37.9787 51.3040 0.0000 0.0000 0.0000
# 2 37.9787 45.7833 22.4889 0.0000 0.0000 0.0000
# 3 51.3040 22.4889 57.4022 0.0000 0.0000 0.0000
# 4 0.0000 0.0000 0.0000 28.2334 0.0000 0.0000
# 5 0.0000 0.0000 0.0000 0.0000 20.6757 0.0000
# 6 0.0000 0.0000 0.0000 0.0000 0.0000 34.4627
#
#
#
# Elastic Compliance Matrix: (Units=1/GPa)
#
#
# Indices 1 2 3 4 5 6 
#
# 1 0.015475 -0.007483 -0.010899 0.000000 0.000000 0.000000
# 2 -0.007483 0.030666 -0.005326 0.000000 0.000000 0.000000
# 3 -0.010899 -0.005326 0.029249 0.000000 0.000000 0.000000
# 4 0.000000 0.000000 0.000000 0.035419 0.000000 0.000000
# 5 0.000000 0.000000 0.000000 0.000000 0.048366 0.000000
# 6 0.000000 0.000000 0.000000 0.000000 0.000000 0.029017
#
#
# Mechanical properties :
#
#
# Convention : Reuss Voigt Hill
#
# Bulk Modulus (GPa) = 35.74898 49.53856 42.64377
# Shear Modulus (GPa) = 20.41371 24.04319 22.22845
#
# Velocity S-wave (km/s) = 3.22862 3.50390 3.36907
# Velocity P-wave (km/s) = 5.67040 6.45492 6.07534
#
# Compressibility (1/GPa) = 0.02797282
#
# Stress axis : x y z
#
# Youngs Moduli (GPa) = 64.61902 32.60966 34.18922
#
# Poissons Ratio (x) = 0.24403 0.37264
# Poissons Ratio (y) = 0.48357 0.18208
# Poissons Ratio (z) = 0.70431 0.17367
#
# Static dielectric constant tensor:
#      x y z
#    x 3.580600 0.000000 0.000000 
#    y 0.000000 3.595070 0.000000 
#    z 0.000000 0.000000 3.465190 
# 
# 
# High freq. dielectric constant tensor:
#      x y z
#    x 1.770820 0.000000 0.000000 
#    y 0.000000 1.765010 0.000000 
#    z 0.000000 0.000000 1.756710 
# 
# From -- ./inp_files/8074.got.cif
#   From: 2010.03.12/outbox.cif.g09.slc.cpg/sg55_5_cif.got.tgz:8074.got - 2010.04.16 15:19:21.
