data_PCOD8226172
_publ_section_title
;
Structure prediction by ZEFSAII (Michael W. Deem and Ramdas Pophale) SiO2 
 PCOD8226172
Probable space group: P B A M
;
_chemical_formula_sum "Si O2"
_cell_formula_units_Z 64
_cell_length_a 19.468197
_cell_length_b 19.447019
_cell_length_c 8.976006
_cell_angle_alpha 90.000000
_cell_angle_beta 90.000000
_cell_angle_gamma 90.000000
_cell_volume 3398.301483
_symmetry_space_group_name_H-M "P B A M"
_symmetry_group_IT_number 55
_symmetry_cell_setting 'orthorhombic'
loop_
_space_group_symop_operation_xyz
x,y,z
-x,-y,z
1/2+x,1/2-y,-z
1/2-x,1/2+y,-z
-x,-y,-z
x,y,-z
1/2-x,1/2+y,z
1/2+x,1/2-y,z
loop_
_atom_site_type_symbol
_atom_site_label
_atom_site_fract_x
_atom_site_fract_y
_atom_site_fract_z
Si Si1 0.070474 0.463334 0.324850
Si Si2 0.287400 0.747563 0.672326
Si Si3 0.013926 0.787671 0.827924
Si Si4 0.315319 0.609295 0.828948
Si Si5 0.037836 0.065932 0.175060
Si Si6 0.100685 0.325136 0.829113
Si Si7 0.135132 0.710858 0.673336
Si Si8 0.163962 0.569816 0.172270
O O1 0.081405 0.460367 0.500000
O O2 0.066498 0.386905 0.261138
O O3 0.134201 0.503538 0.253923
O O4 0.000000 0.500000 0.279951
O O5 0.304467 0.758393 0.500000
O O6 0.316678 0.674206 0.721331
O O7 0.323912 0.808109 0.764660
O O8 0.206218 0.750572 0.704664
O O9 0.075325 0.760304 0.727492
O O10 0.995148 0.863194 0.765553
O O11 0.946820 0.741171 0.808425
O O12 0.037433 0.788879 0.000000
O O13 0.380829 0.562154 0.787846
O O14 0.246055 0.565804 0.804889
O O15 0.320541 0.635803 0.000000
O O16 0.026080 0.064457 0.000000
O O17 0.000000 0.000000 0.249127
O O18 0.108462 0.347228 0.000000
O O19 0.126083 0.693526 0.500000
O O20 0.132004 0.639144 0.760578
O O21 0.143222 0.567858 0.000000
#
# Coordination Sequence:
#
# PCOD8226172 Si02
#       8
#     8   8   8   8   8   8   8   8
#     4  11  24  40  57  81 115 153 191 233 287 347
#     4  10  20  35  56  81 110 147 188 229 280 335
#     4  10  20  35  57  86 113 145 186 232 286 336
#     4   9  17  34  58  83 111 144 188 232 274 330
#     4   9  17  33  57  83 112 143 180 229 281 334
#     4  11  22  37  59  84 112 147 192 242 285 335
#     4  10  21  36  56  83 116 151 187 231 283 339
#     4  10  20  35  58  85 114 149 192 238 280 332
#
# _framework density 18.832936
#
# number of rings (size 3 to 8) (size 9 to 14) (size 15 to 20)
#    0.000    2.000    1.250    2.625    0.000    6.000 
#    2.250    0.000    0.000    1.500    0.000    0.000 
#    0.000    0.000    0.000    0.000    0.000    0.000 
#
# Total GULP energy -793786.519369 kJ/mol
# GULP energy per Si atom -12402.914365 kJ/mol
# Density = 1.879007 g / cm^3
# Si number density = 18.832936 Si / 1000 Ang^3
#
#
#
# Elastic Constant Matrix: (Units=GPa)
#
#
# Indices 1 2 3 4 5 6 
#
# 1 93.2804 34.2658 36.7463 0.0000 0.0000 0.0000
# 2 34.2658 90.7491 27.6027 0.0000 0.0000 0.0000
# 3 36.7463 27.6027 70.0931 0.0000 0.0000 0.0000
# 4 0.0000 0.0000 0.0000 26.3662 0.0000 0.0000
# 5 0.0000 0.0000 0.0000 0.0000 26.0699 0.0000
# 6 0.0000 0.0000 0.0000 0.0000 0.0000 31.6171
#
#
#
# Elastic Compliance Matrix: (Units=1/GPa)
#
#
# Indices 1 2 3 4 5 6 
#
# 1 0.014470 -0.003586 -0.006174 0.000000 0.000000 0.000000
# 2 -0.003586 0.013407 -0.003400 0.000000 0.000000 0.000000
# 3 -0.006174 -0.003400 0.018842 0.000000 0.000000 0.000000
# 4 0.000000 0.000000 0.000000 0.037927 0.000000 0.000000
# 5 0.000000 0.000000 0.000000 0.000000 0.038358 0.000000
# 6 0.000000 0.000000 0.000000 0.000000 0.000000 0.031628
#
#
# Mechanical properties :
#
#
# Convention : Reuss Voigt Hill
#
# Bulk Modulus (GPa) = 49.01851 50.15025 49.58438
# Shear Modulus (GPa) = 26.63083 27.17783 26.90433
#
# Velocity S-wave (km/s) = 3.76447 3.80294 3.78375
# Velocity P-wave (km/s) = 6.70668 6.78011 6.74350
#
# Compressibility (1/GPa) = 0.02040046
#
# Stress axis : x y z
#
# Youngs Moduli (GPa) = 69.11074 74.58513 53.07237
#
# Poissons Ratio (x) = 0.26744 0.32765
# Poissons Ratio (y) = 0.24781 0.18045
# Poissons Ratio (z) = 0.42666 0.25359
#
# Static dielectric constant tensor:
#      x y z
#    x 3.635940 0.000000 0.000000 
#    y 0.000000 3.427590 0.000000 
#    z 0.000000 0.000000 3.419450 
# 
# 
# High freq. dielectric constant tensor:
#      x y z
#    x 1.741270 0.000000 0.000000 
#    y 0.000000 1.719960 0.000000 
#    z 0.000000 0.000000 1.726630 
# 
# From -- ./inp_files/9062.got.cif
#   From: 2010.03.12/outbox.cif.g09.slc.cpg/sg55_5_cif.got.tgz:9062.got - 2010.04.16 15:19:21.
