data_PCOD8226544
_publ_section_title
;
Structure prediction by ZEFSAII (Michael W. Deem and Ramdas Pophale) SiO2 
 PCOD8226544
Probable space group: P B A M
;
_chemical_formula_sum "Si O2"
_cell_formula_units_Z 48
_cell_length_a 10.038081
_cell_length_b 28.072245
_cell_length_c 8.984981
_cell_angle_alpha 90.000000
_cell_angle_beta 90.000000
_cell_angle_gamma 90.000000
_cell_volume 2531.890996
_symmetry_space_group_name_H-M "P B A M"
_symmetry_group_IT_number 55
_symmetry_cell_setting 'orthorhombic'
loop_
_space_group_symop_operation_xyz
x,y,z
-x,-y,z
1/2+x,1/2-y,-z
1/2-x,1/2+y,-z
-x,-y,-z
x,y,-z
1/2-x,1/2+y,z
1/2+x,1/2-y,z
loop_
_atom_site_type_symbol
_atom_site_label
_atom_site_fract_x
_atom_site_fract_y
_atom_site_fract_z
Si Si1 0.155144 0.553522 0.676210
Si Si2 0.467812 0.698911 0.673312
Si Si3 0.767189 0.354828 0.172587
Si Si4 0.761380 0.148649 0.326779
Si Si5 0.853935 0.551023 0.324541
Si Si6 0.029596 0.296770 0.172930
O O1 0.169279 0.561313 0.500000
O O2 0.246004 0.592507 0.757955
O O3 0.203080 0.500486 0.726995
O O4 0.003561 0.559743 0.733724
O O5 0.439571 0.706081 0.500000
O O6 0.334550 0.680636 0.749494
O O7 0.585563 0.661233 0.702191
O O8 0.511596 0.748955 0.742368
O O9 0.915383 0.335513 0.201838
O O10 0.731536 0.357217 0.000000
O O11 0.722781 0.153967 0.500000
O O12 0.740617 0.094122 0.271138
O O13 0.669026 0.183949 0.233900
O O14 0.864146 0.548761 0.500000
O O15 0.046572 0.284900 0.000000
#
# Coordination Sequence:
#
# PCOD8226544 Si02
#       6
#     8   8   8   8   8   8
#     4   9  16  31  58  85 110 142 182 230 279 323
#     4  11  24  38  56  81 109 146 186 227 275 326
#     4  11  23  38  56  82 116 151 184 223 273 330
#     4  10  20  37  60  85 111 141 185 233 277 327
#     4   8  15  30  56  87 111 137 179 234 282 320
#     4  11  23  38  57  81 109 145 185 226 275 327
#
# _framework density 18.958162999999999
#
# number of rings (size 3 to 8) (size 9 to 14) (size 15 to 20)
#    0.000    2.000    1.667    3.500    0.000    6.000 
#    0.000    3.333    0.000    5.000    0.000    0.000 
#    0.000    0.000    0.000    0.000    0.000    0.000 
#
# Total GULP energy -595228.974101 kJ/mol
# GULP energy per Si atom -12400.603627 kJ/mol
# Density = 1.891501 g / cm^3
# Si number density = 18.958163 Si / 1000 Ang^3
#
#
#
# Elastic Constant Matrix: (Units=GPa)
#
#
# Indices 1 2 3 4 5 6 
#
# 1 51.9877 18.0817 35.7789 0.0000 0.0000 0.0000
# 2 18.0817 129.4240 46.5481 0.0000 0.0000 0.0000
# 3 35.7789 46.5481 88.8415 0.0000 0.0000 0.0000
# 4 0.0000 0.0000 0.0000 8.6802 0.0000 0.0000
# 5 0.0000 0.0000 0.0000 0.0000 21.8007 0.0000
# 6 0.0000 0.0000 0.0000 0.0000 0.0000 23.2509
#
#
#
# Elastic Compliance Matrix: (Units=1/GPa)
#
#
# Indices 1 2 3 4 5 6 
#
# 1 0.026614 0.000168 -0.010806 0.000000 0.000000 0.000000
# 2 0.000168 0.009522 -0.005057 0.000000 0.000000 0.000000
# 3 -0.010806 -0.005057 0.018257 0.000000 0.000000 0.000000
# 4 0.000000 0.000000 0.000000 0.115204 0.000000 0.000000
# 5 0.000000 0.000000 0.000000 0.000000 0.045870 0.000000
# 6 0.000000 0.000000 0.000000 0.000000 0.000000 0.043009
#
#
# Mechanical properties :
#
#
# Convention : Reuss Voigt Hill
#
# Bulk Modulus (GPa) = 43.47123 52.34119 47.90621
# Shear Modulus (GPa) = 16.80481 22.06932 19.43706
#
# Velocity S-wave (km/s) = 2.98050 3.41560 3.20544
# Velocity P-wave (km/s) = 5.90122 6.57448 6.24693
#
# Compressibility (1/GPa) = 0.02300372
#
# Stress axis : x y z
#
# Youngs Moduli (GPa) = 37.57435 105.02353 54.77220
#
# Poissons Ratio (x) = -0.01768 0.59189
# Poissons Ratio (y) = -0.00633 0.27696
# Poissons Ratio (z) = 0.40604 0.53107
#
# Static dielectric constant tensor:
#      x y z
#    x 3.228640 0.000000 0.000000 
#    y 0.000000 3.906990 0.000000 
#    z 0.000000 0.000000 3.324860 
# 
# 
# High freq. dielectric constant tensor:
#      x y z
#    x 1.715620 0.000000 0.000000 
#    y 0.000000 1.755060 0.000000 
#    z 0.000000 0.000000 1.722720 
# 
# From -- ./inp_files/2822.got.cif
#   From: 2010.03.12/outbox.cif.g09.slc.cpg/sg55_2_cif.got.tgz:2822.got - 2010.04.16 15:19:21.
