data_PCOD8226751
_publ_section_title
;
Structure prediction by ZEFSAII (Michael W. Deem and Ramdas Pophale) SiO2 
 PCOD8226751
Probable space group: P B A M
;
_chemical_formula_sum "Si O2"
_cell_formula_units_Z 64
_cell_length_a 14.697457
_cell_length_b 24.089307
_cell_length_c 8.406684
_cell_angle_alpha 90.000000
_cell_angle_beta 90.000000
_cell_angle_gamma 90.000000
_cell_volume 2976.399532
_symmetry_space_group_name_H-M "P B A M"
_symmetry_group_IT_number 55
_symmetry_cell_setting 'orthorhombic'
loop_
_space_group_symop_operation_xyz
x,y,z
-x,-y,z
1/2+x,1/2-y,-z
1/2-x,1/2+y,-z
-x,-y,-z
x,y,-z
1/2-x,1/2+y,z
1/2+x,1/2-y,z
loop_
_atom_site_type_symbol
_atom_site_label
_atom_site_fract_x
_atom_site_fract_y
_atom_site_fract_z
Si Si1 0.521447 0.301912 0.316335
Si Si2 0.641060 0.491703 0.825448
Si Si3 0.368137 0.104967 0.315633
Si Si4 0.326854 0.626049 0.188815
Si Si5 0.645685 0.010062 0.176032
Si Si6 0.880907 0.111001 0.811184
Si Si7 0.482054 0.815967 0.815356
Si Si8 0.817986 0.623248 0.685961
O O1 0.518381 0.285250 0.500000
O O2 0.622325 0.323101 0.272363
O O3 0.448208 0.349172 0.280885
O O4 0.496448 0.248611 0.211623
O O5 0.627320 0.431653 0.741954
O O6 0.748196 0.499575 0.838593
O O7 0.600019 0.547563 0.744828
O O8 0.597654 0.487786 0.000000
O O9 0.344144 0.100959 0.500000
O O10 0.279887 0.128487 0.225095
O O11 0.449240 0.147447 0.287368
O O12 0.399951 0.044079 0.255412
O O13 0.340628 0.629326 0.000000
O O14 0.629757 0.065086 0.280979
O O15 0.603711 0.019139 0.000000
O O16 0.777465 0.127949 0.776513
O O17 0.897363 0.114005 0.000000
O O18 0.380143 0.827381 0.753638
O O19 0.492609 0.830752 0.000000
O O20 0.801223 0.630817 0.500000
#
# Coordination Sequence:
#
# PCOD8226751 Si02
#       8
#     8   8   8   8   8   8   8   8
#     4  12  26  43  60  87 121 156 203 260 305 348
#     4   7  14  30  57  88 119 151 193 238 281 340
#     4  11  22  39  63  94 126 157 194 249 307 354
#     4  10  20  39  64  91 122 162 202 242 295 362
#     4   9  17  34  59  90 124 161 199 238 288 360
#     4  10  20  39  64  91 122 162 202 242 295 362
#     4  12  26  45  64  85 114 158 209 252 297 364
#     4  11  22  39  63  94 126 157 194 249 307 354
#
# _framework density 21.502490999999999
#
# number of rings (size 3 to 8) (size 9 to 14) (size 15 to 20)
#    0.000    1.750    0.000    7.125    0.000    2.000 
#    0.000   11.875    0.000    0.000    0.000    0.000 
#    0.000    0.000    0.000    0.000    0.000    0.000 
#
# Total GULP energy -793444.078711 kJ/mol
# GULP energy per Si atom -12397.563730 kJ/mol
# Density = 2.145355 g / cm^3
# Si number density = 21.502491 Si / 1000 Ang^3
#
#
#
# Elastic Constant Matrix: (Units=GPa)
#
#
# Indices 1 2 3 4 5 6 
#
# 1 43.2468 6.7267 6.5820 0.0000 0.0000 0.0000
# 2 6.7267 84.4147 18.7302 0.0000 0.0000 0.0000
# 3 6.5820 18.7302 86.3402 0.0000 0.0000 0.0000
# 4 0.0000 0.0000 0.0000 32.3986 0.0000 0.0000
# 5 0.0000 0.0000 0.0000 0.0000 29.7512 0.0000
# 6 0.0000 0.0000 0.0000 0.0000 0.0000 34.0944
#
#
#
# Elastic Compliance Matrix: (Units=1/GPa)
#
#
# Indices 1 2 3 4 5 6 
#
# 1 0.023587 -0.001555 -0.001461 0.000000 0.000000 0.000000
# 2 -0.001555 0.012548 -0.002603 0.000000 0.000000 0.000000
# 3 -0.001461 -0.002603 0.012258 0.000000 0.000000 0.000000
# 4 0.000000 0.000000 0.000000 0.030866 0.000000 0.000000
# 5 0.000000 0.000000 0.000000 0.000000 0.033612 0.000000
# 6 0.000000 0.000000 0.000000 0.000000 0.000000 0.029330
#
#
# Mechanical properties :
#
#
# Convention : Reuss Voigt Hill
#
# Bulk Modulus (GPa) = 26.91489 30.89770 28.90630
# Shear Modulus (GPa) = 30.15218 31.37970 30.76594
#
# Velocity S-wave (km/s) = 3.74874 3.82429 3.78671
# Velocity P-wave (km/s) = 5.59301 5.82244 5.70888
#
# Compressibility (1/GPa) = 0.03715415
#
# Stress axis : x y z
#
# Youngs Moduli (GPa) = 42.39559 79.69463 81.57785
#
# Poissons Ratio (x) = 0.12396 0.11916
# Poissons Ratio (y) = 0.06595 0.21239
# Poissons Ratio (z) = 0.06193 0.20748
#
# Static dielectric constant tensor:
#      x y z
#    x 3.694900 0.000000 0.000000 
#    y 0.000000 4.179110 0.000000 
#    z 0.000000 0.000000 3.745370 
# 
# 
# High freq. dielectric constant tensor:
#      x y z
#    x 1.838060 0.000000 0.000000 
#    y 0.000000 1.849450 0.000000 
#    z 0.000000 0.000000 1.835220 
# 
# From -- ./inp_files/6681.got.cif
#   From: 2010.03.12/outbox.cif.g09.slc.cpg/sg55_4_cif.got.tgz:6681.got - 2010.04.16 15:19:21.
