data_PCOD8226375
_publ_section_title
;
Structure prediction by ZEFSAII (Michael W. Deem and Ramdas Pophale) SiO2 
 PCOD8226375
Probable space group: P B A M
;
_chemical_formula_sum "Si O2"
_cell_formula_units_Z 56
_cell_length_a 21.610604
_cell_length_b 14.326231
_cell_length_c 8.772131
_cell_angle_alpha 90.000000
_cell_angle_beta 90.000000
_cell_angle_gamma 90.000000
_cell_volume 2715.838643
_symmetry_space_group_name_H-M "P B A M"
_symmetry_group_IT_number 55
_symmetry_cell_setting 'orthorhombic'
loop_
_space_group_symop_operation_xyz
x,y,z
-x,-y,z
1/2+x,1/2-y,-z
1/2-x,1/2+y,-z
-x,-y,-z
x,y,-z
1/2-x,1/2+y,z
1/2+x,1/2-y,z
loop_
_atom_site_type_symbol
_atom_site_label
_atom_site_fract_x
_atom_site_fract_y
_atom_site_fract_z
Si Si1 0.378732 0.300887 0.821049
Si Si2 0.039774 0.652647 0.328139
Si Si3 0.641770 0.343117 0.826646
Si Si4 0.727340 0.818193 0.681206
Si Si5 0.071358 0.988265 0.679567
Si Si6 0.853105 0.489790 0.671413
Si Si7 0.584951 0.144465 0.170567
O O1 0.435974 0.233152 0.783868
O O2 0.316555 0.265611 0.737844
O O3 0.396121 0.403667 0.766114
O O4 0.366424 0.302074 0.000000
O O5 0.040682 0.692895 0.500000
O O6 0.081012 0.560846 0.317628
O O7 0.971313 0.622489 0.282741
O O8 0.706984 0.310860 0.759998
O O9 0.609797 0.419943 0.721612
O O10 0.598751 0.253189 0.821822
O O11 0.649278 0.379583 0.000000
O O12 0.732790 0.810048 0.500000
O O13 0.699290 0.918567 0.729977
O O14 0.075362 0.970732 0.500000
O O15 0.000000 0.000000 0.732087
O O16 0.837951 0.521519 0.500000
O O17 0.856168 0.582395 0.775232
O O18 0.567413 0.114217 0.000000
#
# Coordination Sequence:
#
# PCOD8226375 Si02
#       7
#     8   8   8   8   8   8   8
#     4  11  22  38  63  91 121 157 196 245 304 361
#     4  10  20  36  58  86 120 154 192 237 284 343
#     4  11  25  42  59  85 121 157 198 250 303 353
#     4  10  22  42  64  87 117 155 202 248 294 355
#     4  11  24  42  65  92 121 160 209 255 305 367
#     4   9  20  37  58  84 114 150 190 235 285 341
#     4  11  23  36  55  85 118 152 189 233 289 347
#
# _framework density 20.619782000000001
#
# number of rings (size 3 to 8) (size 9 to 14) (size 15 to 20)
#    0.000    1.571    0.000    5.571    0.000   12.000 
#    0.000    2.857    0.000    0.000    0.000    0.000 
#    0.000    0.000    0.000    0.000    0.000    0.000 
#
# Total GULP energy -694593.902426 kJ/mol
# GULP energy per Si atom -12403.462543 kJ/mol
# Density = 2.057285 g / cm^3
# Si number density = 20.619782 Si / 1000 Ang^3
#
#
#
# Elastic Constant Matrix: (Units=GPa)
#
#
# Indices 1 2 3 4 5 6 
#
# 1 77.6092 0.4715 18.1945 0.0000 0.0000 0.0000
# 2 0.4715 74.2115 21.4424 0.0000 0.0000 0.0000
# 3 18.1945 21.4424 83.7480 0.0000 0.0000 0.0000
# 4 0.0000 0.0000 0.0000 34.4002 0.0000 0.0000
# 5 0.0000 0.0000 0.0000 0.0000 21.1908 0.0000
# 6 0.0000 0.0000 0.0000 0.0000 0.0000 18.7491
#
#
#
# Elastic Compliance Matrix: (Units=1/GPa)
#
#
# Indices 1 2 3 4 5 6 
#
# 1 0.013624 0.000830 -0.003172 0.000000 0.000000 0.000000
# 2 0.000830 0.014602 -0.003919 0.000000 0.000000 0.000000
# 3 -0.003172 -0.003919 0.013633 0.000000 0.000000 0.000000
# 4 0.000000 0.000000 0.000000 0.029070 0.000000 0.000000
# 5 0.000000 0.000000 0.000000 0.000000 0.047190 0.000000
# 6 0.000000 0.000000 0.000000 0.000000 0.000000 0.053336
#
#
# Mechanical properties :
#
#
# Convention : Reuss Voigt Hill
#
# Bulk Modulus (GPa) = 34.08726 35.08730 34.58728
# Shear Modulus (GPa) = 25.80565 27.89870 26.85218
#
# Velocity S-wave (km/s) = 3.54149 3.68231 3.61259
# Velocity P-wave (km/s) = 5.76976 5.92727 5.84904
#
# Compressibility (1/GPa) = 0.02933647
#
# Stress axis : x y z
#
# Youngs Moduli (GPa) = 73.40125 68.48350 73.35046
#
# Poissons Ratio (x) = -0.05684 0.23269
# Poissons Ratio (y) = -0.06093 0.28746
# Poissons Ratio (z) = 0.23285 0.26838
#
# Static dielectric constant tensor:
#      x y z
#    x 3.672170 0.000000 0.000000 
#    y 0.000000 3.711270 0.000000 
#    z 0.000000 0.000000 3.827790 
# 
# 
# High freq. dielectric constant tensor:
#      x y z
#    x 1.803480 0.000000 0.000000 
#    y 0.000000 1.811050 0.000000 
#    z 0.000000 0.000000 1.815870 
# 
# From -- ./inp_files/6169.got.cif
#   From: 2010.03.12/outbox.cif.g09.slc.cpg/sg55_4_cif.got.tgz:6169.got - 2010.04.16 15:19:21.
