data_PCOD8226775
_publ_section_title
;
Structure prediction by ZEFSAII (Michael W. Deem and Ramdas Pophale) SiO2 
 PCOD8226775
Probable space group: P B A M
;
_chemical_formula_sum "Si O2"
_cell_formula_units_Z 40
_cell_length_a 18.389279
_cell_length_b 12.048200
_cell_length_c 9.022987
_cell_angle_alpha 90.000000
_cell_angle_beta 90.000000
_cell_angle_gamma 90.000000
_cell_volume 1999.112348
_symmetry_space_group_name_H-M "P B A M"
_symmetry_group_IT_number 55
_symmetry_cell_setting 'orthorhombic'
loop_
_space_group_symop_operation_xyz
x,y,z
-x,-y,z
1/2+x,1/2-y,-z
1/2-x,1/2+y,-z
-x,-y,-z
x,y,-z
1/2-x,1/2+y,z
1/2+x,1/2-y,z
loop_
_atom_site_type_symbol
_atom_site_label
_atom_site_fract_x
_atom_site_fract_y
_atom_site_fract_z
Si Si1 0.170721 0.531576 0.327844
Si Si2 0.566556 0.575113 0.829460
Si Si3 0.311264 0.600588 0.169327
Si Si4 0.958449 0.300639 0.327389
Si Si5 0.609389 0.174071 0.174227
O O1 0.178204 0.503550 0.500000
O O2 0.241967 0.596810 0.275046
O O3 0.101336 0.606904 0.294514
O O4 0.164311 0.417310 0.237981
O O5 0.500000 0.500000 0.772404
O O6 0.641770 0.510355 0.809829
O O7 0.571768 0.684504 0.731731
O O8 0.552404 0.609057 0.000000
O O9 0.360051 0.705235 0.215603
O O10 0.284896 0.612746 0.000000
O O11 0.975507 0.289236 0.500000
O O12 0.030791 0.340240 0.246146
O O13 0.601947 0.157712 0.000000
#
# Coordination Sequence:
#
# PCOD8226775 Si02
#       5
#     8   8   8   8   8
#     4  11  26  43  61  91 131 167 204 255 315 375
#     4  10  20  40  65  91 123 160 207 260 308 365
#     4  10  23  42  64  92 123 161 209 259 311 367
#     4  11  24  41  63  94 128 165 208 255 313 376
#     4  11  23  43  68  93 122 163 213 261 309 366
#
# _framework density 20.008880000000001
#
# number of rings (size 3 to 8) (size 9 to 14) (size 15 to 20)
#    0.000    1.400    2.000    2.400    2.800    8.400 
#    0.000    0.000    0.000    0.000    0.000    0.000 
#    0.000    0.000    0.000    0.000    0.000    0.000 
#
# Total GULP energy -496309.972157 kJ/mol
# GULP energy per Si atom -12407.749304 kJ/mol
# Density = 1.996334 g / cm^3
# Si number density = 20.008880 Si / 1000 Ang^3
#
#
#
# Elastic Constant Matrix: (Units=GPa)
#
#
# Indices 1 2 3 4 5 6 
#
# 1 103.8316 16.5643 55.0299 0.0000 0.0000 0.0000
# 2 16.5643 77.7068 45.7964 0.0000 0.0000 0.0000
# 3 55.0299 45.7964 90.5364 0.0000 0.0000 0.0000
# 4 0.0000 0.0000 0.0000 26.8543 0.0000 0.0000
# 5 0.0000 0.0000 0.0000 0.0000 20.8222 0.0000
# 6 0.0000 0.0000 0.0000 0.0000 0.0000 23.1319
#
#
#
# Elastic Compliance Matrix: (Units=1/GPa)
#
#
# Indices 1 2 3 4 5 6 
#
# 1 0.014694 0.003037 -0.010468 0.000000 0.000000 0.000000
# 2 0.003037 0.018962 -0.011438 0.000000 0.000000 0.000000
# 3 -0.010468 -0.011438 0.023193 0.000000 0.000000 0.000000
# 4 0.000000 0.000000 0.000000 0.037238 0.000000 0.000000
# 5 0.000000 0.000000 0.000000 0.000000 0.048026 0.000000
# 6 0.000000 0.000000 0.000000 0.000000 0.000000 0.043230
#
#
# Mechanical properties :
#
#
# Convention : Reuss Voigt Hill
#
# Bulk Modulus (GPa) = 52.32048 56.31731 54.31889
# Shear Modulus (GPa) = 21.79112 24.47397 23.13255
#
# Velocity S-wave (km/s) = 3.30369 3.50116 3.40386
# Velocity P-wave (km/s) = 6.38419 6.67468 6.53105
#
# Compressibility (1/GPa) = 0.01911297
#
# Stress axis : x y z
#
# Youngs Moduli (GPa) = 68.05386 52.73630 43.11613
#
# Poissons Ratio (x) = -0.16015 0.45132
# Poissons Ratio (y) = -0.20666 0.49314
# Poissons Ratio (z) = 0.71236 0.60317
#
# Static dielectric constant tensor:
#      x y z
#    x 3.648190 0.000000 0.000000 
#    y 0.000000 3.710330 0.000000 
#    z 0.000000 0.000000 3.639620 
# 
# 
# High freq. dielectric constant tensor:
#      x y z
#    x 1.788650 0.000000 0.000000 
#    y 0.000000 1.792190 0.000000 
#    z 0.000000 0.000000 1.782920 
# 
# From -- ./inp_files/3594.got.cif
#   From: 2010.03.12/outbox.cif.g09.slc.cpg/sg55_2_cif.got.tgz:3594.got - 2010.04.16 15:19:21.
