data_PCOD8226453
_publ_section_title
;
Structure prediction by ZEFSAII (Michael W. Deem and Ramdas Pophale) SiO2 
 PCOD8226453
Probable space group: P B A M
;
_chemical_formula_sum "Si O2"
_cell_formula_units_Z 64
_cell_length_a 11.316177
_cell_length_b 21.422305
_cell_length_c 14.206307
_cell_angle_alpha 90.000000
_cell_angle_beta 90.000000
_cell_angle_gamma 90.000000
_cell_volume 3443.872985
_symmetry_space_group_name_H-M "P B A M"
_symmetry_group_IT_number 55
_symmetry_cell_setting 'orthorhombic'
loop_
_space_group_symop_operation_xyz
x,y,z
-x,-y,z
1/2+x,1/2-y,-z
1/2-x,1/2+y,-z
-x,-y,-z
x,y,-z
1/2-x,1/2+y,z
1/2+x,1/2-y,z
loop_
_atom_site_type_symbol
_atom_site_label
_atom_site_fract_x
_atom_site_fract_y
_atom_site_fract_z
Si Si1 0.707098 0.098803 0.106634
Si Si2 0.416586 0.196652 0.270308
Si Si3 0.665250 0.666690 0.736960
Si Si4 0.365111 0.796375 0.606162
Si Si5 0.059555 0.607625 0.893181
Si Si6 0.293000 0.535362 0.108195
Si Si7 0.459785 0.568455 0.723705
Si Si8 0.699890 0.343421 0.393016
O O1 0.746963 0.154789 0.175105
O O2 0.570642 0.078824 0.124872
O O3 0.790551 0.038939 0.123987
O O4 0.721722 0.123173 0.000000
O O5 0.406697 0.269887 0.250746
O O6 0.531653 0.177863 0.328844
O O7 0.423517 0.169481 0.166710
O O8 0.311444 0.164655 0.326614
O O9 0.741691 0.674657 0.641855
O O10 0.576506 0.609543 0.731212
O O11 0.383134 0.819997 0.500000
O O12 0.372084 0.721236 0.610232
O O13 0.161197 0.558381 0.866619
O O14 0.073761 0.629400 0.000000
O O15 0.391388 0.565644 0.176045
O O16 0.326855 0.551704 0.000000
O O17 0.500000 0.500000 0.690062
O O18 0.376977 0.598729 0.644173
O O19 0.739124 0.358138 0.500000
#
# Coordination Sequence:
#
# PCOD8226453 Si02
#       8
#     8   8   8   8   8   8   8   8
#     4  10  20  37  60  86 117 155 196 239 287 345
#     4  11  20  37  64  85 118 149 196 242 295 347
#     4  11  23  36  57  89 119 153 194 240 287 350
#     4  10  21  39  63  86 112 150 195 248 295 343
#     4  10  20  36  61  89 116 149 193 243 295 345
#     4  10  21  38  61  87 115 153 200 241 284 349
#     4  12  23  38  60  86 120 160 194 236 296 354
#     4  10  22  39  59  86 114 150 196 243 294 349
#
# _framework density 18.583728000000001
#
# number of rings (size 3 to 8) (size 9 to 14) (size 15 to 20)
#    0.000    1.500    5.000    0.750    0.000    4.000 
#    0.000    0.000    0.000    0.000    0.000    3.500 
#    0.000    0.000    0.000    0.000    0.000    0.000 
#
# Total GULP energy -793546.276847 kJ/mol
# GULP energy per Si atom -12399.160576 kJ/mol
# Density = 1.854143 g / cm^3
# Si number density = 18.583728 Si / 1000 Ang^3
#
#
#
# Elastic Constant Matrix: (Units=GPa)
#
#
# Indices 1 2 3 4 5 6 
#
# 1 79.7101 42.6406 32.5383 0.0000 0.0000 0.0000
# 2 42.6406 86.2849 49.9768 0.0000 0.0000 0.0000
# 3 32.5383 49.9768 101.0964 0.0000 0.0000 0.0000
# 4 0.0000 0.0000 0.0000 26.3000 0.0000 0.0000
# 5 0.0000 0.0000 0.0000 0.0000 -3.9096 0.0000
# 6 0.0000 0.0000 0.0000 0.0000 0.0000 32.8290
#
#
#
# Elastic Compliance Matrix: (Units=1/GPa)
#
#
# Indices 1 2 3 4 5 6 
#
# 1 0.017305 -0.007463 -0.001881 0.000000 0.000000 0.000000
# 2 -0.007463 0.019458 -0.007217 0.000000 0.000000 0.000000
# 3 -0.001881 -0.007217 0.014064 0.000000 0.000000 0.000000
# 4 0.000000 0.000000 0.000000 0.038023 0.000000 0.000000
# 5 0.000000 0.000000 0.000000 0.000000 -0.255784 0.000000
# 6 0.000000 0.000000 0.000000 0.000000 0.000000 0.030461
#
#
# Mechanical properties :
#
#
# Convention : Reuss Voigt Hill
#
# Bulk Modulus (GPa) = 56.47523 57.48922 56.98222
# Shear Modulus (GPa) = -51.30832 20.50628 -15.40102
#
# Velocity S-wave (km/s) = -5.26015 3.32543 -2.88190
# Velocity P-wave (km/s) = 2.53706 6.76366 4.43342
#
# Compressibility (1/GPa) = 0.01770688
#
# Stress axis : x y z
#
# Youngs Moduli (GPa) = 57.78583 51.39395 71.10105
#
# Poissons Ratio (x) = 0.38354 0.13371
# Poissons Ratio (y) = 0.43124 0.51313
# Poissons Ratio (z) = 0.10867 0.37090
#
# Static dielectric constant tensor:
#      x y z
#    x 3.505310 0.000000 0.000000 
#    y 0.000000 3.278180 0.000000 
#    z 0.000000 0.000000 3.466280 
# 
# 
# High freq. dielectric constant tensor:
#      x y z
#    x 1.733670 0.000000 0.000000 
#    y 0.000000 1.704790 0.000000 
#    z 0.000000 0.000000 1.723650 
# 
# From -- ./inp_files/15740.got.cif
#   From: 2010.03.12/outbox.cif.g09.slc.cpg/sg55_8_cif.got.tgz:15740.got - 2010.04.16 15:19:21.
