data_PCOD8226881
_publ_section_title
;
Structure prediction by ZEFSAII (Michael W. Deem and Ramdas Pophale) SiO2 
 PCOD8226881
Probable space group: P B A M
;
_chemical_formula_sum "Si O2"
_cell_formula_units_Z 64
_cell_length_a 15.374019
_cell_length_b 23.379330
_cell_length_c 9.340691
_cell_angle_alpha 90.000000
_cell_angle_beta 90.000000
_cell_angle_gamma 90.000000
_cell_volume 3357.364391
_symmetry_space_group_name_H-M "P B A M"
_symmetry_group_IT_number 55
_symmetry_cell_setting 'orthorhombic'
loop_
_space_group_symop_operation_xyz
x,y,z
-x,-y,z
1/2+x,1/2-y,-z
1/2-x,1/2+y,-z
-x,-y,-z
x,y,-z
1/2-x,1/2+y,z
1/2+x,1/2-y,z
loop_
_atom_site_type_symbol
_atom_site_label
_atom_site_fract_x
_atom_site_fract_y
_atom_site_fract_z
Si Si1 0.487299 0.829513 0.338117
Si Si2 0.353119 0.369687 0.838831
Si Si3 0.285870 0.810225 0.340858
Si Si4 0.596182 0.520406 0.331504
Si Si5 0.244667 0.065543 0.669533
Si Si6 0.495730 0.719568 0.837936
Si Si7 0.168013 0.184719 0.332458
Si Si8 0.938576 0.449570 0.670486
O O1 0.521352 0.818628 0.500000
O O2 0.383893 0.831966 0.336643
O O3 0.520899 0.778913 0.237606
O O4 0.523772 0.889025 0.277007
O O5 0.262817 0.348487 0.773951
O O6 0.391611 0.420082 0.745603
O O7 0.417947 0.317064 0.835438
O O8 0.336575 0.391199 0.000000
O O9 0.246961 0.820064 0.500000
O O10 0.279263 0.742985 0.300943
O O11 0.500000 0.500000 0.291403
O O12 0.606763 0.529666 0.500000
O O13 0.668138 0.475600 0.272751
O O14 0.245789 0.063307 0.500000
O O15 0.225493 0.130760 0.718459
O O16 0.338993 0.044966 0.727947
O O17 0.421505 0.684860 0.754592
O O18 0.464180 0.731379 0.000000
O O19 0.143278 0.180729 0.500000
O O20 0.939983 0.452689 0.500000
O O21 0.000000 0.500000 0.733665
#
# Coordination Sequence:
#
# PCOD8226881 Si02
#       8
#     8   8   8   8   8   8   8   8
#     4   9  19  35  58  84 108 140 182 226 280 333
#     4  11  24  37  53  79 112 151 190 225 271 333
#     4   9  19  33  54  83 110 139 177 227 276 329
#     4  10  21  37  59  85 112 147 186 232 285 330
#     4   9  18  32  55  85 115 143 180 229 280 333
#     4  10  21  36  54  79 111 148 182 223 277 331
#     4   9  18  35  58  85 111 139 181 228 279 332
#     4   9  18  31  53  84 113 140 175 228 282 328
#
# _framework density 19.062573
#
# number of rings (size 3 to 8) (size 9 to 14) (size 15 to 20)
#    0.000    2.500    0.000    2.250    3.500    5.250 
#    0.000    0.625    0.000    1.125    0.000    0.000 
#    0.000    0.000    0.000    0.000    0.000    0.000 
#
# Total GULP energy -793570.470744 kJ/mol
# GULP energy per Si atom -12399.538605 kJ/mol
# Density = 1.901919 g / cm^3
# Si number density = 19.062573 Si / 1000 Ang^3
#
#
#
# Elastic Constant Matrix: (Units=GPa)
#
#
# Indices 1 2 3 4 5 6 
#
# 1 105.2150 65.6813 31.5218 0.0000 0.0000 0.0000
# 2 65.6813 122.6487 36.8277 0.0000 0.0000 0.0000
# 3 31.5218 36.8277 43.2868 0.0000 0.0000 0.0000
# 4 0.0000 0.0000 0.0000 9.5552 0.0000 0.0000
# 5 0.0000 0.0000 0.0000 0.0000 14.3167 0.0000
# 6 0.0000 0.0000 0.0000 0.0000 0.0000 33.6905
#
#
#
# Elastic Compliance Matrix: (Units=1/GPa)
#
#
# Indices 1 2 3 4 5 6 
#
# 1 0.015216 -0.006476 -0.005571 0.000000 0.000000 0.000000
# 2 -0.006476 0.013707 -0.006946 0.000000 0.000000 0.000000
# 3 -0.005571 -0.006946 0.033068 0.000000 0.000000 0.000000
# 4 0.000000 0.000000 0.000000 0.104656 0.000000 0.000000
# 5 0.000000 0.000000 0.000000 0.000000 0.069849 0.000000
# 6 0.000000 0.000000 0.000000 0.000000 0.000000 0.029682
#
#
# Mechanical properties :
#
#
# Convention : Reuss Voigt Hill
#
# Bulk Modulus (GPa) = 41.65684 59.91246 50.78465
# Shear Modulus (GPa) = 16.01722 20.65378 18.33550
#
# Velocity S-wave (km/s) = 2.90184 3.29519 3.10475
# Velocity P-wave (km/s) = 5.75567 6.78051 6.28900
#
# Compressibility (1/GPa) = 0.02400566
#
# Stress axis : x y z
#
# Youngs Moduli (GPa) = 65.72100 72.95600 30.24071
#
# Poissons Ratio (x) = 0.47244 0.16847
# Poissons Ratio (y) = 0.42559 0.21005
# Poissons Ratio (z) = 0.36613 0.50675
#
# Static dielectric constant tensor:
#      x y z
#    x 3.633590 0.000000 0.000000 
#    y 0.000000 3.634500 0.000000 
#    z 0.000000 0.000000 3.324320 
# 
# 
# High freq. dielectric constant tensor:
#      x y z
#    x 1.744510 0.000000 0.000000 
#    y 0.000000 1.750190 0.000000 
#    z 0.000000 0.000000 1.705880 
# 
# From -- ./inp_files/6671.got.cif
#   From: 2010.03.12/outbox.cif.g09.slc.cpg/sg55_4_cif.got.tgz:6671.got - 2010.04.16 15:19:21.
