data_PCOD8226105
_publ_section_title
;
Structure prediction by ZEFSAII (Michael W. Deem and Ramdas Pophale) SiO2 
 PCOD8226105
Probable space group: P B A M
;
_chemical_formula_sum "Si O2"
_cell_formula_units_Z 64
_cell_length_a 27.653118
_cell_length_b 12.590213
_cell_length_c 9.444065
_cell_angle_alpha 90.000000
_cell_angle_beta 90.000000
_cell_angle_gamma 90.000000
_cell_volume 3288.032881
_symmetry_space_group_name_H-M "P B A M"
_symmetry_group_IT_number 55
_symmetry_cell_setting 'orthorhombic'
loop_
_space_group_symop_operation_xyz
x,y,z
-x,-y,z
1/2+x,1/2-y,-z
1/2-x,1/2+y,-z
-x,-y,-z
x,y,-z
1/2-x,1/2+y,z
1/2+x,1/2-y,z
loop_
_atom_site_type_symbol
_atom_site_label
_atom_site_fract_x
_atom_site_fract_y
_atom_site_fract_z
Si Si1 0.872502 0.045769 0.165721
Si Si2 0.714477 0.157033 0.662022
Si Si3 0.822380 0.219433 0.664019
Si Si4 0.830321 0.830735 0.154188
Si Si5 0.343601 0.045084 0.663961
Si Si6 0.946398 0.545793 0.661170
Si Si7 0.060960 0.249225 0.841524
Si Si8 0.547256 0.436128 0.655404
O O1 0.830367 0.956993 0.187247
O O2 0.920025 0.006817 0.243903
O O3 0.859050 0.157018 0.236234
O O4 0.883676 0.062486 0.000000
O O5 0.698698 0.164545 0.500000
O O6 0.771921 0.157051 0.681039
O O7 0.698789 0.267989 0.729234
O O8 0.687580 0.053694 0.731752
O O9 0.839327 0.216166 0.500000
O O10 0.823486 0.341614 0.720876
O O11 0.884940 0.791891 0.153079
O O12 0.806786 0.809712 0.000000
O O13 0.331295 0.041670 0.500000
O O14 0.401717 0.035844 0.690773
O O15 0.941374 0.588861 0.500000
O O16 0.939969 0.634460 0.777990
O O17 0.000000 0.500000 0.683366
O O18 0.031877 0.172098 0.736016
O O19 0.038433 0.250062 0.000000
O O20 0.500000 0.500000 0.623424
O O21 0.571345 0.411523 0.500000
#
# Coordination Sequence:
#
# PCOD8226105 Si02
#       8
#     8   8   8   8   8   8   8   8
#     4  10  22  39  57  83 120 154 190 236 293 353
#     4  10  20  34  59  85 108 145 194 243 293 348
#     4  10  22  37  57  84 116 154 195 242 299 356
#     4   9  19  35  55  79 109 144 183 235 289 341
#     4   9  19  37  55  82 119 147 190 253 299 346
#     4  10  20  35  57  82 112 156 203 247 299 355
#     4  10  20  35  55  82 115 149 191 243 295 351
#     4  10  21  37  60  87 114 150 197 243 292 348
#
# _framework density 19.464525999999999
#
# number of rings (size 3 to 8) (size 9 to 14) (size 15 to 20)
#    0.000    2.250    1.250    1.875    1.750    5.250 
#    0.000    3.750    0.000    0.000    0.000    0.000 
#    0.000    0.000    0.000    0.000    0.000    0.000 
#
# Total GULP energy -793064.127152 kJ/mol
# GULP energy per Si atom -12391.626987 kJ/mol
# Density = 1.942022 g / cm^3
# Si number density = 19.464526 Si / 1000 Ang^3
#
#
#
# Elastic Constant Matrix: (Units=GPa)
#
#
# Indices 1 2 3 4 5 6 
#
# 1 64.4887 34.5142 28.7754 0.0000 0.0000 0.0000
# 2 34.5142 116.6319 57.0666 0.0000 0.0000 0.0000
# 3 28.7754 57.0666 106.0348 0.0000 0.0000 0.0000
# 4 0.0000 0.0000 0.0000 47.9459 0.0000 0.0000
# 5 0.0000 0.0000 0.0000 0.0000 10.8974 0.0000
# 6 0.0000 0.0000 0.0000 0.0000 0.0000 24.5964
#
#
#
# Elastic Compliance Matrix: (Units=1/GPa)
#
#
# Indices 1 2 3 4 5 6 
#
# 1 0.019060 -0.004221 -0.002901 0.000000 0.000000 0.000000
# 2 -0.004221 0.012574 -0.005621 0.000000 0.000000 0.000000
# 3 -0.002901 -0.005621 0.013243 0.000000 0.000000 0.000000
# 4 0.000000 0.000000 0.000000 0.020857 0.000000 0.000000
# 5 0.000000 0.000000 0.000000 0.000000 0.091765 0.000000
# 6 0.000000 0.000000 0.000000 0.000000 0.000000 0.040656
#
#
# Mechanical properties :
#
#
# Convention : Reuss Voigt Hill
#
# Bulk Modulus (GPa) = 51.57136 58.65198 55.11167
# Shear Modulus (GPa) = 21.72917 27.80788 24.76853
#
# Velocity S-wave (km/s) = 3.34480 3.78384 3.57108
# Velocity P-wave (km/s) = 6.43968 7.02055 6.73638
#
# Compressibility (1/GPa) = 0.01939061
#
# Stress axis : x y z
#
# Youngs Moduli (GPa) = 52.46586 79.53181 75.50898
#
# Poissons Ratio (x) = 0.33570 0.21903
# Poissons Ratio (y) = 0.22146 0.42447
# Poissons Ratio (z) = 0.15219 0.44708
#
# Static dielectric constant tensor:
#      x y z
#    x 3.404900 0.000000 0.000000 
#    y 0.000000 3.918740 0.000000 
#    z 0.000000 0.000000 3.700430 
# 
# 
# High freq. dielectric constant tensor:
#      x y z
#    x 1.739280 0.000000 0.000000 
#    y 0.000000 1.761230 0.000000 
#    z 0.000000 0.000000 1.752390 
# 
# From -- ./inp_files/10716.got.cif
#   From: 2010.03.12/outbox.cif.g09.slc.cpg/sg55_6_cif.got.tgz:10716.got - 2010.04.16 15:19:21.
