data_PCOD8226668
_publ_section_title
;
Structure prediction by ZEFSAII (Michael W. Deem and Ramdas Pophale) SiO2 
 PCOD8226668
Probable space group: P B A M
;
_chemical_formula_sum "Si O2"
_cell_formula_units_Z 64
_cell_length_a 23.850817
_cell_length_b 15.348668
_cell_length_c 8.758492
_cell_angle_alpha 90.000000
_cell_angle_beta 90.000000
_cell_angle_gamma 90.000000
_cell_volume 3206.293614
_symmetry_space_group_name_H-M "P B A M"
_symmetry_group_IT_number 55
_symmetry_cell_setting 'orthorhombic'
loop_
_space_group_symop_operation_xyz
x,y,z
-x,-y,z
1/2+x,1/2-y,-z
1/2-x,1/2+y,-z
-x,-y,-z
x,y,-z
1/2-x,1/2+y,z
1/2+x,1/2-y,z
loop_
_atom_site_type_symbol
_atom_site_label
_atom_site_fract_x
_atom_site_fract_y
_atom_site_fract_z
Si Si1 0.891193 0.914294 0.679884
Si Si2 0.697939 0.750870 0.180756
Si Si3 0.112596 0.603925 0.823720
Si Si4 0.603067 0.091977 0.825576
Si Si5 0.999434 0.333144 0.322258
Si Si6 0.876283 0.091967 0.819122
Si Si7 0.323938 0.743687 0.179423
Si Si8 0.500145 0.648042 0.820478
O O1 0.891767 0.916190 0.500000
O O2 0.858812 0.829352 0.734900
O O3 0.954885 0.914479 0.741200
O O4 0.860260 0.000307 0.742780
O O5 0.664246 0.836885 0.232984
O O6 0.666953 0.664489 0.243127
O O7 0.760809 0.756215 0.245591
O O8 0.700225 0.745032 0.000000
O O9 0.130088 0.503429 0.802163
O O10 0.059176 0.624026 0.720905
O O11 0.097821 0.625693 0.000000
O O12 0.549011 0.099647 0.717213
O O13 0.650263 0.162118 0.782341
O O14 0.583011 0.104169 0.000000
O O15 0.000154 0.309988 0.500000
O O16 0.011662 0.246980 0.225564
O O17 0.938122 0.121140 0.766456
O O18 0.872719 0.082117 0.000000
O O19 0.325517 0.723254 0.000000
O O20 0.492480 0.637757 0.000000
#
# Coordination Sequence:
#
# PCOD8226668 Si02
#       8
#     8   8   8   8   8   8   8   8
#     4  12  25  39  58  89 126 161 196 238 294 360
#     4   9  19  38  64  91 115 148 202 255 292 337
#     4  10  20  38  61  88 119 154 196 244 293 351
#     4  10  21  36  59  87 117 156 198 241 294 347
#     4  12  23  35  57  88 122 157 191 237 299 359
#     4  10  21  39  64  91 119 153 196 247 298 350
#     4  10  21  39  63  88 116 155 203 252 294 340
#     4  11  21  38  64  90 118 153 195 244 299 353
#
# _framework density 19.960740999999999
#
# number of rings (size 3 to 8) (size 9 to 14) (size 15 to 20)
#    0.000    1.500    2.500    3.375    0.000    5.500 
#    0.000    5.000    0.000    1.500    0.000    0.000 
#    0.000    0.000    0.000    0.000    0.000    0.000 
#
# Total GULP energy -793889.845682 kJ/mol
# GULP energy per Si atom -12404.528839 kJ/mol
# Density = 1.991531 g / cm^3
# Si number density = 19.960741 Si / 1000 Ang^3
#
#
#
# Elastic Constant Matrix: (Units=GPa)
#
#
# Indices 1 2 3 4 5 6 
#
# 1 120.8537 32.0705 31.9457 0.0000 0.0000 0.0000
# 2 32.0705 112.7175 30.4743 0.0000 0.0000 0.0000
# 3 31.9457 30.4743 57.1076 0.0000 0.0000 0.0000
# 4 0.0000 0.0000 0.0000 9.0181 0.0000 0.0000
# 5 0.0000 0.0000 0.0000 0.0000 5.7998 0.0000
# 6 0.0000 0.0000 0.0000 0.0000 0.0000 12.9232
#
#
#
# Elastic Compliance Matrix: (Units=1/GPa)
#
#
# Indices 1 2 3 4 5 6 
#
# 1 0.009936 -0.001548 -0.004732 0.000000 0.000000 0.000000
# 2 -0.001548 0.010609 -0.004795 0.000000 0.000000 0.000000
# 3 -0.004732 -0.004795 0.022717 0.000000 0.000000 0.000000
# 4 0.000000 0.000000 0.000000 0.110888 0.000000 0.000000
# 5 0.000000 0.000000 0.000000 0.000000 0.172421 0.000000
# 6 0.000000 0.000000 0.000000 0.000000 0.000000 0.077380
#
#
# Mechanical properties :
#
#
# Convention : Reuss Voigt Hill
#
# Bulk Modulus (GPa) = 47.36850 53.29553 50.33201
# Shear Modulus (GPa) = 11.54367 18.62744 15.08555
#
# Velocity S-wave (km/s) = 2.40743 3.05815 2.75209
# Velocity P-wave (km/s) = 5.61338 6.26322 5.94718
#
# Compressibility (1/GPa) = 0.02111108
#
# Stress axis : x y z
#
# Youngs Moduli (GPa) = 100.64351 94.26394 44.01995
#
# Poissons Ratio (x) = 0.14588 0.20832
# Poissons Ratio (y) = 0.15575 0.21109
# Poissons Ratio (z) = 0.47628 0.45202
#
# Static dielectric constant tensor:
#      x y z
#    x 3.769150 0.000000 0.000000 
#    y 0.000000 3.811640 0.000000 
#    z 0.000000 0.000000 3.361400 
# 
# 
# High freq. dielectric constant tensor:
#      x y z
#    x 1.774330 0.000000 0.000000 
#    y 0.000000 1.794750 0.000000 
#    z 0.000000 0.000000 1.753160 
# 
# From -- ./inp_files/9649.got.cif
#   From: 2010.03.12/outbox.cif.g09.slc.cpg/sg55_5_cif.got.tgz:9649.got - 2010.04.16 15:19:21.
