data_PCOD8226102
_publ_section_title
;
Structure prediction by ZEFSAII (Michael W. Deem and Ramdas Pophale) SiO2 
 PCOD8226102
Probable space group: P B A M
;
_chemical_formula_sum "Si O2"
_cell_formula_units_Z 64
_cell_length_a 10.858097
_cell_length_b 32.587691
_cell_length_c 9.304534
_cell_angle_alpha 90.000000
_cell_angle_beta 90.000000
_cell_angle_gamma 90.000000
_cell_volume 3292.319194
_symmetry_space_group_name_H-M "P B A M"
_symmetry_group_IT_number 55
_symmetry_cell_setting 'orthorhombic'
loop_
_space_group_symop_operation_xyz
x,y,z
-x,-y,z
1/2+x,1/2-y,-z
1/2-x,1/2+y,-z
-x,-y,-z
x,y,-z
1/2-x,1/2+y,z
1/2+x,1/2-y,z
loop_
_atom_site_type_symbol
_atom_site_label
_atom_site_fract_x
_atom_site_fract_y
_atom_site_fract_z
Si Si1 0.613791 0.027173 0.331005
Si Si2 0.000119 0.695611 0.341308
Si Si3 0.139408 0.100994 0.164066
Si Si4 0.035474 0.223503 0.831766
Si Si5 0.383248 0.353434 0.161077
Si Si6 0.653021 0.118011 0.669904
Si Si7 0.134861 0.019010 0.334752
Si Si8 0.723148 0.327831 0.658813
O O1 0.594622 0.028098 0.500000
O O2 0.606383 0.073874 0.269879
O O3 0.500000 0.000000 0.264851
O O4 0.751087 0.010751 0.293951
O O5 0.945219 0.707174 0.500000
O O6 0.142072 0.688557 0.361241
O O7 0.983458 0.731033 0.225539
O O8 0.938761 0.654012 0.280966
O O9 0.145774 0.055826 0.225004
O O10 0.229414 0.128861 0.259365
O O11 0.002959 0.118683 0.176702
O O12 0.185303 0.101003 0.000000
O O13 0.152742 0.205556 0.751926
O O14 0.917622 0.194017 0.802771
O O15 0.065598 0.225096 0.000000
O O16 0.287206 0.371031 0.272679
O O17 0.329415 0.356220 0.000000
O O18 0.664125 0.115205 0.500000
O O19 0.147641 0.033610 0.500000
O O20 0.000000 0.000000 0.309821
O O21 0.662472 0.333244 0.500000
#
# Coordination Sequence:
#
# PCOD8226102 Si02
#       8
#     8   8   8   8   8   8   8   8
#     4   9  19  35  58  84 116 153 189 236 295 353
#     4  10  23  38  57  86 116 148 192 241 289 343
#     4  10  21  37  58  85 117 154 193 235 293 350
#     4  10  22  39  59  84 116 154 193 234 289 349
#     4   9  20  38  57  82 115 152 190 230 281 345
#     4  10  21  37  59  86 113 147 192 238 286 343
#     4  10  20  34  58  90 115 146 199 250 294 349
#     4  10  21  38  60  85 115 148 192 243 288 339
#
# _framework density 19.439184000000001
#
# number of rings (size 3 to 8) (size 9 to 14) (size 15 to 20)
#    0.000    2.250    0.000    2.625    3.500    5.750 
#    0.000    0.625    0.000    0.750    0.000    0.000 
#    0.000    0.000    0.000    0.000    0.000    0.000 
#
# Total GULP energy -793386.268576 kJ/mol
# GULP energy per Si atom -12396.660447 kJ/mol
# Density = 1.939494 g / cm^3
# Si number density = 19.439184 Si / 1000 Ang^3
#
#
#
# Elastic Constant Matrix: (Units=GPa)
#
#
# Indices 1 2 3 4 5 6 
#
# 1 72.4773 43.4027 22.3858 0.0000 0.0000 0.0000
# 2 43.4027 159.8290 61.8121 0.0000 0.0000 0.0000
# 3 22.3858 61.8121 88.3557 0.0000 0.0000 0.0000
# 4 0.0000 0.0000 0.0000 27.7818 0.0000 0.0000
# 5 0.0000 0.0000 0.0000 0.0000 5.9355 0.0000
# 6 0.0000 0.0000 0.0000 0.0000 0.0000 20.7950
#
#
#
# Elastic Compliance Matrix: (Units=1/GPa)
#
#
# Indices 1 2 3 4 5 6 
#
# 1 0.016610 -0.003952 -0.001443 0.000000 0.000000 0.000000
# 2 -0.003952 0.009518 -0.005657 0.000000 0.000000 0.000000
# 3 -0.001443 -0.005657 0.015641 0.000000 0.000000 0.000000
# 4 0.000000 0.000000 0.000000 0.035995 0.000000 0.000000
# 5 0.000000 0.000000 0.000000 0.000000 0.168477 0.000000
# 6 0.000000 0.000000 0.000000 0.000000 0.000000 0.048089
#
#
# Mechanical properties :
#
#
# Convention : Reuss Voigt Hill
#
# Bulk Modulus (GPa) = 50.85578 63.98479 57.42028
# Shear Modulus (GPa) = 15.48037 23.77322 19.62680
#
# Velocity S-wave (km/s) = 2.82503 3.50087 3.18095
# Velocity P-wave (km/s) = 6.07119 7.02341 6.56459
#
# Compressibility (1/GPa) = 0.01966345
#
# Stress axis : x y z
#
# Youngs Moduli (GPa) = 60.20441 105.06605 63.93372
#
# Poissons Ratio (x) = 0.41526 0.09228
# Poissons Ratio (y) = 0.23795 0.36168
# Poissons Ratio (z) = 0.08689 0.59437
#
# Static dielectric constant tensor:
#      x y z
#    x 3.502080 0.000000 0.000000 
#    y 0.000000 3.713750 0.000000 
#    z 0.000000 0.000000 3.722390 
# 
# 
# High freq. dielectric constant tensor:
#      x y z
#    x 1.751030 0.000000 0.000000 
#    y 0.000000 1.767000 0.000000 
#    z 0.000000 0.000000 1.747470 
# 
# From -- ./inp_files/4706.got.cif
#   From: 2010.03.12/outbox.cif.g09.slc.cpg/sg55_3_cif.got.tgz:4706.got - 2010.04.16 15:19:21.
