data_PCOD8226042
_publ_section_title
;
Structure prediction by ZEFSAII (Michael W. Deem and Ramdas Pophale) SiO2 
 PCOD8226042
Probable space group: P B A M
;
_chemical_formula_sum "Si O2"
_cell_formula_units_Z 64
_cell_length_a 14.872371
_cell_length_b 24.571676
_cell_length_c 8.930661
_cell_angle_alpha 90.000000
_cell_angle_beta 90.000000
_cell_angle_gamma 90.000000
_cell_volume 3263.612554
_symmetry_space_group_name_H-M "P B A M"
_symmetry_group_IT_number 55
_symmetry_cell_setting 'orthorhombic'
loop_
_space_group_symop_operation_xyz
x,y,z
-x,-y,z
1/2+x,1/2-y,-z
1/2-x,1/2+y,-z
-x,-y,-z
x,y,-z
1/2-x,1/2+y,z
1/2+x,1/2-y,z
loop_
_atom_site_type_symbol
_atom_site_label
_atom_site_fract_x
_atom_site_fract_y
_atom_site_fract_z
Si Si1 0.783158 0.155039 0.675291
Si Si2 0.810756 0.434727 0.325948
Si Si3 0.840384 0.868513 0.171476
Si Si4 0.042394 0.713830 0.674183
Si Si5 0.773693 0.264414 0.172121
Si Si6 0.487784 0.336438 0.672797
Si Si7 0.489648 0.107710 0.823295
Si Si8 0.653986 0.058048 0.327350
O O1 0.775169 0.168525 0.500000
O O2 0.742011 0.206067 0.765010
O O3 0.729012 0.101467 0.722214
O O4 0.887233 0.145968 0.719179
O O5 0.825128 0.421358 0.500000
O O6 0.717461 0.409853 0.270176
O O7 0.805153 0.499040 0.296674
O O8 0.892065 0.409201 0.233824
O O9 0.807392 0.806583 0.190672
O O10 0.943062 0.870832 0.227700
O O11 0.835729 0.887610 0.000000
O O12 0.043651 0.699622 0.500000
O O13 0.998394 0.772318 0.704838
O O14 0.985210 0.667467 0.759216
O O15 0.144077 0.712321 0.732521
O O16 0.803822 0.258554 0.000000
O O17 0.506301 0.349791 0.500000
O O18 0.563913 0.064732 0.769437
O O19 0.487871 0.109758 0.000000
O O20 0.627010 0.065859 0.500000
#
# Coordination Sequence:
#
# PCOD8226042 Si02
#       8
#     8   8   8   8   8   8   8   8
#     4   9  20  40  62  85 116 153 198 248 295 344
#     4  11  23  41  64  86 115 155 202 250 293 345
#     4  11  23  37  57  87 122 157 195 242 294 351
#     4  10  20  36  58  85 117 156 197 238 286 344
#     4  10  20  34  54  84 119 154 190 234 293 350
#     4   9  20  37  59  86 116 154 196 240 292 348
#     4  12  24  37  57  88 124 158 192 238 296 359
#     4  10  23  42  63  87 114 153 204 251 294 348
#
# _framework density 19.610168999999999
#
# number of rings (size 3 to 8) (size 9 to 14) (size 15 to 20)
#    0.000    1.750    1.250    3.750    1.750    7.000 
#    0.000    0.625    0.000    3.750    0.000    0.000 
#    0.000    0.000    0.000    0.000    0.000    0.000 
#
# Total GULP energy -793891.328226 kJ/mol
# GULP energy per Si atom -12404.552004 kJ/mol
# Density = 1.956554 g / cm^3
# Si number density = 19.610169 Si / 1000 Ang^3
#
#
#
# Elastic Constant Matrix: (Units=GPa)
#
#
# Indices 1 2 3 4 5 6 
#
# 1 57.2430 25.6865 23.5868 0.0000 0.0000 0.0000
# 2 25.6865 92.9465 40.6465 0.0000 0.0000 0.0000
# 3 23.5868 40.6465 97.6361 0.0000 0.0000 0.0000
# 4 0.0000 0.0000 0.0000 14.9732 0.0000 0.0000
# 5 0.0000 0.0000 0.0000 0.0000 20.9207 0.0000
# 6 0.0000 0.0000 0.0000 0.0000 0.0000 26.2633
#
#
#
# Elastic Compliance Matrix: (Units=1/GPa)
#
#
# Indices 1 2 3 4 5 6 
#
# 1 0.020733 -0.004327 -0.003207 0.000000 0.000000 0.000000
# 2 -0.004327 0.014057 -0.004807 0.000000 0.000000 0.000000
# 3 -0.003207 -0.004807 0.013018 0.000000 0.000000 0.000000
# 4 0.000000 0.000000 0.000000 0.066786 0.000000 0.000000
# 5 0.000000 0.000000 0.000000 0.000000 0.047799 0.000000
# 6 0.000000 0.000000 0.000000 0.000000 0.000000 0.038076
#
#
# Mechanical properties :
#
#
# Convention : Reuss Voigt Hill
#
# Bulk Modulus (GPa) = 43.24221 47.51835 45.38028
# Shear Modulus (GPa) = 21.47226 22.95850 22.21538
#
# Velocity S-wave (km/s) = 3.31260 3.42533 3.36943
# Velocity P-wave (km/s) = 6.06052 6.31885 6.19103
#
# Compressibility (1/GPa) = 0.02312555
#
# Stress axis : x y z
#
# Youngs Moduli (GPa) = 48.23327 71.14074 76.81738
#
# Poissons Ratio (x) = 0.30783 0.24637
# Poissons Ratio (y) = 0.20871 0.36923
# Poissons Ratio (z) = 0.15469 0.34194
#
# Static dielectric constant tensor:
#      x y z
#    x 3.427610 0.000000 0.000000 
#    y 0.000000 3.687200 0.000000 
#    z 0.000000 0.000000 3.584250 
# 
# 
# High freq. dielectric constant tensor:
#      x y z
#    x 1.757820 0.000000 0.000000 
#    y 0.000000 1.758920 0.000000 
#    z 0.000000 0.000000 1.767760 
# 
# From -- ./inp_files/6661.got.cif
#   From: 2010.03.12/outbox.cif.g09.slc.cpg/sg55_4_cif.got.tgz:6661.got - 2010.04.16 15:19:21.
