data_PCOD8226428
_publ_section_title
;
Structure prediction by ZEFSAII (Michael W. Deem and Ramdas Pophale) SiO2 
 PCOD8226428
Probable space group: P B A M
;
_chemical_formula_sum "Si O2"
_cell_formula_units_Z 64
_cell_length_a 15.414842
_cell_length_b 23.187235
_cell_length_c 9.515580
_cell_angle_alpha 90.000000
_cell_angle_beta 90.000000
_cell_angle_gamma 90.000000
_cell_volume 3401.130579
_symmetry_space_group_name_H-M "P B A M"
_symmetry_group_IT_number 55
_symmetry_cell_setting 'orthorhombic'
loop_
_space_group_symop_operation_xyz
x,y,z
-x,-y,z
1/2+x,1/2-y,-z
1/2-x,1/2+y,-z
-x,-y,-z
x,y,-z
1/2-x,1/2+y,z
1/2+x,1/2-y,z
loop_
_atom_site_type_symbol
_atom_site_label
_atom_site_fract_x
_atom_site_fract_y
_atom_site_fract_z
Si Si1 0.065940 0.250929 0.153013
Si Si2 0.484501 0.335342 0.344513
Si Si3 0.243726 0.066903 0.166889
Si Si4 0.429052 0.548163 0.332767
Si Si5 0.904182 0.511690 0.166366
Si Si6 0.346355 0.863749 0.837835
Si Si7 0.796088 0.197867 0.658982
Si Si8 0.743620 0.800476 0.840972
O O1 0.072950 0.319617 0.176390
O O2 0.159049 0.221720 0.167242
O O3 0.002691 0.223774 0.264917
O O4 0.026547 0.238031 0.000000
O O5 0.521916 0.327620 0.500000
O O6 0.529498 0.391651 0.278828
O O7 0.381432 0.341584 0.344492
O O8 0.161415 0.039725 0.249572
O O9 0.258700 0.133398 0.210049
O O10 0.331062 0.033794 0.215669
O O11 0.226549 0.060493 0.000000
O O12 0.500000 0.500000 0.291729
O O13 0.411267 0.547075 0.500000
O O14 0.876342 0.574682 0.218492
O O15 0.000000 0.500000 0.231189
O O16 0.911066 0.510045 0.000000
O O17 0.269818 0.842564 0.740081
O O18 0.314109 0.865708 0.000000
O O19 0.764087 0.210759 0.500000
O O20 0.811833 0.259321 0.737592
O O21 0.707001 0.795345 0.000000
#
# Coordination Sequence:
#
# PCOD8226428 Si02
#       8
#     8   8   8   8   8   8   8   8
#     4   9  17  31  52  76 105 138 173 220 270 318
#     4  10  21  35  51  78 111 142 182 222 265 328
#     4  10  20  36  60  86 112 145 189 237 276 325
#     4  10  22  38  56  79 113 155 190 224 278 341
#     4   9  19  36  58  84 112 144 184 230 281 333
#     4   9  19  36  56  80 109 142 182 223 273 328
#     4  10  21  34  52  79 110 144 180 221 271 330
#     4   9  18  34  53  78 108 137 178 225 274 325
#
# _framework density 18.817271000000002
#
# number of rings (size 3 to 8) (size 9 to 14) (size 15 to 20)
#    0.000    2.500    1.250    1.125    1.750    4.750 
#    0.000    2.500    0.000    1.500    0.000    0.000 
#    0.000    0.000    0.000    0.000    0.000    0.000 
#
# Total GULP energy -793308.474786 kJ/mol
# GULP energy per Si atom -12395.444919 kJ/mol
# Density = 1.877444 g / cm^3
# Si number density = 18.817271 Si / 1000 Ang^3
#
#
#
# Elastic Constant Matrix: (Units=GPa)
#
#
# Indices 1 2 3 4 5 6 
#
# 1 98.9296 52.1363 38.4989 0.0000 0.0000 0.0000
# 2 52.1363 136.7953 35.9472 0.0000 0.0000 0.0000
# 3 38.4989 35.9472 66.1229 0.0000 0.0000 0.0000
# 4 0.0000 0.0000 0.0000 16.1593 0.0000 0.0000
# 5 0.0000 0.0000 0.0000 0.0000 27.4877 0.0000
# 6 0.0000 0.0000 0.0000 0.0000 0.0000 24.6640
#
#
#
# Elastic Compliance Matrix: (Units=1/GPa)
#
#
# Indices 1 2 3 4 5 6 
#
# 1 0.014661 -0.003902 -0.006415 0.000000 0.000000 0.000000
# 2 -0.003902 0.009567 -0.002929 0.000000 0.000000 0.000000
# 3 -0.006415 -0.002929 0.020451 0.000000 0.000000 0.000000
# 4 0.000000 0.000000 0.000000 0.061884 0.000000 0.000000
# 5 0.000000 0.000000 0.000000 0.000000 0.036380 0.000000
# 6 0.000000 0.000000 0.000000 0.000000 0.000000 0.040545
#
#
# Mechanical properties :
#
#
# Convention : Reuss Voigt Hill
#
# Bulk Modulus (GPa) = 54.98509 61.66805 58.32657
# Shear Modulus (GPa) = 23.14369 25.34656 24.24512
#
# Velocity S-wave (km/s) = 3.51082 3.67411 3.59339
# Velocity P-wave (km/s) = 6.76154 7.13036 6.94840
#
# Compressibility (1/GPa) = 0.01818675
#
# Stress axis : x y z
#
# Youngs Moduli (GPa) = 68.20864 104.52516 48.89805
#
# Poissons Ratio (x) = 0.40785 0.31367
# Poissons Ratio (y) = 0.26615 0.14323
# Poissons Ratio (z) = 0.43754 0.30618
#
# Static dielectric constant tensor:
#      x y z
#    x 3.346090 0.000000 0.000000 
#    y 0.000000 3.658990 0.000000 
#    z 0.000000 0.000000 3.363160 
# 
# 
# High freq. dielectric constant tensor:
#      x y z
#    x 1.721380 0.000000 0.000000 
#    y 0.000000 1.738600 0.000000 
#    z 0.000000 0.000000 1.712120 
# 
# From -- ./inp_files/6641.got.cif
#   From: 2010.03.12/outbox.cif.g09.slc.cpg/sg55_4_cif.got.tgz:6641.got - 2010.04.16 15:19:21.
