data_PCOD8226229
_publ_section_title
;
Structure prediction by ZEFSAII (Michael W. Deem and Ramdas Pophale) SiO2 
 PCOD8226229
Probable space group: P B A M
;
_chemical_formula_sum "Si O2"
_cell_formula_units_Z 48
_cell_length_a 16.670632
_cell_length_b 10.037460
_cell_length_c 13.671134
_cell_angle_alpha 90.000000
_cell_angle_beta 90.000000
_cell_angle_gamma 90.000000
_cell_volume 2287.601815
_symmetry_space_group_name_H-M "P B A M"
_symmetry_group_IT_number 55
_symmetry_cell_setting 'orthorhombic'
loop_
_space_group_symop_operation_xyz
x,y,z
-x,-y,z
1/2+x,1/2-y,-z
1/2-x,1/2+y,-z
-x,-y,-z
x,y,-z
1/2-x,1/2+y,z
1/2+x,1/2-y,z
loop_
_atom_site_type_symbol
_atom_site_label
_atom_site_fract_x
_atom_site_fract_y
_atom_site_fract_z
Si Si1 0.588559 0.724891 0.109443
Si Si2 0.483220 0.346155 0.387796
Si Si3 0.427613 0.774528 0.213531
Si Si4 0.678598 0.757885 0.700302
Si Si5 0.795401 0.537740 0.747018
Si Si6 0.163226 0.047924 0.110875
O O1 0.499696 0.774889 0.135924
O O2 0.653010 0.780943 0.185943
O O3 0.592885 0.563572 0.114910
O O4 0.609756 0.774443 0.000000
O O5 0.500000 0.500000 0.363858
O O6 0.501632 0.312825 0.500000
O O7 0.542571 0.259979 0.322028
O O8 0.391965 0.306429 0.363629
O O9 0.360729 0.671080 0.178112
O O10 0.385242 0.918830 0.220535
O O11 0.754199 0.660022 0.688000
O O12 0.700964 0.910570 0.672502
O O13 0.744814 0.511054 0.845056
O O14 0.178709 0.094697 0.000000
#
# Coordination Sequence:
#
# PCOD8226229 Si02
#       6
#     8   8   8   8   8   8
#     4   9  19  34  55  84 119 159 207 258 306 364
#     4  10  22  42  69  95 121 157 206 261 317 378
#     4  11  20  36  62  86 121 162 210 256 309 367
#     4  10  22  41  62  88 123 163 205 254 308 375
#     4  11  22  38  60  88 126 167 205 252 315 367
#     4  10  20  35  57  89 126 168 213 252 302 373
#
# _framework density 20.982672000000001
#
# number of rings (size 3 to 8) (size 9 to 14) (size 15 to 20)
#    0.000    1.833    1.667    4.000    0.000    6.000 
#    0.000    4.167    0.000    1.000    0.000    0.000 
#    0.000    0.000    0.000    0.000    0.000    0.000 
#
# Total GULP energy -595138.473808 kJ/mol
# GULP energy per Si atom -12398.718204 kJ/mol
# Density = 2.093491 g / cm^3
# Si number density = 20.982672 Si / 1000 Ang^3
#
#
#
# Elastic Constant Matrix: (Units=GPa)
#
#
# Indices 1 2 3 4 5 6 
#
# 1 83.4519 41.3961 15.5902 0.0000 0.0000 0.0000
# 2 41.3961 112.9310 5.3895 0.0000 0.0000 0.0000
# 3 15.5902 5.3895 78.3043 0.0000 0.0000 0.0000
# 4 0.0000 0.0000 0.0000 13.8520 0.0000 0.0000
# 5 0.0000 0.0000 0.0000 0.0000 14.0876 0.0000
# 6 0.0000 0.0000 0.0000 0.0000 0.0000 41.4073
#
#
#
# Elastic Compliance Matrix: (Units=1/GPa)
#
#
# Indices 1 2 3 4 5 6 
#
# 1 0.015174 -0.005436 -0.002647 0.000000 0.000000 0.000000
# 2 -0.005436 0.010831 0.000337 0.000000 0.000000 0.000000
# 3 -0.002647 0.000337 0.013275 0.000000 0.000000 0.000000
# 4 0.000000 0.000000 0.000000 0.072192 0.000000 0.000000
# 5 0.000000 0.000000 0.000000 0.000000 0.070984 0.000000
# 6 0.000000 0.000000 0.000000 0.000000 0.000000 0.024150
#
#
# Mechanical properties :
#
#
# Convention : Reuss Voigt Hill
#
# Bulk Modulus (GPa) = 42.03835 44.38210 43.21023
# Shear Modulus (GPa) = 21.73651 28.02347 24.87999
#
# Velocity S-wave (km/s) = 3.22207 3.65849 3.44719
# Velocity P-wave (km/s) = 5.82414 6.24850 6.04005
#
# Compressibility (1/GPa) = 0.02378780
#
# Stress axis : x y z
#
# Youngs Moduli (GPa) = 65.90271 92.32372 75.33236
#
# Poissons Ratio (x) = 0.50186 0.19940
# Poissons Ratio (y) = 0.35824 -0.02537
# Poissons Ratio (z) = 0.17444 -0.03109
#
# Static dielectric constant tensor:
#      x y z
#    x 3.765870 0.000000 0.000000 
#    y 0.000000 3.895440 0.000000 
#    z 0.000000 0.000000 3.541530 
# 
# 
# High freq. dielectric constant tensor:
#      x y z
#    x 1.826730 0.000000 0.000000 
#    y 0.000000 1.821740 0.000000 
#    z 0.000000 0.000000 1.791950 
# 
# From -- ./inp_files/19340.got.cif
#   From: 2010.03.12/outbox.cif.g09.slc.cpg/sg55_10_cif.got.tgz:19340.got - 2010.04.16 15:19:21.
