data_PCOD8226012
_publ_section_title
;
Structure prediction by ZEFSAII (Michael W. Deem and Ramdas Pophale) SiO2 
 PCOD8226012
Probable space group: P B A M
;
_chemical_formula_sum "Si O2"
_cell_formula_units_Z 40
_cell_length_a 17.434463
_cell_length_b 13.641120
_cell_length_c 9.311382
_cell_angle_alpha 90.000000
_cell_angle_beta 90.000000
_cell_angle_gamma 90.000000
_cell_volume 2214.485029
_symmetry_space_group_name_H-M "P B A M"
_symmetry_group_IT_number 55
_symmetry_cell_setting 'orthorhombic'
loop_
_space_group_symop_operation_xyz
x,y,z
-x,-y,z
1/2+x,1/2-y,-z
1/2-x,1/2+y,-z
-x,-y,-z
x,y,-z
1/2-x,1/2+y,z
1/2+x,1/2-y,z
loop_
_atom_site_type_symbol
_atom_site_label
_atom_site_fract_x
_atom_site_fract_y
_atom_site_fract_z
Si Si1 0.479980 0.892242 0.333501
Si Si2 0.311238 0.817723 0.667564
Si Si3 0.864147 0.862002 0.166243
Si Si4 0.969592 0.212431 0.166595
Si Si5 0.824983 0.083727 0.168077
O O1 0.500563 0.882771 0.500000
O O2 0.391033 0.872318 0.302931
O O3 0.533064 0.814535 0.251371
O O4 0.500000 0.000000 0.274956
O O5 0.293921 0.805328 0.500000
O O6 0.312107 0.710410 0.739151
O O7 0.247028 0.883984 0.739441
O O8 0.953682 0.848162 0.203047
O O9 0.841700 0.971666 0.206916
O O10 0.847810 0.838754 0.000000
O O11 0.898197 0.147055 0.215533
O O12 0.965153 0.238477 0.000000
O O13 0.807231 0.097043 0.000000
#
# Coordination Sequence:
#
# PCOD8226012 Si02
#       5
#     8   8   8   8   8
#     4   9  19  36  54  72 100 138 174 209 252 300
#     4  10  21  35  51  75 106 137 171 211 255 303
#     4   9  18  35  56  75 101 135 169 210 257 304
#     4   9  18  33  54  79 102 128 168 213 256 303
#     4  10  20  34  54  79 105 134 169 210 258 308
#
# _framework density 18.062888999999998
#
# number of rings (size 3 to 8) (size 9 to 14) (size 15 to 20)
#    0.000    2.600    0.000    1.200    0.000    6.800 
#    0.000    4.000    0.000    6.000    0.000    0.000 
#    0.000    0.000    0.000    0.000    0.000    0.000 
#
# Total GULP energy -496138.081188 kJ/mol
# GULP energy per Si atom -12403.452030 kJ/mol
# Density = 1.802178 g / cm^3
# Si number density = 18.062889 Si / 1000 Ang^3
#
#
#
# Elastic Constant Matrix: (Units=GPa)
#
#
# Indices 1 2 3 4 5 6 
#
# 1 69.3004 67.7264 44.5047 0.0000 0.0000 0.0000
# 2 67.7264 177.1218 72.6680 0.0000 0.0000 0.0000
# 3 44.5047 72.6680 69.1650 0.0000 0.0000 0.0000
# 4 0.0000 0.0000 0.0000 23.9585 0.0000 0.0000
# 5 0.0000 0.0000 0.0000 0.0000 25.0636 0.0000
# 6 0.0000 0.0000 0.0000 0.0000 0.0000 29.1913
#
#
#
# Elastic Compliance Matrix: (Units=1/GPa)
#
#
# Indices 1 2 3 4 5 6 
#
# 1 0.027548 -0.005732 -0.011704 0.000000 0.000000 0.000000
# 2 -0.005732 0.011116 -0.007991 0.000000 0.000000 0.000000
# 3 -0.011704 -0.007991 0.030384 0.000000 0.000000 0.000000
# 4 0.000000 0.000000 0.000000 0.041739 0.000000 0.000000
# 5 0.000000 0.000000 0.000000 0.000000 0.039898 0.000000
# 6 0.000000 0.000000 0.000000 0.000000 0.000000 0.034257
#
#
# Mechanical properties :
#
#
# Convention : Reuss Voigt Hill
#
# Bulk Modulus (GPa) = 54.95823 76.15392 65.55607
# Shear Modulus (GPa) = 20.67319 24.35523 22.51421
#
# Velocity S-wave (km/s) = 3.38673 3.67598 3.53432
# Velocity P-wave (km/s) = 6.76649 7.76332 7.28198
#
# Compressibility (1/GPa) = 0.01819564
#
# Stress axis : x y z
#
# Youngs Moduli (GPa) = 36.30085 89.96163 32.91169
#
# Poissons Ratio (x) = 0.51564 0.38519
# Poissons Ratio (y) = 0.20807 0.26299
# Poissons Ratio (z) = 0.42485 0.71886
#
# Static dielectric constant tensor:
#      x y z
#    x 3.304190 0.000000 0.000000 
#    y 0.000000 3.449440 0.000000 
#    z 0.000000 0.000000 3.303730 
# 
# 
# High freq. dielectric constant tensor:
#      x y z
#    x 1.696240 0.000000 0.000000 
#    y 0.000000 1.708550 0.000000 
#    z 0.000000 0.000000 1.695620 
# 
# From -- ./inp_files/3581.got.cif
#   From: 2010.03.12/outbox.cif.g09.slc.cpg/sg55_2_cif.got.tgz:3581.got - 2010.04.16 15:19:21.
