data_PCOD8226833
_publ_section_title
;
Structure prediction by ZEFSAII (Michael W. Deem and Ramdas Pophale) SiO2 
 PCOD8226833
Probable space group: P B A M
;
_chemical_formula_sum "Si O2"
_cell_formula_units_Z 64
_cell_length_a 11.038756
_cell_length_b 32.168253
_cell_length_c 9.603679
_cell_angle_alpha 90.000000
_cell_angle_beta 90.000000
_cell_angle_gamma 90.000000
_cell_volume 3410.242363
_symmetry_space_group_name_H-M "P B A M"
_symmetry_group_IT_number 55
_symmetry_cell_setting 'orthorhombic'
loop_
_space_group_symop_operation_xyz
x,y,z
-x,-y,z
1/2+x,1/2-y,-z
1/2-x,1/2+y,-z
-x,-y,-z
x,y,-z
1/2-x,1/2+y,z
1/2+x,1/2-y,z
loop_
_atom_site_type_symbol
_atom_site_label
_atom_site_fract_x
_atom_site_fract_y
_atom_site_fract_z
Si Si1 0.630797 0.978985 0.334250
Si Si2 0.028592 0.814084 0.156438
Si Si3 0.118195 0.616539 0.664702
Si Si4 0.194824 0.182440 0.655794
Si Si5 0.819626 0.108070 0.154880
Si Si6 0.715382 0.727043 0.346818
Si Si7 0.128140 0.348053 0.340048
Si Si8 0.863835 0.013557 0.837303
O O1 0.653284 0.983953 0.500000
O O2 0.621637 0.931052 0.286300
O O3 0.500000 0.000000 0.294017
O O4 0.749450 0.996284 0.252840
O O5 0.063567 0.862387 0.165433
O O6 0.128786 0.784691 0.222231
O O7 0.908342 0.806546 0.238952
O O8 0.009044 0.798854 0.000000
O O9 0.115384 0.619221 0.500000
O O10 0.233963 0.642600 0.716783
O O11 0.001856 0.640868 0.725667
O O12 0.145765 0.173022 0.500000
O O13 0.275511 0.223646 0.652592
O O14 0.722459 0.121749 0.266533
O O15 0.865864 0.062447 0.187735
O O16 0.762433 0.111074 0.000000
O O17 0.665314 0.713285 0.500000
O O18 0.840735 0.701018 0.321284
O O19 0.130958 0.361618 0.500000
O O20 0.843607 0.001569 0.000000
O O21 0.000000 0.000000 0.788188
#
# Coordination Sequence:
#
# PCOD8226833 Si02
#       8
#     8   8   8   8   8   8   8   8
#     4  10  21  38  59  85 115 148 186 235 293 347
#     4  10  21  36  55  78 110 144 177 222 273 326
#     4   9  19  34  54  81 113 141 174 226 281 327
#     4  10  21  35  55  80 109 143 181 226 270 321
#     4   9  19  36  55  77 107 142 179 221 273 324
#     4   9  19  34  57  82 104 139 185 226 265 317
#     4   9  17  33  57  82 104 137 181 222 265 320
#     4  10  22  38  58  82 111 149 190 234 280 337
#
# _framework density 18.766994
#
# number of rings (size 3 to 8) (size 9 to 14) (size 15 to 20)
#    0.000    2.500    0.000    1.125    3.500    3.000 
#    0.000    1.250    0.000    0.000    0.000    0.000 
#    0.000    0.000    0.000    0.000    0.000    0.000 
#
# Total GULP energy -793031.597732 kJ/mol
# GULP energy per Si atom -12391.118715 kJ/mol
# Density = 1.872428 g / cm^3
# Si number density = 18.766994 Si / 1000 Ang^3
#
#
#
# Elastic Constant Matrix: (Units=GPa)
#
#
# Indices 1 2 3 4 5 6 
#
# 1 94.8988 29.5993 45.1539 0.0000 0.0000 0.0000
# 2 29.5993 95.5890 30.4794 0.0000 0.0000 0.0000
# 3 45.1539 30.4794 78.2432 0.0000 0.0000 0.0000
# 4 0.0000 0.0000 0.0000 19.6757 0.0000 0.0000
# 5 0.0000 0.0000 0.0000 0.0000 73.7865 0.0000
# 6 0.0000 0.0000 0.0000 0.0000 0.0000 18.3297
#
#
#
# Elastic Compliance Matrix: (Units=1/GPa)
#
#
# Indices 1 2 3 4 5 6 
#
# 1 0.014899 -0.002137 -0.007766 0.000000 0.000000 0.000000
# 2 -0.002137 0.012252 -0.003539 0.000000 0.000000 0.000000
# 3 -0.007766 -0.003539 0.018641 0.000000 0.000000 0.000000
# 4 0.000000 0.000000 0.000000 0.050824 0.000000 0.000000
# 5 0.000000 0.000000 0.000000 0.000000 0.013553 0.000000
# 6 0.000000 0.000000 0.000000 0.000000 0.000000 0.054556
#
#
# Mechanical properties :
#
#
# Convention : Reuss Voigt Hill
#
# Bulk Modulus (GPa) = 52.88929 53.24400 53.06665
# Shear Modulus (GPa) = 25.26377 33.25827 29.26102
#
# Velocity S-wave (km/s) = 3.67301 4.21428 3.95292
# Velocity P-wave (km/s) = 6.79936 7.21893 7.01228
#
# Compressibility (1/GPa) = 0.01890742
#
# Stress axis : x y z
#
# Youngs Moduli (GPa) = 67.11781 81.62064 53.64563
#
# Poissons Ratio (x) = 0.17446 0.41659
# Poissons Ratio (y) = 0.14346 0.18986
# Poissons Ratio (z) = 0.52121 0.28887
#
# Static dielectric constant tensor:
#      x y z
#    x 3.552780 0.000000 0.000000 
#    y 0.000000 3.650900 0.000000 
#    z 0.000000 0.000000 3.471390 
# 
# 
# High freq. dielectric constant tensor:
#      x y z
#    x 1.724530 0.000000 0.000000 
#    y 0.000000 1.738210 0.000000 
#    z 0.000000 0.000000 1.715140 
# 
# From -- ./inp_files/4634.got.cif
#   From: 2010.03.12/outbox.cif.g09.slc.cpg/sg55_3_cif.got.tgz:4634.got - 2010.04.16 15:19:21.
