data_PCOD8226037
_publ_section_title
;
Structure prediction by ZEFSAII (Michael W. Deem and Ramdas Pophale) SiO2 
 PCOD8226037
Probable space group: P B A M
;
_chemical_formula_sum "Si O2"
_cell_formula_units_Z 56
_cell_length_a 21.662596
_cell_length_b 14.515545
_cell_length_c 9.119696
_cell_angle_alpha 90.000000
_cell_angle_beta 90.000000
_cell_angle_gamma 90.000000
_cell_volume 2867.637219
_symmetry_space_group_name_H-M "P B A M"
_symmetry_group_IT_number 55
_symmetry_cell_setting 'orthorhombic'
loop_
_space_group_symop_operation_xyz
x,y,z
-x,-y,z
1/2+x,1/2-y,-z
1/2-x,1/2+y,-z
-x,-y,-z
x,y,-z
1/2-x,1/2+y,z
1/2+x,1/2-y,z
loop_
_atom_site_type_symbol
_atom_site_label
_atom_site_fract_x
_atom_site_fract_y
_atom_site_fract_z
Si Si1 0.929814 0.488352 0.826459
Si Si2 0.118018 0.689382 0.666980
Si Si3 0.723552 0.671077 0.326719
Si Si4 0.538324 0.637006 0.332878
Si Si5 0.358221 0.465067 0.167719
Si Si6 0.850064 0.663099 0.167582
Si Si7 0.417219 0.648100 0.163951
O O1 0.895570 0.398555 0.765850
O O2 0.888627 0.575124 0.776831
O O3 0.000000 0.500000 0.765480
O O4 0.932242 0.479125 0.000000
O O5 0.126553 0.656267 0.500000
O O6 0.179931 0.743071 0.721074
O O7 0.060142 0.757671 0.682226
O O8 0.722945 0.661153 0.500000
O O9 0.698107 0.575279 0.261289
O O10 0.792189 0.684395 0.269933
O O11 0.546279 0.602882 0.500000
O O12 0.576852 0.572358 0.225899
O O13 0.467735 0.628612 0.286903
O O14 0.360615 0.576045 0.184199
O O15 0.348981 0.434526 0.000000
O O16 0.894530 0.749077 0.184447
O O17 0.827909 0.649546 0.000000
O O18 0.445282 0.635897 0.000000
#
# Coordination Sequence:
#
# PCOD8226037 Si02
#       7
#     8   8   8   8   8   8   8
#     4  10  21  37  59  86 113 145 187 233 281 332
#     4   9  20  37  56  80 110 145 184 225 272 329
#     4  10  22  40  58  80 110 144 185 229 278 333
#     4  10  20  34  54  83 116 146 178 219 269 325
#     4  10  20  35  57  83 110 143 182 222 267 322
#     4  10  22  39  57  80 111 145 185 232 279 330
#     4  10  21  36  55  80 110 144 181 222 270 324
#
# _framework density 19.528272000000001
#
# number of rings (size 3 to 8) (size 9 to 14) (size 15 to 20)
#    0.000    2.143    0.000    3.429    0.000   10.000 
#    0.000    4.286    0.000    0.000    0.000    0.000 
#    0.000    0.000    0.000    0.000    0.000    0.000 
#
# Total GULP energy -694433.533840 kJ/mol
# GULP energy per Si atom -12400.598819 kJ/mol
# Density = 1.948382 g / cm^3
# Si number density = 19.528272 Si / 1000 Ang^3
#
#
#
# Elastic Constant Matrix: (Units=GPa)
#
#
# Indices 1 2 3 4 5 6 
#
# 1 71.6115 5.6464 22.4019 0.0000 0.0000 0.0000
# 2 5.6464 85.1530 18.0025 0.0000 0.0000 0.0000
# 3 22.4019 18.0025 61.3569 0.0000 0.0000 0.0000
# 4 0.0000 0.0000 0.0000 24.9009 0.0000 0.0000
# 5 0.0000 0.0000 0.0000 0.0000 24.9142 0.0000
# 6 0.0000 0.0000 0.0000 0.0000 0.0000 17.3147
#
#
#
# Elastic Compliance Matrix: (Units=1/GPa)
#
#
# Indices 1 2 3 4 5 6 
#
# 1 0.015768 0.000183 -0.005811 0.000000 0.000000 0.000000
# 2 0.000183 0.012522 -0.003741 0.000000 0.000000 0.000000
# 3 -0.005811 -0.003741 0.019517 0.000000 0.000000 0.000000
# 4 0.000000 0.000000 0.000000 0.040159 0.000000 0.000000
# 5 0.000000 0.000000 0.000000 0.000000 0.040138 0.000000
# 6 0.000000 0.000000 0.000000 0.000000 0.000000 0.057754
#
#
# Mechanical properties :
#
#
# Convention : Reuss Voigt Hill
#
# Bulk Modulus (GPa) = 34.39978 34.46921 34.43450
# Shear Modulus (GPa) = 23.33339 24.89734 24.11537
#
# Velocity S-wave (km/s) = 3.46041 3.57450 3.51792
# Velocity P-wave (km/s) = 5.79824 5.89282 5.84572
#
# Compressibility (1/GPa) = 0.02906995
#
# Stress axis : x y z
#
# Youngs Moduli (GPa) = 63.42159 79.85745 51.23702
#
# Poissons Ratio (x) = -0.01461 0.29771
# Poissons Ratio (y) = -0.01160 0.19167
# Poissons Ratio (z) = 0.36851 0.29874
#
# Static dielectric constant tensor:
#      x y z
#    x 3.476620 0.000000 0.000000 
#    y 0.000000 3.617700 0.000000 
#    z 0.000000 0.000000 3.559310 
# 
# 
# High freq. dielectric constant tensor:
#      x y z
#    x 1.751970 0.000000 0.000000 
#    y 0.000000 1.766890 0.000000 
#    z 0.000000 0.000000 1.761060 
# 
# From -- ./inp_files/6172.got.cif
#   From: 2010.03.12/outbox.cif.g09.slc.cpg/sg55_4_cif.got.tgz:6172.got - 2010.04.16 15:19:21.
