data_PCOD8226874
_publ_section_title
;
Structure prediction by ZEFSAII (Michael W. Deem and Ramdas Pophale) SiO2 
 PCOD8226874
Probable space group: P B A M
;
_chemical_formula_sum "Si O2"
_cell_formula_units_Z 56
_cell_length_a 23.415125
_cell_length_b 13.961362
_cell_length_c 9.070307
_cell_angle_alpha 90.000000
_cell_angle_beta 90.000000
_cell_angle_gamma 90.000000
_cell_volume 2965.147181
_symmetry_space_group_name_H-M "P B A M"
_symmetry_group_IT_number 55
_symmetry_cell_setting 'orthorhombic'
loop_
_space_group_symop_operation_xyz
x,y,z
-x,-y,z
1/2+x,1/2-y,-z
1/2-x,1/2+y,-z
-x,-y,-z
x,y,-z
1/2-x,1/2+y,z
1/2+x,1/2-y,z
loop_
_atom_site_type_symbol
_atom_site_label
_atom_site_fract_x
_atom_site_fract_y
_atom_site_fract_z
Si Si1 0.017807 0.900247 0.331000
Si Si2 0.038772 0.294995 0.325685
Si Si3 0.167336 0.327570 0.325897
Si Si4 0.939729 0.380511 0.829309
Si Si5 0.267345 0.194373 0.331773
Si Si6 0.326937 0.020877 0.826216
Si Si7 0.381232 0.282955 0.665581
O O1 0.998619 0.908193 0.500000
O O2 0.984682 0.807516 0.265898
O O3 0.086927 0.885650 0.314914
O O4 0.000000 0.000000 0.250541
O O5 0.034379 0.302732 0.500000
O O6 0.103506 0.305241 0.270783
O O7 0.999890 0.381688 0.258775
O O8 0.170257 0.345347 0.500000
O O9 0.206743 0.237175 0.280184
O O10 0.191712 0.421302 0.245713
O O11 0.894239 0.463357 0.785613
O O12 0.906726 0.283362 0.792101
O O13 0.955395 0.385393 0.000000
O O14 0.264084 0.158410 0.500000
O O15 0.285944 0.104603 0.233960
O O16 0.312843 0.283065 0.317420
O O17 0.317953 0.017393 0.000000
O O18 0.397348 0.244164 0.500000
#
# Coordination Sequence:
#
# PCOD8226874 Si02
#       7
#     8   8   8   8   8   8   8
#     4   8  13  24  44  71  98 125 161 204 250 307
#     4   9  18  32  49  73 105 138 170 212 269 320
#     4  10  21  36  53  78 109 140 176 223 272 316
#     4   9  17  30  50  74  99 130 169 211 256 309
#     4   9  18  35  55  76 102 135 177 224 264 309
#     4  10  21  36  55  78 103 139 180 219 267 323
#     4   8  14  27  48  71  95 128 167 206 254 305
#
# _framework density 18.886078000000001
#
# number of rings (size 3 to 8) (size 9 to 14) (size 15 to 20)
#    0.000    3.000    0.000    1.714    0.000    3.429 
#    2.571    2.857    0.000    6.857    0.000    0.000 
#    0.000    0.000    0.000    0.000    0.000    0.000 
#
# Total GULP energy -693752.280166 kJ/mol
# GULP energy per Si atom -12388.433574 kJ/mol
# Density = 1.884309 g / cm^3
# Si number density = 18.886078 Si / 1000 Ang^3
#
#
#
# Elastic Constant Matrix: (Units=GPa)
#
#
# Indices 1 2 3 4 5 6 
#
# 1 110.1453 30.2334 31.6019 0.0000 0.0000 0.0000
# 2 30.2334 74.2314 28.7742 0.0000 0.0000 0.0000
# 3 31.6019 28.7742 42.9163 0.0000 0.0000 0.0000
# 4 0.0000 0.0000 0.0000 13.7982 0.0000 0.0000
# 5 0.0000 0.0000 0.0000 0.0000 18.6056 0.0000
# 6 0.0000 0.0000 0.0000 0.0000 0.0000 23.8601
#
#
#
# Elastic Compliance Matrix: (Units=1/GPa)
#
#
# Indices 1 2 3 4 5 6 
#
# 1 0.011712 -0.001928 -0.007331 0.000000 0.000000 0.000000
# 2 -0.001928 0.018519 -0.010997 0.000000 0.000000 0.000000
# 3 -0.007331 -0.010997 0.036073 0.000000 0.000000 0.000000
# 4 0.000000 0.000000 0.000000 0.072473 0.000000 0.000000
# 5 0.000000 0.000000 0.000000 0.000000 0.053747 0.000000
# 6 0.000000 0.000000 0.000000 0.000000 0.000000 0.041911
#
#
# Mechanical properties :
#
#
# Convention : Reuss Voigt Hill
#
# Bulk Modulus (GPa) = 38.77296 45.39021 42.08158
# Shear Modulus (GPa) = 17.63392 20.36503 18.99947
#
# Velocity S-wave (km/s) = 3.05896 3.28732 3.17520
# Velocity P-wave (km/s) = 5.74899 6.20440 5.98103
#
# Compressibility (1/GPa) = 0.02579117
#
# Stress axis : x y z
#
# Youngs Moduli (GPa) = 85.38577 53.99742 27.72184
#
# Poissons Ratio (x) = 0.10412 0.20323
# Poissons Ratio (y) = 0.16464 0.30485
# Poissons Ratio (z) = 0.62597 0.59380
#
# Static dielectric constant tensor:
#      x y z
#    x 3.702780 0.000000 0.000000 
#    y 0.000000 3.382370 0.000000 
#    z 0.000000 0.000000 3.182800 
# 
# 
# High freq. dielectric constant tensor:
#      x y z
#    x 1.736590 0.000000 0.000000 
#    y 0.000000 1.712070 0.000000 
#    z 0.000000 0.000000 1.707590 
# 
# From -- ./inp_files/8725.got.cif
#   From: 2010.03.12/outbox.cif.g09.slc.cpg/sg55_5_cif.got.tgz:8725.got - 2010.04.16 15:19:21.
