data_PCOD8226586
_publ_section_title
;
Structure prediction by ZEFSAII (Michael W. Deem and Ramdas Pophale) SiO2 
 PCOD8226586
Probable space group: P B A M
;
_chemical_formula_sum "Si O2"
_cell_formula_units_Z 48
_cell_length_a 20.140436
_cell_length_b 13.869939
_cell_length_c 8.610981
_cell_angle_alpha 90.000000
_cell_angle_beta 90.000000
_cell_angle_gamma 90.000000
_cell_volume 2405.448426
_symmetry_space_group_name_H-M "P B A M"
_symmetry_group_IT_number 55
_symmetry_cell_setting 'orthorhombic'
loop_
_space_group_symop_operation_xyz
x,y,z
-x,-y,z
1/2+x,1/2-y,-z
1/2-x,1/2+y,-z
-x,-y,-z
x,y,-z
1/2-x,1/2+y,z
1/2+x,1/2-y,z
loop_
_atom_site_type_symbol
_atom_site_label
_atom_site_fract_x
_atom_site_fract_y
_atom_site_fract_z
Si Si1 0.891478 0.756501 0.317375
Si Si2 0.192934 0.943688 0.675245
Si Si3 0.071356 0.045608 0.178878
Si Si4 0.813065 0.415414 0.676905
Si Si5 0.932108 0.546537 0.315205
Si Si6 0.248618 0.759037 0.821690
O O1 0.901727 0.769865 0.500000
O O2 0.928784 0.842940 0.230461
O O3 0.923960 0.656421 0.256559
O O4 0.813094 0.755668 0.284427
O O5 0.191648 0.902211 0.500000
O O6 0.215464 0.861916 0.793677
O O7 0.121053 0.982856 0.718622
O O8 0.243059 0.031841 0.687880
O O9 0.092993 0.039750 0.000000
O O10 0.000000 0.000000 0.207472
O O11 0.830277 0.387118 0.500000
O O12 0.870932 0.482682 0.747770
O O13 0.807451 0.319393 0.779105
O O14 0.930578 0.546753 0.500000
O O15 0.000000 0.500000 0.250679
O O16 0.269775 0.749101 0.000000
#
# Coordination Sequence:
#
# PCOD8226586 Si02
#       6
#     8   8   8   8   8   8
#     4  11  21  38  63  91 122 161 212 256 308 373
#     4  11  22  39  64  91 120 159 210 259 304 363
#     4  11  25  43  62  90 129 165 203 256 319 383
#     4  10  20  37  61  90 121 155 204 256 301 359
#     4   9  19  37  62  91 122 155 196 251 304 357
#     4  12  24  37  60  92 127 164 207 256 316 369
#
# _framework density 19.954699000000002
#
# number of rings (size 3 to 8) (size 9 to 14) (size 15 to 20)
#    0.000    1.333    3.333    3.000    0.000    3.333 
#    0.000    1.667    0.000    3.500    0.000    0.000 
#    0.000    0.000    0.000    0.000    0.000    0.000 
#
# Total GULP energy -595425.180340 kJ/mol
# GULP energy per Si atom -12404.691257 kJ/mol
# Density = 1.990928 g / cm^3
# Si number density = 19.954699 Si / 1000 Ang^3
#
#
#
# Elastic Constant Matrix: (Units=GPa)
#
#
# Indices 1 2 3 4 5 6 
#
# 1 103.4758 41.4471 22.4258 0.0000 0.0000 0.0000
# 2 41.4471 119.6523 20.6938 0.0000 0.0000 0.0000
# 3 22.4258 20.6938 56.3771 0.0000 0.0000 0.0000
# 4 0.0000 0.0000 0.0000 23.4574 0.0000 0.0000
# 5 0.0000 0.0000 0.0000 0.0000 21.8141 0.0000
# 6 0.0000 0.0000 0.0000 0.0000 0.0000 36.3877
#
#
#
# Elastic Compliance Matrix: (Units=1/GPa)
#
#
# Indices 1 2 3 4 5 6 
#
# 1 0.011805 -0.003499 -0.003411 0.000000 0.000000 0.000000
# 2 -0.003499 0.009961 -0.002264 0.000000 0.000000 0.000000
# 3 -0.003411 -0.002264 0.019926 0.000000 0.000000 0.000000
# 4 0.000000 0.000000 0.000000 0.042630 0.000000 0.000000
# 5 0.000000 0.000000 0.000000 0.000000 0.045842 0.000000
# 6 0.000000 0.000000 0.000000 0.000000 0.000000 0.027482
#
#
# Mechanical properties :
#
#
# Convention : Reuss Voigt Hill
#
# Bulk Modulus (GPa) = 42.84117 49.84875 46.34496
# Shear Modulus (GPa) = 27.20685 29.32774 28.26729
#
# Velocity S-wave (km/s) = 3.69647 3.83785 3.76782
# Velocity P-wave (km/s) = 6.30352 6.68386 6.49647
#
# Compressibility (1/GPa) = 0.02334203
#
# Stress axis : x y z
#
# Youngs Moduli (GPa) = 84.70960 100.38842 50.18595
#
# Poissons Ratio (x) = 0.35128 0.17120
# Poissons Ratio (y) = 0.29642 0.11364
# Poissons Ratio (z) = 0.28898 0.22733
#
# Static dielectric constant tensor:
#      x y z
#    x 3.561230 0.000000 0.000000 
#    y 0.000000 3.808570 0.000000 
#    z 0.000000 0.000000 3.460020 
# 
# 
# High freq. dielectric constant tensor:
#      x y z
#    x 1.772600 0.000000 0.000000 
#    y 0.000000 1.792830 0.000000 
#    z 0.000000 0.000000 1.764130 
# 
# From -- ./inp_files/7438.got.cif
#   From: 2010.03.12/outbox.cif.g09.slc.cpg/sg55_4_cif.got.tgz:7438.got - 2010.04.16 15:19:21.
