data_PCOD8226949
_publ_section_title
;
Structure prediction by ZEFSAII (Michael W. Deem and Ramdas Pophale) SiO2 
 PCOD8226949
Probable space group: P B A M
;
_chemical_formula_sum "Si O2"
_cell_formula_units_Z 64
_cell_length_a 15.124094
_cell_length_b 23.908112
_cell_length_c 8.999247
_cell_angle_alpha 90.000000
_cell_angle_beta 90.000000
_cell_angle_gamma 90.000000
_cell_volume 3254.024523
_symmetry_space_group_name_H-M "P B A M"
_symmetry_group_IT_number 55
_symmetry_cell_setting 'orthorhombic'
loop_
_space_group_symop_operation_xyz
x,y,z
-x,-y,z
1/2+x,1/2-y,-z
1/2-x,1/2+y,-z
-x,-y,-z
x,y,-z
1/2-x,1/2+y,z
1/2+x,1/2-y,z
loop_
_atom_site_type_symbol
_atom_site_label
_atom_site_fract_x
_atom_site_fract_y
_atom_site_fract_z
Si Si1 0.249342 0.075951 0.675088
Si Si2 0.600559 0.731133 0.673800
Si Si3 0.152177 0.385211 0.833777
Si Si4 0.602546 0.511402 0.670290
Si Si5 0.354981 0.376905 0.833038
Si Si6 0.400735 0.994930 0.323904
Si Si7 0.275913 0.701210 0.675109
Si Si8 0.428252 0.769614 0.175378
O O1 0.259828 0.079525 0.500000
O O2 0.160001 0.042574 0.718098
O O3 0.243115 0.138818 0.738986
O O4 0.336540 0.044013 0.739243
O O5 0.579995 0.734768 0.500000
O O6 0.597845 0.666651 0.723738
O O7 0.693546 0.759418 0.715040
O O8 0.526584 0.763492 0.764498
O O9 0.251888 0.363985 0.831480
O O10 0.139279 0.435610 0.720772
O O11 0.095884 0.332598 0.778377
O O12 0.124739 0.404209 0.000000
O O13 0.500000 0.500000 0.693004
O O14 0.623909 0.527726 0.500000
O O15 0.628952 0.560884 0.778124
O O16 0.393016 0.370358 0.000000
O O17 0.402943 0.997708 0.500000
O O18 0.500000 0.000000 0.258159
O O19 0.293570 0.699450 0.500000
O O20 0.363626 0.724358 0.751547
O O21 0.424205 0.760821 0.000000
#
# Coordination Sequence:
#
# PCOD8226949 Si02
#       8
#     8   8   8   8   8   8   8   8
#     4   9  19  37  56  83 122 154 188 242 297 343
#     4  11  24  40  63  92 120 157 207 254 302 359
#     4  10  22  40  61  85 120 159 197 244 297 357
#     4  10  21  37  60  89 119 156 198 242 298 358
#     4  11  22  40  63  87 120 157 201 252 302 359
#     4  10  21  36  61  90 117 152 197 246 294 347
#     4  10  22  40  62  88 121 160 202 250 300 359
#     4  11  24  42  62  88 123 161 200 246 306 363
#
# _framework density 19.667953000000001
#
# number of rings (size 3 to 8) (size 9 to 14) (size 15 to 20)
#    0.000    1.750    2.500    1.125    3.500    2.500 
#    0.000    1.250    0.000    0.000    0.000    0.000 
#    0.000    0.000    0.000    0.000    0.000    0.000 
#
# Total GULP energy -793740.188645 kJ/mol
# GULP energy per Si atom -12402.190448 kJ/mol
# Density = 1.962319 g / cm^3
# Si number density = 19.667953 Si / 1000 Ang^3
#
#
#
# Elastic Constant Matrix: (Units=GPa)
#
#
# Indices 1 2 3 4 5 6 
#
# 1 70.5181 11.8535 24.4515 0.0000 0.0000 0.0000
# 2 11.8535 103.3725 33.1913 0.0000 0.0000 0.0000
# 3 24.4515 33.1913 43.7150 0.0000 0.0000 0.0000
# 4 0.0000 0.0000 0.0000 -9.4905 0.0000 0.0000
# 5 0.0000 0.0000 0.0000 0.0000 21.9320 0.0000
# 6 0.0000 0.0000 0.0000 0.0000 0.0000 32.2439
#
#
#
# Elastic Compliance Matrix: (Units=1/GPa)
#
#
# Indices 1 2 3 4 5 6 
#
# 1 0.017773 0.001526 -0.011100 0.000000 0.000000 0.000000
# 2 0.001526 0.012923 -0.010666 0.000000 0.000000 0.000000
# 3 -0.011100 -0.010666 0.037182 0.000000 0.000000 0.000000
# 4 0.000000 0.000000 0.000000 -0.105369 0.000000 0.000000
# 5 0.000000 0.000000 0.000000 0.000000 0.045596 0.000000
# 6 0.000000 0.000000 0.000000 0.000000 0.000000 0.031014
#
#
# Mechanical properties :
#
#
# Convention : Reuss Voigt Hill
#
# Bulk Modulus (GPa) = 36.49723 39.62202 38.05963
# Shear Modulus (GPa) = 56.35016 18.81104 37.58060
#
# Velocity S-wave (km/s) = 5.35845 3.09598 4.37596
# Velocity P-wave (km/s) = 7.54194 5.74189 6.70262
#
# Compressibility (1/GPa) = 0.02739934
#
# Stress axis : x y z
#
# Youngs Moduli (GPa) = 56.26513 77.37901 26.89465
#
# Poissons Ratio (x) = -0.11808 0.29852
# Poissons Ratio (y) = -0.08586 0.28685
# Poissons Ratio (z) = 0.62453 0.82531
#
# Static dielectric constant tensor:
#      x y z
#    x 3.901640 0.000000 0.000000 
#    y 0.000000 3.659390 0.000000 
#    z 0.000000 0.000000 3.435730 
# 
# 
# High freq. dielectric constant tensor:
#      x y z
#    x 1.775420 0.000000 0.000000 
#    y 0.000000 1.775370 0.000000 
#    z 0.000000 0.000000 1.749760 
# 
# From -- ./inp_files/6736.got.cif
#   From: 2010.03.12/outbox.cif.g09.slc.cpg/sg55_4_cif.got.tgz:6736.got - 2010.04.16 15:19:21.
