data_PCOD8226819
_publ_section_title
;
Structure prediction by ZEFSAII (Michael W. Deem and Ramdas Pophale) SiO2 
 PCOD8226819
Probable space group: P B A M
;
_chemical_formula_sum "Si O2"
_cell_formula_units_Z 56
_cell_length_a 24.028039
_cell_length_b 13.636400
_cell_length_c 9.573248
_cell_angle_alpha 90.000000
_cell_angle_beta 90.000000
_cell_angle_gamma 90.000000
_cell_volume 3136.731678
_symmetry_space_group_name_H-M "P B A M"
_symmetry_group_IT_number 55
_symmetry_cell_setting 'orthorhombic'
loop_
_space_group_symop_operation_xyz
x,y,z
-x,-y,z
1/2+x,1/2-y,-z
1/2-x,1/2+y,-z
-x,-y,-z
x,y,-z
1/2-x,1/2+y,z
1/2+x,1/2-y,z
loop_
_atom_site_type_symbol
_atom_site_label
_atom_site_fract_x
_atom_site_fract_y
_atom_site_fract_z
Si Si1 0.937169 0.495125 0.660327
Si Si2 0.335124 0.695799 0.839422
Si Si3 0.344255 0.917596 0.159816
Si Si4 0.373535 0.203546 0.338745
Si Si5 0.781173 0.389744 0.162442
Si Si6 0.444425 0.382964 0.335020
Si Si7 0.569085 0.397421 0.665219
O O1 0.934273 0.529708 0.500000
O O2 0.899340 0.569480 0.747829
O O3 0.916679 0.384623 0.679438
O O4 0.000000 0.500000 0.716914
O O5 0.319130 0.809781 0.814851
O O6 0.282769 0.628636 0.796039
O O7 0.386988 0.669862 0.743448
O O8 0.351633 0.677214 0.000000
O O9 0.297224 0.998009 0.200433
O O10 0.362464 0.932628 0.000000
O O11 0.356197 0.217199 0.500000
O O12 0.318284 0.185745 0.250060
O O13 0.403440 0.299880 0.275495
O O14 0.790885 0.366419 0.000000
O O15 0.447144 0.374417 0.500000
O O16 0.420925 0.489213 0.292173
O O17 0.507556 0.366901 0.281757
O O18 0.576007 0.382128 0.500000
#
# Coordination Sequence:
#
# PCOD8226819 Si02
#       7
#     8   8   8   8   8   8   8
#     4   9  18  30  48  76 103 128 162 203 247 296
#     4  10  21  35  52  75 102 133 170 213 257 297
#     4   9  19  35  51  70 100 134 166 204 251 301
#     4   9  17  31  51  73 100 130 164 208 251 296
#     4   9  19  36  52  69  99 135 171 207 249 300
#     4   8  16  32  52  75 103 133 163 204 253 304
#     4   9  18  33  53  75 100 132 169 203 250 309
#
# _framework density 17.852979000000001
#
# number of rings (size 3 to 8) (size 9 to 14) (size 15 to 20)
#    0.000    3.000    0.000    0.857    2.000    2.571 
#    0.000    4.286    0.000    0.000    0.000    0.000 
#    0.000    0.000    0.000    0.000    0.000    0.000 
#
# Total GULP energy -694344.602666 kJ/mol
# GULP energy per Si atom -12399.010762 kJ/mol
# Density = 1.781234 g / cm^3
# Si number density = 17.852979 Si / 1000 Ang^3
#
#
#
# Elastic Constant Matrix: (Units=GPa)
#
#
# Indices 1 2 3 4 5 6 
#
# 1 86.9482 46.6453 36.3418 0.0000 0.0000 0.0000
# 2 46.6453 89.4063 30.8800 0.0000 0.0000 0.0000
# 3 36.3418 30.8800 45.1043 0.0000 0.0000 0.0000
# 4 0.0000 0.0000 0.0000 22.4409 0.0000 0.0000
# 5 0.0000 0.0000 0.0000 0.0000 28.4928 0.0000
# 6 0.0000 0.0000 0.0000 0.0000 0.0000 29.0899
#
#
#
# Elastic Compliance Matrix: (Units=1/GPa)
#
#
# Indices 1 2 3 4 5 6 
#
# 1 0.019713 -0.006285 -0.011580 0.000000 0.000000 0.000000
# 2 -0.006285 0.016653 -0.006337 0.000000 0.000000 0.000000
# 3 -0.011580 -0.006337 0.035840 0.000000 0.000000 0.000000
# 4 0.000000 0.000000 0.000000 0.044562 0.000000 0.000000
# 5 0.000000 0.000000 0.000000 0.000000 0.035097 0.000000
# 6 0.000000 0.000000 0.000000 0.000000 0.000000 0.034376
#
#
# Mechanical properties :
#
#
# Convention : Reuss Voigt Hill
#
# Bulk Modulus (GPa) = 42.01521 49.91033 45.96277
# Shear Modulus (GPa) = 20.61186 23.17750 21.89468
#
# Velocity S-wave (km/s) = 3.40153 3.60702 3.50578
# Velocity P-wave (km/s) = 6.24598 6.73532 6.49526
#
# Compressibility (1/GPa) = 0.02380090
#
# Stress axis : x y z
#
# Youngs Moduli (GPa) = 50.72757 60.05050 27.90173
#
# Poissons Ratio (x) = 0.37742 0.32312
# Poissons Ratio (y) = 0.31882 0.17681
# Poissons Ratio (z) = 0.58745 0.38054
#
# Static dielectric constant tensor:
#      x y z
#    x 3.270780 0.000000 0.000000 
#    y 0.000000 3.518680 0.000000 
#    z 0.000000 0.000000 3.149690 
# 
# 
# High freq. dielectric constant tensor:
#      x y z
#    x 1.685820 0.000000 0.000000 
#    y 0.000000 1.695940 0.000000 
#    z 0.000000 0.000000 1.671080 
# 
# From -- ./inp_files/15712.got.cif
#   From: 2010.03.12/outbox.cif.g09.slc.cpg/sg55_8_cif.got.tgz:15712.got - 2010.04.16 15:19:21.
