data_PCOD8226496
_publ_section_title
;
Structure prediction by ZEFSAII (Michael W. Deem and Ramdas Pophale) SiO2 
 PCOD8226496
Probable space group: P B A M
;
_chemical_formula_sum "Si O2"
_cell_formula_units_Z 64
_cell_length_a 22.247091
_cell_length_b 10.127838
_cell_length_c 15.213853
_cell_angle_alpha 90.000000
_cell_angle_beta 90.000000
_cell_angle_gamma 90.000000
_cell_volume 3427.908279
_symmetry_space_group_name_H-M "P B A M"
_symmetry_group_IT_number 55
_symmetry_cell_setting 'orthorhombic'
loop_
_space_group_symop_operation_xyz
x,y,z
-x,-y,z
1/2+x,1/2-y,-z
1/2-x,1/2+y,-z
-x,-y,-z
x,y,-z
1/2-x,1/2+y,z
1/2+x,1/2-y,z
loop_
_atom_site_type_symbol
_atom_site_label
_atom_site_fract_x
_atom_site_fract_y
_atom_site_fract_z
Si Si1 0.207637 0.824483 0.098916
Si Si2 0.738996 0.411466 0.802782
Si Si3 0.971469 0.860445 0.600680
Si Si4 0.913724 0.316040 0.900335
Si Si5 0.527657 0.359007 0.898096
Si Si6 0.048693 0.608332 0.399204
Si Si7 0.134044 0.520230 0.254019
Si Si8 0.380538 0.709445 0.748502
O O1 0.247494 0.696806 0.122539
O O2 0.136881 0.796390 0.111078
O O3 0.224994 0.947047 0.157587
O O4 0.223361 0.862632 0.000000
O O5 0.797728 0.428846 0.742797
O O6 0.683248 0.363942 0.744524
O O7 0.949162 0.852684 0.500000
O O8 0.914768 0.837813 0.662124
O O9 0.022486 0.752558 0.619344
O O10 0.000000 0.000000 0.623981
O O11 0.901345 0.435943 0.834126
O O12 0.978015 0.252597 0.879127
O O13 0.912076 0.372268 0.000000
O O14 0.500000 0.500000 0.872523
O O15 0.585104 0.329101 0.838068
O O16 0.548202 0.358197 0.000000
O O17 0.068281 0.589883 0.500000
O O18 0.106650 0.588781 0.339632
O O19 0.000000 0.500000 0.371346
O O20 0.130034 0.364232 0.257461
#
# Coordination Sequence:
#
# PCOD8226496 Si02
#       8
#     8   8   8   8   8   8   8   8
#     4  10  20  37  58  78 112 160 206 253 295 338
#     4  11  23  39  54  85 115 157 209 251 289 352
#     4  10  22  40  65  99 125 148 191 242 295 361
#     4   9  20  36  55  82 119 155 190 245 304 352
#     4  10  21  36  55  85 118 151 196 241 296 365
#     4  10  20  38  67  94 118 151 190 235 294 359
#     4  11  23  39  58  85 120 155 202 247 292 352
#     4  12  23  38  61  85 118 161 195 246 302 342
#
# _framework density 18.670278
#
# number of rings (size 3 to 8) (size 9 to 14) (size 15 to 20)
#    0.000    1.625    2.500    2.250    0.000    5.000 
#    0.000    1.875    0.000    0.000    0.000    0.000 
#    0.000    0.000    0.000    0.000    0.000    0.000 
#
# Total GULP energy -793838.322898 kJ/mol
# GULP energy per Si atom -12403.723795 kJ/mol
# Density = 1.862778 g / cm^3
# Si number density = 18.670278 Si / 1000 Ang^3
#
#
#
# Elastic Constant Matrix: (Units=GPa)
#
#
# Indices 1 2 3 4 5 6 
#
# 1 124.7205 48.7921 72.5528 0.0000 0.0000 0.0000
# 2 48.7921 120.4100 44.8539 0.0000 0.0000 0.0000
# 3 72.5528 44.8539 104.4465 0.0000 0.0000 0.0000
# 4 0.0000 0.0000 0.0000 31.3132 0.0000 0.0000
# 5 0.0000 0.0000 0.0000 0.0000 23.2705 0.0000
# 6 0.0000 0.0000 0.0000 0.0000 0.0000 21.4055
#
#
#
# Elastic Compliance Matrix: (Units=1/GPa)
#
#
# Indices 1 2 3 4 5 6 
#
# 1 0.014036 -0.002447 -0.008699 0.000000 0.000000 0.000000
# 2 -0.002447 0.010313 -0.002729 0.000000 0.000000 0.000000
# 3 -0.008699 -0.002729 0.016789 0.000000 0.000000 0.000000
# 4 0.000000 0.000000 0.000000 0.031935 0.000000 0.000000
# 5 0.000000 0.000000 0.000000 0.000000 0.042973 0.000000
# 6 0.000000 0.000000 0.000000 0.000000 0.000000 0.046717
#
#
# Mechanical properties :
#
#
# Convention : Reuss Voigt Hill
#
# Bulk Modulus (GPa) = 74.69583 75.77496 75.23539
# Shear Modulus (GPa) = 25.64429 27.42305 26.53367
#
# Velocity S-wave (km/s) = 3.71014 3.83666 3.77393
# Velocity P-wave (km/s) = 7.64515 7.76535 7.70548
#
# Compressibility (1/GPa) = 0.01338763
#
# Stress axis : x y z
#
# Youngs Moduli (GPa) = 71.24785 96.96356 59.56355
#
# Poissons Ratio (x) = 0.23727 0.51813
# Poissons Ratio (y) = 0.17435 0.16256
# Poissons Ratio (z) = 0.61977 0.26462
#
# Static dielectric constant tensor:
#      x y z
#    x 3.435390 0.000000 0.000000 
#    y 0.000000 3.540620 0.000000 
#    z 0.000000 0.000000 3.412880 
# 
# 
# High freq. dielectric constant tensor:
#      x y z
#    x 1.722610 0.000000 0.000000 
#    y 0.000000 1.740030 0.000000 
#    z 0.000000 0.000000 1.717980 
# 
# From -- ./inp_files/17826.got.cif
#   From: 2010.03.12/outbox.cif.g09.slc.cpg/sg55_9_cif.got.tgz:17826.got - 2010.04.16 15:19:21.
