data_PCOD8226941
_publ_section_title
;
Structure prediction by ZEFSAII (Michael W. Deem and Ramdas Pophale) SiO2 
 PCOD8226941
Probable space group: P B A M
;
_chemical_formula_sum "Si O2"
_cell_formula_units_Z 48
_cell_length_a 20.602289
_cell_length_b 14.767035
_cell_length_c 7.850336
_cell_angle_alpha 90.000000
_cell_angle_beta 90.000000
_cell_angle_gamma 90.000000
_cell_volume 2388.344796
_symmetry_space_group_name_H-M "P B A M"
_symmetry_group_IT_number 55
_symmetry_cell_setting 'orthorhombic'
loop_
_space_group_symop_operation_xyz
x,y,z
-x,-y,z
1/2+x,1/2-y,-z
1/2-x,1/2+y,-z
-x,-y,-z
x,y,-z
1/2-x,1/2+y,z
1/2+x,1/2-y,z
loop_
_atom_site_type_symbol
_atom_site_label
_atom_site_fract_x
_atom_site_fract_y
_atom_site_fract_z
Si Si1 0.506863 0.260415 0.810719
Si Si2 0.189099 0.403681 0.190676
Si Si3 0.893071 0.523438 0.500000
Si Si4 0.560565 0.553623 0.192983
Si Si5 0.022055 0.636512 0.500000
Si Si6 0.847440 0.789741 0.298204
Si Si7 0.193379 0.012920 0.692329
O O1 0.455980 0.341472 0.801748
O O2 0.480135 0.191845 0.673103
O O3 0.580240 0.292406 0.776668
O O4 0.504881 0.216794 0.000000
O O5 0.143779 0.452243 0.327257
O O6 0.193526 0.296073 0.229566
O O7 0.259314 0.451589 0.193704
O O8 0.160733 0.416320 0.000000
O O9 0.909605 0.416967 0.500000
O O10 0.960148 0.574094 0.500000
O O11 0.500000 0.500000 0.273146
O O12 0.622993 0.533012 0.306240
O O13 0.573790 0.519768 0.000000
O O14 0.853689 0.781659 0.500000
O O15 0.810924 0.882515 0.243440
O O16 0.220264 0.011509 0.500000
#
# Coordination Sequence:
#
# PCOD8226941 Si02
#       7
#     8   8   4   8   4   8   8
#     4  11  21  37  63  94 128 170 215 259 321 386
#     4  12  24  44  70  92 128 172 217 267 321 386
#     4  11  24  46  64  96 127 160 221 265 321 369
#     4  10  21  36  58  92 133 164 207 272 322 379
#     4  11  24  42  67  90 132 166 204 278 312 378
#     4  11  21  40  67  92 125 169 217 262 319 388
#     4  11  24  40  65  95 129 172 216 269 326 386
#
# _framework density 20.097601000000001
#
# number of rings (size 3 to 8) (size 9 to 14) (size 15 to 20)
#    0.000    1.000    5.833    1.000    1.167    3.000 
#    3.000    1.667    0.000    0.000    0.000    0.000 
#    0.000    0.000    0.000    0.000    0.000    0.000 
#
# Total GULP energy -595173.234287 kJ/mol
# GULP energy per Si atom -12399.442381 kJ/mol
# Density = 2.005186 g / cm^3
# Si number density = 20.097601 Si / 1000 Ang^3
#
#
#
# Elastic Constant Matrix: (Units=GPa)
#
#
# Indices 1 2 3 4 5 6 
#
# 1 87.1420 62.6602 35.3559 0.0000 0.0000 0.0000
# 2 62.6602 131.4620 60.2585 0.0000 0.0000 0.0000
# 3 35.3559 60.2585 140.1570 0.0000 0.0000 0.0000
# 4 0.0000 0.0000 0.0000 11.8740 0.0000 0.0000
# 5 0.0000 0.0000 0.0000 0.0000 16.6720 0.0000
# 6 0.0000 0.0000 0.0000 0.0000 0.0000 38.9015
#
#
#
# Elastic Compliance Matrix: (Units=1/GPa)
#
#
# Indices 1 2 3 4 5 6 
#
# 1 0.017579 -0.007904 -0.001036 0.000000 0.000000 0.000000
# 2 -0.007904 0.013028 -0.003607 0.000000 0.000000 0.000000
# 3 -0.001036 -0.003607 0.008947 0.000000 0.000000 0.000000
# 4 0.000000 0.000000 0.000000 0.084217 0.000000 0.000000
# 5 0.000000 0.000000 0.000000 0.000000 0.059981 0.000000
# 6 0.000000 0.000000 0.000000 0.000000 0.000000 0.025706
#
#
# Mechanical properties :
#
#
# Convention : Reuss Voigt Hill
#
# Bulk Modulus (GPa) = 69.16078 75.03446 72.09762
# Shear Modulus (GPa) = 20.88791 26.85528 23.87160
#
# Velocity S-wave (km/s) = 3.22735 3.65943 3.45016
# Velocity P-wave (km/s) = 6.95521 7.43447 7.19883
#
# Compressibility (1/GPa) = 0.01445906
#
# Stress axis : x y z
#
# Youngs Moduli (GPa) = 56.88455 76.76018 111.76770
#
# Poissons Ratio (x) = 0.60672 0.11583
# Poissons Ratio (y) = 0.44962 0.40316
# Poissons Ratio (z) = 0.05895 0.27689
#
# Static dielectric constant tensor:
#      x y z
#    x 3.678200 0.000000 0.000000 
#    y 0.000000 4.036620 0.000000 
#    z 0.000000 0.000000 3.740650 
# 
# 
# High freq. dielectric constant tensor:
#      x y z
#    x 1.769240 0.000000 0.000000 
#    y 0.000000 1.788130 0.000000 
#    z 0.000000 0.000000 1.797460 
# 
# From -- ./inp_files/7471.got.cif
#   From: 2010.03.12/outbox.cif.g09.slc.cpg/sg55_4_cif.got.tgz:7471.got - 2010.04.16 15:19:21.
