data_PCOD8226770
_publ_section_title
;
Structure prediction by ZEFSAII (Michael W. Deem and Ramdas Pophale) SiO2 
 PCOD8226770
Probable space group: P B A M
;
_chemical_formula_sum "Si O2"
_cell_formula_units_Z 48
_cell_length_a 9.245893
_cell_length_b 28.524597
_cell_length_c 9.198350
_cell_angle_alpha 90.000000
_cell_angle_beta 90.000000
_cell_angle_gamma 90.000000
_cell_volume 2425.930257
_symmetry_space_group_name_H-M "P B A M"
_symmetry_group_IT_number 55
_symmetry_cell_setting 'orthorhombic'
loop_
_space_group_symop_operation_xyz
x,y,z
-x,-y,z
1/2+x,1/2-y,-z
1/2-x,1/2+y,-z
-x,-y,-z
x,y,-z
1/2-x,1/2+y,z
1/2+x,1/2-y,z
loop_
_atom_site_type_symbol
_atom_site_label
_atom_site_fract_x
_atom_site_fract_y
_atom_site_fract_z
Si Si1 0.374867 0.462237 0.163130
Si Si2 0.183298 0.785294 0.670275
Si Si3 0.000905 0.862902 0.830986
Si Si4 0.658830 0.980249 0.663085
Si Si5 0.989973 0.305731 0.670809
Si Si6 0.823411 0.383660 0.171117
O O1 0.500000 0.500000 0.164538
O O2 0.438759 0.413163 0.217737
O O3 0.252468 0.477000 0.275304
O O4 0.310556 0.457877 0.000000
O O5 0.167007 0.792890 0.500000
O O6 0.083765 0.823595 0.743888
O O7 0.124330 0.734298 0.715304
O O8 0.349679 0.789857 0.719910
O O9 0.831108 0.860356 0.793705
O O10 0.027724 0.854219 0.000000
O O11 0.710301 0.967072 0.500000
O O12 0.672329 0.935724 0.766495
O O13 0.500000 0.000000 0.659934
O O14 0.984883 0.316580 0.500000
O O15 0.949216 0.352829 0.756218
O O16 0.851486 0.387066 0.000000
#
# Coordination Sequence:
#
# PCOD8226770 Si02
#       6
#     8   8   8   8   8   8
#     4  10  20  40  63  86 120 160 203 247 292 349
#     4  10  22  40  64  90 121 158 196 243 299 356
#     4  10  22  39  61  89 121 156 200 248 295 352
#     4  11  25  41  59  88 124 159 201 250 297 353
#     4  10  22  41  63  90 121 155 198 245 296 355
#     4  11  23  41  63  88 119 160 201 245 300 355
#
# _framework density 19.786224000000001
#
# number of rings (size 3 to 8) (size 9 to 14) (size 15 to 20)
#    0.000    1.667    1.667    2.000    2.333    6.333 
#    0.000    0.000    0.000    0.000    0.000    0.000 
#    0.000    0.000    0.000    0.000    0.000    0.000 
#
# Total GULP energy -595392.460586 kJ/mol
# GULP energy per Si atom -12404.009596 kJ/mol
# Density = 1.974119 g / cm^3
# Si number density = 19.786224 Si / 1000 Ang^3
#
#
#
# Elastic Constant Matrix: (Units=GPa)
#
#
# Indices 1 2 3 4 5 6 
#
# 1 84.8248 7.7125 38.3368 0.0000 0.0000 0.0000
# 2 7.7125 60.1190 28.2120 0.0000 0.0000 0.0000
# 3 38.3368 28.2120 67.9499 0.0000 0.0000 0.0000
# 4 0.0000 0.0000 0.0000 31.2560 0.0000 0.0000
# 5 0.0000 0.0000 0.0000 0.0000 16.9307 0.0000
# 6 0.0000 0.0000 0.0000 0.0000 0.0000 39.0303
#
#
#
# Elastic Compliance Matrix: (Units=1/GPa)
#
#
# Indices 1 2 3 4 5 6 
#
# 1 0.016180 0.002742 -0.010267 0.000000 0.000000 0.000000
# 2 0.002742 0.021124 -0.010318 0.000000 0.000000 0.000000
# 3 -0.010267 -0.010318 0.024793 0.000000 0.000000 0.000000
# 4 0.000000 0.000000 0.000000 0.031994 0.000000 0.000000
# 5 0.000000 0.000000 0.000000 0.000000 0.059064 0.000000
# 6 0.000000 0.000000 0.000000 0.000000 0.000000 0.025621
#
#
# Mechanical properties :
#
#
# Convention : Reuss Voigt Hill
#
# Bulk Modulus (GPa) = 37.86155 40.15735 39.00945
# Shear Modulus (GPa) = 22.39496 26.68557 24.54027
#
# Velocity S-wave (km/s) = 3.36794 3.67644 3.52557
# Velocity P-wave (km/s) = 5.85670 6.19365 6.02753
#
# Compressibility (1/GPa) = 0.02641202
#
# Stress axis : x y z
#
# Youngs Moduli (GPa) = 61.80485 47.34049 40.33375
#
# Poissons Ratio (x) = -0.12983 0.41412
# Poissons Ratio (y) = -0.16950 0.41614
# Poissons Ratio (z) = 0.63456 0.48844
#
# Static dielectric constant tensor:
#      x y z
#    x 3.683330 0.000000 0.000000 
#    y 0.000000 -2.156980 0.000000 
#    z 0.000000 0.000000 3.706450 
# 
# 
# High freq. dielectric constant tensor:
#      x y z
#    x 1.780550 0.000000 0.000000 
#    y 0.000000 1.780150 0.000000 
#    z 0.000000 0.000000 1.770020 
# 
# From -- ./inp_files/2913.got.cif
#   From: 2010.03.12/outbox.cif.g09.slc.cpg/sg55_2_cif.got.tgz:2913.got - 2010.04.16 15:19:21.
