data_PCOD8226560
_publ_section_title
;
Structure prediction by ZEFSAII (Michael W. Deem and Ramdas Pophale) SiO2 
 PCOD8226560
Probable space group: P B A M
;
_chemical_formula_sum "Si O2"
_cell_formula_units_Z 56
_cell_length_a 21.807336
_cell_length_b 14.572585
_cell_length_c 8.969086
_cell_angle_alpha 90.000000
_cell_angle_beta 90.000000
_cell_angle_gamma 90.000000
_cell_volume 2850.279180
_symmetry_space_group_name_H-M "P B A M"
_symmetry_group_IT_number 55
_symmetry_cell_setting 'orthorhombic'
loop_
_space_group_symop_operation_xyz
x,y,z
-x,-y,z
1/2+x,1/2-y,-z
1/2-x,1/2+y,-z
-x,-y,-z
x,y,-z
1/2-x,1/2+y,z
1/2+x,1/2-y,z
loop_
_atom_site_type_symbol
_atom_site_label
_atom_site_fract_x
_atom_site_fract_y
_atom_site_fract_z
Si Si1 0.720342 0.799208 0.172807
Si Si2 0.679517 0.446803 0.172761
Si Si3 0.247497 0.887451 0.676959
Si Si4 0.459345 0.586623 0.174784
Si Si5 0.884191 0.591846 0.674060
Si Si6 0.012571 0.274503 0.323223
Si Si7 0.106790 0.615065 0.326454
O O1 0.783526 0.853138 0.202504
O O2 0.718218 0.706423 0.266480
O O3 0.665123 0.862756 0.226286
O O4 0.712098 0.775208 0.000000
O O5 0.706502 0.528711 0.269127
O O6 0.610255 0.429931 0.226270
O O7 0.682514 0.475517 0.000000
O O8 0.247417 0.888502 0.500000
O O9 0.316287 0.896941 0.743625
O O10 0.500000 0.500000 0.222147
O O11 0.487459 0.673306 0.258062
O O12 0.463109 0.605696 0.000000
O O13 0.879201 0.610945 0.500000
O O14 0.930806 0.666294 0.744089
O O15 0.910740 0.490608 0.704296
O O16 0.017031 0.269988 0.500000
O O17 0.949611 0.322660 0.274356
O O18 0.123276 0.630135 0.500000
#
# Coordination Sequence:
#
# PCOD8226560 Si02
#       7
#     8   8   8   8   8   8   8
#     4  11  23  38  58  85 121 159 198 242 293 351
#     4  10  22  41  61  85 117 158 198 240 294 348
#     4  11  22  36  61  90 118 153 195 243 294 349
#     4  10  23  42  61  82 115 157 198 242 295 352
#     4   9  18  36  60  89 121 153 188 235 295 350
#     4  10  21  37  61  89 117 153 195 243 293 348
#     4  10  20  37  60  88 120 152 194 241 293 351
#
# _framework density 19.647197999999999
#
# number of rings (size 3 to 8) (size 9 to 14) (size 15 to 20)
#    0.000    1.857    1.429    2.143    2.000    3.714 
#    0.000    1.429    0.000    1.714    0.000    0.000 
#    0.000    0.000    0.000    0.000    0.000    0.000 
#
# Total GULP energy -694624.971703 kJ/mol
# GULP energy per Si atom -12404.017352 kJ/mol
# Density = 1.960248 g / cm^3
# Si number density = 19.647198 Si / 1000 Ang^3
#
#
#
# Elastic Constant Matrix: (Units=GPa)
#
#
# Indices 1 2 3 4 5 6 
#
# 1 108.0237 37.3932 22.8826 0.0000 0.0000 0.0000
# 2 37.3932 103.5886 27.4020 0.0000 0.0000 0.0000
# 3 22.8826 27.4020 41.6332 0.0000 0.0000 0.0000
# 4 0.0000 0.0000 0.0000 15.3949 0.0000 0.0000
# 5 0.0000 0.0000 0.0000 0.0000 25.8785 0.0000
# 6 0.0000 0.0000 0.0000 0.0000 0.0000 31.8956
#
#
#
# Elastic Compliance Matrix: (Units=1/GPa)
#
#
# Indices 1 2 3 4 5 6 
#
# 1 0.011159 -0.002913 -0.004216 0.000000 0.000000 0.000000
# 2 -0.002913 0.012449 -0.006593 0.000000 0.000000 0.000000
# 3 -0.004216 -0.006593 0.030676 0.000000 0.000000 0.000000
# 4 0.000000 0.000000 0.000000 0.064957 0.000000 0.000000
# 5 0.000000 0.000000 0.000000 0.000000 0.038642 0.000000
# 6 0.000000 0.000000 0.000000 0.000000 0.000000 0.031352
#
#
# Mechanical properties :
#
#
# Convention : Reuss Voigt Hill
#
# Bulk Modulus (GPa) = 37.25726 47.62236 42.43981
# Shear Modulus (GPa) = 22.16081 25.67165 23.91623
#
# Velocity S-wave (km/s) = 3.36212 3.61866 3.49275
# Velocity P-wave (km/s) = 5.83748 6.46150 6.15740
#
# Compressibility (1/GPa) = 0.02684041
#
# Stress axis : x y z
#
# Youngs Moduli (GPa) = 89.61734 80.32801 32.59922
#
# Poissons Ratio (x) = 0.23398 0.13743
# Poissons Ratio (y) = 0.26104 0.21492
# Poissons Ratio (z) = 0.37782 0.52958
#
# Static dielectric constant tensor:
#      x y z
#    x 3.812200 0.000000 0.000000 
#    y 0.000000 3.578740 0.000000 
#    z 0.000000 0.000000 3.344980 
# 
# 
# High freq. dielectric constant tensor:
#      x y z
#    x 1.777870 0.000000 0.000000 
#    y 0.000000 1.778290 0.000000 
#    z 0.000000 0.000000 1.743880 
# 
# From -- ./inp_files/6115.got.cif
#   From: 2010.03.12/outbox.cif.g09.slc.cpg/sg55_4_cif.got.tgz:6115.got - 2010.04.16 15:19:21.
