data_PCOD8226047
_publ_section_title
;
Structure prediction by ZEFSAII (Michael W. Deem and Ramdas Pophale) SiO2 
 PCOD8226047
Probable space group: P B A M
;
_chemical_formula_sum "Si O2"
_cell_formula_units_Z 40
_cell_length_a 13.470649
_cell_length_b 18.173105
_cell_length_c 8.876795
_cell_angle_alpha 90.000000
_cell_angle_beta 90.000000
_cell_angle_gamma 90.000000
_cell_volume 2173.070651
_symmetry_space_group_name_H-M "P B A M"
_symmetry_group_IT_number 55
_symmetry_cell_setting 'orthorhombic'
loop_
_space_group_symop_operation_xyz
x,y,z
-x,-y,z
1/2+x,1/2-y,-z
1/2-x,1/2+y,-z
-x,-y,-z
x,y,-z
1/2-x,1/2+y,z
1/2+x,1/2-y,z
loop_
_atom_site_type_symbol
_atom_site_label
_atom_site_fract_x
_atom_site_fract_y
_atom_site_fract_z
Si Si1 0.420170 0.667282 0.823210
Si Si2 0.899185 0.531144 0.175780
Si Si3 0.311203 0.519052 0.822241
Si Si4 0.119655 0.875123 0.322463
Si Si5 0.812076 0.684147 0.175239
O O1 0.351330 0.598674 0.777075
O O2 0.521460 0.666412 0.731301
O O3 0.362283 0.740326 0.774136
O O4 0.444565 0.666955 0.000000
O O5 0.801772 0.488948 0.239060
O O6 0.889404 0.618087 0.208457
O O7 0.000000 0.500000 0.253470
O O8 0.905081 0.514417 0.000000
O O9 0.379614 0.456849 0.747284
O O10 0.315337 0.504939 0.000000
O O11 0.120210 0.882066 0.500000
O O12 0.212656 0.826587 0.270170
O O13 0.782185 0.685001 0.000000
#
# Coordination Sequence:
#
# PCOD8226047 Si02
#       5
#     8   8   8   8   8
#     4  10  20  34  55  79 102 133 176 225 268 307
#     4   8  14  27  49  75 101 129 163 206 255 305
#     4   9  18  33  53  77 103 133 174 219 261 310
#     4  11  22  35  52  74 106 143 173 209 260 317
#     4   9  19  35  54  77 104 134 173 220 264 309
#
# _framework density 18.407132000000001
#
# number of rings (size 3 to 8) (size 9 to 14) (size 15 to 20)
#    0.000    2.600    0.000    3.600    0.000    5.600 
#    0.000    6.000    0.000    9.600    0.000    0.000 
#    0.000    0.000    0.000    0.000    0.000    0.000 
#
# Total GULP energy -496004.393513 kJ/mol
# GULP energy per Si atom -12400.109838 kJ/mol
# Density = 1.836524 g / cm^3
# Si number density = 18.407132 Si / 1000 Ang^3
#
#
#
# Elastic Constant Matrix: (Units=GPa)
#
#
# Indices 1 2 3 4 5 6 
#
# 1 110.2406 72.8902 37.7902 0.0000 0.0000 0.0000
# 2 72.8902 140.6345 37.3046 0.0000 0.0000 0.0000
# 3 37.7902 37.3046 53.8249 0.0000 0.0000 0.0000
# 4 0.0000 0.0000 0.0000 7.4777 0.0000 0.0000
# 5 0.0000 0.0000 0.0000 0.0000 9.8542 0.0000
# 6 0.0000 0.0000 0.0000 0.0000 0.0000 26.6988
#
#
#
# Elastic Compliance Matrix: (Units=1/GPa)
#
#
# Indices 1 2 3 4 5 6 
#
# 1 0.015454 -0.006288 -0.006492 0.000000 0.000000 0.000000
# 2 -0.006288 0.011270 -0.003397 0.000000 0.000000 0.000000
# 3 -0.006492 -0.003397 0.025491 0.000000 0.000000 0.000000
# 4 0.000000 0.000000 0.000000 0.133732 0.000000 0.000000
# 5 0.000000 0.000000 0.000000 0.000000 0.101480 0.000000
# 6 0.000000 0.000000 0.000000 0.000000 0.000000 0.037455
#
#
# Mechanical properties :
#
#
# Convention : Reuss Voigt Hill
#
# Bulk Modulus (GPa) = 50.34692 66.74112 58.54402
# Shear Modulus (GPa) = 13.74169 19.25379 16.49774
#
# Velocity S-wave (km/s) = 2.73526 3.23770 2.99702
# Velocity P-wave (km/s) = 6.11447 7.09323 6.62196
#
# Compressibility (1/GPa) = 0.01986219
#
# Stress axis : x y z
#
# Youngs Moduli (GPa) = 64.70857 88.72753 39.22902
#
# Poissons Ratio (x) = 0.55788 0.25469
# Poissons Ratio (y) = 0.40686 0.13325
# Poissons Ratio (z) = 0.42011 0.30139
#
# Static dielectric constant tensor:
#      x y z
#    x 3.677180 0.000000 0.000000 
#    y 0.000000 3.460270 0.000000 
#    z 0.000000 0.000000 3.037600 
# 
# 
# High freq. dielectric constant tensor:
#      x y z
#    x 1.722840 0.000000 0.000000 
#    y 0.000000 1.715900 0.000000 
#    z 0.000000 0.000000 1.678870 
# 
# From -- ./inp_files/3619.got.cif
#   From: 2010.03.12/outbox.cif.g09.slc.cpg/sg55_2_cif.got.tgz:3619.got - 2010.04.16 15:19:21.
