data_PCOD8226090
_publ_section_title
;
Structure prediction by ZEFSAII (Michael W. Deem and Ramdas Pophale) SiO2 
 PCOD8226090
Probable space group: P B A M
;
_chemical_formula_sum "Si O2"
_cell_formula_units_Z 64
_cell_length_a 10.880604
_cell_length_b 32.378269
_cell_length_c 9.349102
_cell_angle_alpha 90.000000
_cell_angle_beta 90.000000
_cell_angle_gamma 90.000000
_cell_volume 3293.643041
_symmetry_space_group_name_H-M "P B A M"
_symmetry_group_IT_number 55
_symmetry_cell_setting 'orthorhombic'
loop_
_space_group_symop_operation_xyz
x,y,z
-x,-y,z
1/2+x,1/2-y,-z
1/2-x,1/2+y,-z
-x,-y,-z
x,y,-z
1/2-x,1/2+y,z
1/2+x,1/2-y,z
loop_
_atom_site_type_symbol
_atom_site_label
_atom_site_fract_x
_atom_site_fract_y
_atom_site_fract_z
Si Si1 0.788469 0.690915 0.830890
Si Si2 0.460003 0.882373 0.830256
Si Si3 0.884985 0.526831 0.168668
Si Si4 0.701051 0.282952 0.835571
Si Si5 0.864854 0.982793 0.168165
Si Si6 0.901961 0.903390 0.341847
Si Si7 0.031302 0.840930 0.163851
Si Si8 0.671028 0.846887 0.658563
O O1 0.879477 0.655890 0.771487
O O2 0.824275 0.736688 0.777155
O O3 0.652232 0.681043 0.776084
O O4 0.794171 0.689172 0.000000
O O5 0.398226 0.925557 0.783593
O O6 0.588662 0.878268 0.749842
O O7 0.482090 0.881071 0.000000
O O8 0.749005 0.511836 0.218743
O O9 0.000000 0.500000 0.232849
O O10 0.891453 0.522910 0.000000
O O11 0.576157 0.307934 0.819767
O O12 0.810007 0.303791 0.743367
O O13 0.746661 0.281859 0.000000
O O14 0.845445 0.940952 0.254062
O O15 0.856715 0.973638 0.000000
O O16 0.000000 0.000000 0.208567
O O17 0.946194 0.917589 0.500000
O O18 0.013611 0.882804 0.254286
O O19 0.801080 0.868364 0.357800
O O20 0.046619 0.855232 0.000000
O O21 0.616170 0.838125 0.500000
#
# Coordination Sequence:
#
# PCOD8226090 Si02
#       8
#     8   8   8   8   8   8   8   8
#     4   9  19  32  54  84 109 136 179 231 278 325
#     4  10  20  34  57  83 111 144 180 228 282 329
#     4   9  18  33  54  83 114 143 179 225 280 337
#     4   9  18  33  55  81 106 139 181 226 275 326
#     4  10  21  35  58  87 112 141 183 233 280 333
#     4  10  21  37  56  78 109 147 186 224 268 326
#     4   9  18  33  55  80 108 139 177 226 274 325
#     4  10  21  37  55  79 110 146 187 227 266 321
#
# _framework density 19.431370999999999
#
# number of rings (size 3 to 8) (size 9 to 14) (size 15 to 20)
#    0.000    2.500    0.000    1.500    3.500    2.750 
#    0.000    2.500    0.000    2.250    0.000    0.000 
#    0.000    0.000    0.000    0.000    0.000    0.000 
#
# Total GULP energy -793364.668959 kJ/mol
# GULP energy per Si atom -12396.322952 kJ/mol
# Density = 1.938714 g / cm^3
# Si number density = 19.431371 Si / 1000 Ang^3
#
#
#
# Elastic Constant Matrix: (Units=GPa)
#
#
# Indices 1 2 3 4 5 6 
#
# 1 74.6039 20.9066 23.5966 0.0000 0.0000 0.0000
# 2 20.9066 116.5574 36.9808 0.0000 0.0000 0.0000
# 3 23.5966 36.9808 64.3979 0.0000 0.0000 0.0000
# 4 0.0000 0.0000 0.0000 8.7450 0.0000 0.0000
# 5 0.0000 0.0000 0.0000 0.0000 9.9818 0.0000
# 6 0.0000 0.0000 0.0000 0.0000 0.0000 26.8388
#
#
#
# Elastic Compliance Matrix: (Units=1/GPa)
#
#
# Indices 1 2 3 4 5 6 
#
# 1 0.015293 -0.001180 -0.004926 0.000000 0.000000 0.000000
# 2 -0.001180 0.010582 -0.005644 0.000000 0.000000 0.000000
# 3 -0.004926 -0.005644 0.020575 0.000000 0.000000 0.000000
# 4 0.000000 0.000000 0.000000 0.114351 0.000000 0.000000
# 5 0.000000 0.000000 0.000000 0.000000 0.100182 0.000000
# 6 0.000000 0.000000 0.000000 0.000000 0.000000 0.037260
#
#
# Mechanical properties :
#
#
# Convention : Reuss Voigt Hill
#
# Bulk Modulus (GPa) = 43.57531 46.50302 45.03916
# Shear Modulus (GPa) = 15.17944 20.71811 17.94878
#
# Velocity S-wave (km/s) = 2.79800 3.26884 3.04254
# Velocity P-wave (km/s) = 5.73692 6.18312 5.96420
#
# Compressibility (1/GPa) = 0.02294877
#
# Stress axis : x y z
#
# Youngs Moduli (GPa) = 65.38991 94.50057 48.60351
#
# Poissons Ratio (x) = 0.11153 0.23941
# Poissons Ratio (y) = 0.07717 0.27433
# Poissons Ratio (z) = 0.32210 0.53339
#
# Static dielectric constant tensor:
#      x y z
#    x 3.576060 0.000000 0.000000 
#    y 0.000000 3.674910 0.000000 
#    z 0.000000 0.000000 3.449580 
# 
# 
# High freq. dielectric constant tensor:
#      x y z
#    x 1.754630 0.000000 0.000000 
#    y 0.000000 1.763380 0.000000 
#    z 0.000000 0.000000 1.721750 
# 
# From -- ./inp_files/4628.got.cif
#   From: 2010.03.12/outbox.cif.g09.slc.cpg/sg55_3_cif.got.tgz:4628.got - 2010.04.16 15:19:21.
