data_PCOD8226252
_publ_section_title
;
Structure prediction by ZEFSAII (Michael W. Deem and Ramdas Pophale) SiO2 
 PCOD8226252
Probable space group: P B A M
;
_chemical_formula_sum "Si O2"
_cell_formula_units_Z 48
_cell_length_a 11.960015
_cell_length_b 23.732659
_cell_length_c 8.874485
_cell_angle_alpha 90.000000
_cell_angle_beta 90.000000
_cell_angle_gamma 90.000000
_cell_volume 2518.960070
_symmetry_space_group_name_H-M "P B A M"
_symmetry_group_IT_number 55
_symmetry_cell_setting 'orthorhombic'
loop_
_space_group_symop_operation_xyz
x,y,z
-x,-y,z
1/2+x,1/2-y,-z
1/2-x,1/2+y,-z
-x,-y,-z
x,y,-z
1/2-x,1/2+y,z
1/2+x,1/2-y,z
loop_
_atom_site_type_symbol
_atom_site_label
_atom_site_fract_x
_atom_site_fract_y
_atom_site_fract_z
Si Si1 0.987516 0.881110 0.823014
Si Si2 0.895258 0.664002 0.676529
Si Si3 0.151250 0.643923 0.323167
Si Si4 0.726044 0.582250 0.822062
Si Si5 0.279749 0.548342 0.822797
Si Si6 0.664928 0.280642 0.177855
O O1 0.899766 0.928219 0.765685
O O2 0.942359 0.819155 0.778222
O O3 0.110550 0.891652 0.755243
O O4 0.998816 0.887956 0.000000
O O5 0.876712 0.669999 0.500000
O O6 0.828864 0.610295 0.737204
O O7 0.848495 0.719346 0.755108
O O8 0.023644 0.655465 0.719065
O O9 0.173577 0.646770 0.500000
O O10 0.182058 0.581927 0.262554
O O11 0.222974 0.691987 0.242352
O O12 0.729083 0.516654 0.781172
O O13 0.737700 0.592411 0.000000
O O14 0.265863 0.559594 0.000000
O O15 0.678746 0.276212 0.000000
#
# Coordination Sequence:
#
# PCOD8226252 Si02
#       6
#     8   8   8   8   8   8
#     4   8  16  33  58  88 114 141 180 234 291 332
#     4  11  25  40  54  80 117 155 191 233 287 343
#     4  10  22  40  59  80 113 154 192 231 284 346
#     4  10  20  35  58  88 117 148 191 237 283 336
#     4   9  18  35  60  87 115 148 190 238 283 335
#     4  10  21  38  62  86 110 143 190 241 288 341
#
# _framework density 19.055482999999999
#
# number of rings (size 3 to 8) (size 9 to 14) (size 15 to 20)
#    0.000    2.333    0.000    3.000    2.333    6.000 
#    0.000    6.667    0.000    5.000    0.000    0.000 
#    0.000    0.000    0.000    0.000    0.000    0.000 
#
# Total GULP energy -595260.049080 kJ/mol
# GULP energy per Si atom -12401.251022 kJ/mol
# Density = 1.901211 g / cm^3
# Si number density = 19.055483 Si / 1000 Ang^3
#
#
#
# Elastic Constant Matrix: (Units=GPa)
#
#
# Indices 1 2 3 4 5 6 
#
# 1 114.3191 49.8403 45.7450 0.0000 0.0000 0.0000
# 2 49.8403 90.5762 31.2444 0.0000 0.0000 0.0000
# 3 45.7450 31.2444 53.6294 0.0000 0.0000 0.0000
# 4 0.0000 0.0000 0.0000 17.9583 0.0000 0.0000
# 5 0.0000 0.0000 0.0000 0.0000 28.9972 0.0000
# 6 0.0000 0.0000 0.0000 0.0000 0.0000 29.1913
#
#
#
# Elastic Compliance Matrix: (Units=1/GPa)
#
#
# Indices 1 2 3 4 5 6 
#
# 1 0.014734 -0.004721 -0.009818 0.000000 0.000000 0.000000
# 2 -0.004721 0.015330 -0.004904 0.000000 0.000000 0.000000
# 3 -0.009818 -0.004904 0.029878 0.000000 0.000000 0.000000
# 4 0.000000 0.000000 0.000000 0.055684 0.000000 0.000000
# 5 0.000000 0.000000 0.000000 0.000000 0.034486 0.000000
# 6 0.000000 0.000000 0.000000 0.000000 0.000000 0.034257
#
#
# Mechanical properties :
#
#
# Convention : Reuss Voigt Hill
#
# Bulk Modulus (GPa) = 47.49152 56.90935 52.20044
# Shear Modulus (GPa) = 21.71325 24.00902 22.86114
#
# Velocity S-wave (km/s) = 3.37927 3.55343 3.46745
# Velocity P-wave (km/s) = 6.34057 6.83855 6.59426
#
# Compressibility (1/GPa) = 0.02105639
#
# Stress axis : x y z
#
# Youngs Moduli (GPa) = 67.86914 65.23183 33.46946
#
# Poissons Ratio (x) = 0.30796 0.32859
# Poissons Ratio (y) = 0.32041 0.16414
# Poissons Ratio (z) = 0.66631 0.31991
#
# Static dielectric constant tensor:
#      x y z
#    x 3.666440 0.000000 0.000000 
#    y 0.000000 3.563460 0.000000 
#    z 0.000000 0.000000 3.335830 
# 
# 
# High freq. dielectric constant tensor:
#      x y z
#    x 1.746930 0.000000 0.000000 
#    y 0.000000 1.749890 0.000000 
#    z 0.000000 0.000000 1.725750 
# 
# From -- ./inp_files/4085.got.cif
#   From: 2010.03.12/outbox.cif.g09.slc.cpg/sg55_3_cif.got.tgz:4085.got - 2010.04.16 15:19:21.
