data_PCOD8226141
_publ_section_title
;
Structure prediction by ZEFSAII (Michael W. Deem and Ramdas Pophale) SiO2 
 PCOD8226141
Probable space group: P B A M
;
_chemical_formula_sum "Si O2"
_cell_formula_units_Z 48
_cell_length_a 10.267943
_cell_length_b 26.684299
_cell_length_c 9.055309
_cell_angle_alpha 90.000000
_cell_angle_beta 90.000000
_cell_angle_gamma 90.000000
_cell_volume 2481.090021
_symmetry_space_group_name_H-M "P B A M"
_symmetry_group_IT_number 55
_symmetry_cell_setting 'orthorhombic'
loop_
_space_group_symop_operation_xyz
x,y,z
-x,-y,z
1/2+x,1/2-y,-z
1/2-x,1/2+y,-z
-x,-y,-z
x,y,-z
1/2-x,1/2+y,z
1/2+x,1/2-y,z
loop_
_atom_site_type_symbol
_atom_site_label
_atom_site_fract_x
_atom_site_fract_y
_atom_site_fract_z
Si Si1 0.143442 0.142184 0.175277
Si Si2 0.144034 0.365001 0.329204
Si Si3 0.875172 0.530104 0.175212
Si Si4 0.597187 0.693043 0.327244
Si Si5 0.118304 0.691968 0.670393
Si Si6 0.125409 0.028744 0.175726
O O1 0.282980 0.161152 0.228924
O O2 0.124981 0.085546 0.233896
O O3 0.028606 0.176018 0.238138
O O4 0.139548 0.144593 0.000000
O O5 0.149757 0.380071 0.500000
O O6 0.120621 0.414067 0.234563
O O7 0.278594 0.339532 0.278680
O O8 0.027892 0.326301 0.297933
O O9 0.750516 0.500543 0.237415
O O10 0.000000 0.500000 0.233095
O O11 0.873083 0.533210 0.000000
O O12 0.566625 0.687743 0.500000
O O13 0.627476 0.750110 0.285366
O O14 0.157248 0.683949 0.500000
O O15 0.125615 0.028278 0.000000
O O16 0.000000 0.000000 0.239369
#
# Coordination Sequence:
#
# PCOD8226141 Si02
#       6
#     8   8   8   8   8   8
#     4  11  22  36  58  87 114 142 183 234 278 320
#     4  10  21  36  57  84 110 142 188 235 273 317
#     4  10  20  35  55  77 106 146 184 220 272 334
#     4  10  21  39  60  81 110 150 189 223 273 338
#     4  10  21  39  60  80 110 152 188 221 271 335
#     4   9  18  33  52  75 106 144 180 215 267 331
#
# _framework density 19.346333999999999
#
# number of rings (size 3 to 8) (size 9 to 14) (size 15 to 20)
#    0.000    2.000    0.000    3.500    0.000    7.667 
#    0.000    3.333    0.000    4.500    0.000    0.000 
#    0.000    0.000    0.000    0.000    0.000    0.000 
#
# Total GULP energy -595409.367896 kJ/mol
# GULP energy per Si atom -12404.361831 kJ/mol
# Density = 1.930230 g / cm^3
# Si number density = 19.346334 Si / 1000 Ang^3
#
#
#
# Elastic Constant Matrix: (Units=GPa)
#
#
# Indices 1 2 3 4 5 6 
#
# 1 113.5701 25.3676 23.1789 0.0000 0.0000 0.0000
# 2 25.3676 114.2996 26.6805 0.0000 0.0000 0.0000
# 3 23.1789 26.6805 35.2673 0.0000 0.0000 0.0000
# 4 0.0000 0.0000 0.0000 29.6009 0.0000 0.0000
# 5 0.0000 0.0000 0.0000 0.0000 19.5855 0.0000
# 6 0.0000 0.0000 0.0000 0.0000 0.0000 39.6998
#
#
#
# Elastic Compliance Matrix: (Units=1/GPa)
#
#
# Indices 1 2 3 4 5 6 
#
# 1 0.010237 -0.000852 -0.006084 0.000000 0.000000 0.000000
# 2 -0.000852 0.010696 -0.007532 0.000000 0.000000 0.000000
# 3 -0.006084 -0.007532 0.038051 0.000000 0.000000 0.000000
# 4 0.000000 0.000000 0.000000 0.033783 0.000000 0.000000
# 5 0.000000 0.000000 0.000000 0.000000 0.051058 0.000000
# 6 0.000000 0.000000 0.000000 0.000000 0.000000 0.025189
#
#
# Mechanical properties :
#
#
# Convention : Reuss Voigt Hill
#
# Bulk Modulus (GPa) = 33.27845 45.95455 39.61650
# Shear Modulus (GPa) = 24.04237 30.30457 27.17347
#
# Velocity S-wave (km/s) = 3.52907 3.96210 3.75184
# Velocity P-wave (km/s) = 5.81761 6.68851 6.26820
#
# Compressibility (1/GPa) = 0.03004948
#
# Stress axis : x y z
#
# Youngs Moduli (GPa) = 97.68429 93.49138 26.28030
#
# Poissons Ratio (x) = 0.07965 0.15988
# Poissons Ratio (y) = 0.08322 0.19794
# Poissons Ratio (z) = 0.59428 0.70417
#
# Static dielectric constant tensor:
#      x y z
#    x 3.784040 0.000000 0.000000 
#    y 0.000000 3.671140 0.000000 
#    z 0.000000 0.000000 3.285480 
# 
# 
# High freq. dielectric constant tensor:
#      x y z
#    x 1.772500 0.000000 0.000000 
#    y 0.000000 1.769210 0.000000 
#    z 0.000000 0.000000 1.727030 
# 
# From -- ./inp_files/2880.got.cif
#   From: 2010.03.12/outbox.cif.g09.slc.cpg/sg55_2_cif.got.tgz:2880.got - 2010.04.16 15:19:21.
