data_PCOD8226021
_publ_section_title
;
Structure prediction by ZEFSAII (Michael W. Deem and Ramdas Pophale) SiO2 
 PCOD8226021
Probable space group: P B A M
;
_chemical_formula_sum "Si O2"
_cell_formula_units_Z 48
_cell_length_a 9.542492
_cell_length_b 30.024937
_cell_length_c 9.027947
_cell_angle_alpha 90.000000
_cell_angle_beta 90.000000
_cell_angle_gamma 90.000000
_cell_volume 2586.621661
_symmetry_space_group_name_H-M "P B A M"
_symmetry_group_IT_number 55
_symmetry_cell_setting 'orthorhombic'
loop_
_space_group_symop_operation_xyz
x,y,z
-x,-y,z
1/2+x,1/2-y,-z
1/2-x,1/2+y,-z
-x,-y,-z
x,y,-z
1/2-x,1/2+y,z
1/2+x,1/2-y,z
loop_
_atom_site_type_symbol
_atom_site_label
_atom_site_fract_x
_atom_site_fract_y
_atom_site_fract_z
Si Si1 0.110052 0.617342 0.328359
Si Si2 0.093147 0.459660 0.675264
Si Si3 0.099185 0.113655 0.170655
Si Si4 0.088989 0.957016 0.675378
Si Si5 0.114083 0.718551 0.327287
Si Si6 0.903648 0.783674 0.828942
O O1 0.147047 0.609293 0.500000
O O2 0.248402 0.604015 0.238667
O O3 0.062529 0.668017 0.298935
O O4 0.980578 0.586563 0.277307
O O5 0.100383 0.464346 0.500000
O O6 0.251971 0.461665 0.736989
O O7 0.000000 0.500000 0.741480
O O8 0.979559 0.086188 0.252634
O O9 0.055101 0.164894 0.190485
O O10 0.105405 0.099635 0.000000
O O11 0.087534 0.950544 0.500000
O O12 0.000000 0.000000 0.723761
O O13 0.128332 0.728942 0.500000
O O14 0.259652 0.726661 0.249449
O O15 0.013015 0.753326 0.253387
O O16 0.893588 0.770069 0.000000
#
# Coordination Sequence:
#
# PCOD8226021 Si02
#       6
#     8   8   8   8   8   8
#     4   9  18  34  55  78 104 135 174 220 266 312
#     4   9  17  31  53  79 104 132 170 214 259 311
#     4  10  21  36  54  77 106 141 178 217 264 317
#     4  10  20  34  55  81 107 139 177 218 267 319
#     4  10  20  34  54  80 107 138 180 228 273 319
#     4  10  21  37  55  77 108 145 181 220 273 332
#
# _framework density 18.557023999999998
#
# number of rings (size 3 to 8) (size 9 to 14) (size 15 to 20)
#    0.000    2.333    0.000    2.500    0.000    7.000 
#    0.000    2.500    0.000    2.000    0.000    0.000 
#    0.000    0.000    0.000    0.000    0.000    0.000 
#
# Total GULP energy -595245.084387 kJ/mol
# GULP energy per Si atom -12400.939258 kJ/mol
# Density = 1.851479 g / cm^3
# Si number density = 18.557024 Si / 1000 Ang^3
#
#
#
# Elastic Constant Matrix: (Units=GPa)
#
#
# Indices 1 2 3 4 5 6 
#
# 1 152.7654 93.3190 60.5306 0.0000 0.0000 0.0000
# 2 93.3190 108.8599 55.6260 0.0000 0.0000 0.0000
# 3 60.5306 55.6260 82.2001 0.0000 0.0000 0.0000
# 4 0.0000 0.0000 0.0000 22.1788 0.0000 0.0000
# 5 0.0000 0.0000 0.0000 0.0000 26.0970 0.0000
# 6 0.0000 0.0000 0.0000 0.0000 0.0000 42.3293
#
#
#
# Elastic Compliance Matrix: (Units=1/GPa)
#
#
# Indices 1 2 3 4 5 6 
#
# 1 0.014347 -0.010548 -0.003427 0.000000 0.000000 0.000000
# 2 -0.010548 0.021796 -0.006983 0.000000 0.000000 0.000000
# 3 -0.003427 -0.006983 0.019414 0.000000 0.000000 0.000000
# 4 0.000000 0.000000 0.000000 0.045088 0.000000 0.000000
# 5 0.000000 0.000000 0.000000 0.000000 0.038319 0.000000
# 6 0.000000 0.000000 0.000000 0.000000 0.000000 0.023624
#
#
# Mechanical properties :
#
#
# Convention : Reuss Voigt Hill
#
# Bulk Modulus (GPa) = 73.29967 84.75297 79.02632
# Shear Modulus (GPa) = 23.91762 27.07768 25.49765
#
# Velocity S-wave (km/s) = 3.59398 3.82404 3.71079
# Velocity P-wave (km/s) = 7.53709 8.07889 7.81269
#
# Compressibility (1/GPa) = 0.01364263
#
# Stress axis : x y z
#
# Youngs Moduli (GPa) = 69.70023 45.87998 51.50825
#
# Poissons Ratio (x) = 0.48393 0.17653
# Poissons Ratio (y) = 0.73518 0.35966
# Poissons Ratio (z) = 0.23888 0.32036
#
# Static dielectric constant tensor:
#      x y z
#    x 4.650430 0.000000 0.000000 
#    y 0.000000 3.570360 0.000000 
#    z 0.000000 0.000000 3.337680 
# 
# 
# High freq. dielectric constant tensor:
#      x y z
#    x 1.723850 0.000000 0.000000 
#    y 0.000000 1.729830 0.000000 
#    z 0.000000 0.000000 1.707370 
# 
# From -- ./inp_files/2767.got.cif
#   From: 2010.03.12/outbox.cif.g09.slc.cpg/sg55_2_cif.got.tgz:2767.got - 2010.04.16 15:19:21.
