data_PCOD8226703
_publ_section_title
;
Structure prediction by ZEFSAII (Michael W. Deem and Ramdas Pophale) SiO2 
 PCOD8226703
Probable space group: P B A M
;
_chemical_formula_sum "Si O2"
_cell_formula_units_Z 64
_cell_length_a 15.416794
_cell_length_b 23.430271
_cell_length_c 8.355450
_cell_angle_alpha 90.000000
_cell_angle_beta 90.000000
_cell_angle_gamma 90.000000
_cell_volume 3018.152820
_symmetry_space_group_name_H-M "P B A M"
_symmetry_group_IT_number 55
_symmetry_cell_setting 'orthorhombic'
loop_
_space_group_symop_operation_xyz
x,y,z
-x,-y,z
1/2+x,1/2-y,-z
1/2-x,1/2+y,-z
-x,-y,-z
x,y,-z
1/2-x,1/2+y,z
1/2+x,1/2-y,z
loop_
_atom_site_type_symbol
_atom_site_label
_atom_site_fract_x
_atom_site_fract_y
_atom_site_fract_z
Si Si1 0.368238 0.135410 0.681757
Si Si2 0.996739 0.716402 0.184467
Si Si3 0.290064 0.687914 0.181596
Si Si4 0.184990 0.308225 0.686965
Si Si5 0.096055 0.508400 0.311164
Si Si6 0.747512 0.569092 0.689620
Si Si7 0.526554 0.334331 0.314304
Si Si8 0.440320 0.446517 0.812461
O O1 0.401203 0.142888 0.500000
O O2 0.422358 0.174642 0.801517
O O3 0.268411 0.152527 0.696216
O O4 0.374288 0.070851 0.738958
O O5 0.916660 0.685492 0.272976
O O6 0.023993 0.776299 0.267296
O O7 0.972690 0.727242 0.000000
O O8 0.277652 0.755128 0.214331
O O9 0.386888 0.665848 0.209215
O O10 0.263102 0.675162 0.000000
O O11 0.195714 0.295884 0.500000
O O12 0.238091 0.364742 0.736409
O O13 0.091059 0.499200 0.500000
O O14 0.168281 0.464726 0.243104
O O15 0.000000 0.500000 0.236140
O O16 0.738418 0.561250 0.500000
O O17 0.660779 0.543484 0.770476
O O18 0.550739 0.332701 0.500000
O O19 0.469463 0.389665 0.279165
O O20 0.500000 0.500000 0.756028
O O21 0.451737 0.436929 0.000000
#
# Coordination Sequence:
#
# PCOD8226703 Si02
#       8
#     8   8   8   8   8   8   8   8
#     4  11  22  37  61  91 124 163 210 255 305 372
#     4  11  22  38  61  92 128 165 203 253 318 379
#     4  11  23  39  60  89 127 163 201 254 316 378
#     4  10  20  38  63  91 124 159 205 256 310 375
#     4   9  19  38  64  94 126 162 206 259 312 364
#     4  10  22  40  66  97 126 165 215 264 313 373
#     4  11  23  42  67  91 120 160 209 261 313 377
#     4  11  26  45  64  90 126 168 210 263 325 382
#
# _framework density 21.205024000000002
#
# number of rings (size 3 to 8) (size 9 to 14) (size 15 to 20)
#    0.000    1.500    0.000    6.750    3.500    4.000 
#    0.000    0.625    0.000    2.625    0.000    0.000 
#    0.000    0.000    0.000    0.000    0.000    0.000 
#
# Total GULP energy -793760.791105 kJ/mol
# GULP energy per Si atom -12402.512361 kJ/mol
# Density = 2.115676 g / cm^3
# Si number density = 21.205024 Si / 1000 Ang^3
#
#
#
# Elastic Constant Matrix: (Units=GPa)
#
#
# Indices 1 2 3 4 5 6 
#
# 1 116.3555 65.4283 13.1982 0.0000 0.0000 0.0000
# 2 65.4283 112.7250 25.0587 0.0000 0.0000 0.0000
# 3 13.1982 25.0587 70.3416 0.0000 0.0000 0.0000
# 4 0.0000 0.0000 0.0000 16.7492 0.0000 0.0000
# 5 0.0000 0.0000 0.0000 0.0000 27.3764 0.0000
# 6 0.0000 0.0000 0.0000 0.0000 0.0000 40.2328
#
#
#
# Elastic Compliance Matrix: (Units=1/GPa)
#
#
# Indices 1 2 3 4 5 6 
#
# 1 0.012763 -0.007467 0.000265 0.000000 0.000000 0.000000
# 2 -0.007467 0.014003 -0.003587 0.000000 0.000000 0.000000
# 3 0.000265 -0.003587 0.015445 0.000000 0.000000 0.000000
# 4 0.000000 0.000000 0.000000 0.059704 0.000000 0.000000
# 5 0.000000 0.000000 0.000000 0.000000 0.036528 0.000000
# 6 0.000000 0.000000 0.000000 0.000000 0.000000 0.024855
#
#
# Mechanical properties :
#
#
# Convention : Reuss Voigt Hill
#
# Bulk Modulus (GPa) = 48.46776 56.31029 52.38903
# Shear Modulus (GPa) = 26.07524 29.92081 27.99803
#
# Velocity S-wave (km/s) = 3.51047 3.76044 3.63760
# Velocity P-wave (km/s) = 6.27197 6.74295 6.51172
#
# Compressibility (1/GPa) = 0.02063227
#
# Stress axis : x y z
#
# Youngs Moduli (GPa) = 78.35137 71.41532 64.74789
#
# Poissons Ratio (x) = 0.53325 -0.01718
# Poissons Ratio (y) = 0.58505 0.23227
# Poissons Ratio (z) = -0.02079 0.25619
#
# Static dielectric constant tensor:
#      x y z
#    x 3.857630 0.000000 0.000000 
#    y 0.000000 3.954940 0.000000 
#    z 0.000000 0.000000 3.577320 
# 
# 
# High freq. dielectric constant tensor:
#      x y z
#    x 1.835580 0.000000 0.000000 
#    y 0.000000 1.836520 0.000000 
#    z 0.000000 0.000000 1.821500 
# 
# From -- ./inp_files/7929.got.cif
#   From: 2010.03.12/outbox.cif.g09.slc.cpg/sg55_4_cif.got.tgz:7929.got - 2010.04.16 15:19:21.
