data_PCOD8226855
_publ_section_title
;
Structure prediction by ZEFSAII (Michael W. Deem and Ramdas Pophale) SiO2 
 PCOD8226855
Probable space group: P B A M
;
_chemical_formula_sum "Si O2"
_cell_formula_units_Z 48
_cell_length_a 23.297643
_cell_length_b 11.922074
_cell_length_c 8.811030
_cell_angle_alpha 90.000000
_cell_angle_beta 90.000000
_cell_angle_gamma 90.000000
_cell_volume 2447.318421
_symmetry_space_group_name_H-M "P B A M"
_symmetry_group_IT_number 55
_symmetry_cell_setting 'orthorhombic'
loop_
_space_group_symop_operation_xyz
x,y,z
-x,-y,z
1/2+x,1/2-y,-z
1/2-x,1/2+y,-z
-x,-y,-z
x,y,-z
1/2-x,1/2+y,z
1/2+x,1/2-y,z
loop_
_atom_site_type_symbol
_atom_site_label
_atom_site_fract_x
_atom_site_fract_y
_atom_site_fract_z
Si Si1 0.150131 0.170514 0.820533
Si Si2 0.934036 0.007260 0.679869
Si Si3 0.279700 0.123763 0.180009
Si Si4 0.619927 0.741840 0.321109
Si Si5 0.841815 0.585317 0.833755
Si Si6 0.448663 0.069427 0.168509
O O1 0.213649 0.130892 0.775910
O O2 0.147350 0.296578 0.750354
O O3 0.101311 0.098080 0.741391
O O4 0.138909 0.165685 0.000000
O O5 0.934154 0.002493 0.500000
O O6 0.901766 0.120216 0.736389
O O7 0.000000 0.000000 0.739822
O O8 0.318616 0.224640 0.247897
O O9 0.298456 0.002028 0.248335
O O10 0.290880 0.126897 0.000000
O O11 0.627692 0.743919 0.500000
O O12 0.570094 0.828498 0.274642
O O13 0.900465 0.521910 0.851883
O O14 0.816066 0.616364 0.000000
O O15 0.500000 0.000000 0.246578
O O16 0.465849 0.115031 0.000000
#
# Coordination Sequence:
#
# PCOD8226855 Si02
#       6
#     8   8   8   8   8   8
#     4  10  21  35  60  88 110 143 188 235 280 339
#     4  10  24  43  57  77 117 160 194 234 287 337
#     4   9  19  36  59  85 115 145 177 233 295 338
#     4  10  21  37  57  81 111 148 191 234 276 336
#     4   8  16  32  50  79 113 136 173 225 278 332
#     4   9  18  33  56  81 111 146 178 227 285 329
#
# _framework density 19.613302999999998
#
# number of rings (size 3 to 8) (size 9 to 14) (size 15 to 20)
#    0.000    2.667    0.000    1.500    4.667    2.667 
#    0.000    3.333    0.000    0.000    0.000    0.000 
#    0.000    0.000    0.000    0.000    0.000    0.000 
#
# Total GULP energy -594760.289845 kJ/mol
# GULP energy per Si atom -12390.839372 kJ/mol
# Density = 1.956866 g / cm^3
# Si number density = 19.613303 Si / 1000 Ang^3
#
#
#
# Elastic Constant Matrix: (Units=GPa)
#
#
# Indices 1 2 3 4 5 6 
#
# 1 91.1218 62.1428 22.9181 0.0000 0.0000 0.0000
# 2 62.1428 157.5683 23.3351 0.0000 0.0000 0.0000
# 3 22.9181 23.3351 28.4188 0.0000 0.0000 0.0000
# 4 0.0000 0.0000 0.0000 28.7710 0.0000 0.0000
# 5 0.0000 0.0000 0.0000 0.0000 25.1441 0.0000
# 6 0.0000 0.0000 0.0000 0.0000 0.0000 13.7305
#
#
#
# Elastic Compliance Matrix: (Units=1/GPa)
#
#
# Indices 1 2 3 4 5 6 
#
# 1 0.016927 -0.005298 -0.009300 0.000000 0.000000 0.000000
# 2 -0.005298 0.008884 -0.003022 0.000000 0.000000 0.000000
# 3 -0.009300 -0.003022 0.045169 0.000000 0.000000 0.000000
# 4 0.000000 0.000000 0.000000 0.034757 0.000000 0.000000
# 5 0.000000 0.000000 0.000000 0.000000 0.039771 0.000000
# 6 0.000000 0.000000 0.000000 0.000000 0.000000 0.072831
#
#
# Mechanical properties :
#
#
# Convention : Reuss Voigt Hill
#
# Bulk Modulus (GPa) = 27.98027 54.87788 41.42907
# Shear Modulus (GPa) = 18.83309 24.77665 21.80487
#
# Velocity S-wave (km/s) = 3.10210 3.55809 3.33789
# Velocity P-wave (km/s) = 5.20842 6.70229 6.00201
#
# Compressibility (1/GPa) = 0.03573947
#
# Stress axis : x y z
#
# Youngs Moduli (GPa) = 59.07817 112.56754 22.13921
#
# Poissons Ratio (x) = 0.59643 0.20589
# Poissons Ratio (y) = 0.31302 0.06689
# Poissons Ratio (z) = 0.54942 0.34013
#
# Static dielectric constant tensor:
#      x y z
#    x 0.876570 0.000000 0.000000 
#    y 0.000000 4.612690 0.000000 
#    z 0.000000 0.000000 3.250170 
# 
# 
# High freq. dielectric constant tensor:
#      x y z
#    x 1.771680 0.000000 0.000000 
#    y 0.000000 1.776220 0.000000 
#    z 0.000000 0.000000 1.726440 
# 
# From -- ./inp_files/4067.got.cif
#   From: 2010.03.12/outbox.cif.g09.slc.cpg/sg55_3_cif.got.tgz:4067.got - 2010.04.16 15:19:21.
