data_PCOD8226727
_publ_section_title
;
Structure prediction by ZEFSAII (Michael W. Deem and Ramdas Pophale) SiO2 
 PCOD8226727
Probable space group: P B A M
;
_chemical_formula_sum "Si O2"
_cell_formula_units_Z 52
_cell_length_a 9.225806
_cell_length_b 16.672845
_cell_length_c 17.502225
_cell_angle_alpha 90.000000
_cell_angle_beta 90.000000
_cell_angle_gamma 90.000000
_cell_volume 2692.199836
_symmetry_space_group_name_H-M "P B A M"
_symmetry_group_IT_number 55
_symmetry_cell_setting 'orthorhombic'
loop_
_space_group_symop_operation_xyz
x,y,z
-x,-y,z
1/2+x,1/2-y,-z
1/2-x,1/2+y,-z
-x,-y,-z
x,y,-z
1/2-x,1/2+y,z
1/2+x,1/2-y,z
loop_
_atom_site_type_symbol
_atom_site_label
_atom_site_fract_x
_atom_site_fract_y
_atom_site_fract_z
Si Si1 0.167627 0.520586 0.587507
Si Si2 0.056516 0.089352 0.000000
Si Si3 0.283823 0.152228 0.107203
Si Si4 0.006147 0.238582 0.341054
Si Si5 0.515453 0.093960 0.000000
Si Si6 0.267310 0.151180 0.282531
Si Si7 0.284837 0.298297 0.000000
Si Si8 0.751830 0.151905 0.586717
O O1 0.207478 0.549095 0.500000
O O2 0.203048 0.586732 0.650991
O O3 0.257281 0.441245 0.611818
O O4 0.000000 0.500000 0.590893
O O5 0.155151 0.098091 0.925369
O O6 0.000000 0.000000 0.000000
O O7 0.941563 0.161451 0.000000
O O8 0.284186 0.126887 0.195339
O O9 0.439761 0.126654 0.076067
O O10 0.261721 0.244458 0.077304
O O11 0.100716 0.177834 0.290957
O O12 0.118856 0.302587 0.373762
O O13 0.885045 0.278611 0.288599
O O14 0.911816 0.189778 0.403508
O O15 0.500000 0.000000 0.000000
O O16 0.678269 0.125854 0.000000
O O17 0.705927 0.156272 0.500000
#
# Coordination Sequence:
#
# PCOD8226727 Si02
#       8
#     8   4   8   8   4   8   4   8
#     4  10  21  40  62  86 122 167 208 253 316 373
#     4  10  21  42  61  94 126 160 196 248 309 362
#     4  10  22  39  62  90 123 162 204 241 305 366
#     4  10  23  38  56  92 124 152 206 258 308 366
#     4  10  21  40  63  98 120 154 204 248 295 356
#     4  11  24  40  61  91 126 160 209 258 309 367
#     4  10  20  38  70  88 122 160 200 246 296 370
#     4  10  20  39  64  85 116 161 208 258 316 369
#
# _framework density 19.315059999999999
#
# number of rings (size 3 to 8) (size 9 to 14) (size 15 to 20)
#    0.000    2.000    1.538    3.231    4.308    4.308 
#    2.769    1.538    0.000    0.000    0.000    0.000 
#    0.000    0.000    0.000    0.000    0.000    0.000 
#
# Total GULP energy -644227.629202 kJ/mol
# GULP energy per Si atom -12388.992869 kJ/mol
# Density = 1.927110 g / cm^3
# Si number density = 19.315060 Si / 1000 Ang^3
#
#
#
# Elastic Constant Matrix: (Units=GPa)
#
#
# Indices 1 2 3 4 5 6 
#
# 1 100.1245 23.4924 28.5531 0.0000 0.0000 0.0000
# 2 23.4924 88.4239 48.7360 0.0000 0.0000 0.0000
# 3 28.5531 48.7360 129.5711 0.0000 0.0000 0.0000
# 4 0.0000 0.0000 0.0000 11.1103 0.0000 0.0000
# 5 0.0000 0.0000 0.0000 0.0000 10.5245 0.0000
# 6 0.0000 0.0000 0.0000 0.0000 0.0000 26.1717
#
#
#
# Elastic Compliance Matrix: (Units=1/GPa)
#
#
# Indices 1 2 3 4 5 6 
#
# 1 0.010928 -0.001988 -0.001660 0.000000 0.000000 0.000000
# 2 -0.001988 0.014629 -0.005064 0.000000 0.000000 0.000000
# 3 -0.001660 -0.005064 0.009988 0.000000 0.000000 0.000000
# 4 0.000000 0.000000 0.000000 0.090007 0.000000 0.000000
# 5 0.000000 0.000000 0.000000 0.000000 0.095017 0.000000
# 6 0.000000 0.000000 0.000000 0.000000 0.000000 0.038209
#
#
# Mechanical properties :
#
#
# Convention : Reuss Voigt Hill
#
# Bulk Modulus (GPa) = 55.18954 57.74252 56.46603
# Shear Modulus (GPa) = 17.71530 24.05049 20.88290
#
# Velocity S-wave (km/s) = 3.03178 3.53252 3.29168
# Velocity P-wave (km/s) = 6.39460 6.82629 6.61397
#
# Compressibility (1/GPa) = 0.01811938
#
# Stress axis : x y z
#
# Youngs Moduli (GPa) = 91.51213 68.35950 100.11583
#
# Poissons Ratio (x) = 0.13591 0.16622
# Poissons Ratio (y) = 0.18194 0.50700
# Poissons Ratio (z) = 0.15193 0.34618
#
# Static dielectric constant tensor:
#      x y z
#    x 1.291260 0.000000 0.000000 
#    y 0.000000 3.863750 0.000000 
#    z 0.000000 0.000000 3.349480 
# 
# 
# High freq. dielectric constant tensor:
#      x y z
#    x 1.767000 0.000000 0.000000 
#    y 0.000000 1.753560 0.000000 
#    z 0.000000 0.000000 1.736580 
# 
# From -- ./inp_files/20974.got.cif
#   From: 2010.03.12/outbox.cif.g09.slc.cpg/sg55_11_cif.got.tgz:20974.got - 2010.04.16 15:19:21.
