data_PCOD8226392
_publ_section_title
;
Structure prediction by ZEFSAII (Michael W. Deem and Ramdas Pophale) SiO2 
 PCOD8226392
Probable space group: P B A M
;
_chemical_formula_sum "Si O2"
_cell_formula_units_Z 48
_cell_length_a 9.263994
_cell_length_b 30.629554
_cell_length_c 8.493250
_cell_angle_alpha 90.000000
_cell_angle_beta 90.000000
_cell_angle_gamma 90.000000
_cell_volume 2409.976712
_symmetry_space_group_name_H-M "P B A M"
_symmetry_group_IT_number 55
_symmetry_cell_setting 'orthorhombic'
loop_
_space_group_symop_operation_xyz
x,y,z
-x,-y,z
1/2+x,1/2-y,-z
1/2-x,1/2+y,-z
-x,-y,-z
x,y,-z
1/2-x,1/2+y,z
1/2+x,1/2-y,z
loop_
_atom_site_type_symbol
_atom_site_label
_atom_site_fract_x
_atom_site_fract_y
_atom_site_fract_z
Si Si1 0.095572 0.283711 0.181080
Si Si2 0.098716 0.381959 0.815704
Si Si3 0.911561 0.957843 0.316634
Si Si4 0.421608 0.378021 0.815047
Si Si5 0.902322 0.211839 0.680864
Si Si6 0.400229 0.041610 0.182891
O O1 0.045149 0.333001 0.222783
O O2 0.265808 0.279520 0.208192
O O3 0.015060 0.250669 0.295413
O O4 0.062028 0.272396 0.000000
O O5 0.260968 0.389701 0.749674
O O6 0.985325 0.416575 0.744867
O O7 0.105695 0.390691 0.000000
O O8 0.936776 0.949368 0.500000
O O9 0.744051 0.965356 0.281833
O O10 0.967203 0.916290 0.220834
O O11 0.000000 0.000000 0.258580
O O12 0.476289 0.333989 0.729344
O O13 0.417291 0.368723 0.000000
O O14 0.853983 0.210538 0.500000
O O15 0.500000 0.000000 0.207903
O O16 0.359690 0.048114 0.000000
#
# Coordination Sequence:
#
# PCOD8226392 Si02
#       6
#     8   8   8   8   8   8
#     4  10  20  37  58  81 113 155 198 235 280 343
#     4   8  17  34  57  83 108 138 183 236 280 323
#     4  11  24  39  55  81 117 152 186 228 280 336
#     4  10  20  38  62  84 109 146 190 233 282 341
#     4  11  22  37  57  85 118 150 189 240 295 342
#     4  10  20  36  59  85 111 143 188 236 279 330
#
# _framework density 19.917204000000002
#
# number of rings (size 3 to 8) (size 9 to 14) (size 15 to 20)
#    0.000    2.000    0.000    5.000    0.000    4.333 
#    0.000   10.000    0.000    0.000    0.000    0.000 
#    0.000    0.000    0.000    0.000    0.000    0.000 
#
# Total GULP energy -595344.345002 kJ/mol
# GULP energy per Si atom -12403.007188 kJ/mol
# Density = 1.987187 g / cm^3
# Si number density = 19.917204 Si / 1000 Ang^3
#
#
#
# Elastic Constant Matrix: (Units=GPa)
#
#
# Indices 1 2 3 4 5 6 
#
# 1 88.0205 55.5928 17.0828 0.0000 0.0000 0.0000
# 2 55.5928 129.8387 29.3827 0.0000 0.0000 0.0000
# 3 17.0828 29.3827 60.1427 0.0000 0.0000 0.0000
# 4 0.0000 0.0000 0.0000 23.8757 0.0000 0.0000
# 5 0.0000 0.0000 0.0000 0.0000 25.6339 0.0000
# 6 0.0000 0.0000 0.0000 0.0000 0.0000 38.6717
#
#
#
# Elastic Compliance Matrix: (Units=1/GPa)
#
#
# Indices 1 2 3 4 5 6 
#
# 1 0.015665 -0.006409 -0.001318 0.000000 0.000000 0.000000
# 2 -0.006409 0.011281 -0.003691 0.000000 0.000000 0.000000
# 3 -0.001318 -0.003691 0.018805 0.000000 0.000000 0.000000
# 4 0.000000 0.000000 0.000000 0.041884 0.000000 0.000000
# 5 0.000000 0.000000 0.000000 0.000000 0.039011 0.000000
# 6 0.000000 0.000000 0.000000 0.000000 0.000000 0.025859
#
#
# Mechanical properties :
#
#
# Convention : Reuss Voigt Hill
#
# Bulk Modulus (GPa) = 43.64093 53.56870 48.60482
# Shear Modulus (GPa) = 27.32569 29.36585 28.34577
#
# Velocity S-wave (km/s) = 3.70802 3.84395 3.77660
# Velocity P-wave (km/s) = 6.34754 6.83047 6.59343
#
# Compressibility (1/GPa) = 0.02291427
#
# Stress axis : x y z
#
# Youngs Moduli (GPa) = 63.83851 88.64332 53.17772
#
# Poissons Ratio (x) = 0.56809 0.07011
# Poissons Ratio (y) = 0.40912 0.19628
# Poissons Ratio (z) = 0.08416 0.32719
#
# Static dielectric constant tensor:
#      x y z
#    x 3.568980 0.000000 0.000000 
#    y 0.000000 3.834060 0.000000 
#    z 0.000000 0.000000 3.385150 
# 
# 
# High freq. dielectric constant tensor:
#      x y z
#    x 1.770060 0.000000 0.000000 
#    y 0.000000 1.790030 0.000000 
#    z 0.000000 0.000000 1.763300 
# 
# From -- ./inp_files/2827.got.cif
#   From: 2010.03.12/outbox.cif.g09.slc.cpg/sg55_2_cif.got.tgz:2827.got - 2010.04.16 15:19:21.
