data_PCOD8226505
_publ_section_title
;
Structure prediction by ZEFSAII (Michael W. Deem and Ramdas Pophale) SiO2 
 PCOD8226505
Probable space group: P B A M
;
_chemical_formula_sum "Si O2"
_cell_formula_units_Z 48
_cell_length_a 10.033981
_cell_length_b 29.748989
_cell_length_c 8.335161
_cell_angle_alpha 90.000000
_cell_angle_beta 90.000000
_cell_angle_gamma 90.000000
_cell_volume 2488.052147
_symmetry_space_group_name_H-M "P B A M"
_symmetry_group_IT_number 55
_symmetry_cell_setting 'orthorhombic'
loop_
_space_group_symop_operation_xyz
x,y,z
-x,-y,z
1/2+x,1/2-y,-z
1/2-x,1/2+y,-z
-x,-y,-z
x,y,-z
1/2-x,1/2+y,z
1/2+x,1/2-y,z
loop_
_atom_site_type_symbol
_atom_site_label
_atom_site_fract_x
_atom_site_fract_y
_atom_site_fract_z
Si Si1 0.136290 0.882690 0.812674
Si Si2 0.642758 0.955566 0.186104
Si Si3 0.647575 0.388797 0.684241
Si Si4 0.639043 0.717017 0.813659
Si Si5 0.642756 0.052866 0.686885
Si Si6 0.838228 0.790606 0.188232
O O1 0.171329 0.832792 0.745698
O O2 0.258868 0.915378 0.785114
O O3 0.005471 0.900838 0.722668
O O4 0.100572 0.879460 0.000000
O O5 0.759774 0.920003 0.207119
O O6 0.506543 0.935460 0.257908
O O7 0.679776 0.001361 0.277638
O O8 0.622159 0.966626 0.000000
O O9 0.677505 0.399496 0.500000
O O10 0.681398 0.337200 0.720220
O O11 0.485412 0.729259 0.780000
O O12 0.733967 0.754938 0.735833
O O13 0.673303 0.717234 0.000000
O O14 0.659157 0.062857 0.500000
O O15 0.815612 0.799784 0.000000
#
# Coordination Sequence:
#
# PCOD8226505 Si02
#       6
#     8   8   8   8   8   8
#     4  10  20  37  58  83 111 147 189 227 267 326
#     4  11  22  39  60  82 108 146 188 226 266 325
#     4  11  22  37  55  81 113 146 182 231 283 325
#     4   8  16  30  52  77 104 137 181 226 264 312
#     4  11  22  38  58  85 116 144 175 224 279 327
#     4   9  17  33  53  76 104 140 181 224 269 323
#
# _framework density 19.292199
#
# number of rings (size 3 to 8) (size 9 to 14) (size 15 to 20)
#    0.000    2.000    0.000    7.000    0.000    2.000 
#    0.000   10.833    0.000    0.000    0.000    0.000 
#    0.000    0.000    0.000    0.000    0.000    0.000 
#
# Total GULP energy -595296.891504 kJ/mol
# GULP energy per Si atom -12402.018573 kJ/mol
# Density = 1.924829 g / cm^3
# Si number density = 19.292199 Si / 1000 Ang^3
#
#
#
# Elastic Constant Matrix: (Units=GPa)
#
#
# Indices 1 2 3 4 5 6 
#
# 1 57.5911 43.3860 13.4557 0.0000 0.0000 0.0000
# 2 43.3860 60.3372 6.4874 0.0000 0.0000 0.0000
# 3 13.4557 6.4874 59.7455 0.0000 0.0000 0.0000
# 4 0.0000 0.0000 0.0000 21.0318 0.0000 0.0000
# 5 0.0000 0.0000 0.0000 0.0000 25.5826 0.0000
# 6 0.0000 0.0000 0.0000 0.0000 0.0000 47.6224
#
#
#
# Elastic Compliance Matrix: (Units=1/GPa)
#
#
# Indices 1 2 3 4 5 6 
#
# 1 0.039864 -0.028026 -0.005935 0.000000 0.000000 0.000000
# 2 -0.028026 0.036473 0.002352 0.000000 0.000000 0.000000
# 3 -0.005935 0.002352 0.017819 0.000000 0.000000 0.000000
# 4 0.000000 0.000000 0.000000 0.047547 0.000000 0.000000
# 5 0.000000 0.000000 0.000000 0.000000 0.039089 0.000000
# 6 0.000000 0.000000 0.000000 0.000000 0.000000 0.020999
#
#
# Mechanical properties :
#
#
# Convention : Reuss Voigt Hill
#
# Bulk Modulus (GPa) = 32.32381 33.81468 33.06924
# Shear Modulus (GPa) = 18.16052 26.47035 22.31543
#
# Velocity S-wave (km/s) = 3.07145 3.70817 3.40473
# Velocity P-wave (km/s) = 5.41938 5.99164 5.71268
#
# Compressibility (1/GPa) = 0.03093695
#
# Stress axis : x y z
#
# Youngs Moduli (GPa) = 25.08528 27.41727 56.12007
#
# Poissons Ratio (x) = 0.76841 0.33306
# Poissons Ratio (y) = 0.70305 -0.13197
# Poissons Ratio (z) = 0.14888 -0.06447
#
# Static dielectric constant tensor:
#      x y z
#    x 3.559620 0.000000 0.000000 
#    y 0.000000 3.548940 0.000000 
#    z 0.000000 0.000000 3.352130 
# 
# 
# High freq. dielectric constant tensor:
#      x y z
#    x 1.754270 0.000000 0.000000 
#    y 0.000000 1.750700 0.000000 
#    z 0.000000 0.000000 1.742840 
# 
# From -- ./inp_files/2791.got.cif
#   From: 2010.03.12/outbox.cif.g09.slc.cpg/sg55_2_cif.got.tgz:2791.got - 2010.04.16 15:19:21.
