data_PCOD8226224
_publ_section_title
;
Structure prediction by ZEFSAII (Michael W. Deem and Ramdas Pophale) SiO2 
 PCOD8226224
Probable space group: P B A M
;
_chemical_formula_sum "Si O2"
_cell_formula_units_Z 64
_cell_length_a 24.608603
_cell_length_b 14.943577
_cell_length_c 8.672791
_cell_angle_alpha 90.000000
_cell_angle_beta 90.000000
_cell_angle_gamma 90.000000
_cell_volume 3189.336965
_symmetry_space_group_name_H-M "P B A M"
_symmetry_group_IT_number 55
_symmetry_cell_setting 'orthorhombic'
loop_
_space_group_symop_operation_xyz
x,y,z
-x,-y,z
1/2+x,1/2-y,-z
1/2-x,1/2+y,-z
-x,-y,-z
x,y,-z
1/2-x,1/2+y,z
1/2+x,1/2-y,z
loop_
_atom_site_type_symbol
_atom_site_label
_atom_site_fract_x
_atom_site_fract_y
_atom_site_fract_z
Si Si1 0.393737 0.511156 0.821961
Si Si2 0.650427 0.793040 0.319711
Si Si3 0.865616 0.671304 0.824298
Si Si4 0.442175 0.321675 0.178401
Si Si5 0.784931 0.963816 0.321919
Si Si6 0.739035 0.279418 0.823531
Si Si7 0.836825 0.495507 0.321113
Si Si8 0.442327 0.686154 0.320826
O O1 0.430408 0.425348 0.785180
O O2 0.331328 0.488208 0.779642
O O3 0.413528 0.592934 0.718312
O O4 0.398138 0.539428 0.000000
O O5 0.662932 0.786700 0.500000
O O6 0.595700 0.741626 0.280035
O O7 0.701233 0.748039 0.230953
O O8 0.644207 0.896707 0.269477
O O9 0.802545 0.697780 0.803819
O O10 0.871038 0.567760 0.775343
O O11 0.902932 0.731674 0.715985
O O12 0.884986 0.683207 0.000000
O O13 0.503815 0.301394 0.220584
O O14 0.431544 0.300218 0.000000
O O15 0.800515 0.974332 0.500000
O O16 0.782603 0.859096 0.282886
O O17 0.727067 0.008418 0.285103
O O18 0.741470 0.312486 0.000000
O O19 0.848997 0.511215 0.500000
O O20 0.457489 0.687260 0.500000
#
# Coordination Sequence:
#
# PCOD8226224 Si02
#       8
#     8   8   8   8   8   8   8   8
#     4  11  23  39  60  89 125 163 201 248 303 364
#     4  10  22  41  63  89 123 161 206 256 307 361
#     4  11  23  38  61  91 123 162 206 252 305 364
#     4  11  25  43  64  89 122 162 206 255 309 366
#     4  10  20  35  57  88 123 161 200 245 300 359
#     4  10  20  35  57  86 122 162 200 245 303 362
#     4   9  21  39  59  88 125 162 201 252 307 360
#     4  12  25  42  65  90 122 161 206 256 306 362
#
# _framework density 20.066865
#
# number of rings (size 3 to 8) (size 9 to 14) (size 15 to 20)
#    0.000    1.500    1.250    4.500    1.750    8.000 
#    0.000    0.625    0.000    3.750    0.000    0.000 
#    0.000    0.000    0.000    0.000    0.000    0.000 
#
# Total GULP energy -793924.384362 kJ/mol
# GULP energy per Si atom -12405.068506 kJ/mol
# Density = 2.002119 g / cm^3
# Si number density = 20.066865 Si / 1000 Ang^3
#
#
#
# Elastic Constant Matrix: (Units=GPa)
#
#
# Indices 1 2 3 4 5 6 
#
# 1 86.3963 31.7495 15.1132 0.0000 0.0000 0.0000
# 2 31.7495 64.9697 26.0807 0.0000 0.0000 0.0000
# 3 15.1132 26.0807 54.1395 0.0000 0.0000 0.0000
# 4 0.0000 0.0000 0.0000 29.4730 0.0000 0.0000
# 5 0.0000 0.0000 0.0000 0.0000 33.5369 0.0000
# 6 0.0000 0.0000 0.0000 0.0000 0.0000 22.3689
#
#
#
# Elastic Compliance Matrix: (Units=1/GPa)
#
#
# Indices 1 2 3 4 5 6 
#
# 1 0.014134 -0.006599 -0.000766 0.000000 0.000000 0.000000
# 2 -0.006599 0.022163 -0.008834 0.000000 0.000000 0.000000
# 3 -0.000766 -0.008834 0.022941 0.000000 0.000000 0.000000
# 4 0.000000 0.000000 0.000000 0.033929 0.000000 0.000000
# 5 0.000000 0.000000 0.000000 0.000000 0.029818 0.000000
# 6 0.000000 0.000000 0.000000 0.000000 0.000000 0.044705
#
#
# Mechanical properties :
#
#
# Convention : Reuss Voigt Hill
#
# Bulk Modulus (GPa) = 37.26168 39.04356 38.15262
# Shear Modulus (GPa) = 23.91938 25.91326 24.91632
#
# Velocity S-wave (km/s) = 3.45626 3.59743 3.52755
# Velocity P-wave (km/s) = 5.87679 6.06253 5.97038
#
# Compressibility (1/GPa) = 0.02683722
#
# Stress axis : x y z
#
# Youngs Moduli (GPa) = 70.75252 45.12000 43.59089
#
# Poissons Ratio (x) = 0.29776 0.03341
# Poissons Ratio (y) = 0.46691 0.38510
# Poissons Ratio (z) = 0.05423 0.39861
#
# Static dielectric constant tensor:
#      x y z
#    x 3.643560 0.000000 0.000000 
#    y 0.000000 3.481780 0.000000 
#    z 0.000000 0.000000 3.654750 
# 
# 
# High freq. dielectric constant tensor:
#      x y z
#    x 1.777260 0.000000 0.000000 
#    y 0.000000 1.776520 0.000000 
#    z 0.000000 0.000000 1.792630 
# 
# From -- ./inp_files/9827.got.cif
#   From: 2010.03.12/outbox.cif.g09.slc.cpg/sg55_5_cif.got.tgz:9827.got - 2010.04.16 15:19:21.
