data_PCOD8226092
_publ_section_title
;
Structure prediction by ZEFSAII (Michael W. Deem and Ramdas Pophale) SiO2 
 PCOD8226092
Probable space group: P B A M
;
_chemical_formula_sum "Si O2"
_cell_formula_units_Z 64
_cell_length_a 19.771378
_cell_length_b 20.015274
_cell_length_c 8.819352
_cell_angle_alpha 90.000000
_cell_angle_beta 90.000000
_cell_angle_gamma 90.000000
_cell_volume 3490.078181
_symmetry_space_group_name_H-M "P B A M"
_symmetry_group_IT_number 55
_symmetry_cell_setting 'orthorhombic'
loop_
_space_group_symop_operation_xyz
x,y,z
-x,-y,z
1/2+x,1/2-y,-z
1/2-x,1/2+y,-z
-x,-y,-z
x,y,-z
1/2-x,1/2+y,z
1/2+x,1/2-y,z
loop_
_atom_site_type_symbol
_atom_site_label
_atom_site_fract_x
_atom_site_fract_y
_atom_site_fract_z
Si Si1 0.572720 0.480287 0.821992
Si Si2 0.592383 0.192331 0.174379
Si Si3 0.453026 0.665450 0.824185
Si Si4 0.680085 0.086020 0.323766
Si Si5 0.177301 0.911518 0.820331
Si Si6 0.938370 0.336217 0.822997
Si Si7 0.592018 0.700525 0.321087
Si Si8 0.927853 0.473242 0.677434
O O1 0.500000 0.500000 0.751057
O O2 0.587593 0.402356 0.784492
O O3 0.631416 0.527460 0.755270
O O4 0.570156 0.492707 0.000000
O O5 0.595552 0.271700 0.209639
O O6 0.646819 0.156858 0.280749
O O7 0.517919 0.165768 0.215155
O O8 0.610331 0.177268 0.000000
O O9 0.521081 0.667927 0.727010
O O10 0.476136 0.666834 0.000000
O O11 0.698336 0.086855 0.500000
O O12 0.746613 0.072934 0.227181
O O13 0.628330 0.027459 0.281446
O O14 0.153356 0.842251 0.747126
O O15 0.172695 0.905346 0.000000
O O16 0.900476 0.275897 0.739141
O O17 0.908030 0.405734 0.764531
O O18 0.924837 0.328112 0.000000
O O19 0.598005 0.700889 0.500000
O O20 0.931242 0.457441 0.500000
O O21 0.000000 0.500000 0.736304
#
# Coordination Sequence:
#
# PCOD8226092 Si02
#       8
#     8   8   8   8   8   8   8   8
#     4   9  16  31  58  85 110 142 183 230 278 328
#     4   9  18  32  53  81 111 143 183 232 278 329
#     4   9  17  33  56  84 112 141 184 232 279 327
#     4  11  23  38  56  79 114 153 191 232 285 348
#     4  11  22  38  59  81 111 151 193 235 285 343
#     4  10  20  34  57  86 113 142 186 240 282 327
#     4  11  21  34  54  82 115 147 182 228 286 343
#     4  10  20  36  57  83 115 153 189 233 291 342
#
# _framework density 18.337699000000001
#
# number of rings (size 3 to 8) (size 9 to 14) (size 15 to 20)
#    0.000    2.000    2.500    3.000    0.000    3.250 
#    0.000    3.125    0.000    4.500    0.000    0.000 
#    0.000    0.000    0.000    0.000    0.000    0.000 
#
# Total GULP energy -793721.673760 kJ/mol
# GULP energy per Si atom -12401.901152 kJ/mol
# Density = 1.829596 g / cm^3
# Si number density = 18.337699 Si / 1000 Ang^3
#
#
#
# Elastic Constant Matrix: (Units=GPa)
#
#
# Indices 1 2 3 4 5 6 
#
# 1 94.3347 61.9776 39.6781 0.0000 0.0000 0.0000
# 2 61.9776 150.3252 49.4017 0.0000 0.0000 0.0000
# 3 39.6781 49.4017 79.6503 0.0000 0.0000 0.0000
# 4 0.0000 0.0000 0.0000 24.4211 0.0000 0.0000
# 5 0.0000 0.0000 0.0000 0.0000 26.0399 0.0000
# 6 0.0000 0.0000 0.0000 0.0000 0.0000 25.5858
#
#
#
# Elastic Compliance Matrix: (Units=1/GPa)
#
#
# Indices 1 2 3 4 5 6 
#
# 1 0.015898 -0.004964 -0.004841 0.000000 0.000000 0.000000
# 2 -0.004964 0.009905 -0.003671 0.000000 0.000000 0.000000
# 3 -0.004841 -0.003671 0.017243 0.000000 0.000000 0.000000
# 4 0.000000 0.000000 0.000000 0.040948 0.000000 0.000000
# 5 0.000000 0.000000 0.000000 0.000000 0.038403 0.000000
# 6 0.000000 0.000000 0.000000 0.000000 0.000000 0.039084
#
#
# Mechanical properties :
#
#
# Convention : Reuss Voigt Hill
#
# Bulk Modulus (GPa) = 62.12999 69.60278 65.86638
# Shear Modulus (GPa) = 25.80024 26.75956 26.27990
#
# Velocity S-wave (km/s) = 3.75500 3.82418 3.78975
# Velocity P-wave (km/s) = 7.26324 7.58536 7.42604
#
# Compressibility (1/GPa) = 0.01609529
#
# Stress axis : x y z
#
# Youngs Moduli (GPa) = 62.90189 100.95885 57.99407
#
# Poissons Ratio (x) = 0.50112 0.28075
# Poissons Ratio (y) = 0.31222 0.21288
# Poissons Ratio (z) = 0.30450 0.37060
#
# Static dielectric constant tensor:
#      x y z
#    x 3.156080 0.000000 0.000000 
#    y 0.000000 3.603300 0.000000 
#    z 0.000000 0.000000 3.217630 
# 
# 
# High freq. dielectric constant tensor:
#      x y z
#    x 1.681850 0.000000 0.000000 
#    y 0.000000 1.727320 0.000000 
#    z 0.000000 0.000000 1.701740 
# 
# From -- ./inp_files/8002.got.cif
#   From: 2010.03.12/outbox.cif.g09.slc.cpg/sg55_5_cif.got.tgz:8002.got - 2010.04.16 15:19:21.
