data_PCOD8226641
_publ_section_title
;
Structure prediction by ZEFSAII (Michael W. Deem and Ramdas Pophale) SiO2 
 PCOD8226641
Probable space group: P B A M
;
_chemical_formula_sum "Si O2"
_cell_formula_units_Z 64
_cell_length_a 11.526777
_cell_length_b 17.189493
_cell_length_c 15.037826
_cell_angle_alpha 90.000000
_cell_angle_beta 90.000000
_cell_angle_gamma 90.000000
_cell_volume 2979.586611
_symmetry_space_group_name_H-M "P B A M"
_symmetry_group_IT_number 55
_symmetry_cell_setting 'orthorhombic'
loop_
_space_group_symop_operation_xyz
x,y,z
-x,-y,z
1/2+x,1/2-y,-z
1/2-x,1/2+y,-z
-x,-y,-z
x,y,-z
1/2-x,1/2+y,z
1/2+x,1/2-y,z
loop_
_atom_site_type_symbol
_atom_site_label
_atom_site_fract_x
_atom_site_fract_y
_atom_site_fract_z
Si Si1 0.069903 0.685561 0.401140
Si Si2 0.892026 0.308974 0.098343
Si Si3 0.573769 0.631136 0.896154
Si Si4 0.933843 0.649463 0.772239
Si Si5 0.290146 0.448601 0.748047
Si Si6 0.346323 0.691099 0.837204
Si Si7 0.558084 0.633627 0.400860
Si Si8 0.199554 0.115194 0.665131
O O1 0.018945 0.668929 0.500000
O O2 0.091756 0.776743 0.389455
O O3 0.189257 0.635751 0.395295
O O4 0.973349 0.664279 0.328680
O O5 0.891692 0.218968 0.130716
O O6 0.756152 0.327440 0.094450
O O7 0.951772 0.369668 0.168222
O O8 0.946991 0.318101 0.000000
O O9 0.642939 0.566546 0.840339
O O10 0.440059 0.626693 0.866581
O O11 0.592184 0.613309 0.000000
O O12 0.839812 0.582361 0.763628
O O13 0.889240 0.719836 0.836077
O O14 0.360055 0.409092 0.668323
O O15 0.279750 0.537897 0.722633
O O16 0.306727 0.684156 0.735590
O O17 0.590159 0.604975 0.500000
O O18 0.421555 0.613958 0.388399
#
# Coordination Sequence:
#
# PCOD8226641 Si02
#       8
#     8   8   8   8   8   8   8   8
#     4  11  24  43  69  98 125 167 219 273 326 385
#     4  10  20  37  67  99 127 168 226 280 325 378
#     4  10  21  37  62  96 129 169 216 273 332 390
#     4  11  22  40  65  92 134 171 214 270 324 392
#     4  12  25  41  63  96 135 179 212 262 336 398
#     4  11  19  38  66  93 126 166 225 276 322 379
#     4  11  24  43  70  97 126 165 218 275 327 386
#     4  12  24  42  67  92 131 173 214 263 328 397
#
# _framework density 21.479489999999998
#
# number of rings (size 3 to 8) (size 9 to 14) (size 15 to 20)
#    0.000    1.000    5.000    2.625    0.000    3.500 
#    0.000    2.500    0.000    0.750    0.000    0.000 
#    0.000    0.000    0.000    0.000    0.000    0.000 
#
# Total GULP energy -793066.469605 kJ/mol
# GULP energy per Si atom -12391.663588 kJ/mol
# Density = 2.143060 g / cm^3
# Si number density = 21.479490 Si / 1000 Ang^3
#
#
#
# Elastic Constant Matrix: (Units=GPa)
#
#
# Indices 1 2 3 4 5 6 
#
# 1 120.0917 30.8635 36.9367 0.0000 0.0000 0.0000
# 2 30.8635 55.4748 22.0820 0.0000 0.0000 0.0000
# 3 36.9367 22.0820 127.1613 0.0000 0.0000 0.0000
# 4 0.0000 0.0000 0.0000 4.2097 0.0000 0.0000
# 5 0.0000 0.0000 0.0000 0.0000 24.4858 0.0000
# 6 0.0000 0.0000 0.0000 0.0000 0.0000 23.0151
#
#
#
# Elastic Compliance Matrix: (Units=1/GPa)
#
#
# Indices 1 2 3 4 5 6 
#
# 1 0.010226 -0.004842 -0.002130 0.000000 0.000000 0.000000
# 2 -0.004842 0.021657 -0.002354 0.000000 0.000000 0.000000
# 3 -0.002130 -0.002354 0.008891 0.000000 0.000000 0.000000
# 4 0.000000 0.000000 0.000000 0.237548 0.000000 0.000000
# 5 0.000000 0.000000 0.000000 0.000000 0.040840 0.000000
# 6 0.000000 0.000000 0.000000 0.000000 0.000000 0.043450
#
#
# Mechanical properties :
#
#
# Convention : Reuss Voigt Hill
#
# Bulk Modulus (GPa) = 45.20133 53.61024 49.40579
# Shear Modulus (GPa) = 12.86542 24.53182 18.69862
#
# Velocity S-wave (km/s) = 2.45003 3.38317 2.95368
# Velocity P-wave (km/s) = 5.39381 6.34619 5.88928
#
# Compressibility (1/GPa) = 0.02212324
#
# Stress axis : x y z
#
# Youngs Moduli (GPa) = 97.78695 46.17426 112.46705
#
# Poissons Ratio (x) = 0.22356 0.23952
# Poissons Ratio (y) = 0.47346 0.26480
# Poissons Ratio (z) = 0.20825 0.10872
#
# Static dielectric constant tensor:
#      x y z
#    x 4.208680 0.000000 0.000000 
#    y 0.000000 3.606380 0.000000 
#    z 0.000000 0.000000 4.027110 
# 
# 
# High freq. dielectric constant tensor:
#      x y z
#    x 1.853670 0.000000 0.000000 
#    y 0.000000 1.810030 0.000000 
#    z 0.000000 0.000000 1.854970 
# 
# From -- ./inp_files/18571.got.cif
#   From: 2010.03.12/outbox.cif.g09.slc.cpg/sg55_10_cif.got.tgz:18571.got - 2010.04.16 15:19:21.
