data_PCOD8226864
_publ_section_title
;
Structure prediction by ZEFSAII (Michael W. Deem and Ramdas Pophale) SiO2 
 PCOD8226864
Probable space group: P B A M
;
_chemical_formula_sum "Si O2"
_cell_formula_units_Z 60
_cell_length_a 13.900268
_cell_length_b 13.843596
_cell_length_c 15.119052
_cell_angle_alpha 90.000000
_cell_angle_beta 90.000000
_cell_angle_gamma 90.000000
_cell_volume 2909.354557
_symmetry_space_group_name_H-M "P B A M"
_symmetry_group_IT_number 55
_symmetry_cell_setting 'orthorhombic'
loop_
_space_group_symop_operation_xyz
x,y,z
-x,-y,z
1/2+x,1/2-y,-z
1/2-x,1/2+y,-z
-x,-y,-z
x,y,-z
1/2-x,1/2+y,z
1/2+x,1/2-y,z
loop_
_atom_site_type_symbol
_atom_site_label
_atom_site_fract_x
_atom_site_fract_y
_atom_site_fract_z
Si Si1 0.941917 0.809478 0.289483
Si Si2 0.155597 0.518056 0.341549
Si Si3 0.112537 0.988271 0.102025
Si Si4 0.861662 0.192662 0.783331
Si Si5 0.513780 0.134881 0.601208
Si Si6 0.000000 0.000000 0.633319
Si Si7 0.819725 0.108718 0.405921
Si Si8 0.262553 0.635476 0.801040
O O1 0.962665 0.746156 0.377330
O O2 0.833661 0.795579 0.256432
O O3 0.024612 0.782009 0.218536
O O4 0.945159 0.924296 0.304433
O O5 0.077676 0.431142 0.332322
O O6 0.241037 0.476339 0.401086
O O7 0.202361 0.552956 0.249865
O O8 0.099363 0.609760 0.384797
O O9 0.157843 0.903126 0.160579
O O10 0.173681 0.085578 0.122518
O O11 0.126863 0.962131 0.000000
O O12 0.000000 0.000000 0.124523
O O13 0.823660 0.175996 0.681551
O O14 0.812519 0.283047 0.833471
O O15 0.542549 0.113505 0.500000
O O16 0.078168 0.942967 0.577096
O O17 0.801001 0.165684 0.500000
#
# Coordination Sequence:
#
# PCOD8226864 Si02
#       8
#     8   8   8   8   8   4   8   8
#     4  11  21  38  61  89 124 171 210 266 328 381
#     4  11  21  40  59  83 121 172 219 266 310 369
#     4  11  24  46  75  99 126 165 213 274 343 413
#     4  11  23  40  64  98 134 164 211 271 322 396
#     4  11  24  40  57  86 127 177 233 273 310 377
#     4  10  21  36  52  78 125 162 221 280 312 360
#     4  11  21  36  57  86 127 175 214 259 312 371
#     4  12  22  41  67  97 126 166 214 267 336 392
#
# _framework density 20.62313
#
# number of rings (size 3 to 8) (size 9 to 14) (size 15 to 20)
#    0.000    0.933    5.333    3.400    0.933    3.200 
#    0.000    0.000    0.000    0.000    0.000    2.800 
#    0.000    0.000    0.000    0.000    0.000    0.000 
#
# Total GULP energy -743317.962128 kJ/mol
# GULP energy per Si atom -12388.632702 kJ/mol
# Density = 2.057619 g / cm^3
# Si number density = 20.623130 Si / 1000 Ang^3
#
#
#
# Elastic Constant Matrix: (Units=GPa)
#
#
# Indices 1 2 3 4 5 6 
#
# 1 96.3562 30.3060 22.0696 0.0000 0.0000 0.0000
# 2 30.3060 94.5328 31.1363 0.0000 0.0000 0.0000
# 3 22.0696 31.1363 82.8048 0.0000 0.0000 0.0000
# 4 0.0000 0.0000 0.0000 14.9385 0.0000 0.0000
# 5 0.0000 0.0000 0.0000 0.0000 0.4628 0.0000
# 6 0.0000 0.0000 0.0000 0.0000 0.0000 36.4889
#
#
#
# Elastic Compliance Matrix: (Units=1/GPa)
#
#
# Indices 1 2 3 4 5 6 
#
# 1 0.011817 -0.003140 -0.001969 0.000000 0.000000 0.000000
# 2 -0.003140 0.012908 -0.004017 0.000000 0.000000 0.000000
# 3 -0.001969 -0.004017 0.014112 0.000000 0.000000 0.000000
# 4 0.000000 0.000000 0.000000 0.066941 0.000000 0.000000
# 5 0.000000 0.000000 0.000000 0.000000 2.160820 0.000000
# 6 0.000000 0.000000 0.000000 0.000000 0.000000 0.027406
#
#
# Mechanical properties :
#
#
# Convention : Reuss Voigt Hill
#
# Bulk Modulus (GPa) = 48.57793 48.96861 48.77327
# Shear Modulus (GPa) = 2.15599 23.05682 12.60640
#
# Velocity S-wave (km/s) = 1.02357 3.34729 2.47508
# Velocity P-wave (km/s) = 5.00031 6.22376 5.64528
#
# Compressibility (1/GPa) = 0.02058548
#
# Stress axis : x y z
#
# Youngs Moduli (GPa) = 84.62654 77.47173 70.86300
#
# Poissons Ratio (x) = 0.24324 0.13952
# Poissons Ratio (y) = 0.26571 0.28464
# Poissons Ratio (z) = 0.16661 0.31119
#
# Static dielectric constant tensor:
#      x y z
#    x 4.119190 0.000000 0.000000 
#    y 0.000000 3.710830 0.000000 
#    z 0.000000 0.000000 3.347990 
# 
# 
# High freq. dielectric constant tensor:
#      x y z
#    x 1.826980 0.000000 0.000000 
#    y 0.000000 1.805570 0.000000 
#    z 0.000000 0.000000 1.757910 
# 
# From -- ./inp_files/19093.got.cif
#   From: 2010.03.12/outbox.cif.g09.slc.cpg/sg55_10_cif.got.tgz:19093.got - 2010.04.16 15:19:21.
