data_PCOD8226551
_publ_section_title
;
Structure prediction by ZEFSAII (Michael W. Deem and Ramdas Pophale) SiO2 
 PCOD8226551
Probable space group: P B A M
;
_chemical_formula_sum "Si O2"
_cell_formula_units_Z 56
_cell_length_a 17.602838
_cell_length_b 10.980179
_cell_length_c 13.607187
_cell_angle_alpha 90.000000
_cell_angle_beta 90.000000
_cell_angle_gamma 90.000000
_cell_volume 2630.028565
_symmetry_space_group_name_H-M "P B A M"
_symmetry_group_IT_number 55
_symmetry_cell_setting 'orthorhombic'
loop_
_space_group_symop_operation_xyz
x,y,z
-x,-y,z
1/2+x,1/2-y,-z
1/2-x,1/2+y,-z
-x,-y,-z
x,y,-z
1/2-x,1/2+y,z
1/2+x,1/2-y,z
loop_
_atom_site_type_symbol
_atom_site_label
_atom_site_fract_x
_atom_site_fract_y
_atom_site_fract_z
Si Si1 0.670902 0.938633 0.228823
Si Si2 0.375526 0.855442 0.884867
Si Si3 0.922544 0.071851 0.889509
Si Si4 0.659560 0.378937 0.220867
Si Si5 0.542762 0.829613 0.886743
Si Si6 0.050971 0.618816 0.388185
Si Si7 0.538266 0.368381 0.615159
O O1 0.750377 0.870410 0.237917
O O2 0.617737 0.906849 0.134552
O O3 0.627238 0.903606 0.327375
O O4 0.679842 0.080660 0.197230
O O5 0.364614 0.712391 0.865975
O O6 0.462993 0.890660 0.854574
O O7 0.357494 0.883393 0.000000
O O8 0.942833 0.198967 0.836354
O O9 0.859260 0.011964 0.820658
O O10 0.889423 0.085848 0.000000
O O11 0.000000 0.000000 0.890260
O O12 0.615937 0.355219 0.323344
O O13 0.533529 0.803022 0.000000
O O14 0.077100 0.624840 0.500000
O O15 0.000000 0.500000 0.368376
O O16 0.012246 0.748121 0.358770
O O17 0.500000 0.500000 0.641680
O O18 0.559366 0.365885 0.500000
#
# Coordination Sequence:
#
# PCOD8226551 Si02
#       7
#     8   8   8   8   8   8   8
#     4  12  26  38  60  95 129 165 205 256 332 383
#     4  11  24  43  63  89 126 170 220 267 307 372
#     4  10  20  37  60  86 114 161 217 258 299 363
#     4  12  25  38  61  92 131 167 204 256 333 386
#     4  10  21  39  62  84 115 163 217 260 300 361
#     4  10  22  44  71  94 122 166 218 265 317 387
#     4  10  23  43  70  98 124 163 217 272 317 375
#
# _framework density 21.292543999999999
#
# number of rings (size 3 to 8) (size 9 to 14) (size 15 to 20)
#    0.000    1.286    1.429    4.286    4.000    4.000 
#    0.000    0.000    0.000    5.143    0.000    0.000 
#    0.000    0.000    0.000    0.000    0.000    0.000 
#
# Total GULP energy -693910.030121 kJ/mol
# GULP energy per Si atom -12391.250538 kJ/mol
# Density = 2.124408 g / cm^3
# Si number density = 21.292544 Si / 1000 Ang^3
#
#
#
# Elastic Constant Matrix: (Units=GPa)
#
#
# Indices 1 2 3 4 5 6 
#
# 1 136.6314 26.6927 58.8163 0.0000 0.0000 0.0000
# 2 26.6927 83.9708 33.5827 0.0000 0.0000 0.0000
# 3 58.8163 33.5827 107.7104 0.0000 0.0000 0.0000
# 4 0.0000 0.0000 0.0000 31.0155 0.0000 0.0000
# 5 0.0000 0.0000 0.0000 0.0000 22.8531 0.0000
# 6 0.0000 0.0000 0.0000 0.0000 0.0000 26.1829
#
#
#
# Elastic Compliance Matrix: (Units=1/GPa)
#
#
# Indices 1 2 3 4 5 6 
#
# 1 0.009656 -0.001098 -0.004930 0.000000 0.000000 0.000000
# 2 -0.001098 0.013730 -0.003682 0.000000 0.000000 0.000000
# 3 -0.004930 -0.003682 0.013124 0.000000 0.000000 0.000000
# 4 0.000000 0.000000 0.000000 0.032242 0.000000 0.000000
# 5 0.000000 0.000000 0.000000 0.000000 0.043758 0.000000
# 6 0.000000 0.000000 0.000000 0.000000 0.000000 0.038193
#
#
# Mechanical properties :
#
#
# Convention : Reuss Voigt Hill
#
# Bulk Modulus (GPa) = 58.50964 62.94400 60.72682
# Shear Modulus (GPa) = 28.43834 29.95837 29.19836
#
# Velocity S-wave (km/s) = 3.65855 3.75505 3.70712
# Velocity P-wave (km/s) = 6.73686 6.95890 6.84878
#
# Compressibility (1/GPa) = 0.01709120
#
# Stress axis : x y z
#
# Youngs Moduli (GPa) = 103.56459 72.83233 76.19429
#
# Poissons Ratio (x) = 0.07994 0.37567
# Poissons Ratio (y) = 0.11367 0.28051
# Poissons Ratio (z) = 0.51062 0.26814
#
# Static dielectric constant tensor:
#      x y z
#    x 3.804790 0.000000 0.000000 
#    y 0.000000 8.938500 0.000000 
#    z 0.000000 0.000000 3.874090 
# 
# 
# High freq. dielectric constant tensor:
#      x y z
#    x 1.807940 0.000000 0.000000 
#    y 0.000000 1.861140 0.000000 
#    z 0.000000 0.000000 1.836680 
# 
# From -- ./inp_files/18949.got.cif
#   From: 2010.03.12/outbox.cif.g09.slc.cpg/sg55_10_cif.got.tgz:18949.got - 2010.04.16 15:19:21.
