data_PCOD8226283
_publ_section_title
;
Structure prediction by ZEFSAII (Michael W. Deem and Ramdas Pophale) SiO2 
 PCOD8226283
Probable space group: P B A M
;
_chemical_formula_sum "Si O2"
_cell_formula_units_Z 64
_cell_length_a 9.017641
_cell_length_b 15.105782
_cell_length_c 23.004225
_cell_angle_alpha 90.000000
_cell_angle_beta 90.000000
_cell_angle_gamma 90.000000
_cell_volume 3133.601463
_symmetry_space_group_name_H-M "P B A M"
_symmetry_group_IT_number 55
_symmetry_cell_setting 'orthorhombic'
loop_
_space_group_symop_operation_xyz
x,y,z
-x,-y,z
1/2+x,1/2-y,-z
1/2-x,1/2+y,-z
-x,-y,-z
x,y,-z
1/2-x,1/2+y,z
1/2+x,1/2-y,z
loop_
_atom_site_type_symbol
_atom_site_label
_atom_site_fract_x
_atom_site_fract_y
_atom_site_fract_z
Si Si1 0.777569 0.638974 0.862310
Si Si2 0.113376 0.683545 0.140321
Si Si3 0.758648 0.351397 0.613090
Si Si4 0.672357 0.976823 0.934236
Si Si5 0.452885 0.299368 0.567123
Si Si6 0.662795 0.534479 0.373434
Si Si7 0.399054 0.194323 0.271972
Si Si8 0.228266 0.365734 0.269272
O O1 0.662103 0.717067 0.875067
O O2 0.738917 0.558335 0.905382
O O3 0.767249 0.600257 0.796952
O O4 0.939931 0.678813 0.873450
O O5 0.203261 0.613169 0.101277
O O6 0.148766 0.661882 0.207782
O O7 0.601534 0.302552 0.605123
O O8 0.880430 0.296818 0.576968
O O9 0.746974 0.454259 0.592485
O O10 0.801762 0.357927 0.680934
O O11 0.500000 0.000000 0.931340
O O12 0.728033 0.963883 0.000000
O O13 0.493976 0.311522 0.500000
O O14 0.341159 0.378285 0.586075
O O15 0.500000 0.500000 0.357164
O O16 0.750144 0.553572 0.313540
O O17 0.363549 0.298082 0.280228
O O18 0.573110 0.182406 0.282443
#
# Coordination Sequence:
#
# PCOD8226283 Si02
#       8
#     8   8   8   8   8   8   8   8
#     4   9  19  35  56  83 116 154 196 240 296 345
#     4   9  19  35  55  85 115 153 196 244 296 344
#     4  11  23  40  63  89 115 154 195 244 293 348
#     4   9  18  34  56  81 115 159 203 238 283 353
#     4  11  24  44  64  85 118 158 197 239 292 352
#     4  10  24  39  61  92 119 154 195 240 296 355
#     4  10  20  35  62  84 122 153 192 243 301 355
#     4  10  20  37  58  90 123 155 191 245 299 358
#
# _framework density 20.423784000000001
#
# number of rings (size 3 to 8) (size 9 to 14) (size 15 to 20)
#    0.000    2.125    1.250    1.125    3.500    3.750 
#    0.000    0.625    0.000    2.250    0.000    0.000 
#    0.000    0.000    0.000    0.000    0.000    0.000 
#
# Total GULP energy -793528.469899 kJ/mol
# GULP energy per Si atom -12398.882342 kJ/mol
# Density = 2.037730 g / cm^3
# Si number density = 20.423784 Si / 1000 Ang^3
#
#
#
# Elastic Constant Matrix: (Units=GPa)
#
#
# Indices 1 2 3 4 5 6 
#
# 1 59.8910 34.5275 28.2164 0.0000 0.0000 0.0000
# 2 34.5275 100.4857 49.7405 0.0000 0.0000 0.0000
# 3 28.2164 49.7405 107.8025 0.0000 0.0000 0.0000
# 4 0.0000 0.0000 0.0000 27.6573 0.0000 0.0000
# 5 0.0000 0.0000 0.0000 0.0000 19.4156 0.0000
# 6 0.0000 0.0000 0.0000 0.0000 0.0000 28.0862
#
#
#
# Elastic Compliance Matrix: (Units=1/GPa)
#
#
# Indices 1 2 3 4 5 6 
#
# 1 0.021487 -0.005961 -0.002874 0.000000 0.000000 0.000000
# 2 -0.005961 0.014551 -0.005154 0.000000 0.000000 0.000000
# 3 -0.002874 -0.005154 0.012406 0.000000 0.000000 0.000000
# 4 0.000000 0.000000 0.000000 0.036157 0.000000 0.000000
# 5 0.000000 0.000000 0.000000 0.000000 0.051505 0.000000
# 6 0.000000 0.000000 0.000000 0.000000 0.000000 0.035605
#
#
# Mechanical properties :
#
#
# Convention : Reuss Voigt Hill
#
# Bulk Modulus (GPa) = 48.85628 54.79421 51.82525
# Shear Modulus (GPa) = 24.21190 25.41147 24.81169
#
# Velocity S-wave (km/s) = 3.44681 3.53116 3.48924
# Velocity P-wave (km/s) = 6.30982 6.59639 6.45470
#
# Compressibility (1/GPa) = 0.02046820
#
# Stress axis : x y z
#
# Youngs Moduli (GPa) = 46.53914 68.72457 80.60380
#
# Poissons Ratio (x) = 0.40964 0.23164
# Poissons Ratio (y) = 0.27740 0.41541
# Poissons Ratio (z) = 0.13375 0.35418
#
# Static dielectric constant tensor:
#      x y z
#    x 3.506390 0.000000 0.000000 
#    y 0.000000 3.743490 0.000000 
#    z 0.000000 0.000000 3.764030 
# 
# 
# High freq. dielectric constant tensor:
#      x y z
#    x 1.778830 0.000000 0.000000 
#    y 0.000000 1.798840 0.000000 
#    z 0.000000 0.000000 1.794090 
# 
# From -- ./inp_files/23481.got.cif
#   From: 2010.03.12/outbox.cif.g09.slc.cpg/sg55_12_cif.got.tgz:23481.got - 2010.04.16 15:19:21.
