data_PCOD8226988
_publ_section_title
;
Structure prediction by ZEFSAII (Michael W. Deem and Ramdas Pophale) SiO2 
 PCOD8226988
Probable space group: P B A M
;
_chemical_formula_sum "Si O2"
_cell_formula_units_Z 32
_cell_length_a 5.031984
_cell_length_b 11.117756
_cell_length_c 23.173547
_cell_angle_alpha 90.000000
_cell_angle_beta 90.000000
_cell_angle_gamma 90.000000
_cell_volume 1296.429495
_symmetry_space_group_name_H-M "P B A M"
_symmetry_group_IT_number 55
_symmetry_cell_setting 'orthorhombic'
loop_
_space_group_symop_operation_xyz
x,y,z
-x,-y,z
1/2+x,1/2-y,-z
1/2-x,1/2+y,-z
-x,-y,-z
x,y,-z
1/2-x,1/2+y,z
1/2+x,1/2-y,z
loop_
_atom_site_type_symbol
_atom_site_label
_atom_site_fract_x
_atom_site_fract_y
_atom_site_fract_z
Si Si1 0.500000 0.500000 0.095908
Si Si2 0.857165 0.831053 0.192078
Si Si3 0.839533 0.174575 0.500000
Si Si4 0.000000 0.000000 0.289638
Si Si5 0.262835 0.831609 0.376571
Si Si6 0.816609 0.164940 0.000000
O O1 0.683377 0.415454 0.136168
O O2 0.304420 0.419750 0.056383
O O3 0.652088 0.723037 0.190943
O O4 0.829001 0.908950 0.250186
O O5 0.651538 0.293450 0.500000
O O6 0.772421 0.105514 0.440105
O O7 0.783356 0.067819 0.328577
O O8 0.558169 0.779565 0.369267
O O9 0.585808 0.260302 0.000000
#
# Coordination Sequence:
#
# PCOD8226988 Si02
#       6
#     4   8   4   4   8   4
#     4  10  24  41  68  93 122 168 202 236 298 348
#     4  11  25  43  62  88 121 157 202 249 290 344
#     4   8  16  33  54  77 110 146 182 233 290 347
#     4  11  24  38  62  86 114 155 196 242 302 349
#     4  10  21  37  57  83 114 148 190 239 292 355
#     4  11  24  41  64  98 132 159 198 247 290 344
#
# _framework density 24.683181000000001
#
# number of rings (size 3 to 8) (size 9 to 14) (size 15 to 20)
#    0.000    1.750    0.000    3.000    0.000   11.500 
#    0.000    0.000    0.000    9.000    0.000    0.000 
#    0.000    0.000    0.000    0.000    0.000    0.000 
#
# Total GULP energy -396839.801191 kJ/mol
# GULP energy per Si atom -12401.243787 kJ/mol
# Density = 2.462700 g / cm^3
# Si number density = 24.683181 Si / 1000 Ang^3
#
#
#
# Elastic Constant Matrix: (Units=GPa)
#
#
# Indices 1 2 3 4 5 6 
#
# 1 88.2244 25.2988 14.6664 0.0000 0.0000 0.0000
# 2 25.2988 111.0708 68.9890 0.0000 0.0000 0.0000
# 3 14.6664 68.9890 200.3882 0.0000 0.0000 0.0000
# 4 0.0000 0.0000 0.0000 52.1580 0.0000 0.0000
# 5 0.0000 0.0000 0.0000 0.0000 6.9299 0.0000
# 6 0.0000 0.0000 0.0000 0.0000 0.0000 11.1646
#
#
#
# Elastic Compliance Matrix: (Units=1/GPa)
#
#
# Indices 1 2 3 4 5 6 
#
# 1 0.012128 -0.002812 0.000081 0.000000 0.000000 0.000000
# 2 -0.002812 0.012104 -0.003961 0.000000 0.000000 0.000000
# 3 0.000081 -0.003961 0.006348 0.000000 0.000000 0.000000
# 4 0.000000 0.000000 0.000000 0.019173 0.000000 0.000000
# 5 0.000000 0.000000 0.000000 0.000000 0.144302 0.000000
# 6 0.000000 0.000000 0.000000 0.000000 0.000000 0.089569
#
#
# Mechanical properties :
#
#
# Convention : Reuss Voigt Hill
#
# Bulk Modulus (GPa) = 58.15997 68.62132 63.39064
# Shear Modulus (GPa) = 16.51573 33.43245 24.97409
#
# Velocity S-wave (km/s) = 2.58952 3.68430 3.18431
# Velocity P-wave (km/s) = 5.70566 6.77937 6.26556
#
# Compressibility (1/GPa) = 0.01719396
#
# Stress axis : x y z
#
# Youngs Moduli (GPa) = 82.45510 82.61449 157.52404
#
# Poissons Ratio (x) = 0.23235 -0.01270
# Poissons Ratio (y) = 0.23190 0.62402
# Poissons Ratio (z) = -0.00665 0.32727
#
# Static dielectric constant tensor:
#      x y z
#    x 3.895480 0.000000 0.000000 
#    y 0.000000 4.325910 0.000000 
#    z 0.000000 0.000000 5.045350 
# 
# 
# High freq. dielectric constant tensor:
#      x y z
#    x 1.965030 0.000000 0.000000 
#    y 0.000000 1.970730 0.000000 
#    z 0.000000 0.000000 2.012240 
# 
# From -- ./inp_files/22224.got.cif
#   From: 2010.03.12/outbox.cif.g09.slc.cpg/sg55_12_cif.got.tgz:22224.got - 2010.04.16 15:19:21.
