data_PCOD8226839
_publ_section_title
;
Structure prediction by ZEFSAII (Michael W. Deem and Ramdas Pophale) SiO2 
 PCOD8226839
Probable space group: P B A M
;
_chemical_formula_sum "Si O2"
_cell_formula_units_Z 64
_cell_length_a 12.738816
_cell_length_b 27.749009
_cell_length_c 9.171680
_cell_angle_alpha 90.000000
_cell_angle_beta 90.000000
_cell_angle_gamma 90.000000
_cell_volume 3242.092759
_symmetry_space_group_name_H-M "P B A M"
_symmetry_group_IT_number 55
_symmetry_cell_setting 'orthorhombic'
loop_
_space_group_symop_operation_xyz
x,y,z
-x,-y,z
1/2+x,1/2-y,-z
1/2-x,1/2+y,-z
-x,-y,-z
x,y,-z
1/2-x,1/2+y,z
1/2+x,1/2-y,z
loop_
_atom_site_type_symbol
_atom_site_label
_atom_site_fract_x
_atom_site_fract_y
_atom_site_fract_z
Si Si1 0.268260 0.722632 0.330675
Si Si2 0.954014 0.552369 0.164228
Si Si3 0.661130 0.905244 0.157802
Si Si4 0.154551 0.314799 0.171147
Si Si5 0.461545 0.447817 0.327544
Si Si6 0.237054 0.408114 0.325852
Si Si7 0.848340 0.883935 0.332042
Si Si8 0.583069 0.804111 0.157417
O O1 0.272839 0.736253 0.500000
O O2 0.324543 0.762178 0.233511
O O3 0.331778 0.672813 0.301046
O O4 0.144378 0.724837 0.284108
O O5 0.854066 0.556280 0.268977
O O6 0.000000 0.500000 0.155576
O O7 0.050379 0.582306 0.233649
O O8 0.925402 0.571441 0.000000
O O9 0.760879 0.917851 0.256163
O O10 0.661363 0.848402 0.133040
O O11 0.670697 0.931948 0.000000
O O12 0.221928 0.355479 0.254010
O O13 0.031436 0.322974 0.203732
O O14 0.181226 0.316737 0.000000
O O15 0.500000 0.500000 0.263957
O O16 0.458543 0.451896 0.500000
O O17 0.346141 0.432134 0.272198
O O18 0.539459 0.404347 0.277884
O O19 0.232061 0.402963 0.500000
O O20 0.833521 0.895067 0.500000
O O21 0.575796 0.776232 0.000000
#
# Coordination Sequence:
#
# PCOD8226839 Si02
#       8
#     8   8   8   8   8   8   8   8
#     4  10  21  35  55  88 119 150 197 252 305 357
#     4  10  21  37  57  83 119 156 187 234 300 360
#     4   9  17  33  55  80 110 145 185 231 285 343
#     4  11  22  39  61  84 117 159 198 240 301 368
#     4   9  20  39  60  84 121 164 201 244 301 359
#     4  11  23  38  60  90 120 155 201 250 299 355
#     4   9  19  36  58  82 113 153 197 247 298 348
#     4   9  18  35  56  77 108 150 190 231 288 354
#
# _framework density 19.740335999999999
#
# number of rings (size 3 to 8) (size 9 to 14) (size 15 to 20)
#    0.000    2.250    1.250    1.125    1.750    3.250 
#    0.000    2.500    0.000    1.875    0.000    0.000 
#    0.000    0.000    0.000    0.000    0.000    0.000 
#
# Total GULP energy -792854.514618 kJ/mol
# GULP energy per Si atom -12388.351791 kJ/mol
# Density = 1.969541 g / cm^3
# Si number density = 19.740336 Si / 1000 Ang^3
#
#
#
# Elastic Constant Matrix: (Units=GPa)
#
#
# Indices 1 2 3 4 5 6 
#
# 1 151.6231 51.5455 55.9310 0.0000 0.0000 0.0000
# 2 51.5455 83.3136 40.4192 0.0000 0.0000 0.0000
# 3 55.9310 40.4192 79.9251 0.0000 0.0000 0.0000
# 4 0.0000 0.0000 0.0000 24.3119 0.0000 0.0000
# 5 0.0000 0.0000 0.0000 0.0000 41.4723 0.0000
# 6 0.0000 0.0000 0.0000 0.0000 0.0000 20.1324
#
#
#
# Elastic Compliance Matrix: (Units=1/GPa)
#
#
# Indices 1 2 3 4 5 6 
#
# 1 0.009627 -0.003561 -0.004936 0.000000 0.000000 0.000000
# 2 -0.003561 0.017223 -0.006217 0.000000 0.000000 0.000000
# 3 -0.004936 -0.006217 0.019110 0.000000 0.000000 0.000000
# 4 0.000000 0.000000 0.000000 0.041132 0.000000 0.000000
# 5 0.000000 0.000000 0.000000 0.000000 0.024112 0.000000
# 6 0.000000 0.000000 0.000000 0.000000 0.000000 0.049671
#
#
# Mechanical properties :
#
#
# Convention : Reuss Voigt Hill
#
# Bulk Modulus (GPa) = 60.49543 67.85037 64.17290
# Shear Modulus (GPa) = 25.53444 28.31442 26.92443
#
# Velocity S-wave (km/s) = 3.60045 3.79138 3.69715
# Velocity P-wave (km/s) = 6.92795 7.32203 7.12771
#
# Compressibility (1/GPa) = 0.01653017
#
# Stress axis : x y z
#
# Youngs Moduli (GPa) = 103.87761 58.06309 52.32898
#
# Poissons Ratio (x) = 0.20679 0.25828
# Poissons Ratio (y) = 0.36996 0.32535
# Poissons Ratio (z) = 0.51270 0.36100
#
# Static dielectric constant tensor:
#      x y z
#    x 4.180330 0.000000 0.000000 
#    y 0.000000 3.219020 0.000000 
#    z 0.000000 0.000000 3.674700 
# 
# 
# High freq. dielectric constant tensor:
#      x y z
#    x 1.773520 0.000000 0.000000 
#    y 0.000000 1.761440 0.000000 
#    z 0.000000 0.000000 1.755110 
# 
# From -- ./inp_files/4551.got.cif
#   From: 2010.03.12/outbox.cif.g09.slc.cpg/sg55_3_cif.got.tgz:4551.got - 2010.04.16 15:19:21.
