data_PCOD8226479
_publ_section_title
;
Structure prediction by ZEFSAII (Michael W. Deem and Ramdas Pophale) SiO2 
 PCOD8226479
Probable space group: P B A M
;
_chemical_formula_sum "Si O2"
_cell_formula_units_Z 48
_cell_length_a 16.536204
_cell_length_b 9.722449
_cell_length_c 14.226671
_cell_angle_alpha 90.000000
_cell_angle_beta 90.000000
_cell_angle_gamma 90.000000
_cell_volume 2287.256041
_symmetry_space_group_name_H-M "P B A M"
_symmetry_group_IT_number 55
_symmetry_cell_setting 'orthorhombic'
loop_
_space_group_symop_operation_xyz
x,y,z
-x,-y,z
1/2+x,1/2-y,-z
1/2-x,1/2+y,-z
-x,-y,-z
x,y,-z
1/2-x,1/2+y,z
1/2+x,1/2-y,z
loop_
_atom_site_type_symbol
_atom_site_label
_atom_site_fract_x
_atom_site_fract_y
_atom_site_fract_z
Si Si1 0.343821 0.684438 0.804099
Si Si2 0.910461 0.561605 0.295944
Si Si3 0.940958 0.123864 0.500000
Si Si4 0.668305 0.763637 0.000000
Si Si5 0.090994 0.945085 0.695897
Si Si6 0.656827 0.805583 0.200202
Si Si7 0.939810 0.622105 0.500000
Si Si8 0.667620 0.431191 0.000000
O O1 0.401845 0.810073 0.774686
O O2 0.348492 0.565954 0.725104
O O3 0.251310 0.737642 0.805737
O O4 0.376044 0.619671 0.903398
O O5 0.849475 0.444018 0.260929
O O6 0.887787 0.611580 0.402887
O O7 0.000000 0.500000 0.290137
O O8 0.885372 0.111911 0.592266
O O9 0.001359 0.249979 0.500000
O O10 0.000000 0.000000 0.500000
O O11 0.622638 0.816983 0.906605
O O12 0.750721 0.847232 0.000000
O O13 0.679619 0.596560 0.000000
O O14 0.100895 0.813316 0.760166
O O15 0.000000 0.000000 0.702800
O O16 0.000000 0.500000 0.500000
#
# Coordination Sequence:
#
# PCOD8226479 Si02
#       8
#     8   8   4   4   8   8   4   4
#     4  11  23  40  63  91 126 161 210 261 317 373
#     4  11  23  41  64  92 125 166 212 260 310 375
#     4  10  20  36  63  88 117 164 211 242 299 388
#     4  10  22  40  65  90 124 170 214 246 312 398
#     4  11  21  39  62  90 121 162 211 259 310 371
#     4  11  23  40  63  91 124 163 209 259 314 373
#     4  10  20  40  63  88 121 170 211 242 301 388
#     4  10  22  40  65  90 124 172 212 248 310 398
#
# _framework density 20.985844
#
# number of rings (size 3 to 8) (size 9 to 14) (size 15 to 20)
#    0.000    1.333    1.667    6.000    7.000    0.000 
#    0.000   10.000    0.000    0.000    0.000    0.000 
#    0.000    0.000    0.000    0.000    0.000    0.000 
#
# Total GULP energy -594695.243216 kJ/mol
# GULP energy per Si atom -12389.484234 kJ/mol
# Density = 2.093808 g / cm^3
# Si number density = 20.985844 Si / 1000 Ang^3
#
#
#
# Elastic Constant Matrix: (Units=GPa)
#
#
# Indices 1 2 3 4 5 6 
#
# 1 35.5810 14.9230 48.6122 0.0000 0.0000 0.0000
# 2 14.9230 139.4436 57.7793 0.0000 0.0000 0.0000
# 3 48.6122 57.7793 176.0713 0.0000 0.0000 0.0000
# 4 0.0000 0.0000 0.0000 39.5868 0.0000 0.0000
# 5 0.0000 0.0000 0.0000 0.0000 31.8442 0.0000
# 6 0.0000 0.0000 0.0000 0.0000 0.0000 43.0290
#
#
#
# Elastic Compliance Matrix: (Units=1/GPa)
#
#
# Indices 1 2 3 4 5 6 
#
# 1 0.045145 0.000386 -0.012591 0.000000 0.000000 0.000000
# 2 0.000386 0.008303 -0.002831 0.000000 0.000000 0.000000
# 3 -0.012591 -0.002831 0.010085 0.000000 0.000000 0.000000
# 4 0.000000 0.000000 0.000000 0.025261 0.000000 0.000000
# 5 0.000000 0.000000 0.000000 0.000000 0.031403 0.000000
# 6 0.000000 0.000000 0.000000 0.000000 0.000000 0.023240
#
#
# Mechanical properties :
#
#
# Convention : Reuss Voigt Hill
#
# Bulk Modulus (GPa) = 29.88598 65.96944 47.92771
# Shear Modulus (GPa) = 27.07625 38.21076 32.64350
#
# Velocity S-wave (km/s) = 3.59585 4.27170 3.94826
# Velocity P-wave (km/s) = 5.61357 7.47217 6.60853
#
# Compressibility (1/GPa) = 0.03346051
#
# Stress axis : x y z
#
# Youngs Moduli (GPa) = 22.15073 120.43494 99.15817
#
# Poissons Ratio (x) = -0.04646 1.24849
# Poissons Ratio (y) = -0.00854 0.28075
# Poissons Ratio (z) = 0.27890 0.34099
#
# Static dielectric constant tensor:
#      x y z
#    x 3.393290 0.000000 0.000000 
#    y 0.000000 4.004480 0.000000 
#    z 0.000000 0.000000 4.163330 
# 
# 
# High freq. dielectric constant tensor:
#      x y z
#    x 1.775670 0.000000 0.000000 
#    y 0.000000 1.842070 0.000000 
#    z 0.000000 0.000000 1.848580 
# 
# From -- ./inp_files/19422.got.cif
#   From: 2010.03.12/outbox.cif.g09.slc.cpg/sg55_10_cif.got.tgz:19422.got - 2010.04.16 15:19:21.
