data_PCOD8226716
_publ_section_title
;
Structure prediction by ZEFSAII (Michael W. Deem and Ramdas Pophale) SiO2 
 PCOD8226716
Probable space group: P B A M
;
_chemical_formula_sum "Si O2"
_cell_formula_units_Z 40
_cell_length_a 18.415658
_cell_length_b 12.077226
_cell_length_c 8.961808
_cell_angle_alpha 90.000000
_cell_angle_beta 90.000000
_cell_angle_gamma 90.000000
_cell_volume 1993.196287
_symmetry_space_group_name_H-M "P B A M"
_symmetry_group_IT_number 55
_symmetry_cell_setting 'orthorhombic'
loop_
_space_group_symop_operation_xyz
x,y,z
-x,-y,z
1/2+x,1/2-y,-z
1/2-x,1/2+y,-z
-x,-y,-z
x,y,-z
1/2-x,1/2+y,z
1/2+x,1/2-y,z
loop_
_atom_site_type_symbol
_atom_site_label
_atom_site_fract_x
_atom_site_fract_y
_atom_site_fract_z
Si Si1 0.426561 0.059632 0.173816
Si Si2 0.171344 0.965930 0.174287
Si Si3 0.684271 0.093473 0.675317
Si Si4 0.037469 0.809055 0.172053
Si Si5 0.886893 0.824647 0.675039
O O1 0.431364 0.188788 0.211245
O O2 0.500000 0.000000 0.227432
O O3 0.359268 0.012877 0.266401
O O4 0.412352 0.036885 0.000000
O O5 0.237423 0.900510 0.248716
O O6 0.098482 0.898524 0.208246
O O7 0.164755 0.087739 0.243397
O O8 0.186675 0.976731 0.000000
O O9 0.694832 0.082768 0.500000
O O10 0.640477 0.203260 0.720578
O O11 0.969482 0.838889 0.273893
O O12 0.012437 0.814370 0.000000
O O13 0.881642 0.845581 0.500000
#
# Coordination Sequence:
#
# PCOD8226716 Si02
#       5
#     8   8   8   8   8
#     4  10  20  38  65  93 122 161 208 256 307 367
#     4  11  25  42  64  91 125 166 210 260 311 368
#     4  11  25  42  61  91 128 164 206 257 317 374
#     4  10  22  41  65  95 124 159 210 260 309 368
#     4  11  24  42  64  92 127 166 206 255 313 375
#
# _framework density 20.068269000000001
#
# number of rings (size 3 to 8) (size 9 to 14) (size 15 to 20)
#    0.000    1.400    2.000    2.400    2.800    7.600 
#    0.000    0.000    0.000    0.000    0.000    0.000 
#    0.000    0.000    0.000    0.000    0.000    0.000 
#
# Total GULP energy -496332.494804 kJ/mol
# GULP energy per Si atom -12408.312370 kJ/mol
# Density = 2.002259 g / cm^3
# Si number density = 20.068269 Si / 1000 Ang^3
#
#
#
# Elastic Constant Matrix: (Units=GPa)
#
#
# Indices 1 2 3 4 5 6 
#
# 1 101.1766 23.8951 52.2036 0.0000 0.0000 0.0000
# 2 23.8951 82.5597 36.3480 0.0000 0.0000 0.0000
# 3 52.2036 36.3480 84.3014 0.0000 0.0000 0.0000
# 4 0.0000 0.0000 0.0000 29.7236 0.0000 0.0000
# 5 0.0000 0.0000 0.0000 0.0000 32.3148 0.0000
# 6 0.0000 0.0000 0.0000 0.0000 0.0000 25.4835
#
#
#
# Elastic Compliance Matrix: (Units=1/GPa)
#
#
# Indices 1 2 3 4 5 6 
#
# 1 0.014530 -0.000301 -0.008868 0.000000 0.000000 0.000000
# 2 -0.000301 0.014957 -0.006262 0.000000 0.000000 0.000000
# 3 -0.008868 -0.006262 0.020054 0.000000 0.000000 0.000000
# 4 0.000000 0.000000 0.000000 0.033643 0.000000 0.000000
# 5 0.000000 0.000000 0.000000 0.000000 0.030946 0.000000
# 6 0.000000 0.000000 0.000000 0.000000 0.000000 0.039241
#
#
# Mechanical properties :
#
#
# Convention : Reuss Voigt Hill
#
# Bulk Modulus (GPa) = 53.53961 54.77014 54.15487
# Shear Modulus (GPa) = 26.25220 27.87711 27.06465
#
# Velocity S-wave (km/s) = 3.62075 3.73112 3.67635
# Velocity P-wave (km/s) = 6.64954 6.77590 6.71302
#
# Compressibility (1/GPa) = 0.01867776
#
# Stress axis : x y z
#
# Youngs Moduli (GPa) = 68.82077 66.85973 49.86569
#
# Poissons Ratio (x) = 0.02014 0.44222
# Poissons Ratio (y) = 0.02073 0.31227
# Poissons Ratio (z) = 0.61031 0.41870
#
# Static dielectric constant tensor:
#      x y z
#    x 3.619990 0.000000 0.000000 
#    y 0.000000 3.753490 0.000000 
#    z 0.000000 0.000000 3.603240 
# 
# 
# High freq. dielectric constant tensor:
#      x y z
#    x 1.789930 0.000000 0.000000 
#    y 0.000000 1.796340 0.000000 
#    z 0.000000 0.000000 1.784810 
# 
# From -- ./inp_files/3588.got.cif
#   From: 2010.03.12/outbox.cif.g09.slc.cpg/sg55_2_cif.got.tgz:3588.got - 2010.04.16 15:19:21.
