data_PCOD8226838
_publ_section_title
;
Structure prediction by ZEFSAII (Michael W. Deem and Ramdas Pophale) SiO2 
 PCOD8226838
Probable space group: P B A M
;
_chemical_formula_sum "Si O2"
_cell_formula_units_Z 48
_cell_length_a 15.847332
_cell_length_b 18.941716
_cell_length_c 7.747019
_cell_angle_alpha 90.000000
_cell_angle_beta 90.000000
_cell_angle_gamma 90.000000
_cell_volume 2325.466558
_symmetry_space_group_name_H-M "P B A M"
_symmetry_group_IT_number 55
_symmetry_cell_setting 'orthorhombic'
loop_
_space_group_symop_operation_xyz
x,y,z
-x,-y,z
1/2+x,1/2-y,-z
1/2-x,1/2+y,-z
-x,-y,-z
x,y,-z
1/2-x,1/2+y,z
1/2+x,1/2-y,z
loop_
_atom_site_type_symbol
_atom_site_label
_atom_site_fract_x
_atom_site_fract_y
_atom_site_fract_z
Si Si1 0.545362 0.775638 0.706897
Si Si2 0.728315 0.581180 0.808861
Si Si3 0.131972 0.483899 0.000000
Si Si4 0.090893 0.024861 0.204882
Si Si5 0.770562 0.234113 0.694844
Si Si6 0.528284 0.885889 0.000000
Si Si7 0.388293 0.684723 0.301222
O O1 0.541891 0.791472 0.500000
O O2 0.637212 0.749937 0.773679
O O3 0.477186 0.716300 0.765022
O O4 0.523820 0.843710 0.820536
O O5 0.657256 0.532040 0.720236
O O6 0.746972 0.650444 0.697799
O O7 0.697615 0.606158 0.000000
O O8 0.813594 0.534757 0.828195
O O9 0.113245 0.567148 0.000000
O O10 0.049614 0.437592 0.000000
O O11 0.114434 0.101523 0.273791
O O12 0.095664 0.027201 0.000000
O O13 0.000000 0.000000 0.272743
O O14 0.774761 0.260374 0.500000
O O15 0.693505 0.276940 0.788160
O O16 0.382519 0.703752 0.500000
#
# Coordination Sequence:
#
# PCOD8226838 Si02
#       7
#     8   8   4   8   8   4   8
#     4  10  23  39  59  91 122 150 202 251 293 361
#     4   9  20  36  56  78 119 151 188 246 285 345
#     4   9  22  39  54  89 113 148 215 244 278 381
#     4  10  21  35  55  84 118 150 191 235 294 360
#     4  10  21  37  58  86 118 153 198 243 295 357
#     4  11  22  39  65  81 118 162 194 250 311 340
#     4  10  22  38  58  86 118 152 195 245 292 354
#
# _framework density 20.641020000000001
#
# number of rings (size 3 to 8) (size 9 to 14) (size 15 to 20)
#    0.500    1.667    0.000    2.000    4.667    1.667 
#    0.000    2.500    0.000    0.000    0.000    0.000 
#    0.000    0.000    0.000    0.000    0.000    0.000 
#
# Total GULP energy -594848.068941 kJ/mol
# GULP energy per Si atom -12392.668103 kJ/mol
# Density = 2.059404 g / cm^3
# Si number density = 20.641020 Si / 1000 Ang^3
#
#
#
# Elastic Constant Matrix: (Units=GPa)
#
#
# Indices 1 2 3 4 5 6 
#
# 1 158.8433 68.7174 7.4229 0.0000 0.0000 0.0000
# 2 68.7174 140.3377 9.6312 0.0000 0.0000 0.0000
# 3 7.4229 9.6312 38.0416 0.0000 0.0000 0.0000
# 4 0.0000 0.0000 0.0000 19.3850 0.0000 0.0000
# 5 0.0000 0.0000 0.0000 0.0000 2.9625 0.0000
# 6 0.0000 0.0000 0.0000 0.0000 0.0000 43.9025
#
#
#
# Elastic Compliance Matrix: (Units=1/GPa)
#
#
# Indices 1 2 3 4 5 6 
#
# 1 0.008000 -0.003878 -0.000579 0.000000 0.000000 0.000000
# 2 -0.003878 0.009131 -0.001555 0.000000 0.000000 0.000000
# 3 -0.000579 -0.001555 0.026794 0.000000 0.000000 0.000000
# 4 0.000000 0.000000 0.000000 0.051586 0.000000 0.000000
# 5 0.000000 0.000000 0.000000 0.000000 0.337550 0.000000
# 6 0.000000 0.000000 0.000000 0.000000 0.000000 0.022778
#
#
# Mechanical properties :
#
#
# Convention : Reuss Voigt Hill
#
# Bulk Modulus (GPa) = 31.34713 56.52952 43.93832
# Shear Modulus (GPa) = 10.44940 30.01342 20.23141
#
# Velocity S-wave (km/s) = 2.25243 3.81736 3.13414
# Velocity P-wave (km/s) = 4.68875 6.84661 5.86773
#
# Compressibility (1/GPa) = 0.03190085
#
# Stress axis : x y z
#
# Youngs Moduli (GPa) = 124.99934 109.51633 37.32213
#
# Poissons Ratio (x) = 0.42465 0.02162
# Poissons Ratio (y) = 0.48469 0.05804
# Poissons Ratio (z) = 0.07241 0.17032
#
# Static dielectric constant tensor:
#      x y z
#    x 4.218060 0.000000 0.000000 
#    y 0.000000 3.653010 0.000000 
#    z 0.000000 0.000000 3.364810 
# 
# 
# High freq. dielectric constant tensor:
#      x y z
#    x 1.826980 0.000000 0.000000 
#    y 0.000000 1.806990 0.000000 
#    z 0.000000 0.000000 1.777240 
# 
# From -- ./inp_files/5707.got.cif
#   From: 2010.03.12/outbox.cif.g09.slc.cpg/sg55_3_cif.got.tgz:5707.got - 2010.04.16 15:19:21.
