data_PCOD8226219
_publ_section_title
;
Structure prediction by ZEFSAII (Michael W. Deem and Ramdas Pophale) SiO2 
 PCOD8226219
Probable space group: P B A M
;
_chemical_formula_sum "Si O2"
_cell_formula_units_Z 64
_cell_length_a 14.782889
_cell_length_b 24.728611
_cell_length_c 8.743290
_cell_angle_alpha 90.000000
_cell_angle_beta 90.000000
_cell_angle_gamma 90.000000
_cell_volume 3196.199816
_symmetry_space_group_name_H-M "P B A M"
_symmetry_group_IT_number 55
_symmetry_cell_setting 'orthorhombic'
loop_
_space_group_symop_operation_xyz
x,y,z
-x,-y,z
1/2+x,1/2-y,-z
1/2-x,1/2+y,-z
-x,-y,-z
x,y,-z
1/2-x,1/2+y,z
1/2+x,1/2-y,z
loop_
_atom_site_type_symbol
_atom_site_label
_atom_site_fract_x
_atom_site_fract_y
_atom_site_fract_z
Si Si1 0.280231 0.656076 0.678927
Si Si2 0.982415 0.824849 0.675611
Si Si3 0.688586 0.060262 0.176046
Si Si4 0.035125 0.284857 0.826049
Si Si5 0.010419 0.395016 0.678596
Si Si6 0.331265 0.367837 0.324545
Si Si7 0.664694 0.936175 0.823171
Si Si8 0.753876 0.732789 0.175195
O O1 0.267527 0.666166 0.500000
O O2 0.386017 0.649860 0.723987
O O3 0.230014 0.601661 0.725571
O O4 0.236215 0.706325 0.768354
O O5 0.979242 0.805878 0.500000
O O6 0.060055 0.870035 0.701281
O O7 0.006795 0.772104 0.775059
O O8 0.610676 0.086350 0.278350
O O9 0.784152 0.087250 0.219451
O O10 0.697754 0.996904 0.206002
O O11 0.666079 0.073252 0.000000
O O12 0.994661 0.332550 0.722355
O O13 0.142271 0.283366 0.805650
O O14 0.006699 0.296155 0.000000
O O15 0.994444 0.402686 0.500000
O O16 0.938659 0.431948 0.768034
O O17 0.305689 0.379294 0.500000
O O18 0.301739 0.307445 0.281335
O O19 0.671091 0.920101 0.000000
O O20 0.722119 0.727887 0.000000
#
# Coordination Sequence:
#
# PCOD8226219 Si02
#       8
#     8   8   8   8   8   8   8   8
#     4  10  21  40  63  87 120 158 202 254 304 357
#     4   9  21  39  59  87 124 159 198 249 303 355
#     4  11  24  43  63  87 121 159 202 252 303 360
#     4  10  20  35  57  86 122 159 196 239 292 356
#     4  12  24  38  61  90 122 158 198 246 299 363
#     4  11  22  37  61  90 121 159 203 250 302 359
#     4  11  25  43  63  86 118 159 204 253 304 363
#     4  10  20  35  57  85 121 160 197 242 299 358
#
# _framework density 20.023778
#
# number of rings (size 3 to 8) (size 9 to 14) (size 15 to 20)
#    0.000    1.500    1.250    3.750    1.750    6.000 
#    0.000    0.625    0.000    3.750    0.000    0.000 
#    0.000    0.000    0.000    0.000    0.000    0.000 
#
# Total GULP energy -793946.248230 kJ/mol
# GULP energy per Si atom -12405.410129 kJ/mol
# Density = 1.997820 g / cm^3
# Si number density = 20.023778 Si / 1000 Ang^3
#
#
#
# Elastic Constant Matrix: (Units=GPa)
#
#
# Indices 1 2 3 4 5 6 
#
# 1 37.9878 24.3525 7.2393 0.0000 0.0000 0.0000
# 2 24.3525 84.3961 25.1120 0.0000 0.0000 0.0000
# 3 7.2393 25.1120 60.4503 0.0000 0.0000 0.0000
# 4 0.0000 0.0000 0.0000 29.1061 0.0000 0.0000
# 5 0.0000 0.0000 0.0000 0.0000 28.2216 0.0000
# 6 0.0000 0.0000 0.0000 0.0000 0.0000 29.0766
#
#
#
# Elastic Compliance Matrix: (Units=1/GPa)
#
#
# Indices 1 2 3 4 5 6 
#
# 1 0.032299 -0.009321 0.000004 0.000000 0.000000 0.000000
# 2 -0.009321 0.016210 -0.005618 0.000000 0.000000 0.000000
# 3 0.000004 -0.005618 0.018876 0.000000 0.000000 0.000000
# 4 0.000000 0.000000 0.000000 0.034357 0.000000 0.000000
# 5 0.000000 0.000000 0.000000 0.000000 0.035434 0.000000
# 6 0.000000 0.000000 0.000000 0.000000 0.000000 0.034392
#
#
# Mechanical properties :
#
#
# Convention : Reuss Voigt Hill
#
# Bulk Modulus (GPa) = 26.65577 32.91577 29.78577
# Shear Modulus (GPa) = 23.37085 25.68953 24.53019
#
# Velocity S-wave (km/s) = 3.42007 3.58572 3.50387
# Velocity P-wave (km/s) = 5.37929 5.79803 5.59258
#
# Compressibility (1/GPa) = 0.03751533
#
# Stress axis : x y z
#
# Youngs Moduli (GPa) = 30.96088 61.69028 52.97826
#
# Poissons Ratio (x) = 0.57502 -0.00022
# Poissons Ratio (y) = 0.28859 0.29761
# Poissons Ratio (z) = -0.00013 0.34655
#
# Static dielectric constant tensor:
#      x y z
#    x 3.710820 0.000000 0.000000 
#    y 0.000000 3.535830 0.000000 
#    z 0.000000 0.000000 3.715190 
# 
# 
# High freq. dielectric constant tensor:
#      x y z
#    x 1.783340 0.000000 0.000000 
#    y 0.000000 1.769830 0.000000 
#    z 0.000000 0.000000 1.792570 
# 
# From -- ./inp_files/6624.got.cif
#   From: 2010.03.12/outbox.cif.g09.slc.cpg/sg55_4_cif.got.tgz:6624.got - 2010.04.16 15:19:21.
