data_PCOD8226710
_publ_section_title
;
Structure prediction by ZEFSAII (Michael W. Deem and Ramdas Pophale) SiO2 
 PCOD8226710
Probable space group: P B A M
;
_chemical_formula_sum "Si O2"
_cell_formula_units_Z 56
_cell_length_a 14.592599
_cell_length_b 21.514264
_cell_length_c 8.551416
_cell_angle_alpha 90.000000
_cell_angle_beta 90.000000
_cell_angle_gamma 90.000000
_cell_volume 2684.708736
_symmetry_space_group_name_H-M "P B A M"
_symmetry_group_IT_number 55
_symmetry_cell_setting 'orthorhombic'
loop_
_space_group_symop_operation_xyz
x,y,z
-x,-y,z
1/2+x,1/2-y,-z
1/2-x,1/2+y,-z
-x,-y,-z
x,y,-z
1/2-x,1/2+y,z
1/2+x,1/2-y,z
loop_
_atom_site_type_symbol
_atom_site_label
_atom_site_fract_x
_atom_site_fract_y
_atom_site_fract_z
Si Si1 0.827698 0.271584 0.184657
Si Si2 0.510994 0.430195 0.185040
Si Si3 0.516956 0.851387 0.318937
Si Si4 0.873730 0.456330 0.822882
Si Si5 0.200595 0.118826 0.819176
Si Si6 0.661988 0.637239 0.681634
Si Si7 0.155775 0.403204 0.819763
O O1 0.927350 0.299416 0.224132
O O2 0.748900 0.318812 0.248822
O O3 0.814338 0.207488 0.273386
O O4 0.820691 0.261002 0.000000
O O5 0.500000 0.500000 0.254344
O O6 0.602593 0.398065 0.258612
O O7 0.425332 0.387287 0.224945
O O8 0.521661 0.434863 0.000000
O O9 0.514876 0.833419 0.500000
O O10 0.562544 0.919037 0.296515
O O11 0.413664 0.852707 0.252301
O O12 0.767305 0.440000 0.792176
O O13 0.889828 0.529165 0.800483
O O14 0.900308 0.435723 0.000000
O O15 0.184169 0.131670 0.000000
O O16 0.640500 0.631483 0.500000
O O17 0.749611 0.596078 0.725692
O O18 0.175442 0.387080 0.000000
#
# Coordination Sequence:
#
# PCOD8226710 Si02
#       7
#     8   8   8   8   8   8   8
#     4  10  21  41  63  83 112 154 205 248 288 350
#     4  10  20  38  64  91 119 156 202 246 295 362
#     4  11  22  36  57  88 123 154 187 236 298 352
#     4   9  18  35  59  87 117 151 194 237 278 339
#     4   8  16  33  60  88 111 143 192 245 286 333
#     4  12  26  41  57  84 121 154 193 251 310 355
#     4  11  22  38  60  84 113 155 201 238 281 344
#
# _framework density 20.858872999999999
#
# number of rings (size 3 to 8) (size 9 to 14) (size 15 to 20)
#    0.000    1.857    0.000    5.571    0.000    6.571 
#    0.000    7.857    0.000    0.000    0.000    0.000 
#    0.000    0.000    0.000    0.000    0.000    0.000 
#
# Total GULP energy -694463.590826 kJ/mol
# GULP energy per Si atom -12401.135550 kJ/mol
# Density = 2.081140 g / cm^3
# Si number density = 20.858873 Si / 1000 Ang^3
#
#
#
# Elastic Constant Matrix: (Units=GPa)
#
#
# Indices 1 2 3 4 5 6 
#
# 1 94.4152 11.0495 8.3544 0.0000 0.0000 0.0000
# 2 11.0495 72.9725 12.5480 0.0000 0.0000 0.0000
# 3 8.3544 12.5480 40.0659 0.0000 0.0000 0.0000
# 4 0.0000 0.0000 0.0000 20.7659 0.0000 0.0000
# 5 0.0000 0.0000 0.0000 0.0000 20.4108 0.0000
# 6 0.0000 0.0000 0.0000 0.0000 0.0000 24.0604
#
#
#
# Elastic Compliance Matrix: (Units=1/GPa)
#
#
# Indices 1 2 3 4 5 6 
#
# 1 0.010912 -0.001333 -0.001858 0.000000 0.000000 0.000000
# 2 -0.001333 0.014647 -0.004309 0.000000 0.000000 0.000000
# 3 -0.001858 -0.004309 0.026696 0.000000 0.000000 0.000000
# 4 0.000000 0.000000 0.000000 0.048156 0.000000 0.000000
# 5 0.000000 0.000000 0.000000 0.000000 0.048994 0.000000
# 6 0.000000 0.000000 0.000000 0.000000 0.000000 0.041562
#
#
# Mechanical properties :
#
#
# Convention : Reuss Voigt Hill
#
# Bulk Modulus (GPa) = 26.84230 30.15080 28.49655
# Shear Modulus (GPa) = 22.89548 24.74754 23.82151
#
# Velocity S-wave (km/s) = 3.31666 3.44819 3.38306
# Velocity P-wave (km/s) = 5.25009 5.50812 5.38065
#
# Compressibility (1/GPa) = 0.03725464
#
# Stress axis : x y z
#
# Youngs Moduli (GPa) = 91.64312 68.27527 37.45899
#
# Poissons Ratio (x) = 0.09100 0.06959
# Poissons Ratio (y) = 0.12214 0.16142
# Poissons Ratio (z) = 0.17026 0.29421
#
# Static dielectric constant tensor:
#      x y z
#    x 3.937490 0.000000 0.000000 
#    y 0.000000 3.736890 0.000000 
#    z 0.000000 0.000000 3.495430 
# 
# 
# High freq. dielectric constant tensor:
#      x y z
#    x 1.827830 0.000000 0.000000 
#    y 0.000000 1.812230 0.000000 
#    z 0.000000 0.000000 1.791730 
# 
# From -- ./inp_files/6125.got.cif
#   From: 2010.03.12/outbox.cif.g09.slc.cpg/sg55_4_cif.got.tgz:6125.got - 2010.04.16 15:19:21.
