data_PCOD8226757
_publ_section_title
;
Structure prediction by ZEFSAII (Michael W. Deem and Ramdas Pophale) SiO2 
 PCOD8226757
Probable space group: P B A M
;
_chemical_formula_sum "Si O2"
_cell_formula_units_Z 64
_cell_length_a 32.199879
_cell_length_b 10.884947
_cell_length_c 8.934614
_cell_angle_alpha 90.000000
_cell_angle_beta 90.000000
_cell_angle_gamma 90.000000
_cell_volume 3131.528388
_symmetry_space_group_name_H-M "P B A M"
_symmetry_group_IT_number 55
_symmetry_cell_setting 'orthorhombic'
loop_
_space_group_symop_operation_xyz
x,y,z
-x,-y,z
1/2+x,1/2-y,-z
1/2-x,1/2+y,-z
-x,-y,-z
x,y,-z
1/2-x,1/2+y,z
1/2+x,1/2-y,z
loop_
_atom_site_type_symbol
_atom_site_label
_atom_site_fract_x
_atom_site_fract_y
_atom_site_fract_z
Si Si1 0.031571 0.891679 0.675392
Si Si2 0.404724 0.894687 0.166449
Si Si3 0.014188 0.360288 0.326735
Si Si4 0.783009 0.539760 0.670893
Si Si5 0.138083 0.610145 0.671081
Si Si6 0.175058 0.246251 0.165430
Si Si7 0.117386 0.856542 0.824454
Si Si8 0.688026 0.492846 0.671754
O O1 0.038240 0.906677 0.500000
O O2 0.076054 0.914219 0.752057
O O3 0.017546 0.750814 0.713529
O O4 0.000000 0.000000 0.730879
O O5 0.446709 0.832952 0.223099
O O6 0.372609 0.784004 0.158881
O O7 0.389995 0.994044 0.287243
O O8 0.410190 0.952580 0.000000
O O9 0.026485 0.350783 0.500000
O O10 0.000000 0.500000 0.288861
O O11 0.787137 0.587903 0.500000
O O12 0.812950 0.420842 0.691286
O O13 0.795988 0.640904 0.789892
O O14 0.736171 0.508097 0.711702
O O15 0.128315 0.647505 0.500000
O O16 0.123666 0.715883 0.781020
O O17 0.178260 0.147339 0.295074
O O18 0.188961 0.199357 0.000000
O O19 0.159144 0.923908 0.773721
O O20 0.112604 0.869823 0.000000
O O21 0.678738 0.524690 0.500000
#
# Coordination Sequence:
#
# PCOD8226757 Si02
#       8
#     8   8   8   8   8   8   8   8
#     4  10  23  43  65  92 124 164 213 262 314 378
#     4  10  21  37  60  91 126 160 198 247 308 368
#     4  10  21  37  61  91 121 157 206 259 310 370
#     4   9  21  40  63  90 118 159 208 254 303 358
#     4  10  20  39  65  92 125 164 207 256 304 361
#     4  10  22  39  59  89 125 158 197 249 308 366
#     4  12  26  42  62  92 127 165 205 251 318 377
#     4  11  24  41  63  88 120 163 213 257 299 363
#
# _framework density 20.437304999999999
#
# number of rings (size 3 to 8) (size 9 to 14) (size 15 to 20)
#    0.000    1.750    0.000    3.375    3.500    5.000 
#    0.000    0.000    0.000    0.000    0.000    0.000 
#    0.000    0.000    0.000    0.000    0.000    0.000 
#
# Total GULP energy -793536.168338 kJ/mol
# GULP energy per Si atom -12399.002630 kJ/mol
# Density = 2.039079 g / cm^3
# Si number density = 20.437305 Si / 1000 Ang^3
#
#
#
# Elastic Constant Matrix: (Units=GPa)
#
#
# Indices 1 2 3 4 5 6 
#
# 1 108.1038 21.7440 52.2730 0.0000 0.0000 0.0000
# 2 21.7440 59.6496 18.7807 0.0000 0.0000 0.0000
# 3 52.2730 18.7807 80.2620 0.0000 0.0000 0.0000
# 4 0.0000 0.0000 0.0000 27.8144 0.0000 0.0000
# 5 0.0000 0.0000 0.0000 0.0000 25.4245 0.0000
# 6 0.0000 0.0000 0.0000 0.0000 0.0000 9.5153
#
#
#
# Elastic Compliance Matrix: (Units=1/GPa)
#
#
# Indices 1 2 3 4 5 6 
#
# 1 0.013808 -0.002377 -0.008437 0.000000 0.000000 0.000000
# 2 -0.002377 0.018507 -0.002782 0.000000 0.000000 0.000000
# 3 -0.008437 -0.002782 0.018605 0.000000 0.000000 0.000000
# 4 0.000000 0.000000 0.000000 0.035953 0.000000 0.000000
# 5 0.000000 0.000000 0.000000 0.000000 0.039332 0.000000
# 6 0.000000 0.000000 0.000000 0.000000 0.000000 0.105094
#
#
# Mechanical properties :
#
#
# Convention : Reuss Voigt Hill
#
# Bulk Modulus (GPa) = 42.14477 48.17897 45.16187
# Shear Modulus (GPa) = 18.76878 22.89869 20.83373
#
# Velocity S-wave (km/s) = 3.03373 3.35092 3.19626
# Velocity P-wave (km/s) = 5.73913 6.21263 5.98057
#
# Compressibility (1/GPa) = 0.02372774
#
# Stress axis : x y z
#
# Youngs Moduli (GPa) = 72.42186 54.03327 53.74952
#
# Poissons Ratio (x) = 0.12844 0.45346
# Poissons Ratio (y) = 0.17216 0.14955
# Poissons Ratio (z) = 0.61100 0.15034
#
# Static dielectric constant tensor:
#      x y z
#    x 4.106010 0.000000 0.000000 
#    y 0.000000 3.791060 0.000000 
#    z 0.000000 0.000000 3.733000 
# 
# 
# High freq. dielectric constant tensor:
#      x y z
#    x 1.807630 0.000000 0.000000 
#    y 0.000000 1.793510 0.000000 
#    z 0.000000 0.000000 1.802260 
# 
# From -- ./inp_files/10804.got.cif
#   From: 2010.03.12/outbox.cif.g09.slc.cpg/sg55_6_cif.got.tgz:10804.got - 2010.04.16 15:19:21.
