data_PCOD8226368
_publ_section_title
;
Structure prediction by ZEFSAII (Michael W. Deem and Ramdas Pophale) SiO2 
 PCOD8226368
Probable space group: P B A M
;
_chemical_formula_sum "Si O2"
_cell_formula_units_Z 56
_cell_length_a 14.820440
_cell_length_b 21.131050
_cell_length_c 9.190596
_cell_angle_alpha 90.000000
_cell_angle_beta 90.000000
_cell_angle_gamma 90.000000
_cell_volume 2878.232355
_symmetry_space_group_name_H-M "P B A M"
_symmetry_group_IT_number 55
_symmetry_cell_setting 'orthorhombic'
loop_
_space_group_symop_operation_xyz
x,y,z
-x,-y,z
1/2+x,1/2-y,-z
1/2-x,1/2+y,-z
-x,-y,-z
x,y,-z
1/2-x,1/2+y,z
1/2+x,1/2-y,z
loop_
_atom_site_type_symbol
_atom_site_label
_atom_site_fract_x
_atom_site_fract_y
_atom_site_fract_z
Si Si1 0.795869 0.897611 0.670332
Si Si2 0.734383 0.758159 0.670341
Si Si3 0.636949 0.979737 0.329854
Si Si4 0.033117 0.401782 0.671040
Si Si5 0.476683 0.570215 0.170092
Si Si6 0.591178 0.217658 0.166955
Si Si7 0.572388 0.693566 0.165274
O O1 0.816768 0.903146 0.500000
O O2 0.742191 0.832663 0.704873
O O3 0.732555 0.954711 0.730699
O O4 0.889513 0.901581 0.752275
O O5 0.737968 0.744505 0.500000
O O6 0.817319 0.722730 0.743635
O O7 0.641568 0.728517 0.728800
O O8 0.636243 0.967225 0.500000
O O9 0.554289 0.938460 0.269529
O O10 0.620992 0.053924 0.296962
O O11 0.027391 0.384608 0.500000
O O12 0.035810 0.340311 0.768475
O O13 0.500000 0.500000 0.230031
O O14 0.560512 0.618430 0.200336
O O15 0.454659 0.567167 0.000000
O O16 0.528125 0.278654 0.185469
O O17 0.616201 0.205194 0.000000
O O18 0.606150 0.703757 0.000000
#
# Coordination Sequence:
#
# PCOD8226368 Si02
#       7
#     8   8   8   8   8   8   8
#     4  10  20  36  58  85 114 147 194 243 291 349
#     4  11  23  37  60  89 114 148 195 245 293 349
#     4   8  16  32  55  82 113 149 186 234 292 342
#     4   9  17  33  56  81 114 152 190 234 285 341
#     4  10  22  41  62  83 113 155 198 239 292 354
#     4  11  22  37  57  82 117 154 187 233 290 347
#     4  10  22  40  60  84 117 155 194 242 297 352
#
# _framework density 19.456385999999998
#
# number of rings (size 3 to 8) (size 9 to 14) (size 15 to 20)
#    0.000    2.143    1.429    2.571    0.000    4.857 
#    0.000    5.714    0.000    0.000    0.000    0.000 
#    0.000    0.000    0.000    0.000    0.000    0.000 
#
# Total GULP energy -694238.656837 kJ/mol
# GULP energy per Si atom -12397.118872 kJ/mol
# Density = 1.941210 g / cm^3
# Si number density = 19.456386 Si / 1000 Ang^3
#
#
#
# Elastic Constant Matrix: (Units=GPa)
#
#
# Indices 1 2 3 4 5 6 
#
# 1 81.0627 23.2540 41.4509 0.0000 0.0000 0.0000
# 2 23.2540 100.4961 43.4116 0.0000 0.0000 0.0000
# 3 41.4509 43.4116 78.2922 0.0000 0.0000 0.0000
# 4 0.0000 0.0000 0.0000 23.5684 0.0000 0.0000
# 5 0.0000 0.0000 0.0000 0.0000 32.1630 0.0000
# 6 0.0000 0.0000 0.0000 0.0000 0.0000 30.1836
#
#
#
# Elastic Compliance Matrix: (Units=1/GPa)
#
#
# Indices 1 2 3 4 5 6 
#
# 1 0.016916 -0.000060 -0.008923 0.000000 0.000000 0.000000
# 2 -0.000060 0.013085 -0.007224 0.000000 0.000000 0.000000
# 3 -0.008923 -0.007224 0.021502 0.000000 0.000000 0.000000
# 4 0.000000 0.000000 0.000000 0.042430 0.000000 0.000000
# 5 0.000000 0.000000 0.000000 0.000000 0.031092 0.000000
# 6 0.000000 0.000000 0.000000 0.000000 0.000000 0.033131
#
#
# Mechanical properties :
#
#
# Convention : Reuss Voigt Hill
#
# Bulk Modulus (GPa) = 52.38229 52.89821 52.64025
# Shear Modulus (GPa) = 25.38965 27.29864 26.34414
#
# Velocity S-wave (km/s) = 3.61633 3.74982 3.68368
# Velocity P-wave (km/s) = 6.66472 6.78198 6.72361
#
# Compressibility (1/GPa) = 0.01909042
#
# Stress axis : x y z
#
# Youngs Moduli (GPa) = 59.11605 76.42393 46.50709
#
# Poissons Ratio (x) = 0.00457 0.41497
# Poissons Ratio (y) = 0.00354 0.33595
# Poissons Ratio (z) = 0.52748 0.55206
#
# Static dielectric constant tensor:
#      x y z
#    x 3.551260 0.000000 0.000000 
#    y 0.000000 3.769080 0.000000 
#    z 0.000000 0.000000 3.348050 
# 
# 
# High freq. dielectric constant tensor:
#      x y z
#    x 1.754010 0.000000 0.000000 
#    y 0.000000 1.767880 0.000000 
#    z 0.000000 0.000000 1.738540 
# 
# From -- ./inp_files/5995.got.cif
#   From: 2010.03.12/outbox.cif.g09.slc.cpg/sg55_3_cif.got.tgz:5995.got - 2010.04.16 15:19:21.
