data_PCOD8226395
_publ_section_title
;
Structure prediction by ZEFSAII (Michael W. Deem and Ramdas Pophale) SiO2 
 PCOD8226395
Probable space group: P B A M
;
_chemical_formula_sum "Si O2"
_cell_formula_units_Z 48
_cell_length_a 18.690882
_cell_length_b 14.854884
_cell_length_c 9.066654
_cell_angle_alpha 90.000000
_cell_angle_beta 90.000000
_cell_angle_gamma 90.000000
_cell_volume 2517.364498
_symmetry_space_group_name_H-M "P B A M"
_symmetry_group_IT_number 55
_symmetry_cell_setting 'orthorhombic'
loop_
_space_group_symop_operation_xyz
x,y,z
-x,-y,z
1/2+x,1/2-y,-z
1/2-x,1/2+y,-z
-x,-y,-z
x,y,-z
1/2-x,1/2+y,z
1/2+x,1/2-y,z
loop_
_atom_site_type_symbol
_atom_site_label
_atom_site_fract_x
_atom_site_fract_y
_atom_site_fract_z
Si Si1 0.911905 0.741040 0.673091
Si Si2 0.213031 0.998581 0.825763
Si Si3 0.930309 0.945747 0.327433
Si Si4 0.826493 0.360413 0.170478
Si Si5 0.016857 0.602499 0.174092
Si Si6 0.267964 0.804058 0.829821
O O1 0.913931 0.723593 0.500000
O O2 0.939994 0.840732 0.713592
O O3 0.831131 0.732065 0.728575
O O4 0.959958 0.667050 0.751169
O O5 0.245285 0.902856 0.780531
O O6 0.136221 0.010578 0.754646
O O7 0.267913 0.072274 0.759636
O O8 0.203259 0.008537 0.000000
O O9 0.916971 0.957905 0.500000
O O10 0.000000 0.000000 0.274398
O O11 0.904904 0.373756 0.240420
O O12 0.801406 0.258382 0.194857
O O13 0.833072 0.386656 0.000000
O O14 0.000000 0.500000 0.215708
O O15 0.012148 0.618830 0.000000
O O16 0.293251 0.801115 0.000000
#
# Coordination Sequence:
#
# PCOD8226395 Si02
#       6
#     8   8   8   8   8   8
#     4  11  23  39  59  86 118 156 197 237 287 346
#     4  10  20  36  61  88 111 142 189 240 290 342
#     4  10  23  41  57  79 118 161 196 235 288 345
#     4   9  18  34  55  83 114 143 182 233 286 341
#     4  10  21  38  61  87 118 155 191 236 295 348
#     4  10  20  36  59  85 113 146 189 243 293 343
#
# _framework density 19.06756
#
# number of rings (size 3 to 8) (size 9 to 14) (size 15 to 20)
#    0.000    2.000    1.667    1.500    2.333    4.667 
#    0.000    1.667    0.000    0.000    0.000    0.000 
#    0.000    0.000    0.000    0.000    0.000    0.000 
#
# Total GULP energy -595316.966094 kJ/mol
# GULP energy per Si atom -12402.436794 kJ/mol
# Density = 1.902416 g / cm^3
# Si number density = 19.067560 Si / 1000 Ang^3
#
#
#
# Elastic Constant Matrix: (Units=GPa)
#
#
# Indices 1 2 3 4 5 6 
#
# 1 115.3033 36.1959 33.3215 0.0000 0.0000 0.0000
# 2 36.1959 119.4498 38.4128 0.0000 0.0000 0.0000
# 3 33.3215 38.4128 38.9146 0.0000 0.0000 0.0000
# 4 0.0000 0.0000 0.0000 2.5664 0.0000 0.0000
# 5 0.0000 0.0000 0.0000 0.0000 -49.8842 0.0000
# 6 0.0000 0.0000 0.0000 0.0000 0.0000 37.1772
#
#
#
# Elastic Compliance Matrix: (Units=1/GPa)
#
#
# Indices 1 2 3 4 5 6 
#
# 1 0.011542 -0.000468 -0.009422 0.000000 0.000000 0.000000
# 2 -0.000468 0.012284 -0.011725 0.000000 0.000000 0.000000
# 3 -0.009422 -0.011725 0.045339 0.000000 0.000000 0.000000
# 4 0.000000 0.000000 0.000000 0.389645 0.000000 0.000000
# 5 0.000000 0.000000 0.000000 0.000000 -0.020046 0.000000
# 6 0.000000 0.000000 0.000000 0.000000 0.000000 0.026898
#
#
# Mechanical properties :
#
#
# Convention : Reuss Voigt Hill
#
# Bulk Modulus (GPa) = 38.55638 54.39201 46.47420
# Shear Modulus (GPa) = 9.66116 9.02106 9.34111
#
# Velocity S-wave (km/s) = 2.25340 2.17747 2.21576
# Velocity P-wave (km/s) = 5.19954 5.90844 5.56529
#
# Compressibility (1/GPa) = 0.02593604
#
# Stress axis : x y z
#
# Youngs Moduli (GPa) = 86.63714 81.40654 22.05619
#
# Poissons Ratio (x) = 0.03808 0.20781
# Poissons Ratio (y) = 0.04052 0.25861
# Poissons Ratio (z) = 0.81627 0.95450
#
# Static dielectric constant tensor:
#      x y z
#    x 3.641030 0.000000 0.000000 
#    y 0.000000 3.756940 0.000000 
#    z 0.000000 0.000000 3.250930 
# 
# 
# High freq. dielectric constant tensor:
#      x y z
#    x 1.753030 0.000000 0.000000 
#    y 0.000000 1.759340 0.000000 
#    z 0.000000 0.000000 1.712990 
# 
# From -- ./inp_files/5555.got.cif
#   From: 2010.03.12/outbox.cif.g09.slc.cpg/sg55_3_cif.got.tgz:5555.got - 2010.04.16 15:19:21.
