data_PCOD8226555
_publ_section_title
;
Structure prediction by ZEFSAII (Michael W. Deem and Ramdas Pophale) SiO2 
 PCOD8226555
Probable space group: P B A M
;
_chemical_formula_sum "Si O2"
_cell_formula_units_Z 56
_cell_length_a 21.129900
_cell_length_b 14.799354
_cell_length_c 8.965806
_cell_angle_alpha 90.000000
_cell_angle_beta 90.000000
_cell_angle_gamma 90.000000
_cell_volume 2803.687064
_symmetry_space_group_name_H-M "P B A M"
_symmetry_group_IT_number 55
_symmetry_cell_setting 'orthorhombic'
loop_
_space_group_symop_operation_xyz
x,y,z
-x,-y,z
1/2+x,1/2-y,-z
1/2-x,1/2+y,-z
-x,-y,-z
x,y,-z
1/2-x,1/2+y,z
1/2+x,1/2-y,z
loop_
_atom_site_type_symbol
_atom_site_label
_atom_site_fract_x
_atom_site_fract_y
_atom_site_fract_z
Si Si1 0.427808 0.016113 0.823431
Si Si2 0.401186 0.535896 0.329305
Si Si3 0.398026 0.216579 0.824229
Si Si4 0.723879 0.421060 0.171284
Si Si5 0.478130 0.356764 0.330343
Si Si6 0.238318 0.778496 0.827123
Si Si7 0.188488 0.441273 0.323465
O O1 0.406212 0.114752 0.765393
O O2 0.500000 0.000000 0.773491
O O3 0.382459 0.942131 0.744497
O O4 0.420395 0.004936 0.000000
O O5 0.376628 0.537051 0.500000
O O6 0.344284 0.541367 0.214463
O O7 0.436436 0.443636 0.292079
O O8 0.448470 0.619866 0.302285
O O9 0.458469 0.274172 0.773777
O O10 0.333082 0.262330 0.765994
O O11 0.396208 0.212673 0.000000
O O12 0.723382 0.313966 0.196274
O O13 0.777208 0.467086 0.271932
O O14 0.738691 0.445429 0.000000
O O15 0.467042 0.327225 0.500000
O O16 0.271974 0.855217 0.731712
O O17 0.237627 0.808049 0.000000
O O18 0.184353 0.437284 0.500000
#
# Coordination Sequence:
#
# PCOD8226555 Si02
#       7
#     8   8   8   8   8   8   8
#     4  10  22  43  67  88 119 162 207 256 309 365
#     4   9  19  36  55  82 119 157 196 240 301 359
#     4  10  20  37  60  87 115 153 205 252 300 364
#     4  11  22  39  62  87 118 155 199 249 300 355
#     4   9  19  35  55  80 117 159 194 239 297 360
#     4  10  22  40  62  86 118 158 204 252 301 364
#     4  12  25  40  62  92 126 160 202 255 313 375
#
# _framework density 19.973697000000001
#
# number of rings (size 3 to 8) (size 9 to 14) (size 15 to 20)
#    0.000    1.857    1.429    3.429    0.000    7.143 
#    0.000    5.714    0.000    0.000    0.000    0.000 
#    0.000    0.000    0.000    0.000    0.000    0.000 
#
# Total GULP energy -694510.672353 kJ/mol
# GULP energy per Si atom -12401.976292 kJ/mol
# Density = 1.992824 g / cm^3
# Si number density = 19.973697 Si / 1000 Ang^3
#
#
#
# Elastic Constant Matrix: (Units=GPa)
#
#
# Indices 1 2 3 4 5 6 
#
# 1 123.3024 41.3380 47.9512 0.0000 0.0000 0.0000
# 2 41.3380 86.0040 39.6197 0.0000 0.0000 0.0000
# 3 47.9512 39.6197 69.2984 0.0000 0.0000 0.0000
# 4 0.0000 0.0000 0.0000 7.1279 0.0000 0.0000
# 5 0.0000 0.0000 0.0000 0.0000 32.5136 0.0000
# 6 0.0000 0.0000 0.0000 0.0000 0.0000 31.6458
#
#
#
# Elastic Compliance Matrix: (Units=1/GPa)
#
#
# Indices 1 2 3 4 5 6 
#
# 1 0.011486 -0.002524 -0.006505 0.000000 0.000000 0.000000
# 2 -0.002524 0.016339 -0.007595 0.000000 0.000000 0.000000
# 3 -0.006505 -0.007595 0.023273 0.000000 0.000000 0.000000
# 4 0.000000 0.000000 0.000000 0.140294 0.000000 0.000000
# 5 0.000000 0.000000 0.000000 0.000000 0.030756 0.000000
# 6 0.000000 0.000000 0.000000 0.000000 0.000000 0.031600
#
#
# Mechanical properties :
#
#
# Convention : Reuss Voigt Hill
#
# Bulk Modulus (GPa) = 56.01862 59.60251 57.81057
# Shear Modulus (GPa) = 17.06790 24.23719 20.65254
#
# Velocity S-wave (km/s) = 2.92639 3.48725 3.21906
# Velocity P-wave (km/s) = 6.28692 6.79116 6.54390
#
# Compressibility (1/GPa) = 0.01785121
#
# Stress axis : x y z
#
# Youngs Moduli (GPa) = 87.06256 61.20145 42.96741
#
# Poissons Ratio (x) = 0.15449 0.27948
# Poissons Ratio (y) = 0.21977 0.32634
# Poissons Ratio (z) = 0.56630 0.46483
#
# Static dielectric constant tensor:
#      x y z
#    x 3.810830 0.000000 0.000000 
#    y 0.000000 3.619540 0.000000 
#    z 0.000000 0.000000 3.444740 
# 
# 
# High freq. dielectric constant tensor:
#      x y z
#    x 1.787510 0.000000 0.000000 
#    y 0.000000 1.779650 0.000000 
#    z 0.000000 0.000000 1.766260 
# 
# From -- ./inp_files/6147.got.cif
#   From: 2010.03.12/outbox.cif.g09.slc.cpg/sg55_4_cif.got.tgz:6147.got - 2010.04.16 15:19:21.
