data_PCOD8226542
_publ_section_title
;
Structure prediction by ZEFSAII (Michael W. Deem and Ramdas Pophale) SiO2 
 PCOD8226542
Probable space group: P B A M
;
_chemical_formula_sum "Si O2"
_cell_formula_units_Z 64
_cell_length_a 23.957499
_cell_length_b 14.573819
_cell_length_c 8.947638
_cell_angle_alpha 90.000000
_cell_angle_beta 90.000000
_cell_angle_gamma 90.000000
_cell_volume 3124.087977
_symmetry_space_group_name_H-M "P B A M"
_symmetry_group_IT_number 55
_symmetry_cell_setting 'orthorhombic'
loop_
_space_group_symop_operation_xyz
x,y,z
-x,-y,z
1/2+x,1/2-y,-z
1/2-x,1/2+y,-z
-x,-y,-z
x,y,-z
1/2-x,1/2+y,z
1/2+x,1/2-y,z
loop_
_atom_site_type_symbol
_atom_site_label
_atom_site_fract_x
_atom_site_fract_y
_atom_site_fract_z
Si Si1 0.620770 0.895758 0.323773
Si Si2 0.552849 0.273754 0.327599
Si Si3 0.874299 0.603799 0.671591
Si Si4 0.156541 0.103658 0.327138
Si Si5 0.438425 0.265066 0.176635
Si Si6 0.653292 0.611135 0.674089
Si Si7 0.766908 0.394241 0.168170
Si Si8 0.264460 0.887957 0.167869
O O1 0.616939 0.881459 0.500000
O O2 0.573531 0.835090 0.245308
O O3 0.681123 0.860540 0.267609
O O4 0.609799 0.001148 0.275760
O O5 0.536510 0.291351 0.500000
O O6 0.572499 0.168699 0.304554
O O7 0.601517 0.342613 0.276031
O O8 0.500533 0.294418 0.222958
O O9 0.854991 0.600952 0.500000
O O10 0.822504 0.646510 0.762320
O O11 0.169623 0.121956 0.500000
O O12 0.209159 0.143972 0.235575
O O13 0.146901 0.996702 0.295293
O O14 0.396545 0.340461 0.239808
O O15 0.433191 0.261004 0.000000
O O16 0.649804 0.635477 0.500000
O O17 0.712146 0.649014 0.737045
O O18 0.764515 0.503054 0.171964
O O19 0.774324 0.356870 0.000000
O O20 0.259186 0.849889 0.000000
#
# Coordination Sequence:
#
# PCOD8226542 Si02
#       8
#     8   8   8   8   8   8   8   8
#     4  10  20  37  60  84 112 148 188 230 277 330
#     4  10  22  41  60  81 110 145 189 233 273 326
#     4   9  19  36  60  86 113 148 188 229 274 329
#     4   9  19  36  60  86 113 148 188 229 274 329
#     4  12  26  41  56  79 110 145 189 237 285 336
#     4  10  20  37  60  84 112 148 188 230 277 330
#     4   9  17  31  54  85 119 150 182 225 277 331
#     4   9  17  31  54  85 119 150 182 225 277 331
#
# _framework density 20.485977999999999
#
# number of rings (size 3 to 8) (size 9 to 14) (size 15 to 20)
#    0.000    2.250    0.000    2.625    0.000    7.000 
#    0.000    8.750    0.000    0.000    0.000    0.000 
#    0.000    0.000    0.000    0.000    0.000    0.000 
#
# Total GULP energy -793781.816418 kJ/mol
# GULP energy per Si atom -12402.840882 kJ/mol
# Density = 2.043935 g / cm^3
# Si number density = 20.485978 Si / 1000 Ang^3
#
#
#
# Elastic Constant Matrix: (Units=GPa)
#
#
# Indices 1 2 3 4 5 6 
#
# 1 87.6387 -5.0531 37.9324 0.0000 0.0000 0.0000
# 2 -5.0531 22.4399 5.2283 0.0000 0.0000 0.0000
# 3 37.9324 5.2283 111.4095 0.0000 0.0000 0.0000
# 4 0.0000 0.0000 0.0000 19.5791 0.0000 0.0000
# 5 0.0000 0.0000 0.0000 0.0000 28.7001 0.0000
# 6 0.0000 0.0000 0.0000 0.0000 0.0000 27.0652
#
#
#
# Elastic Compliance Matrix: (Units=1/GPa)
#
#
# Indices 1 2 3 4 5 6 
#
# 1 0.013770 0.004240 -0.004887 0.000000 0.000000 0.000000
# 2 0.004240 0.046361 -0.003619 0.000000 0.000000 0.000000
# 3 -0.004887 -0.003619 0.010810 0.000000 0.000000 0.000000
# 4 0.000000 0.000000 0.000000 0.051075 0.000000 0.000000
# 5 0.000000 0.000000 0.000000 0.000000 0.034843 0.000000
# 6 0.000000 0.000000 0.000000 0.000000 0.000000 0.036948
#
#
# Mechanical properties :
#
#
# Convention : Reuss Voigt Hill
#
# Bulk Modulus (GPa) = 16.02373 33.07816 24.55095
# Shear Modulus (GPa) = 22.40709 27.29426 24.85067
#
# Velocity S-wave (km/s) = 3.31082 3.65408 3.48668
# Velocity P-wave (km/s) = 4.73858 5.82965 5.31220
#
# Compressibility (1/GPa) = 0.06240743
#
# Stress axis : x y z
#
# Youngs Moduli (GPa) = 72.61981 21.56969 92.50862
#
# Poissons Ratio (x) = -0.09145 0.45213
# Poissons Ratio (y) = -0.30788 0.33481
# Poissons Ratio (z) = 0.35493 0.07806
#
# Static dielectric constant tensor:
#      x y z
#    x 3.688590 0.000000 0.000000 
#    y 0.000000 3.704750 0.000000 
#    z 0.000000 0.000000 3.754520 
# 
# 
# High freq. dielectric constant tensor:
#      x y z
#    x 1.797570 0.000000 0.000000 
#    y 0.000000 1.800560 0.000000 
#    z 0.000000 0.000000 1.800620 
# 
# From -- ./inp_files/9659.got.cif
#   From: 2010.03.12/outbox.cif.g09.slc.cpg/sg55_5_cif.got.tgz:9659.got - 2010.04.16 15:19:21.
