data_PCOD8226659
_publ_section_title
;
Structure prediction by ZEFSAII (Michael W. Deem and Ramdas Pophale) SiO2 
 PCOD8226659
Probable space group: P B A M
;
_chemical_formula_sum "Si O2"
_cell_formula_units_Z 48
_cell_length_a 9.912796
_cell_length_b 30.114876
_cell_length_c 8.190408
_cell_angle_alpha 90.000000
_cell_angle_beta 90.000000
_cell_angle_gamma 90.000000
_cell_volume 2445.022074
_symmetry_space_group_name_H-M "P B A M"
_symmetry_group_IT_number 55
_symmetry_cell_setting 'orthorhombic'
loop_
_space_group_symop_operation_xyz
x,y,z
-x,-y,z
1/2+x,1/2-y,-z
1/2-x,1/2+y,-z
-x,-y,-z
x,y,-z
1/2-x,1/2+y,z
1/2+x,1/2-y,z
loop_
_atom_site_type_symbol
_atom_site_label
_atom_site_fract_x
_atom_site_fract_y
_atom_site_fract_z
Si Si1 0.966461 0.638336 0.675982
Si Si2 0.134614 0.282771 0.500000
Si Si3 0.559514 0.701107 0.500000
Si Si4 0.240408 0.921506 0.183060
Si Si5 0.717424 0.899446 0.815986
Si Si6 0.499806 0.359636 0.809646
Si Si7 0.150417 0.506934 0.687364
O O1 0.026824 0.623789 0.500000
O O2 0.909935 0.688975 0.662244
O O3 0.842065 0.605987 0.706255
O O4 0.087894 0.633251 0.803965
O O5 0.295251 0.274701 0.500000
O O6 0.061794 0.235904 0.500000
O O7 0.549964 0.674383 0.670769
O O8 0.088424 0.904284 0.208341
O O9 0.245739 0.973745 0.223429
O O10 0.289204 0.913293 0.000000
O O11 0.847760 0.871807 0.762370
O O12 0.699196 0.942800 0.706270
O O13 0.733344 0.916061 0.000000
O O14 0.489386 0.341618 0.000000
O O15 0.150089 0.493447 0.500000
O O16 0.000000 0.500000 0.761369
#
# Coordination Sequence:
#
# PCOD8226659 Si02
#       7
#     8   4   4   8   8   8   8
#     4  10  20  38  60  91 122 157 215 251 310 382
#     4  10  26  40  72  99 123 163 210 252 328 386
#     4  12  24  48  72  97 132 166 201 267 325 393
#     4  11  21  39  63  87 125 173 211 262 314 367
#     4  11  23  39  60  93 128 170 215 263 316 367
#     4  10  25  44  67  95 131 172 213 262 320 385
#     4  11  23  35  56  90 128 166 218 269 307 367
#
# _framework density 19.631724999999999
#
# number of rings (size 3 to 8) (size 9 to 14) (size 15 to 20)
#    0.500    0.833    3.333    2.000    5.833    1.333 
#    0.000    5.833    0.000    0.000    0.000    0.000 
#    0.000    0.000    0.000    0.000    0.000    0.000 
#
# Total GULP energy -594972.959771 kJ/mol
# GULP energy per Si atom -12395.269995 kJ/mol
# Density = 1.958704 g / cm^3
# Si number density = 19.631725 Si / 1000 Ang^3
#
#
#
# Elastic Constant Matrix: (Units=GPa)
#
#
# Indices 1 2 3 4 5 6 
#
# 1 121.6009 31.8132 28.0031 0.0000 0.0000 0.0000
# 2 31.8132 76.5645 34.3329 0.0000 0.0000 0.0000
# 3 28.0031 34.3329 70.9226 0.0000 0.0000 0.0000
# 4 0.0000 0.0000 0.0000 15.9233 0.0000 0.0000
# 5 0.0000 0.0000 0.0000 0.0000 24.6167 0.0000
# 6 0.0000 0.0000 0.0000 0.0000 0.0000 37.4631
#
#
#
# Elastic Compliance Matrix: (Units=1/GPa)
#
#
# Indices 1 2 3 4 5 6 
#
# 1 0.009525 -0.002901 -0.002357 0.000000 0.000000 0.000000
# 2 -0.002901 0.017566 -0.007358 0.000000 0.000000 0.000000
# 3 -0.002357 -0.007358 0.018592 0.000000 0.000000 0.000000
# 4 0.000000 0.000000 0.000000 0.062801 0.000000 0.000000
# 5 0.000000 0.000000 0.000000 0.000000 0.040623 0.000000
# 6 0.000000 0.000000 0.000000 0.000000 0.000000 0.026693
#
#
# Mechanical properties :
#
#
# Convention : Reuss Voigt Hill
#
# Bulk Modulus (GPa) = 48.89479 50.82070 49.85774
# Shear Modulus (GPa) = 24.05594 27.26318 25.65956
#
# Velocity S-wave (km/s) = 3.50431 3.73061 3.61923
# Velocity P-wave (km/s) = 6.42913 6.67082 6.55109
#
# Compressibility (1/GPa) = 0.02045208
#
# Stress axis : x y z
#
# Youngs Moduli (GPa) = 104.98353 56.92906 53.78590
#
# Poissons Ratio (x) = 0.16516 0.12675
# Poissons Ratio (y) = 0.30457 0.39575
# Poissons Ratio (z) = 0.24740 0.41888
#
# Static dielectric constant tensor:
#      x y z
#    x 3.651680 0.000000 0.000000 
#    y 0.000000 3.330520 0.000000 
#    z 0.000000 0.000000 3.624050 
# 
# 
# High freq. dielectric constant tensor:
#      x y z
#    x 1.771890 0.000000 0.000000 
#    y 0.000000 1.743850 0.000000 
#    z 0.000000 0.000000 1.767830 
# 
# From -- ./inp_files/2933.got.cif
#   From: 2010.03.12/outbox.cif.g09.slc.cpg/sg55_2_cif.got.tgz:2933.got - 2010.04.16 15:19:21.
