data_PCOD8226942
_publ_section_title
;
Structure prediction by ZEFSAII (Michael W. Deem and Ramdas Pophale) SiO2 
 PCOD8226942
Probable space group: P B A M
;
_chemical_formula_sum "Si O2"
_cell_formula_units_Z 40
_cell_length_a 21.388745
_cell_length_b 10.323994
_cell_length_c 8.988297
_cell_angle_alpha 90.000000
_cell_angle_beta 90.000000
_cell_angle_gamma 90.000000
_cell_volume 1984.771251
_symmetry_space_group_name_H-M "P B A M"
_symmetry_group_IT_number 55
_symmetry_cell_setting 'orthorhombic'
loop_
_space_group_symop_operation_xyz
x,y,z
-x,-y,z
1/2+x,1/2-y,-z
1/2-x,1/2+y,-z
-x,-y,-z
x,y,-z
1/2-x,1/2+y,z
1/2+x,1/2-y,z
loop_
_atom_site_type_symbol
_atom_site_label
_atom_site_fract_x
_atom_site_fract_y
_atom_site_fract_z
Si Si1 0.310927 0.477113 0.174954
Si Si2 0.432993 0.552739 0.324294
Si Si3 0.587697 0.908988 0.824689
Si Si4 0.782940 0.307337 0.825147
Si Si5 0.956288 0.687777 0.824705
O O1 0.377701 0.466255 0.255447
O O2 0.272125 0.344691 0.209686
O O3 0.272258 0.600791 0.238298
O O4 0.323822 0.489195 0.000000
O O5 0.500000 0.500000 0.269014
O O6 0.427464 0.549067 0.500000
O O7 0.423823 0.697675 0.264988
O O8 0.650818 0.851082 0.753631
O O9 0.527085 0.832121 0.764340
O O10 0.583756 0.060547 0.786290
O O11 0.586828 0.890298 0.000000
O O12 0.785770 0.333744 0.000000
O O13 0.954401 0.718245 0.000000
#
# Coordination Sequence:
#
# PCOD8226942 Si02
#       5
#     8   8   8   8   8
#     4  10  21  36  59  87 112 146 186 227 276 333
#     4  11  24  39  54  76 111 150 189 235 283 328
#     4   8  15  29  52  85 119 143 173 225 279 329
#     4   9  18  32  54  85 117 143 177 225 277 328
#     4   9  17  31  57  86 109 142 185 228 276 328
#
# _framework density 20.153455999999998
#
# number of rings (size 3 to 8) (size 9 to 14) (size 15 to 20)
#    0.000    2.600    0.000    3.000    2.800    3.200 
#    0.000    3.000    0.000    2.400    0.000    0.000 
#    0.000    0.000    0.000    0.000    0.000    0.000 
#
# Total GULP energy -495883.528822 kJ/mol
# GULP energy per Si atom -12397.088221 kJ/mol
# Density = 2.010759 g / cm^3
# Si number density = 20.153456 Si / 1000 Ang^3
#
#
#
# Elastic Constant Matrix: (Units=GPa)
#
#
# Indices 1 2 3 4 5 6 
#
# 1 108.9212 48.5653 24.4440 0.0000 0.0000 0.0000
# 2 48.5653 116.2701 27.0419 0.0000 0.0000 0.0000
# 3 24.4440 27.0419 32.4320 0.0000 0.0000 0.0000
# 4 0.0000 0.0000 0.0000 8.5618 0.0000 0.0000
# 5 0.0000 0.0000 0.0000 0.0000 16.8995 0.0000
# 6 0.0000 0.0000 0.0000 0.0000 0.0000 36.2906
#
#
#
# Elastic Compliance Matrix: (Units=1/GPa)
#
#
# Indices 1 2 3 4 5 6 
#
# 1 0.012192 -0.003666 -0.006132 0.000000 0.000000 0.000000
# 2 -0.003666 0.011772 -0.007052 0.000000 0.000000 0.000000
# 3 -0.006132 -0.007052 0.041336 0.000000 0.000000 0.000000
# 4 0.000000 0.000000 0.000000 0.116798 0.000000 0.000000
# 5 0.000000 0.000000 0.000000 0.000000 0.059174 0.000000
# 6 0.000000 0.000000 0.000000 0.000000 0.000000 0.027555
#
#
# Mechanical properties :
#
#
# Convention : Reuss Voigt Hill
#
# Bulk Modulus (GPa) = 31.64724 50.85840 41.25282
# Shear Modulus (GPa) = 15.97134 22.85519 19.41326
#
# Velocity S-wave (km/s) = 2.81817 3.37123 3.10703
# Velocity P-wave (km/s) = 5.13095 6.35956 5.77800
#
# Compressibility (1/GPa) = 0.03159833
#
# Stress axis : x y z
#
# Youngs Moduli (GPa) = 82.02250 84.94520 24.19214
#
# Poissons Ratio (x) = 0.31143 0.14835
# Poissons Ratio (y) = 0.30072 0.17061
# Poissons Ratio (z) = 0.50296 0.59907
#
# Static dielectric constant tensor:
#      x y z
#    x 4.012990 0.000000 0.000000 
#    y 0.000000 3.759810 0.000000 
#    z 0.000000 0.000000 3.034110 
# 
# 
# High freq. dielectric constant tensor:
#      x y z
#    x 1.792400 0.000000 0.000000 
#    y 0.000000 1.800770 0.000000 
#    z 0.000000 0.000000 1.721300 
# 
# From -- ./inp_files/9301.got.cif
#   From: 2010.03.12/outbox.cif.g09.slc.cpg/sg55_5_cif.got.tgz:9301.got - 2010.04.16 15:19:21.
