data_PCOD8226712
_publ_section_title
;
Structure prediction by ZEFSAII (Michael W. Deem and Ramdas Pophale) SiO2 
 PCOD8226712
Probable space group: P B A M
;
_chemical_formula_sum "Si O2"
_cell_formula_units_Z 40
_cell_length_a 22.743790
_cell_length_b 10.205845
_cell_length_c 8.919992
_cell_angle_alpha 90.000000
_cell_angle_beta 90.000000
_cell_angle_gamma 90.000000
_cell_volume 2070.504934
_symmetry_space_group_name_H-M "P B A M"
_symmetry_group_IT_number 55
_symmetry_cell_setting 'orthorhombic'
loop_
_space_group_symop_operation_xyz
x,y,z
-x,-y,z
1/2+x,1/2-y,-z
1/2-x,1/2+y,-z
-x,-y,-z
x,y,-z
1/2-x,1/2+y,z
1/2+x,1/2-y,z
loop_
_atom_site_type_symbol
_atom_site_label
_atom_site_fract_x
_atom_site_fract_y
_atom_site_fract_z
Si Si1 0.005012 0.149139 0.327256
Si Si2 0.618628 0.251441 0.176432
Si Si3 0.820764 0.506606 0.324700
Si Si4 0.805211 0.000620 0.824018
Si Si5 0.874164 0.227561 0.671610
O O1 0.025340 0.151132 0.500000
O O2 0.052333 0.225258 0.228962
O O3 0.943800 0.223163 0.303135
O O4 0.000000 0.000000 0.270088
O O5 0.642232 0.120548 0.249906
O O6 0.659338 0.372299 0.227050
O O7 0.619412 0.233823 0.000000
O O8 0.817764 0.533858 0.500000
O O9 0.755484 0.502235 0.262527
O O10 0.853107 0.371827 0.286097
O O11 0.842689 0.127552 0.782396
O O12 0.792559 0.001915 0.000000
O O13 0.858282 0.191101 0.500000
#
# Coordination Sequence:
#
# PCOD8226712 Si02
#       5
#     8   8   8   8   8
#     4  10  20  38  65  90 117 154 202 252 296 350
#     4  11  24  40  61  90 124 160 198 242 299 359
#     4  11  24  40  60  87 121 157 198 246 296 353
#     4  11  23  39  61  88 120 157 198 244 294 355
#     4  10  22  40  63  91 118 155 202 248 298 350
#
# _framework density 19.318959
#
# number of rings (size 3 to 8) (size 9 to 14) (size 15 to 20)
#    0.000    1.400    2.000    3.000    0.000    9.200 
#    0.000    4.000    0.000    0.000    0.000    0.000 
#    0.000    0.000    0.000    0.000    0.000    0.000 
#
# Total GULP energy -496273.704597 kJ/mol
# GULP energy per Si atom -12406.842615 kJ/mol
# Density = 1.927499 g / cm^3
# Si number density = 19.318959 Si / 1000 Ang^3
#
#
#
# Elastic Constant Matrix: (Units=GPa)
#
#
# Indices 1 2 3 4 5 6 
#
# 1 160.3317 84.6648 58.0590 0.0000 0.0000 0.0000
# 2 84.6648 145.3957 60.3601 0.0000 0.0000 0.0000
# 3 58.0590 60.3601 71.3947 0.0000 0.0000 0.0000
# 4 0.0000 0.0000 0.0000 32.7411 0.0000 0.0000
# 5 0.0000 0.0000 0.0000 0.0000 -171.2375 0.0000
# 6 0.0000 0.0000 0.0000 0.0000 0.0000 135.0551
#
#
#
# Elastic Compliance Matrix: (Units=1/GPa)
#
#
# Indices 1 2 3 4 5 6 
#
# 1 0.010030 -0.003782 -0.004959 0.000000 0.000000 0.000000
# 2 -0.003782 0.012023 -0.007089 0.000000 0.000000 0.000000
# 3 -0.004959 -0.007089 0.024033 0.000000 0.000000 0.000000
# 4 0.000000 0.000000 0.000000 0.030543 0.000000 0.000000
# 5 0.000000 0.000000 0.000000 0.000000 -0.005840 0.000000
# 6 0.000000 0.000000 0.000000 0.000000 0.000000 0.007404
#
#
# Mechanical properties :
#
#
# Convention : Reuss Voigt Hill
#
# Bulk Modulus (GPa) = 69.32197 87.03221 78.17709
# Shear Modulus (GPa) = 43.60623 10.91427 27.26025
#
# Velocity S-wave (km/s) = 4.75613 2.37945 3.76049
# Velocity P-wave (km/s) = 8.13153 7.25927 7.70775
#
# Compressibility (1/GPa) = 0.01442544
#
# Stress axis : x y z
#
# Youngs Moduli (GPa) = 99.70265 83.17373 41.60896
#
# Poissons Ratio (x) = 0.31453 0.20635
# Poissons Ratio (y) = 0.37704 0.29499
# Poissons Ratio (z) = 0.49444 0.58966
#
# Static dielectric constant tensor:
#      x y z
#    x 3.541710 0.000000 0.000000 
#    y 0.000000 3.629570 0.000000 
#    z 0.000000 0.000000 3.585230 
# 
# 
# High freq. dielectric constant tensor:
#      x y z
#    x 1.766700 0.000000 0.000000 
#    y 0.000000 1.760840 0.000000 
#    z 0.000000 0.000000 1.756500 
# 
# From -- ./inp_files/2303.got.cif
#   From: 2010.03.12/outbox.cif.g09.slc.cpg/sg55_2_cif.got.tgz:2303.got - 2010.04.16 15:19:21.
