data_PCOD8226323
_publ_section_title
;
Structure prediction by ZEFSAII (Michael W. Deem and Ramdas Pophale) SiO2 
 PCOD8226323
Probable space group: P B A M
;
_chemical_formula_sum "Si O2"
_cell_formula_units_Z 56
_cell_length_a 23.083185
_cell_length_b 13.697474
_cell_length_c 8.966478
_cell_angle_alpha 90.000000
_cell_angle_beta 90.000000
_cell_angle_gamma 90.000000
_cell_volume 2835.032907
_symmetry_space_group_name_H-M "P B A M"
_symmetry_group_IT_number 55
_symmetry_cell_setting 'orthorhombic'
loop_
_space_group_symop_operation_xyz
x,y,z
-x,-y,z
1/2+x,1/2-y,-z
1/2-x,1/2+y,-z
-x,-y,-z
x,y,-z
1/2-x,1/2+y,z
1/2+x,1/2-y,z
loop_
_atom_site_type_symbol
_atom_site_label
_atom_site_fract_x
_atom_site_fract_y
_atom_site_fract_z
Si Si1 0.632286 0.296014 0.330384
Si Si2 0.481521 0.607451 0.673105
Si Si3 0.674204 0.009758 0.830868
Si Si4 0.954009 0.282252 0.170702
Si Si5 0.665900 0.815588 0.675082
Si Si6 0.734617 0.212756 0.173868
Si Si7 0.570195 0.131833 0.832496
O O1 0.654251 0.292933 0.500000
O O2 0.588404 0.386383 0.301970
O O3 0.689078 0.296543 0.226168
O O4 0.594006 0.200958 0.296677
O O5 0.500000 0.500000 0.722011
O O6 0.496668 0.629029 0.500000
O O7 0.515640 0.682480 0.777624
O O8 0.710079 0.106016 0.783055
O O9 0.604456 0.029243 0.816079
O O10 0.691431 0.920402 0.725119
O O11 0.689461 0.980014 0.000000
O O12 0.899737 0.305422 0.272734
O O13 0.000434 0.372265 0.184890
O O14 0.933462 0.270739 0.000000
O O15 0.668766 0.806706 0.500000
O O16 0.704379 0.728808 0.744323
O O17 0.744772 0.223793 0.000000
O O18 0.585169 0.173212 0.000000
#
# Coordination Sequence:
#
# PCOD8226323 Si02
#       7
#     8   8   8   8   8   8   8
#     4   9  16  29  53  81 108 142 183 229 282 333
#     4   9  18  34  55  82 117 153 189 234 288 344
#     4   9  19  38  62  85 109 143 189 237 286 341
#     4  10  20  36  57  82 115 152 192 238 287 337
#     4  12  25  39  57  84 119 154 190 237 294 348
#     4  10  21  40  62  81 108 148 194 241 286 339
#     4   8  16  32  56  82 109 144 183 226 275 332
#
# _framework density 19.752856999999999
#
# number of rings (size 3 to 8) (size 9 to 14) (size 15 to 20)
#    0.000    2.429    0.000    3.429    0.000    4.857 
#    2.571    2.857    0.000    0.000    0.000    0.000 
#    0.000    0.000    0.000    0.000    0.000    0.000 
#
# Total GULP energy -694083.945018 kJ/mol
# GULP energy per Si atom -12394.356161 kJ/mol
# Density = 1.970790 g / cm^3
# Si number density = 19.752857 Si / 1000 Ang^3
#
#
#
# Elastic Constant Matrix: (Units=GPa)
#
#
# Indices 1 2 3 4 5 6 
#
# 1 97.7951 27.4051 42.6183 0.0000 0.0000 0.0000
# 2 27.4051 57.8628 33.4794 0.0000 0.0000 0.0000
# 3 42.6183 33.4794 106.9732 0.0000 0.0000 0.0000
# 4 0.0000 0.0000 0.0000 26.8435 0.0000 0.0000
# 5 0.0000 0.0000 0.0000 0.0000 35.6406 0.0000
# 6 0.0000 0.0000 0.0000 0.0000 0.0000 25.3934
#
#
#
# Elastic Compliance Matrix: (Units=1/GPa)
#
#
# Indices 1 2 3 4 5 6 
#
# 1 0.013048 -0.003873 -0.003986 0.000000 0.000000 0.000000
# 2 -0.003873 0.022254 -0.005422 0.000000 0.000000 0.000000
# 3 -0.003986 -0.005422 0.012633 0.000000 0.000000 0.000000
# 4 0.000000 0.000000 0.000000 0.037253 0.000000 0.000000
# 5 0.000000 0.000000 0.000000 0.000000 0.028058 0.000000
# 6 0.000000 0.000000 0.000000 0.000000 0.000000 0.039380
#
#
# Mechanical properties :
#
#
# Convention : Reuss Voigt Hill
#
# Bulk Modulus (GPa) = 46.78907 52.18188 49.48548
# Shear Modulus (GPa) = 26.83666 28.18405 27.51036
#
# Velocity S-wave (km/s) = 3.68995 3.78144 3.73598
# Velocity P-wave (km/s) = 6.47248 6.74837 6.61186
#
# Compressibility (1/GPa) = 0.02137251
#
# Stress axis : x y z
#
# Youngs Moduli (GPa) = 76.63992 44.93630 79.15795
#
# Poissons Ratio (x) = 0.17406 0.31553
# Poissons Ratio (y) = 0.29686 0.42916
# Poissons Ratio (z) = 0.30549 0.24362
#
# Static dielectric constant tensor:
#      x y z
#    x 3.753070 0.000000 0.000000 
#    y 0.000000 3.367450 0.000000 
#    z 0.000000 0.000000 3.568820 
# 
# 
# High freq. dielectric constant tensor:
#      x y z
#    x 1.773620 0.000000 0.000000 
#    y 0.000000 1.741570 0.000000 
#    z 0.000000 0.000000 1.772730 
# 
# From -- ./inp_files/6157.got.cif
#   From: 2010.03.12/outbox.cif.g09.slc.cpg/sg55_4_cif.got.tgz:6157.got - 2010.04.16 15:19:21.
