data_PCOD8226600
_publ_section_title
;
Structure prediction by ZEFSAII (Michael W. Deem and Ramdas Pophale) SiO2 
 PCOD8226600
Probable space group: P B A M
;
_chemical_formula_sum "Si O2"
_cell_formula_units_Z 40
_cell_length_a 12.185368
_cell_length_b 13.892773
_cell_length_c 11.650421
_cell_angle_alpha 90.000000
_cell_angle_beta 90.000000
_cell_angle_gamma 90.000000
_cell_volume 1972.282896
_symmetry_space_group_name_H-M "P B A M"
_symmetry_group_IT_number 55
_symmetry_cell_setting 'orthorhombic'
loop_
_space_group_symop_operation_xyz
x,y,z
-x,-y,z
1/2+x,1/2-y,-z
1/2-x,1/2+y,-z
-x,-y,-z
x,y,-z
1/2-x,1/2+y,z
1/2+x,1/2-y,z
loop_
_atom_site_type_symbol
_atom_site_label
_atom_site_fract_x
_atom_site_fract_y
_atom_site_fract_z
Si Si1 0.972009 0.717837 0.758657
Si Si2 0.026251 0.656279 0.000000
Si Si3 0.266012 0.920318 0.241875
Si Si4 0.103408 0.569330 0.373367
Si Si5 0.678505 0.016251 0.000000
Si Si6 0.043922 0.893388 0.634513
O O1 0.857467 0.662355 0.748453
O O2 0.071314 0.664439 0.694378
O O3 0.958163 0.821017 0.696610
O O4 0.012496 0.725631 0.890274
O O5 0.932718 0.576322 0.000000
O O6 0.142190 0.597048 0.000000
O O7 0.156918 0.877789 0.297228
O O8 0.297152 0.015565 0.312171
O O9 0.249368 0.955223 0.110737
O O10 0.143006 0.598656 0.500000
O O11 0.000000 0.500000 0.377775
O O12 0.057819 0.868479 0.500000
O O13 0.000000 0.000000 0.652107
#
# Coordination Sequence:
#
# PCOD8226600 Si02
#       6
#     8   4   8   8   4   8
#     4  10  20  37  62  89 118 156 207 252 299 360
#     4   9  16  33  62  95 125 147 190 260 302 348
#     4  10  20  37  62  90 121 158 199 251 309 365
#     4   9  16  28  53  87 114 143 193 250 296 347
#     4   9  16  33  62  95 125 155 187 245 316 361
#     4  11  26  44  59  82 124 168 205 254 309 363
#
# _framework density 20.281068000000001
#
# number of rings (size 3 to 8) (size 9 to 14) (size 15 to 20)
#    0.000    2.200    2.000    1.200    0.000    4.800 
#    0.000    4.000    0.000    0.000    0.000    0.000 
#    0.000    0.000    0.000    0.000    0.000    0.000 
#
# Total GULP energy -495922.342165 kJ/mol
# GULP energy per Si atom -12398.058554 kJ/mol
# Density = 2.023491 g / cm^3
# Si number density = 20.281068 Si / 1000 Ang^3
#
#
#
# Elastic Constant Matrix: (Units=GPa)
#
#
# Indices 1 2 3 4 5 6 
#
# 1 59.5219 24.3411 42.6779 0.0000 0.0000 0.0000
# 2 24.3411 91.6501 58.6047 0.0000 0.0000 0.0000
# 3 42.6779 58.6047 198.0227 0.0000 0.0000 0.0000
# 4 0.0000 0.0000 0.0000 32.6091 0.0000 0.0000
# 5 0.0000 0.0000 0.0000 0.0000 25.3036 0.0000
# 6 0.0000 0.0000 0.0000 0.0000 0.0000 19.1053
#
#
#
# Elastic Compliance Matrix: (Units=1/GPa)
#
#
# Indices 1 2 3 4 5 6 
#
# 1 0.020628 -0.003251 -0.003484 0.000000 0.000000 0.000000
# 2 -0.003251 0.013970 -0.003434 0.000000 0.000000 0.000000
# 3 -0.003484 -0.003434 0.006817 0.000000 0.000000 0.000000
# 4 0.000000 0.000000 0.000000 0.030666 0.000000 0.000000
# 5 0.000000 0.000000 0.000000 0.000000 0.039520 0.000000
# 6 0.000000 0.000000 0.000000 0.000000 0.000000 0.052341
#
#
# Mechanical properties :
#
#
# Convention : Reuss Voigt Hill
#
# Bulk Modulus (GPa) = 47.44237 66.71579 57.07908
# Shear Modulus (GPa) = 26.13623 30.30835 28.22229
#
# Velocity S-wave (km/s) = 3.59374 3.86996 3.73441
# Velocity P-wave (km/s) = 6.37677 7.27570 6.84102
#
# Compressibility (1/GPa) = 0.02107821
#
# Stress axis : x y z
#
# Youngs Moduli (GPa) = 48.47841 71.58096 146.69312
#
# Poissons Ratio (x) = 0.23270 0.51102
# Poissons Ratio (y) = 0.15760 0.50372
# Poissons Ratio (z) = 0.16888 0.24580
#
# Static dielectric constant tensor:
#      x y z
#    x 3.260160 0.000000 0.000000 
#    y 0.000000 3.593580 0.000000 
#    z 0.000000 0.000000 4.147090 
# 
# 
# High freq. dielectric constant tensor:
#      x y z
#    x 1.756980 0.000000 0.000000 
#    y 0.000000 1.779030 0.000000 
#    z 0.000000 0.000000 1.813410 
# 
# From -- ./inp_files/13028.got.cif
#   From: 2010.03.12/outbox.cif.g09.slc.cpg/sg55_7_cif.got.tgz:13028.got - 2010.04.16 15:19:21.
