data_PCOD8226692
_publ_section_title
;
Structure prediction by ZEFSAII (Michael W. Deem and Ramdas Pophale) SiO2 
 PCOD8226692
Probable space group: P B A M
;
_chemical_formula_sum "Si O2"
_cell_formula_units_Z 48
_cell_length_a 11.070705
_cell_length_b 14.236364
_cell_length_c 14.492120
_cell_angle_alpha 90.000000
_cell_angle_beta 90.000000
_cell_angle_gamma 90.000000
_cell_volume 2284.053559
_symmetry_space_group_name_H-M "P B A M"
_symmetry_group_IT_number 55
_symmetry_cell_setting 'orthorhombic'
loop_
_space_group_symop_operation_xyz
x,y,z
-x,-y,z
1/2+x,1/2-y,-z
1/2-x,1/2+y,-z
-x,-y,-z
x,y,-z
1/2-x,1/2+y,z
1/2+x,1/2-y,z
loop_
_atom_site_type_symbol
_atom_site_label
_atom_site_fract_x
_atom_site_fract_y
_atom_site_fract_z
Si Si1 0.142708 0.004833 0.241302
Si Si2 0.011783 0.606396 0.097622
Si Si3 0.257642 0.357835 0.108427
Si Si4 0.302885 0.178779 0.770747
Si Si5 0.184143 0.444970 0.603028
Si Si6 0.441679 0.145322 0.602291
O O1 0.178860 0.952590 0.146283
O O2 0.206812 0.946991 0.324149
O O3 0.181045 0.115869 0.239106
O O4 0.000000 0.000000 0.256861
O O5 0.102889 0.609054 0.181806
O O6 0.000000 0.500000 0.071478
O O7 0.883666 0.646494 0.128969
O O8 0.053064 0.655921 0.000000
O O9 0.303564 0.267649 0.163198
O O10 0.288236 0.351722 0.000000
O O11 0.363098 0.209214 0.672755
O O12 0.235312 0.425173 0.500000
O O13 0.116977 0.543446 0.603894
O O14 0.084264 0.364728 0.629229
O O15 0.430939 0.190018 0.500000
#
# Coordination Sequence:
#
# PCOD8226692 Si02
#       6
#     8   8   8   8   8   8
#     4  11  24  40  58  88 128 165 198 247 315 373
#     4  10  20  38  63  86 111 151 207 260 303 353
#     4  11  25  41  60  89 118 156 212 258 306 367
#     4  11  22  38  63  86 122 161 201 253 312 367
#     4   8  15  32  60  90 117 152 200 246 298 356
#     4   8  15  30  59  93 119 149 197 253 296 350
#
# _framework density 21.015267999999999
#
# number of rings (size 3 to 8) (size 9 to 14) (size 15 to 20)
#    0.000    2.167    1.667    2.500    4.667    1.333 
#    0.000    0.833    0.000    1.000    0.000    0.000 
#    0.000    0.000    0.000    0.000    0.000    0.000 
#
# Total GULP energy -594691.516874 kJ/mol
# GULP energy per Si atom -12389.406602 kJ/mol
# Density = 2.096744 g / cm^3
# Si number density = 21.015268 Si / 1000 Ang^3
#
#
#
# Elastic Constant Matrix: (Units=GPa)
#
#
# Indices 1 2 3 4 5 6 
#
# 1 100.3779 1.9496 61.3176 0.0000 0.0000 0.0000
# 2 1.9496 42.9790 27.7999 0.0000 0.0000 0.0000
# 3 61.3176 27.7999 140.7209 0.0000 0.0000 0.0000
# 4 0.0000 0.0000 0.0000 27.6111 0.0000 0.0000
# 5 0.0000 0.0000 0.0000 0.0000 29.0088 0.0000
# 6 0.0000 0.0000 0.0000 0.0000 0.0000 17.4462
#
#
#
# Elastic Compliance Matrix: (Units=1/GPa)
#
#
# Indices 1 2 3 4 5 6 
#
# 1 0.014104 0.003824 -0.006901 0.000000 0.000000 0.000000
# 2 0.003824 0.027713 -0.007141 0.000000 0.000000 0.000000
# 3 -0.006901 -0.007141 0.011524 0.000000 0.000000 0.000000
# 4 0.000000 0.000000 0.000000 0.036217 0.000000 0.000000
# 5 0.000000 0.000000 0.000000 0.000000 0.034472 0.000000
# 6 0.000000 0.000000 0.000000 0.000000 0.000000 0.057319
#
#
# Mechanical properties :
#
#
# Convention : Reuss Voigt Hill
#
# Bulk Modulus (GPa) = 30.39114 51.80133 41.09624
# Shear Modulus (GPa) = 23.50146 27.68062 25.59104
#
# Velocity S-wave (km/s) = 3.34773 3.63322 3.49339
# Velocity P-wave (km/s) = 5.42549 6.50409 5.98912
#
# Compressibility (1/GPa) = 0.03290432
#
# Stress axis : x y z
#
# Youngs Moduli (GPa) = 70.90374 36.08462 86.77553
#
# Poissons Ratio (x) = -0.13798 0.59883
# Poissons Ratio (y) = -0.27113 0.61966
# Poissons Ratio (z) = 0.48930 0.25768
#
# Static dielectric constant tensor:
#      x y z
#    x 3.544160 0.000000 0.000000 
#    y 0.000000 3.281900 0.000000 
#    z 0.000000 0.000000 4.334240 
# 
# 
# High freq. dielectric constant tensor:
#      x y z
#    x 1.810800 0.000000 0.000000 
#    y 0.000000 1.788120 0.000000 
#    z 0.000000 0.000000 1.846740 
# 
# From -- ./inp_files/18298.got.cif
#   From: 2010.03.12/outbox.cif.g09.slc.cpg/sg55_10_cif.got.tgz:18298.got - 2010.04.16 15:19:21.
