data_PCOD8226578
_publ_section_title
;
Structure prediction by ZEFSAII (Michael W. Deem and Ramdas Pophale) SiO2 
 PCOD8226578
Probable space group: P B A M
;
_chemical_formula_sum "Si O2"
_cell_formula_units_Z 48
_cell_length_a 16.596325
_cell_length_b 19.110966
_cell_length_c 7.687394
_cell_angle_alpha 90.000000
_cell_angle_beta 90.000000
_cell_angle_gamma 90.000000
_cell_volume 2438.224614
_symmetry_space_group_name_H-M "P B A M"
_symmetry_group_IT_number 55
_symmetry_cell_setting 'orthorhombic'
loop_
_space_group_symop_operation_xyz
x,y,z
-x,-y,z
1/2+x,1/2-y,-z
1/2-x,1/2+y,-z
-x,-y,-z
x,y,-z
1/2-x,1/2+y,z
1/2+x,1/2-y,z
loop_
_atom_site_type_symbol
_atom_site_label
_atom_site_fract_x
_atom_site_fract_y
_atom_site_fract_z
Si Si1 0.263819 0.555519 0.295154
Si Si2 0.438810 0.397480 0.000000
Si Si3 0.027552 0.426205 0.195572
Si Si4 0.651493 0.681929 0.293881
Si Si5 0.620221 0.840341 0.700432
Si Si6 0.385991 0.556466 0.000000
Si Si7 0.202595 0.408525 0.301782
O O1 0.287806 0.554532 0.500000
O O2 0.195817 0.612059 0.256380
O O3 0.339767 0.576386 0.177826
O O4 0.229940 0.482109 0.218203
O O5 0.411991 0.360422 0.178636
O O6 0.405097 0.475032 0.000000
O O7 0.534956 0.396054 0.000000
O O8 0.958169 0.368075 0.199326
O O9 0.000000 0.500000 0.286625
O O10 0.107973 0.393557 0.279391
O O11 0.051578 0.444196 0.000000
O O12 0.634387 0.670287 0.500000
O O13 0.643337 0.762612 0.240697
O O14 0.741546 0.655972 0.237537
O O15 0.596730 0.843719 0.500000
O O16 0.222340 0.419635 0.500000
#
# Coordination Sequence:
#
# PCOD8226578 Si02
#       7
#     8   4   8   8   8   4   8
#     4  10  21  38  64  92 122 158 202 256 308 364
#     4  11  24  41  64  89 117 164 204 259 307 363
#     4  11  23  34  56  93 128 158 200 256 307 365
#     4  10  23  43  64  88 123 166 208 252 311 372
#     4  10  22  41  62  87 124 165 202 252 310 368
#     4  11  24  39  64  92 119 153 213 259 307 358
#     4  10  20  37  61  87 119 161 203 246 304 367
#
# _framework density 19.686457000000001
#
# number of rings (size 3 to 8) (size 9 to 14) (size 15 to 20)
#    0.000    1.667    3.333    0.500    4.667    1.333 
#    3.000    1.667    0.000    0.000    0.000    0.000 
#    0.000    0.000    0.000    0.000    0.000    0.000 
#
# Total GULP energy -595062.468322 kJ/mol
# GULP energy per Si atom -12397.134757 kJ/mol
# Density = 1.964165 g / cm^3
# Si number density = 19.686457 Si / 1000 Ang^3
#
#
#
# Elastic Constant Matrix: (Units=GPa)
#
#
# Indices 1 2 3 4 5 6 
#
# 1 166.9332 77.0215 51.0160 0.0000 0.0000 0.0000
# 2 77.0215 133.0188 31.7238 0.0000 0.0000 0.0000
# 3 51.0160 31.7238 67.1131 0.0000 0.0000 0.0000
# 4 0.0000 0.0000 0.0000 21.8131 0.0000 0.0000
# 5 0.0000 0.0000 0.0000 0.0000 28.7150 0.0000
# 6 0.0000 0.0000 0.0000 0.0000 0.0000 32.3319
#
#
#
# Elastic Compliance Matrix: (Units=1/GPa)
#
#
# Indices 1 2 3 4 5 6 
#
# 1 0.009575 -0.004292 -0.005250 0.000000 0.000000 0.000000
# 2 -0.004292 0.010397 -0.001652 0.000000 0.000000 0.000000
# 3 -0.005250 -0.001652 0.019672 0.000000 0.000000 0.000000
# 4 0.000000 0.000000 0.000000 0.045844 0.000000 0.000000
# 5 0.000000 0.000000 0.000000 0.000000 0.034825 0.000000
# 6 0.000000 0.000000 0.000000 0.000000 0.000000 0.030929
#
#
# Mechanical properties :
#
#
# Convention : Reuss Voigt Hill
#
# Bulk Modulus (GPa) = 57.94996 76.28752 67.11874
# Shear Modulus (GPa) = 27.87356 30.39226 29.13291
#
# Velocity S-wave (km/s) = 3.76689 3.93340 3.85105
# Velocity P-wave (km/s) = 6.95843 7.71131 7.34452
#
# Compressibility (1/GPa) = 0.01725627
#
# Stress axis : x y z
#
# Youngs Moduli (GPa) = 104.43670 96.18133 50.83490
#
# Poissons Ratio (x) = 0.41284 0.26687
# Poissons Ratio (y) = 0.44827 0.08397
# Poissons Ratio (z) = 0.54826 0.15887
#
# Static dielectric constant tensor:
#      x y z
#    x 3.568330 0.000000 0.000000 
#    y 0.000000 3.716650 0.000000 
#    z 0.000000 0.000000 3.527130 
# 
# 
# High freq. dielectric constant tensor:
#      x y z
#    x 1.765910 0.000000 0.000000 
#    y 0.000000 1.760370 0.000000 
#    z 0.000000 0.000000 1.770510 
# 
# From -- ./inp_files/5708.got.cif
#   From: 2010.03.12/outbox.cif.g09.slc.cpg/sg55_3_cif.got.tgz:5708.got - 2010.04.16 15:19:21.
