data_PCOD8226184
_publ_section_title
;
Structure prediction by ZEFSAII (Michael W. Deem and Ramdas Pophale) SiO2 
 PCOD8226184
Probable space group: P B A M
;
_chemical_formula_sum "Si O2"
_cell_formula_units_Z 64
_cell_length_a 28.278919
_cell_length_b 14.229686
_cell_length_c 8.873998
_cell_angle_alpha 90.000000
_cell_angle_beta 90.000000
_cell_angle_gamma 90.000000
_cell_volume 3570.898018
_symmetry_space_group_name_H-M "P B A M"
_symmetry_group_IT_number 55
_symmetry_cell_setting 'orthorhombic'
loop_
_space_group_symop_operation_xyz
x,y,z
-x,-y,z
1/2+x,1/2-y,-z
1/2-x,1/2+y,-z
-x,-y,-z
x,y,-z
1/2-x,1/2+y,z
1/2+x,1/2-y,z
loop_
_atom_site_type_symbol
_atom_site_label
_atom_site_fract_x
_atom_site_fract_y
_atom_site_fract_z
Si Si1 0.142662 0.497671 0.669237
Si Si2 0.120424 0.306714 0.171703
Si Si3 0.528460 0.309283 0.825343
Si Si4 0.358067 0.180804 0.177728
Si Si5 0.914340 0.969712 0.674203
Si Si6 0.431982 0.312722 0.326104
Si Si7 0.728839 0.887216 0.670583
Si Si8 0.327965 0.618179 0.823096
O O1 0.123106 0.509194 0.500000
O O2 0.130190 0.394810 0.724138
O O3 0.118983 0.580096 0.771700
O O4 0.199830 0.513779 0.671902
O O5 0.067063 0.272157 0.197997
O O6 0.156626 0.224198 0.217142
O O7 0.128585 0.337241 0.000000
O O8 0.547860 0.407675 0.763478
O O9 0.482109 0.276762 0.736050
O O10 0.516107 0.323068 0.000000
O O11 0.390176 0.265847 0.232349
O O12 0.306008 0.191200 0.254960
O O13 0.352441 0.184595 0.000000
O O14 0.915724 0.940215 0.500000
O O15 0.861644 0.955035 0.737581
O O16 0.929007 0.076472 0.698067
O O17 0.427064 0.284069 0.500000
O O18 0.742096 0.857221 0.500000
O O19 0.774949 0.899610 0.770786
O O20 0.332920 0.599329 0.000000
#
# Coordination Sequence:
#
# PCOD8226184 Si02
#       8
#     8   8   8   8   8   8   8   8
#     4   9  19  35  56  80 107 141 179 219 270 323
#     4   9  19  35  55  81 110 141 181 225 269 323
#     4  10  21  36  56  83 113 145 185 230 277 330
#     4  10  20  36  57  78 106 142 179 225 275 322
#     4  10  21  36  55  80 113 149 184 228 278 328
#     4  11  22  37  56  81 112 147 187 229 277 334
#     4   9  19  36  55  78 108 141 178 222 273 324
#     4  10  20  35  56  83 112 143 183 228 273 324
#
# _framework density 17.922663
#
# number of rings (size 3 to 8) (size 9 to 14) (size 15 to 20)
#    0.750    1.500    0.000    4.125    0.000    6.500 
#    2.250    0.625    0.000    3.750    0.000    0.000 
#    0.000    0.000    0.000    0.000    0.000    0.000 
#
# Total GULP energy -793445.401582 kJ/mol
# GULP energy per Si atom -12397.584400 kJ/mol
# Density = 1.788187 g / cm^3
# Si number density = 17.922663 Si / 1000 Ang^3
#
#
#
# Elastic Constant Matrix: (Units=GPa)
#
#
# Indices 1 2 3 4 5 6 
#
# 1 83.0152 8.9591 17.0800 0.0000 0.0000 0.0000
# 2 8.9591 28.3596 24.1527 0.0000 0.0000 0.0000
# 3 17.0800 24.1527 84.4873 0.0000 0.0000 0.0000
# 4 0.0000 0.0000 0.0000 32.5928 0.0000 0.0000
# 5 0.0000 0.0000 0.0000 0.0000 33.5288 0.0000
# 6 0.0000 0.0000 0.0000 0.0000 0.0000 15.9244
#
#
#
# Elastic Compliance Matrix: (Units=1/GPa)
#
#
# Indices 1 2 3 4 5 6 
#
# 1 0.012692 -0.002412 -0.001877 0.000000 0.000000 0.000000
# 2 -0.002412 0.047067 -0.012968 0.000000 0.000000 0.000000
# 3 -0.001877 -0.012968 0.015923 0.000000 0.000000 0.000000
# 4 0.000000 0.000000 0.000000 0.030682 0.000000 0.000000
# 5 0.000000 0.000000 0.000000 0.000000 0.029825 0.000000
# 6 0.000000 0.000000 0.000000 0.000000 0.000000 0.062797
#
#
# Mechanical properties :
#
#
# Convention : Reuss Voigt Hill
#
# Bulk Modulus (GPa) = 24.28911 32.91619 28.60265
# Shear Modulus (GPa) = 20.22479 26.12053 23.17266
#
# Velocity S-wave (km/s) = 3.36288 3.82174 3.59963
# Velocity P-wave (km/s) = 5.35353 6.15465 5.76801
#
# Compressibility (1/GPa) = 0.04117072
#
# Stress axis : x y z
#
# Youngs Moduli (GPa) = 78.78775 21.24610 62.80375
#
# Poissons Ratio (x) = 0.05123 0.11785
# Poissons Ratio (y) = 0.19000 0.81443
# Poissons Ratio (z) = 0.14785 0.27552
#
# Static dielectric constant tensor:
#      x y z
#    x 3.278630 0.000000 0.000000 
#    y 0.000000 3.071240 0.000000 
#    z 0.000000 0.000000 3.452140 
# 
# 
# High freq. dielectric constant tensor:
#      x y z
#    x 1.688060 0.000000 0.000000 
#    y 0.000000 1.674260 0.000000 
#    z 0.000000 0.000000 1.713160 
# 
# From -- ./inp_files/10921.got.cif
#   From: 2010.03.12/outbox.cif.g09.slc.cpg/sg55_6_cif.got.tgz:10921.got - 2010.04.16 15:19:21.
