data_PCOD8226255
_publ_section_title
;
Structure prediction by ZEFSAII (Michael W. Deem and Ramdas Pophale) SiO2 
 PCOD8226255
Probable space group: P B A M
;
_chemical_formula_sum "Si O2"
_cell_formula_units_Z 56
_cell_length_a 17.091928
_cell_length_b 18.402549
_cell_length_c 8.901594
_cell_angle_alpha 90.000000
_cell_angle_beta 90.000000
_cell_angle_gamma 90.000000
_cell_volume 2799.863247
_symmetry_space_group_name_H-M "P B A M"
_symmetry_group_IT_number 55
_symmetry_cell_setting 'orthorhombic'
loop_
_space_group_symop_operation_xyz
x,y,z
-x,-y,z
1/2+x,1/2-y,-z
1/2-x,1/2+y,-z
-x,-y,-z
x,y,-z
1/2-x,1/2+y,z
1/2+x,1/2-y,z
loop_
_atom_site_type_symbol
_atom_site_label
_atom_site_fract_x
_atom_site_fract_y
_atom_site_fract_z
Si Si1 0.913885 0.814855 0.677972
Si Si2 0.212164 0.918234 0.822828
Si Si3 0.407552 0.317377 0.323381
Si Si4 0.863465 0.669756 0.177084
Si Si5 0.159321 0.663245 0.672604
Si Si6 0.201458 0.083583 0.176544
Si Si7 0.498357 0.916331 0.671874
O O1 0.908408 0.812268 0.500000
O O2 0.864560 0.747481 0.742627
O O3 0.876536 0.889189 0.739523
O O4 0.003347 0.810807 0.733876
O O5 0.133143 0.885837 0.753742
O O6 0.287778 0.874305 0.764232
O O7 0.219606 0.001657 0.770346
O O8 0.205774 0.912876 0.000000
O O9 0.406844 0.329638 0.500000
O O10 0.361287 0.244821 0.277768
O O11 0.940154 0.624391 0.217598
O O12 0.860573 0.682090 0.000000
O O13 0.187846 0.660426 0.500000
O O14 0.226680 0.635064 0.780608
O O15 0.084577 0.613194 0.696935
O O16 0.187076 0.088032 0.000000
O O17 0.470913 0.903719 0.500000
O O18 0.500000 0.000000 0.716413
#
# Coordination Sequence:
#
# PCOD8226255 Si02
#       7
#     8   8   8   8   8   8   8
#     4  11  23  42  64  89 121 156 199 253 301 357
#     4  10  24  42  59  85 124 159 197 247 299 357
#     4  10  22  40  63  88 117 153 200 249 297 353
#     4  11  22  38  61  90 122 160 202 245 300 363
#     4  10  20  38  60  88 121 156 199 244 296 355
#     4  11  24  41  60  88 122 158 199 248 301 355
#     4  10  20  35  58  88 124 163 201 245 297 354
#
# _framework density 20.000976000000001
#
# number of rings (size 3 to 8) (size 9 to 14) (size 15 to 20)
#    0.000    1.571    1.429    3.000    0.000    7.714 
#    0.000    2.857    0.000    0.000    0.000    0.000 
#    0.000    0.000    0.000    0.000    0.000    0.000 
#
# Total GULP energy -694734.373654 kJ/mol
# GULP energy per Si atom -12405.970958 kJ/mol
# Density = 1.995545 g / cm^3
# Si number density = 20.000976 Si / 1000 Ang^3
#
#
#
# Elastic Constant Matrix: (Units=GPa)
#
#
# Indices 1 2 3 4 5 6 
#
# 1 89.7747 56.0603 28.8671 0.0000 0.0000 0.0000
# 2 56.0603 100.6475 33.0422 0.0000 0.0000 0.0000
# 3 28.8671 33.0422 49.7317 0.0000 0.0000 0.0000
# 4 0.0000 0.0000 0.0000 33.4024 0.0000 0.0000
# 5 0.0000 0.0000 0.0000 0.0000 28.2926 0.0000
# 6 0.0000 0.0000 0.0000 0.0000 0.0000 28.7711
#
#
#
# Elastic Compliance Matrix: (Units=1/GPa)
#
#
# Indices 1 2 3 4 5 6 
#
# 1 0.017942 -0.008409 -0.004828 0.000000 0.000000 0.000000
# 2 -0.008409 0.016648 -0.006180 0.000000 0.000000 0.000000
# 3 -0.004828 -0.006180 0.027017 0.000000 0.000000 0.000000
# 4 0.000000 0.000000 0.000000 0.029938 0.000000 0.000000
# 5 0.000000 0.000000 0.000000 0.000000 0.035345 0.000000
# 6 0.000000 0.000000 0.000000 0.000000 0.000000 0.034757
#
#
# Mechanical properties :
#
#
# Convention : Reuss Voigt Hill
#
# Bulk Modulus (GPa) = 43.91135 52.89925 48.40530
# Shear Modulus (GPa) = 24.03010 26.23884 25.13447
#
# Velocity S-wave (km/s) = 3.46995 3.62591 3.54879
# Velocity P-wave (km/s) = 6.16898 6.63592 6.40671
#
# Compressibility (1/GPa) = 0.02277315
#
# Stress axis : x y z
#
# Youngs Moduli (GPa) = 55.73407 60.06600 37.01434
#
# Poissons Ratio (x) = 0.50509 0.17870
# Poissons Ratio (y) = 0.46866 0.22876
# Poissons Ratio (z) = 0.26908 0.37123
#
# Static dielectric constant tensor:
#      x y z
#    x 3.730290 0.000000 0.000000 
#    y 0.000000 3.939990 0.000000 
#    z 0.000000 0.000000 3.496770 
# 
# 
# High freq. dielectric constant tensor:
#      x y z
#    x 1.789150 0.000000 0.000000 
#    y 0.000000 1.792420 0.000000 
#    z 0.000000 0.000000 1.773720 
# 
# From -- ./inp_files/6154.got.cif
#   From: 2010.03.12/outbox.cif.g09.slc.cpg/sg55_4_cif.got.tgz:6154.got - 2010.04.16 15:19:21.
