data_PCOD8226478
_publ_section_title
;
Structure prediction by ZEFSAII (Michael W. Deem and Ramdas Pophale) SiO2 
 PCOD8226478
Probable space group: P B A M
;
_chemical_formula_sum "Si O2"
_cell_formula_units_Z 64
_cell_length_a 7.983280
_cell_length_b 23.607554
_cell_length_c 14.791673
_cell_angle_alpha 90.000000
_cell_angle_beta 90.000000
_cell_angle_gamma 90.000000
_cell_volume 2787.723209
_symmetry_space_group_name_H-M "P B A M"
_symmetry_group_IT_number 55
_symmetry_cell_setting 'orthorhombic'
loop_
_space_group_symop_operation_xyz
x,y,z
-x,-y,z
1/2+x,1/2-y,-z
1/2-x,1/2+y,-z
-x,-y,-z
x,y,-z
1/2-x,1/2+y,z
1/2+x,1/2-y,z
loop_
_atom_site_type_symbol
_atom_site_label
_atom_site_fract_x
_atom_site_fract_y
_atom_site_fract_z
Si Si1 0.350709 0.221265 0.603067
Si Si2 0.987200 0.880975 0.098549
Si Si3 0.338959 0.030693 0.724168
Si Si4 0.633978 0.578629 0.726555
Si Si5 0.680899 0.186520 0.901586
Si Si6 0.654585 0.386855 0.397427
Si Si7 0.379611 0.099300 0.900694
Si Si8 0.167760 0.310568 0.710021
O O1 0.406524 0.233097 0.500000
O O2 0.187017 0.180916 0.607170
O O3 0.311173 0.280388 0.651432
O O4 0.497632 0.189143 0.654827
O O5 0.791140 0.861938 0.109816
O O6 0.023918 0.922612 0.181882
O O7 0.122289 0.830284 0.102263
O O8 0.008863 0.911105 0.000000
O O9 0.299239 0.083667 0.660939
O O10 0.376809 0.049762 0.826708
O O11 0.500000 0.000000 0.683364
O O12 0.188959 0.985828 0.716440
O O13 0.526596 0.598083 0.640678
O O14 0.785843 0.623974 0.731840
O O15 0.549401 0.134992 0.893095
O O16 0.649481 0.221777 0.808635
O O17 0.649905 0.217314 0.000000
O O18 0.665470 0.408569 0.500000
O O19 0.376437 0.070436 0.000000
#
# Coordination Sequence:
#
# PCOD8226478 Si02
#       8
#     8   8   8   8   8   8   8   8
#     4  11  24  44  69  96 124 158 215 280 335 397
#     4   9  18  34  59  90 128 171 215 262 312 373
#     4  12  24  40  61  92 133 172 215 264 321 394
#     4  11  23  39  63  93 130 169 210 265 325 394
#     4   9  19  38  63  97 136 175 221 269 321 391
#     4  11  25  44  65  89 122 166 216 270 329 395
#     4  10  20  36  62  95 134 181 223 266 319 379
#     4  11  23  42  69  97 128 169 210 268 338 392
#
# _framework density 22.957802000000001
#
# number of rings (size 3 to 8) (size 9 to 14) (size 15 to 20)
#    0.000    1.500    1.250    4.500    0.000    4.000 
#    0.000    1.875    0.000    3.000    0.000    0.000 
#    0.000    0.000    0.000    0.000    0.000    0.000 
#
# Total GULP energy -793000.031417 kJ/mol
# GULP energy per Si atom -12390.625491 kJ/mol
# Density = 2.290555 g / cm^3
# Si number density = 22.957802 Si / 1000 Ang^3
#
#
#
# Elastic Constant Matrix: (Units=GPa)
#
#
# Indices 1 2 3 4 5 6 
#
# 1 87.7615 -5.7637 18.4356 0.0000 0.0000 0.0000
# 2 -5.7637 31.2256 24.9137 0.0000 0.0000 0.0000
# 3 18.4356 24.9137 187.9860 0.0000 0.0000 0.0000
# 4 0.0000 0.0000 0.0000 26.2802 0.0000 0.0000
# 5 0.0000 0.0000 0.0000 0.0000 33.4865 0.0000
# 6 0.0000 0.0000 0.0000 0.0000 0.0000 27.9460
#
#
#
# Elastic Compliance Matrix: (Units=1/GPa)
#
#
# Indices 1 2 3 4 5 6 
#
# 1 0.011970 0.003518 -0.001640 0.000000 0.000000 0.000000
# 2 0.003518 0.036846 -0.005228 0.000000 0.000000 0.000000
# 3 -0.001640 -0.005228 0.006173 0.000000 0.000000 0.000000
# 4 0.000000 0.000000 0.000000 0.038051 0.000000 0.000000
# 5 0.000000 0.000000 0.000000 0.000000 0.029863 0.000000
# 6 0.000000 0.000000 0.000000 0.000000 0.000000 0.035783
#
#
# Mechanical properties :
#
#
# Convention : Reuss Voigt Hill
#
# Bulk Modulus (GPa) = 20.70880 42.46047 31.58463
# Shear Modulus (GPa) = 27.55074 35.50170 31.52622
#
# Velocity S-wave (km/s) = 3.46795 3.93668 3.70972
# Velocity P-wave (km/s) = 5.00754 6.26087 5.66895
#
# Compressibility (1/GPa) = 0.04828865
#
# Stress axis : x y z
#
# Youngs Moduli (GPa) = 83.54146 27.14022 161.98849
#
# Poissons Ratio (x) = -0.09548 0.26568
# Poissons Ratio (y) = -0.29391 0.84690
# Poissons Ratio (z) = 0.13702 0.14189
#
# Static dielectric constant tensor:
#      x y z
#    x 4.323190 0.000000 0.000000 
#    y 0.000000 3.562300 0.000000 
#    z 0.000000 0.000000 4.591680 
# 
# 
# High freq. dielectric constant tensor:
#      x y z
#    x 1.925710 0.000000 0.000000 
#    y 0.000000 1.857360 0.000000 
#    z 0.000000 0.000000 1.929910 
# 
# From -- ./inp_files/17795.got.cif
#   From: 2010.03.12/outbox.cif.g09.slc.cpg/sg55_9_cif.got.tgz:17795.got - 2010.04.16 15:19:21.
