data_PCOD8226825
_publ_section_title
;
Structure prediction by ZEFSAII (Michael W. Deem and Ramdas Pophale) SiO2 
 PCOD8226825
Probable space group: P B A M
;
_chemical_formula_sum "Si O2"
_cell_formula_units_Z 64
_cell_length_a 27.821521
_cell_length_b 13.248025
_cell_length_c 8.976435
_cell_angle_alpha 90.000000
_cell_angle_beta 90.000000
_cell_angle_gamma 90.000000
_cell_volume 3308.536259
_symmetry_space_group_name_H-M "P B A M"
_symmetry_group_IT_number 55
_symmetry_cell_setting 'orthorhombic'
loop_
_space_group_symop_operation_xyz
x,y,z
-x,-y,z
1/2+x,1/2-y,-z
1/2-x,1/2+y,-z
-x,-y,-z
x,y,-z
1/2-x,1/2+y,z
1/2+x,1/2-y,z
loop_
_atom_site_type_symbol
_atom_site_label
_atom_site_fract_x
_atom_site_fract_y
_atom_site_fract_z
Si Si1 0.416017 0.692411 0.837292
Si Si2 0.689086 0.663733 0.825141
Si Si3 0.172005 0.064837 0.828655
Si Si4 0.946981 0.462553 0.322281
Si Si5 0.123670 0.368407 0.672862
Si Si6 0.715995 0.243243 0.322788
Si Si7 0.516699 0.600982 0.833576
Si Si8 0.910986 0.259278 0.175916
O O1 0.384564 0.591213 0.807977
O O2 0.408231 0.770686 0.705225
O O3 0.472021 0.674946 0.839332
O O4 0.400331 0.736532 0.000000
O O5 0.679515 0.549174 0.769783
O O6 0.732649 0.709195 0.733587
O O7 0.644640 0.738216 0.789058
O O8 0.700560 0.664789 0.000000
O O9 0.204057 0.145292 0.738397
O O10 0.188088 0.071800 0.000000
O O11 0.946682 0.458491 0.500000
O O12 0.904539 0.535858 0.258060
O O13 0.933035 0.354436 0.259187
O O14 0.000000 0.500000 0.267757
O O15 0.127078 0.387671 0.500000
O O16 0.177236 0.341695 0.734447
O O17 0.715611 0.249963 0.500000
O O18 0.500000 0.500000 0.744531
O O19 0.560641 0.661241 0.760066
O O20 0.533369 0.567959 0.000000
O O21 0.920359 0.272349 0.000000
#
# Coordination Sequence:
#
# PCOD8226825 Si02
#       8
#     8   8   8   8   8   8   8   8
#     4   9  16  28  51  79 101 127 166 207 247 297
#     4  10  21  37  55  77 108 142 176 219 272 325
#     4   9  18  34  55  78 106 138 172 214 266 321
#     4  10  21  37  56  78 110 151 185 217 267 328
#     4   9  19  35  52  72 100 134 173 216 261 309
#     4  10  21  36  55  79 105 137 182 231 274 321
#     4   9  16  28  49  76 104 132 162 199 247 302
#     4  10  21  35  53  80 109 137 175 221 265 314
#
# _framework density 19.343902
#
# number of rings (size 3 to 8) (size 9 to 14) (size 15 to 20)
#    0.000    2.500    0.000    1.875    0.000    6.250 
#    0.000    2.500    0.000    3.000    0.000    0.000 
#    0.000    0.000    0.000    0.000    0.000    0.000 
#
# Total GULP energy -793003.154279 kJ/mol
# GULP energy per Si atom -12390.674286 kJ/mol
# Density = 1.929987 g / cm^3
# Si number density = 19.343902 Si / 1000 Ang^3
#
#
#
# Elastic Constant Matrix: (Units=GPa)
#
#
# Indices 1 2 3 4 5 6 
#
# 1 113.8942 52.8137 30.6186 0.0000 0.0000 0.0000
# 2 52.8137 113.0382 21.9834 0.0000 0.0000 0.0000
# 3 30.6186 21.9834 21.9767 0.0000 0.0000 0.0000
# 4 0.0000 0.0000 0.0000 17.4249 0.0000 0.0000
# 5 0.0000 0.0000 0.0000 0.0000 21.2460 0.0000
# 6 0.0000 0.0000 0.0000 0.0000 0.0000 33.2926
#
#
#
# Elastic Compliance Matrix: (Units=1/GPa)
#
#
# Indices 1 2 3 4 5 6 
#
# 1 0.015191 -0.003702 -0.017462 0.000000 0.000000 0.000000
# 2 -0.003702 0.011885 -0.006732 0.000000 0.000000 0.000000
# 3 -0.017462 -0.006732 0.076565 0.000000 0.000000 0.000000
# 4 0.000000 0.000000 0.000000 0.057389 0.000000 0.000000
# 5 0.000000 0.000000 0.000000 0.000000 0.047068 0.000000
# 6 0.000000 0.000000 0.000000 0.000000 0.000000 0.030037
#
#
# Mechanical properties :
#
#
# Convention : Reuss Voigt Hill
#
# Bulk Modulus (GPa) = 20.89825 51.08227 35.99026
# Shear Modulus (GPa) = 16.13559 23.95893 20.04726
#
# Velocity S-wave (km/s) = 2.89129 3.52316 3.22275
# Velocity P-wave (km/s) = 4.68754 6.55858 5.70035
#
# Compressibility (1/GPa) = 0.04785089
#
# Stress axis : x y z
#
# Youngs Moduli (GPa) = 65.82933 84.13857 13.06087
#
# Poissons Ratio (x) = 0.31144 0.22806
# Poissons Ratio (y) = 0.24367 0.08792
# Poissons Ratio (z) = 1.14949 0.56639
#
# Static dielectric constant tensor:
#      x y z
#    x 3.712050 0.000000 0.000000 
#    y 0.000000 3.612660 0.000000 
#    z 0.000000 0.000000 3.301950 
# 
# 
# High freq. dielectric constant tensor:
#      x y z
#    x 1.763460 0.000000 0.000000 
#    y 0.000000 1.754790 0.000000 
#    z 0.000000 0.000000 1.720940 
# 
# From -- ./inp_files/10769.got.cif
#   From: 2010.03.12/outbox.cif.g09.slc.cpg/sg55_6_cif.got.tgz:10769.got - 2010.04.16 15:19:21.
