data_PCOD8226589
_publ_section_title
;
Structure prediction by ZEFSAII (Michael W. Deem and Ramdas Pophale) SiO2 
 PCOD8226589
Probable space group: P B A M
;
_chemical_formula_sum "Si O2"
_cell_formula_units_Z 32
_cell_length_a 10.220420
_cell_length_b 15.277084
_cell_length_c 10.572268
_cell_angle_alpha 90.000000
_cell_angle_beta 90.000000
_cell_angle_gamma 90.000000
_cell_volume 1650.735052
_symmetry_space_group_name_H-M "P B A M"
_symmetry_group_IT_number 55
_symmetry_cell_setting 'orthorhombic'
loop_
_space_group_symop_operation_xyz
x,y,z
-x,-y,z
1/2+x,1/2-y,-z
1/2-x,1/2+y,-z
-x,-y,-z
x,y,-z
1/2-x,1/2+y,z
1/2+x,1/2-y,z
loop_
_atom_site_type_symbol
_atom_site_label
_atom_site_fract_x
_atom_site_fract_y
_atom_site_fract_z
Si Si1 0.848397 0.122491 0.857566
Si Si2 0.007108 0.180570 0.360918
Si Si3 0.711880 0.790879 0.267293
Si Si4 0.641621 0.972350 0.146850
O O1 0.965571 0.113852 0.753362
O O2 0.782150 0.218980 0.846486
O O3 0.740355 0.050884 0.825696
O O4 0.904682 0.110405 0.000000
O O5 0.994593 0.136119 0.500000
O O6 0.909517 0.264438 0.357622
O O7 0.153730 0.214435 0.344019
O O8 0.693298 0.887952 0.217886
O O9 0.500000 0.000000 0.199848
O O10 0.631307 0.949274 0.000000
#
# Coordination Sequence:
#
# PCOD8226589 Si02
#       4
#     8   8   8   8
#     4   9  21  37  60  91 121 153 203 253 305 364
#     4  10  22  40  62  86 124 166 207 250 303 367
#     4  10  21  38  64  86 124 161 206 249 312 356
#     4  10  20  37  61  94 127 159 203 257 311 372
#
# _framework density 19.385303
#
# number of rings (size 3 to 8) (size 9 to 14) (size 15 to 20)
#    1.500    0.750    0.000    3.000    0.000    3.000 
#    0.000    6.250    0.000    5.250    0.000    0.000 
#    0.000    0.000    0.000    0.000    0.000    0.000 
#
# Total GULP energy -396486.034301 kJ/mol
# GULP energy per Si atom -12390.188572 kJ/mol
# Density = 1.934118 g / cm^3
# Si number density = 19.385303 Si / 1000 Ang^3
#
#
#
# Elastic Constant Matrix: (Units=GPa)
#
#
# Indices 1 2 3 4 5 6 
#
# 1 141.4347 38.0745 47.9154 0.0000 0.0000 0.0000
# 2 38.0745 90.9791 29.8869 0.0000 0.0000 0.0000
# 3 47.9154 29.8869 108.9579 0.0000 0.0000 0.0000
# 4 0.0000 0.0000 0.0000 11.7232 0.0000 0.0000
# 5 0.0000 0.0000 0.0000 0.0000 13.5972 0.0000
# 6 0.0000 0.0000 0.0000 0.0000 0.0000 28.0923
#
#
#
# Elastic Compliance Matrix: (Units=1/GPa)
#
#
# Indices 1 2 3 4 5 6 
#
# 1 0.008861 -0.002669 -0.003165 0.000000 0.000000 0.000000
# 2 -0.002669 0.012884 -0.002360 0.000000 0.000000 0.000000
# 3 -0.003165 -0.002360 0.011217 0.000000 0.000000 0.000000
# 4 0.000000 0.000000 0.000000 0.085301 0.000000 0.000000
# 5 0.000000 0.000000 0.000000 0.000000 0.073545 0.000000
# 6 0.000000 0.000000 0.000000 0.000000 0.000000 0.035597
#
#
# Mechanical properties :
#
#
# Convention : Reuss Voigt Hill
#
# Bulk Modulus (GPa) = 60.33476 63.68059 62.00768
# Shear Modulus (GPa) = 20.05479 25.71551 22.88515
#
# Velocity S-wave (km/s) = 3.21991 3.64613 3.43963
# Velocity P-wave (km/s) = 6.70934 7.11667 6.91600
#
# Compressibility (1/GPa) = 0.01657419
#
# Stress axis : x y z
#
# Youngs Moduli (GPa) = 112.85471 77.61709 89.15027
#
# Poissons Ratio (x) = 0.20713 0.28213
# Poissons Ratio (y) = 0.30117 0.21043
# Poissons Ratio (z) = 0.35715 0.18321
#
# Static dielectric constant tensor:
#      x y z
#    x 3.528740 0.000000 0.000000 
#    y 0.000000 3.280200 0.000000 
#    z 0.000000 0.000000 3.366690 
# 
# 
# High freq. dielectric constant tensor:
#      x y z
#    x 1.761580 0.000000 0.000000 
#    y 0.000000 1.740430 0.000000 
#    z 0.000000 0.000000 1.741970 
# 
# From -- ./inp_files/11717.got.cif
#   From: 2010.03.12/outbox.cif.g09.slc.cpg/sg55_6_cif.got.tgz:11717.got - 2010.04.16 15:19:21.
