data_PCOD8226514
_publ_section_title
;
Structure prediction by ZEFSAII (Michael W. Deem and Ramdas Pophale) SiO2 
 PCOD8226514
Probable space group: P B A M
;
_chemical_formula_sum "Si O2"
_cell_formula_units_Z 48
_cell_length_a 9.898870
_cell_length_b 29.637262
_cell_length_c 8.675423
_cell_angle_alpha 90.000000
_cell_angle_beta 90.000000
_cell_angle_gamma 90.000000
_cell_volume 2545.155725
_symmetry_space_group_name_H-M "P B A M"
_symmetry_group_IT_number 55
_symmetry_cell_setting 'orthorhombic'
loop_
_space_group_symop_operation_xyz
x,y,z
-x,-y,z
1/2+x,1/2-y,-z
1/2-x,1/2+y,-z
-x,-y,-z
x,y,-z
1/2-x,1/2+y,z
1/2+x,1/2-y,z
loop_
_atom_site_type_symbol
_atom_site_label
_atom_site_fract_x
_atom_site_fract_y
_atom_site_fract_z
Si Si1 0.363101 0.287024 0.179182
Si Si2 0.344893 0.956462 0.681772
Si Si3 0.633762 0.618802 0.679586
Si Si4 0.352283 0.723504 0.322257
Si Si5 0.673710 0.380610 0.324371
Si Si6 0.369327 0.050897 0.179840
O O1 0.321439 0.337847 0.222974
O O2 0.491725 0.270574 0.276540
O O3 0.237345 0.255126 0.215423
O O4 0.398831 0.284416 0.000000
O O5 0.361968 0.959028 0.500000
O O6 0.225499 0.922991 0.731085
O O7 0.483680 0.938039 0.752653
O O8 0.307839 0.005930 0.743832
O O9 0.651370 0.630965 0.500000
O O10 0.479511 0.605455 0.714968
O O11 0.336364 0.737681 0.500000
O O12 0.305251 0.672300 0.295114
O O13 0.709179 0.393352 0.500000
O O14 0.771998 0.407163 0.211044
O O15 0.383226 0.042482 0.000000
#
# Coordination Sequence:
#
# PCOD8226514 Si02
#       6
#     8   8   8   8   8   8
#     4  11  22  36  57  85 115 143 178 229 281 325
#     4  10  20  37  59  79 104 141 184 225 263 315
#     4   9  20  38  59  81 106 141 184 225 268 323
#     4  10  21  39  60  80 109 149 189 225 266 326
#     4   9  19  37  58  79 104 139 182 223 263 315
#     4  11  22  35  53  80 113 143 174 219 273 324
#
# _framework density 18.859358
#
# number of rings (size 3 to 8) (size 9 to 14) (size 15 to 20)
#    0.000    2.000    0.000    6.000    0.000    6.667 
#    0.000    5.000    0.000    0.000    0.000    0.000 
#    0.000    0.000    0.000    0.000    0.000    0.000 
#
# Total GULP energy -595426.896865 kJ/mol
# GULP energy per Si atom -12404.727018 kJ/mol
# Density = 1.881643 g / cm^3
# Si number density = 18.859358 Si / 1000 Ang^3
#
#
#
# Elastic Constant Matrix: (Units=GPa)
#
#
# Indices 1 2 3 4 5 6 
#
# 1 27.5337 4.3289 18.1755 0.0000 0.0000 0.0000
# 2 4.3289 29.1656 26.4655 0.0000 0.0000 0.0000
# 3 18.1755 26.4655 90.0108 0.0000 0.0000 0.0000
# 4 0.0000 0.0000 0.0000 18.1251 0.0000 0.0000
# 5 0.0000 0.0000 0.0000 0.0000 20.3867 0.0000
# 6 0.0000 0.0000 0.0000 0.0000 0.0000 40.4857
#
#
#
# Elastic Compliance Matrix: (Units=1/GPa)
#
#
# Indices 1 2 3 4 5 6 
#
# 1 0.041990 0.001993 -0.009065 0.000000 0.000000 0.000000
# 2 0.001993 0.046858 -0.014180 0.000000 0.000000 0.000000
# 3 -0.009065 -0.014180 0.017110 0.000000 0.000000 0.000000
# 4 0.000000 0.000000 0.000000 0.055172 0.000000 0.000000
# 5 0.000000 0.000000 0.000000 0.000000 0.049052 0.000000
# 6 0.000000 0.000000 0.000000 0.000000 0.000000 0.024700
#
#
# Mechanical properties :
#
#
# Convention : Reuss Voigt Hill
#
# Bulk Modulus (GPa) = 15.75936 27.18332 21.47134
# Shear Modulus (GPa) = 16.74841 22.31553 19.53197
#
# Velocity S-wave (km/s) = 2.98328 3.44359 3.22167
# Velocity P-wave (km/s) = 4.49900 5.50055 5.02479
#
# Compressibility (1/GPa) = 0.06345433
#
# Stress axis : x y z
#
# Youngs Moduli (GPa) = 23.81543 21.34087 58.44700
#
# Poissons Ratio (x) = -0.04254 0.52981
# Poissons Ratio (y) = -0.04747 0.82878
# Poissons Ratio (z) = 0.21588 0.30262
#
# Static dielectric constant tensor:
#      x y z
#    x 3.426470 0.000000 0.000000 
#    y 0.000000 3.445500 0.000000 
#    z 0.000000 0.000000 3.440480 
# 
# 
# High freq. dielectric constant tensor:
#      x y z
#    x 1.733450 0.000000 0.000000 
#    y 0.000000 1.732710 0.000000 
#    z 0.000000 0.000000 1.738350 
# 
# From -- ./inp_files/2884.got.cif
#   From: 2010.03.12/outbox.cif.g09.slc.cpg/sg55_2_cif.got.tgz:2884.got - 2010.04.16 15:19:21.
