data_PCOD8226778
_publ_section_title
;
Structure prediction by ZEFSAII (Michael W. Deem and Ramdas Pophale) SiO2 
 PCOD8226778
Probable space group: P B A M
;
_chemical_formula_sum "Si O2"
_cell_formula_units_Z 48
_cell_length_a 28.528232
_cell_length_b 9.379973
_cell_length_c 8.678360
_cell_angle_alpha 90.000000
_cell_angle_beta 90.000000
_cell_angle_gamma 90.000000
_cell_volume 2322.277464
_symmetry_space_group_name_H-M "P B A M"
_symmetry_group_IT_number 55
_symmetry_cell_setting 'orthorhombic'
loop_
_space_group_symop_operation_xyz
x,y,z
-x,-y,z
1/2+x,1/2-y,-z
1/2-x,1/2+y,-z
-x,-y,-z
x,y,-z
1/2-x,1/2+y,z
1/2+x,1/2-y,z
loop_
_atom_site_type_symbol
_atom_site_label
_atom_site_fract_x
_atom_site_fract_y
_atom_site_fract_z
Si Si1 0.042553 0.107868 0.325496
Si Si2 0.484242 0.160951 0.173672
Si Si3 0.633452 0.513284 0.819242
Si Si4 0.617437 0.810090 0.318163
Si Si5 0.302921 0.011976 0.183334
Si Si6 0.715095 0.307082 0.817207
O O1 0.061437 0.121137 0.500000
O O2 0.082906 0.051951 0.214520
O O3 0.025120 0.259791 0.266253
O O4 0.000000 0.000000 0.315627
O O5 0.434838 0.181527 0.255109
O O6 0.500000 0.000000 0.172605
O O7 0.480171 0.221227 0.000000
O O8 0.641326 0.662639 0.733617
O O9 0.672193 0.403013 0.756758
O O10 0.639257 0.541412 0.000000
O O11 0.615195 0.817462 0.500000
O O12 0.647429 0.942281 0.254214
O O13 0.263397 0.122634 0.241694
O O14 0.290030 0.854041 0.245482
O O15 0.307363 0.011753 0.000000
O O16 0.714835 0.304655 0.000000
#
# Coordination Sequence:
#
# PCOD8226778 Si02
#       6
#     8   8   8   8   8   8
#     4  11  23  40  62  92 128 166 205 251 310 370
#     4  11  25  43  65  91 120 161 213 261 305 361
#     4  11  22  39  65  94 123 163 212 259 304 360
#     4  12  25  41  60  90 126 165 205 251 313 373
#     4  10  20  40  66  92 122 158 202 254 306 365
#     4   9  20  38  66  97 122 154 204 257 307 359
#
# _framework density 20.669364999999999
#
# number of rings (size 3 to 8) (size 9 to 14) (size 15 to 20)
#    0.000    1.333    1.667    4.000    2.333    4.667 
#    0.000    5.000    0.000    0.000    0.000    0.000 
#    0.000    0.000    0.000    0.000    0.000    0.000 
#
# Total GULP energy -595424.102216 kJ/mol
# GULP energy per Si atom -12404.668796 kJ/mol
# Density = 2.062232 g / cm^3
# Si number density = 20.669365 Si / 1000 Ang^3
#
#
#
# Elastic Constant Matrix: (Units=GPa)
#
#
# Indices 1 2 3 4 5 6 
#
# 1 71.1842 28.8592 19.1172 0.0000 0.0000 0.0000
# 2 28.8592 117.1069 16.5469 0.0000 0.0000 0.0000
# 3 19.1172 16.5469 49.1826 0.0000 0.0000 0.0000
# 4 0.0000 0.0000 0.0000 22.9821 0.0000 0.0000
# 5 0.0000 0.0000 0.0000 0.0000 -9.7608 0.0000
# 6 0.0000 0.0000 0.0000 0.0000 0.0000 36.1026
#
#
#
# Elastic Compliance Matrix: (Units=1/GPa)
#
#
# Indices 1 2 3 4 5 6 
#
# 1 0.016879 -0.003394 -0.005419 0.000000 0.000000 0.000000
# 2 -0.003394 0.009648 -0.001927 0.000000 0.000000 0.000000
# 3 -0.005419 -0.001927 0.023087 0.000000 0.000000 0.000000
# 4 0.000000 0.000000 0.000000 0.043512 0.000000 0.000000
# 5 0.000000 0.000000 0.000000 0.000000 -0.102451 0.000000
# 6 0.000000 0.000000 0.000000 0.000000 0.000000 0.027699
#
#
# Mechanical properties :
#
#
# Convention : Reuss Voigt Hill
#
# Bulk Modulus (GPa) = 35.54332 40.72449 38.13390
# Shear Modulus (GPa) = 101.55919 21.39480 61.47700
#
# Velocity S-wave (km/s) = 7.01725 3.22078 5.45964
# Velocity P-wave (km/s) = 9.10435 5.79455 7.63106
#
# Compressibility (1/GPa) = 0.02813468
#
# Stress axis : x y z
#
# Youngs Moduli (GPa) = 59.24388 103.65029 43.31440
#
# Poissons Ratio (x) = 0.35178 0.23473
# Poissons Ratio (y) = 0.20107 0.08345
# Poissons Ratio (z) = 0.32105 0.19970
#
# Static dielectric constant tensor:
#      x y z
#    x 3.145330 0.000000 0.000000 
#    y 0.000000 4.016730 0.000000 
#    z 0.000000 0.000000 3.657410 
# 
# 
# High freq. dielectric constant tensor:
#      x y z
#    x 1.817390 0.000000 0.000000 
#    y 0.000000 1.823210 0.000000 
#    z 0.000000 0.000000 1.793310 
# 
# From -- ./inp_files/10515.got.cif
#   From: 2010.03.12/outbox.cif.g09.slc.cpg/sg55_6_cif.got.tgz:10515.got - 2010.04.16 15:19:21.
