data_PCOD8226799
_publ_section_title
;
Structure prediction by ZEFSAII (Michael W. Deem and Ramdas Pophale) SiO2 
 PCOD8226799
Probable space group: P B A M
;
_chemical_formula_sum "Si O2"
_cell_formula_units_Z 40
_cell_length_a 9.377763
_cell_length_b 15.538043
_cell_length_c 13.265047
_cell_angle_alpha 90.000000
_cell_angle_beta 90.000000
_cell_angle_gamma 90.000000
_cell_volume 1932.877653
_symmetry_space_group_name_H-M "P B A M"
_symmetry_group_IT_number 55
_symmetry_cell_setting 'orthorhombic'
loop_
_space_group_symop_operation_xyz
x,y,z
-x,-y,z
1/2+x,1/2-y,-z
1/2-x,1/2+y,-z
-x,-y,-z
x,y,-z
1/2-x,1/2+y,z
1/2+x,1/2-y,z
loop_
_atom_site_type_symbol
_atom_site_label
_atom_site_fract_x
_atom_site_fract_y
_atom_site_fract_z
Si Si1 0.000000 0.500000 0.252731
Si Si2 0.746754 0.111069 0.300229
Si Si3 0.500000 0.500000 0.655776
Si Si4 0.630657 0.862203 0.886779
Si Si5 0.839075 0.720451 0.114576
Si Si6 0.688347 0.716484 0.500000
Si Si7 0.896978 0.864773 0.500000
O O1 0.101702 0.441976 0.321522
O O2 0.105692 0.557201 0.184669
O O3 0.881468 0.049316 0.280419
O O4 0.738070 0.160262 0.195122
O O5 0.759034 0.170336 0.398377
O O6 0.412695 0.571978 0.594035
O O7 0.509260 0.788027 0.871312
O O8 0.783760 0.817703 0.864049
O O9 0.625631 0.898329 0.000000
O O10 0.794637 0.693902 0.000000
O O11 0.744677 0.815162 0.500000
O O12 0.516410 0.711326 0.500000
#
# Coordination Sequence:
#
# PCOD8226799 Si02
#       7
#     4   8   4   8   8   4   4
#     4  10  21  33  52  80 108 140 175 219 266 308
#     4  10  22  37  54  80 109 140 178 218 264 314
#     4   9  20  38  55  76 110 144 173 215 268 314
#     4   9  18  34  54  77 106 140 178 218 262 312
#     4   9  19  35  54  77 106 139 178 219 260 314
#     4  10  22  37  56  81 106 138 180 218 260 317
#     4   9  20  38  58  79 106 142 178 217 264 312
#
# _framework density 20.694533
#
# number of rings (size 3 to 8) (size 9 to 14) (size 15 to 20)
#    0.000    2.600    0.000    0.900    0.000   12.400 
#    0.000    0.500    0.000    0.000    0.000    0.000 
#    0.000    0.000    0.000    0.000    0.000    0.000 
#
# Total GULP energy -495675.489320 kJ/mol
# GULP energy per Si atom -12391.887233 kJ/mol
# Density = 2.064743 g / cm^3
# Si number density = 20.694533 Si / 1000 Ang^3
#
#
#
# Elastic Constant Matrix: (Units=GPa)
#
#
# Indices 1 2 3 4 5 6 
#
# 1 21.5932 7.6823 4.9141 0.0000 0.0000 0.0000
# 2 7.6823 69.7223 10.5987 0.0000 0.0000 0.0000
# 3 4.9141 10.5987 64.5961 0.0000 0.0000 0.0000
# 4 0.0000 0.0000 0.0000 8.6616 0.0000 0.0000
# 5 0.0000 0.0000 0.0000 0.0000 8.2400 0.0000
# 6 0.0000 0.0000 0.0000 0.0000 0.0000 49.1826
#
#
#
# Elastic Compliance Matrix: (Units=1/GPa)
#
#
# Indices 1 2 3 4 5 6 
#
# 1 0.048724 -0.004928 -0.002898 0.000000 0.000000 0.000000
# 2 -0.004928 0.015208 -0.002120 0.000000 0.000000 0.000000
# 3 -0.002898 -0.002120 0.016049 0.000000 0.000000 0.000000
# 4 0.000000 0.000000 0.000000 0.115452 0.000000 0.000000
# 5 0.000000 0.000000 0.000000 0.000000 0.121360 0.000000
# 6 0.000000 0.000000 0.000000 0.000000 0.000000 0.020332
#
#
# Mechanical properties :
#
#
# Convention : Reuss Voigt Hill
#
# Bulk Modulus (GPa) = 16.64229 22.47796 19.56013
# Shear Modulus (GPa) = 13.26095 22.06461 17.66278
#
# Velocity S-wave (km/s) = 2.53414 3.26882 2.92464
# Velocity P-wave (km/s) = 4.07699 5.01321 4.56914
#
# Compressibility (1/GPa) = 0.06008788
#
# Stress axis : x y z
#
# Youngs Moduli (GPa) = 20.52393 65.75519 62.30849
#
# Poissons Ratio (x) = 0.32404 0.18057
# Poissons Ratio (y) = 0.10114 0.13212
# Poissons Ratio (z) = 0.05948 0.13942
#
# Static dielectric constant tensor:
#      x y z
#    x 3.847540 0.000000 0.000000 
#    y 0.000000 3.675170 0.000000 
#    z 0.000000 0.000000 3.630590 
# 
# 
# High freq. dielectric constant tensor:
#      x y z
#    x 1.807770 0.000000 0.000000 
#    y 0.000000 1.802180 0.000000 
#    z 0.000000 0.000000 1.803540 
# 
# From -- ./inp_files/17149.got.cif
#   From: 2010.03.12/outbox.cif.g09.slc.cpg/sg55_9_cif.got.tgz:17149.got - 2010.04.16 15:19:21.
