data_PCOD8226765
_publ_section_title
;
Structure prediction by ZEFSAII (Michael W. Deem and Ramdas Pophale) SiO2 
 PCOD8226765
Probable space group: P B A M
;
_chemical_formula_sum "Si O2"
_cell_formula_units_Z 64
_cell_length_a 22.350774
_cell_length_b 10.928004
_cell_length_c 12.917510
_cell_angle_alpha 90.000000
_cell_angle_beta 90.000000
_cell_angle_gamma 90.000000
_cell_volume 3155.093391
_symmetry_space_group_name_H-M "P B A M"
_symmetry_group_IT_number 55
_symmetry_cell_setting 'orthorhombic'
loop_
_space_group_symop_operation_xyz
x,y,z
-x,-y,z
1/2+x,1/2-y,-z
1/2-x,1/2+y,-z
-x,-y,-z
x,y,-z
1/2-x,1/2+y,z
1/2+x,1/2-y,z
loop_
_atom_site_type_symbol
_atom_site_label
_atom_site_fract_x
_atom_site_fract_y
_atom_site_fract_z
Si Si1 0.784552 0.246380 0.618803
Si Si2 0.037894 0.617651 0.122067
Si Si3 0.330871 0.086959 0.212255
Si Si4 0.424323 0.681803 0.379322
Si Si5 0.645872 0.539141 0.288461
Si Si6 0.522937 0.631013 0.774788
Si Si7 0.331462 0.809692 0.262659
Si Si8 0.292443 0.613135 0.880728
O O1 0.784899 0.285088 0.500000
O O2 0.826335 0.341566 0.679721
O O3 0.811109 0.111342 0.634124
O O4 0.717054 0.250145 0.660117
O O5 0.104925 0.606725 0.162852
O O6 0.009469 0.749281 0.154932
O O7 0.000000 0.500000 0.163768
O O8 0.038849 0.614403 0.000000
O O9 0.278888 0.132772 0.134143
O O10 0.317967 0.947217 0.236360
O O11 0.430962 0.709064 0.500000
O O12 0.379364 0.571128 0.356108
O O13 0.489499 0.650434 0.334696
O O14 0.395957 0.798380 0.319366
O O15 0.593340 0.625851 0.245745
O O16 0.683933 0.499405 0.188247
O O17 0.500000 0.500000 0.824131
O O18 0.328663 0.734334 0.154816
O O19 0.307122 0.586629 0.000000
#
# Coordination Sequence:
#
# PCOD8226765 Si02
#       8
#     8   8   8   8   8   8   8   8
#     4  11  22  37  61  89 125 165 203 257 322 374
#     4  11  24  42  64  89 124 171 213 263 330 388
#     4  11  22  42  61  89 122 164 214 261 305 392
#     4  10  21  38  64  89 121 166 208 256 315 371
#     4  10  20  40  59  93 126 153 204 265 308 376
#     4  10  22  41  64  91 125 162 213 270 313 371
#     4  10  22  40  59  90 129 159 209 259 314 386
#     4  10  22  39  63  92 124 164 204 259 324 381
#
# _framework density 20.284662999999998
#
# number of rings (size 3 to 8) (size 9 to 14) (size 15 to 20)
#    0.000    1.625    2.500    1.875    0.000    5.500 
#    0.000    7.500    0.000    1.500    0.000    0.000 
#    0.000    0.000    0.000    0.000    0.000    0.000 
#
# Total GULP energy -793547.086723 kJ/mol
# GULP energy per Si atom -12399.173230 kJ/mol
# Density = 2.023849 g / cm^3
# Si number density = 20.284663 Si / 1000 Ang^3
#
#
#
# Elastic Constant Matrix: (Units=GPa)
#
#
# Indices 1 2 3 4 5 6 
#
# 1 95.9966 17.3000 33.8100 0.0000 0.0000 0.0000
# 2 17.3000 99.4387 33.5117 0.0000 0.0000 0.0000
# 3 33.8100 33.5117 108.3848 0.0000 0.0000 0.0000
# 4 0.0000 0.0000 0.0000 23.7998 0.0000 0.0000
# 5 0.0000 0.0000 0.0000 0.0000 24.9173 0.0000
# 6 0.0000 0.0000 0.0000 0.0000 0.0000 36.9169
#
#
#
# Elastic Compliance Matrix: (Units=1/GPa)
#
#
# Indices 1 2 3 4 5 6 
#
# 1 0.011775 -0.000905 -0.003393 0.000000 0.000000 0.000000
# 2 -0.000905 0.011296 -0.003210 0.000000 0.000000 0.000000
# 3 -0.003393 -0.003210 0.011278 0.000000 0.000000 0.000000
# 4 0.000000 0.000000 0.000000 0.042017 0.000000 0.000000
# 5 0.000000 0.000000 0.000000 0.000000 0.040133 0.000000
# 6 0.000000 0.000000 0.000000 0.000000 0.000000 0.027088
#
#
# Mechanical properties :
#
#
# Convention : Reuss Voigt Hill
#
# Bulk Modulus (GPa) = 51.72970 52.56259 52.14615
# Shear Modulus (GPa) = 30.29432 31.74002 31.01717
#
# Velocity S-wave (km/s) = 3.86872 3.95996 3.91461
# Velocity P-wave (km/s) = 6.74635 6.84668 6.79670
#
# Compressibility (1/GPa) = 0.01933125
#
# Stress axis : x y z
#
# Youngs Moduli (GPa) = 84.92355 88.52857 88.67190
#
# Poissons Ratio (x) = 0.08012 0.30090
# Poissons Ratio (y) = 0.07686 0.28466
# Poissons Ratio (z) = 0.28818 0.28420
#
# Static dielectric constant tensor:
#      x y z
#    x 3.826330 0.000000 0.000000 
#    y 0.000000 3.860050 0.000000 
#    z 0.000000 0.000000 3.402540 
# 
# 
# High freq. dielectric constant tensor:
#      x y z
#    x 1.802400 0.000000 0.000000 
#    y 0.000000 1.799390 0.000000 
#    z 0.000000 0.000000 1.772600 
# 
# From -- ./inp_files/15746.got.cif
#   From: 2010.03.12/outbox.cif.g09.slc.cpg/sg55_8_cif.got.tgz:15746.got - 2010.04.16 15:19:21.
