data_PCOD8226032
_publ_section_title
;
Structure prediction by ZEFSAII (Michael W. Deem and Ramdas Pophale) SiO2 
 PCOD8226032
Probable space group: P B A M
;
_chemical_formula_sum "Si O2"
_cell_formula_units_Z 56
_cell_length_a 16.982135
_cell_length_b 18.116532
_cell_length_c 9.423561
_cell_angle_alpha 90.000000
_cell_angle_beta 90.000000
_cell_angle_gamma 90.000000
_cell_volume 2899.228202
_symmetry_space_group_name_H-M "P B A M"
_symmetry_group_IT_number 55
_symmetry_cell_setting 'orthorhombic'
loop_
_space_group_symop_operation_xyz
x,y,z
-x,-y,z
1/2+x,1/2-y,-z
1/2-x,1/2+y,-z
-x,-y,-z
x,y,-z
1/2-x,1/2+y,z
1/2+x,1/2-y,z
loop_
_atom_site_type_symbol
_atom_site_label
_atom_site_fract_x
_atom_site_fract_y
_atom_site_fract_z
Si Si1 0.916311 0.175569 0.665673
Si Si2 0.648471 0.834488 0.335130
Si Si3 0.073751 0.186699 0.838599
Si Si4 0.006710 0.413280 0.340172
Si Si5 0.198588 0.919346 0.165809
Si Si6 0.141400 0.343602 0.837863
Si Si7 0.716803 0.412477 0.163456
O O1 0.925344 0.157733 0.500000
O O2 0.862879 0.247617 0.691354
O O3 0.876528 0.106374 0.743870
O O4 0.002617 0.188236 0.728990
O O5 0.660417 0.852994 0.500000
O O6 0.571661 0.876680 0.274735
O O7 0.724549 0.862712 0.253771
O O8 0.129366 0.257180 0.810089
O O9 0.127489 0.115010 0.812126
O O10 0.041003 0.187860 0.000000
O O11 0.017932 0.383627 0.500000
O O12 0.082346 0.391848 0.252462
O O13 0.000000 0.500000 0.335534
O O14 0.270304 0.865383 0.205582
O O15 0.220979 0.002440 0.210972
O O16 0.176373 0.915685 0.000000
O O17 0.126056 0.365377 0.000000
O O18 0.741458 0.403121 0.000000
#
# Coordination Sequence:
#
# PCOD8226032 Si02
#       7
#     8   8   8   8   8   8   8
#     4  11  23  39  60  86 115 153 197 238 286 344
#     4  10  21  37  56  84 118 150 191 236 285 347
#     4  10  21  38  59  84 113 150 193 238 291 344
#     4  10  20  34  54  81 117 155 186 228 286 343
#     4  10  22  40  60  86 119 152 192 243 292 342
#     4  10  20  35  57  84 113 147 191 237 283 341
#     4  10  22  39  61  87 116 153 194 239 293 345
#
# _framework density 19.315484000000001
#
# number of rings (size 3 to 8) (size 9 to 14) (size 15 to 20)
#    0.000    1.857    1.429    2.143    0.000    5.429 
#    0.000    2.857    0.000    0.000    0.000    0.000 
#    0.000    0.000    0.000    0.000    0.000    0.000 
#
# Total GULP energy -694645.415684 kJ/mol
# GULP energy per Si atom -12404.382423 kJ/mol
# Density = 1.927152 g / cm^3
# Si number density = 19.315484 Si / 1000 Ang^3
#
#
#
# Elastic Constant Matrix: (Units=GPa)
#
#
# Indices 1 2 3 4 5 6 
#
# 1 88.9165 43.0670 54.4948 0.0000 0.0000 0.0000
# 2 43.0670 76.1234 45.1628 0.0000 0.0000 0.0000
# 3 54.4948 45.1628 79.3126 0.0000 0.0000 0.0000
# 4 0.0000 0.0000 0.0000 50.7677 0.0000 0.0000
# 5 0.0000 0.0000 0.0000 0.0000 300.1297 0.0000
# 6 0.0000 0.0000 0.0000 0.0000 0.0000 34.3292
#
#
#
# Elastic Compliance Matrix: (Units=1/GPa)
#
#
# Indices 1 2 3 4 5 6 
#
# 1 0.020576 -0.004913 -0.011340 0.000000 0.000000 0.000000
# 2 -0.004913 0.021012 -0.008589 0.000000 0.000000 0.000000
# 3 -0.011340 -0.008589 0.025291 0.000000 0.000000 0.000000
# 4 0.000000 0.000000 0.000000 0.019698 0.000000 0.000000
# 5 0.000000 0.000000 0.000000 0.000000 0.003332 0.000000
# 6 0.000000 0.000000 0.000000 0.000000 0.000000 0.029130
#
#
# Mechanical properties :
#
#
# Convention : Reuss Voigt Hill
#
# Bulk Modulus (GPa) = 58.15793 58.86683 58.51238
# Shear Modulus (GPa) = 28.66088 83.82051 56.24069
#
# Velocity S-wave (km/s) = 3.85623 6.59467 5.40186
# Velocity P-wave (km/s) = 7.07122 9.40898 8.32259
#
# Compressibility (1/GPa) = 0.01719456
#
# Stress axis : x y z
#
# Youngs Moduli (GPa) = 48.59975 47.59205 39.54023
#
# Poissons Ratio (x) = 0.23383 0.44839
# Poissons Ratio (y) = 0.23878 0.33961
# Poissons Ratio (z) = 0.55112 0.40877
#
# Static dielectric constant tensor:
#      x y z
#    x 3.413130 0.000000 0.000000 
#    y 0.000000 3.753340 0.000000 
#    z 0.000000 0.000000 3.513640 
# 
# 
# High freq. dielectric constant tensor:
#      x y z
#    x 1.752670 0.000000 0.000000 
#    y 0.000000 1.760190 0.000000 
#    z 0.000000 0.000000 1.746400 
# 
# From -- ./inp_files/6070.got.cif
#   From: 2010.03.12/outbox.cif.g09.slc.cpg/sg55_4_cif.got.tgz:6070.got - 2010.04.16 15:19:21.
