data_PCOD8226823
_publ_section_title
;
Structure prediction by ZEFSAII (Michael W. Deem and Ramdas Pophale) SiO2 
 PCOD8226823
Probable space group: P B A M
;
_chemical_formula_sum "Si O2"
_cell_formula_units_Z 64
_cell_length_a 20.661214
_cell_length_b 19.372584
_cell_length_c 8.972037
_cell_angle_alpha 90.000000
_cell_angle_beta 90.000000
_cell_angle_gamma 90.000000
_cell_volume 3591.157433
_symmetry_space_group_name_H-M "P B A M"
_symmetry_group_IT_number 55
_symmetry_cell_setting 'orthorhombic'
loop_
_space_group_symop_operation_xyz
x,y,z
-x,-y,z
1/2+x,1/2-y,-z
1/2-x,1/2+y,-z
-x,-y,-z
x,y,-z
1/2-x,1/2+y,z
1/2+x,1/2-y,z
loop_
_atom_site_type_symbol
_atom_site_label
_atom_site_fract_x
_atom_site_fract_y
_atom_site_fract_z
Si Si1 0.685119 0.709886 0.175598
Si Si2 0.267806 0.576099 0.325935
Si Si3 0.376042 0.075020 0.675790
Si Si4 0.065606 0.717479 0.323552
Si Si5 0.434416 0.792529 0.176032
Si Si6 0.613763 0.075943 0.671807
Si Si7 0.733550 0.579863 0.669664
Si Si8 0.311038 0.706306 0.824154
O O1 0.621481 0.734439 0.259962
O O2 0.696934 0.630281 0.217479
O O3 0.746372 0.754707 0.231369
O O4 0.674575 0.716450 0.000000
O O5 0.269658 0.593150 0.500000
O O6 0.195739 0.586785 0.257843
O O7 0.290661 0.497786 0.295405
O O8 0.314971 0.629542 0.243215
O O9 0.366427 0.070079 0.500000
O O10 0.421955 0.137752 0.723707
O O11 0.405558 0.001382 0.726988
O O12 0.063142 0.726370 0.500000
O O13 0.997813 0.740089 0.252082
O O14 0.425556 0.871432 0.226259
O O15 0.373280 0.748375 0.232789
O O16 0.442601 0.789615 0.000000
O O17 0.593643 0.088203 0.500000
O O18 0.689984 0.085679 0.694498
O O19 0.716274 0.599963 0.500000
O O20 0.311818 0.701039 0.000000
#
# Coordination Sequence:
#
# PCOD8226823 Si02
#       8
#     8   8   8   8   8   8   8   8
#     4  11  21  35  55  81 110 143 179 220 270 321
#     4   9  17  32  55  82 108 135 175 225 269 310
#     4   8  16  31  51  76 106 138 176 220 263 310
#     4  11  22  37  56  78 105 143 186 226 271 318
#     4  11  23  38  51  74 112 147 181 222 268 320
#     4   9  17  32  53  76 104 142 183 217 257 312
#     4   9  18  32  54  83 110 137 175 222 267 315
#     4  10  21  35  53  78 109 143 178 217 266 319
#
# _framework density 17.821553999999999
#
# number of rings (size 3 to 8) (size 9 to 14) (size 15 to 20)
#    0.000    2.250    2.500    2.625    0.000    2.500 
#    0.000    5.625    0.000    0.750    0.000    5.250 
#    0.000    0.000    0.000    0.000    0.000    0.000 
#
# Total GULP energy -793602.125265 kJ/mol
# GULP energy per Si atom -12400.033207 kJ/mol
# Density = 1.778099 g / cm^3
# Si number density = 17.821554 Si / 1000 Ang^3
#
#
#
# Elastic Constant Matrix: (Units=GPa)
#
#
# Indices 1 2 3 4 5 6 
#
# 1 91.3311 44.5535 33.5973 0.0000 0.0000 0.0000
# 2 44.5535 91.9120 32.4007 0.0000 0.0000 0.0000
# 3 33.5973 32.4007 49.3840 0.0000 0.0000 0.0000
# 4 0.0000 0.0000 0.0000 24.5970 0.0000 0.0000
# 5 0.0000 0.0000 0.0000 0.0000 26.8949 0.0000
# 6 0.0000 0.0000 0.0000 0.0000 0.0000 22.2759
#
#
#
# Elastic Compliance Matrix: (Units=1/GPa)
#
#
# Indices 1 2 3 4 5 6 
#
# 1 0.016313 -0.005197 -0.007688 0.000000 0.000000 0.000000
# 2 -0.005197 0.015809 -0.006837 0.000000 0.000000 0.000000
# 3 -0.007688 -0.006837 0.029965 0.000000 0.000000 0.000000
# 4 0.000000 0.000000 0.000000 0.040655 0.000000 0.000000
# 5 0.000000 0.000000 0.000000 0.000000 0.037182 0.000000
# 6 0.000000 0.000000 0.000000 0.000000 0.000000 0.044892
#
#
# Mechanical properties :
#
#
# Convention : Reuss Voigt Hill
#
# Bulk Modulus (GPa) = 44.16279 50.41446 47.28862
# Shear Modulus (GPa) = 21.56960 22.89194 22.23077
#
# Velocity S-wave (km/s) = 3.48273 3.58789 3.53570
# Velocity P-wave (km/s) = 6.40366 6.74640 6.57726
#
# Compressibility (1/GPa) = 0.02264350
#
# Stress axis : x y z
#
# Youngs Moduli (GPa) = 61.30213 63.25391 33.37186
#
# Poissons Ratio (x) = 0.32874 0.25657
# Poissons Ratio (y) = 0.31860 0.22815
# Poissons Ratio (z) = 0.47130 0.43244
#
# Static dielectric constant tensor:
#      x y z
#    x 3.163620 0.000000 0.000000 
#    y 0.000000 3.422120 0.000000 
#    z 0.000000 0.000000 3.097330 
# 
# 
# High freq. dielectric constant tensor:
#      x y z
#    x 1.669250 0.000000 0.000000 
#    y 0.000000 1.691470 0.000000 
#    z 0.000000 0.000000 1.677290 
# 
# From -- ./inp_files/8992.got.cif
#   From: 2010.03.12/outbox.cif.g09.slc.cpg/sg55_5_cif.got.tgz:8992.got - 2010.04.16 15:19:21.
