data_PCOD8226360
_publ_section_title
;
Structure prediction by ZEFSAII (Michael W. Deem and Ramdas Pophale) SiO2 
 PCOD8226360
Probable space group: P B A M
;
_chemical_formula_sum "Si O2"
_cell_formula_units_Z 56
_cell_length_a 9.205954
_cell_length_b 18.794559
_cell_length_c 16.937240
_cell_angle_alpha 90.000000
_cell_angle_beta 90.000000
_cell_angle_gamma 90.000000
_cell_volume 2930.512524
_symmetry_space_group_name_H-M "P B A M"
_symmetry_group_IT_number 55
_symmetry_cell_setting 'orthorhombic'
loop_
_space_group_symop_operation_xyz
x,y,z
-x,-y,z
1/2+x,1/2-y,-z
1/2-x,1/2+y,-z
-x,-y,-z
x,y,-z
1/2-x,1/2+y,z
1/2+x,1/2-y,z
loop_
_atom_site_type_symbol
_atom_site_label
_atom_site_fract_x
_atom_site_fract_y
_atom_site_fract_z
Si Si1 0.419233 0.430370 0.686247
Si Si2 0.343150 0.975423 0.777112
Si Si3 0.811280 0.288313 0.909050
Si Si4 0.831942 0.756062 0.687433
Si Si5 0.627195 0.172588 0.156613
Si Si6 0.088837 0.797526 0.409704
Si Si7 0.332515 0.615987 0.791747
O O1 0.500000 0.500000 0.656197
O O2 0.250771 0.444271 0.705356
O O3 0.423815 0.380741 0.609873
O O4 0.500899 0.402013 0.766773
O O5 0.362847 0.913927 0.844699
O O6 0.500000 0.000000 0.745543
O O7 0.259742 0.045102 0.808380
O O8 0.749423 0.207481 0.900787
O O9 0.683480 0.338369 0.872189
O O10 0.964822 0.300951 0.865253
O O11 0.832843 0.307778 0.000000
O O12 0.829202 0.697021 0.755461
O O13 0.746328 0.732952 0.609342
O O14 0.774892 0.832615 0.720689
O O15 0.993499 0.757414 0.654922
O O16 0.046374 0.783614 0.500000
#
# Coordination Sequence:
#
# PCOD8226360 Si02
#       7
#     8   8   8   8   8   8   8
#     4   9  20  37  58  83 113 155 196 238 287 348
#     4  11  20  36  61  93 109 148 201 244 282 335
#     4  11  23  39  58  88 120 153 188 240 293 340
#     4  10  20  36  58  84 112 156 197 239 284 347
#     4  11  22  38  63  85 115 155 201 236 282 351
#     4  11  21  34  55  87 119 150 191 245 295 343
#     4   9  20  37  60  85 117 149 197 238 283 352
#
# _framework density 19.109286000000001
#
# number of rings (size 3 to 8) (size 9 to 14) (size 15 to 20)
#    0.000    1.714    2.857    2.571    4.000    0.286 
#    0.000    2.143    0.000    4.286    0.000    0.000 
#    0.000    0.000    0.000    0.000    0.000    0.000 
#
# Total GULP energy -693787.150008 kJ/mol
# GULP energy per Si atom -12389.056250 kJ/mol
# Density = 1.906579 g / cm^3
# Si number density = 19.109286 Si / 1000 Ang^3
#
#
#
# Elastic Constant Matrix: (Units=GPa)
#
#
# Indices 1 2 3 4 5 6 
#
# 1 84.6653 36.0830 18.1959 0.0000 0.0000 0.0000
# 2 36.0830 105.1908 28.2109 0.0000 0.0000 0.0000
# 3 18.1959 28.2109 83.9476 0.0000 0.0000 0.0000
# 4 0.0000 0.0000 0.0000 19.1593 0.0000 0.0000
# 5 0.0000 0.0000 0.0000 0.0000 20.1902 0.0000
# 6 0.0000 0.0000 0.0000 0.0000 0.0000 29.3744
#
#
#
# Elastic Compliance Matrix: (Units=1/GPa)
#
#
# Indices 1 2 3 4 5 6 
#
# 1 0.014018 -0.004389 -0.001563 0.000000 0.000000 0.000000
# 2 -0.004389 0.011822 -0.003022 0.000000 0.000000 0.000000
# 3 -0.001563 -0.003022 0.013267 0.000000 0.000000 0.000000
# 4 0.000000 0.000000 0.000000 0.052194 0.000000 0.000000
# 5 0.000000 0.000000 0.000000 0.000000 0.049529 0.000000
# 6 0.000000 0.000000 0.000000 0.000000 0.000000 0.034043
#
#
# Mechanical properties :
#
#
# Convention : Reuss Voigt Hill
#
# Bulk Modulus (GPa) = 47.26257 48.75371 48.00814
# Shear Modulus (GPa) = 25.01574 26.49903 25.75738
#
# Velocity S-wave (km/s) = 3.62206 3.72789 3.67536
# Velocity P-wave (km/s) = 6.50222 6.64064 6.57179
#
# Compressibility (1/GPa) = 0.02115839
#
# Stress axis : x y z
#
# Youngs Moduli (GPa) = 71.33782 84.58450 75.37779
#
# Poissons Ratio (x) = 0.37126 0.11785
# Poissons Ratio (y) = 0.31311 0.22776
# Poissons Ratio (z) = 0.11153 0.25558
#
# Static dielectric constant tensor:
#      x y z
#    x 3.615700 0.000000 0.000000 
#    y 0.000000 3.854500 0.000000 
#    z 0.000000 0.000000 3.068810 
# 
# 
# High freq. dielectric constant tensor:
#      x y z
#    x 1.753450 0.000000 0.000000 
#    y 0.000000 1.755860 0.000000 
#    z 0.000000 0.000000 1.700480 
# 
# From -- ./inp_files/17606.got.cif
#   From: 2010.03.12/outbox.cif.g09.slc.cpg/sg55_9_cif.got.tgz:17606.got - 2010.04.16 15:19:21.
