data_PCOD8226592
_publ_section_title
;
Structure prediction by ZEFSAII (Michael W. Deem and Ramdas Pophale) SiO2 
 PCOD8226592
Probable space group: P B A M
;
_chemical_formula_sum "Si O2"
_cell_formula_units_Z 48
_cell_length_a 31.114318
_cell_length_b 10.345491
_cell_length_c 7.650623
_cell_angle_alpha 90.000000
_cell_angle_beta 90.000000
_cell_angle_gamma 90.000000
_cell_volume 2462.681200
_symmetry_space_group_name_H-M "P B A M"
_symmetry_group_IT_number 55
_symmetry_cell_setting 'orthorhombic'
loop_
_space_group_symop_operation_xyz
x,y,z
-x,-y,z
1/2+x,1/2-y,-z
1/2-x,1/2+y,-z
-x,-y,-z
x,y,-z
1/2-x,1/2+y,z
1/2+x,1/2-y,z
loop_
_atom_site_type_symbol
_atom_site_label
_atom_site_fract_x
_atom_site_fract_y
_atom_site_fract_z
Si Si1 0.377215 0.543574 0.205282
Si Si2 0.283534 0.523645 0.301356
Si Si3 0.481916 0.201995 0.500000
Si Si4 0.462472 0.397625 0.201668
Si Si5 0.376219 0.836440 0.800078
Si Si6 0.718443 0.187513 0.291039
Si Si7 0.931508 0.560556 0.500000
O O1 0.333810 0.486567 0.289295
O O2 0.417613 0.459129 0.265346
O O3 0.384704 0.690466 0.266481
O O4 0.370985 0.540756 0.000000
O O5 0.268678 0.530015 0.500000
O O6 0.274607 0.665743 0.216848
O O7 0.255414 0.408076 0.215824
O O8 0.471768 0.276487 0.322191
O O9 0.532120 0.169835 0.500000
O O10 0.452046 0.078780 0.500000
O O11 0.500000 0.500000 0.228623
O O12 0.460188 0.352334 0.000000
O O13 0.325958 0.869005 0.783072
O O14 0.403073 0.929827 0.674860
O O15 0.391447 0.857140 0.000000
O O16 0.716580 0.193120 0.500000
#
# Coordination Sequence:
#
# PCOD8226592 Si02
#       7
#     8   8   4   8   8   8   4
#     4   9  19  34  56  85 114 145 189 240 290 343
#     4   9  18  31  52  78 111 153 189 236 290 340
#     4  11  25  40  60  85 116 157 185 236 296 341
#     4  10  21  39  61  89 119 147 191 244 291 347
#     4  10  20  37  62  85 112 153 193 237 284 338
#     4   9  17  34  53  80 114 148 196 240 284 345
#     4  11  24  42  58  83 117 150 199 234 275 354
#
# _framework density 19.490953000000001
#
# number of rings (size 3 to 8) (size 9 to 14) (size 15 to 20)
#    0.000    2.333    0.833    1.250    2.333    3.333 
#    3.000    1.667    0.000    0.000    0.000    0.000 
#    0.000    0.000    0.000    0.000    0.000    0.000 
#
# Total GULP energy -595150.187385 kJ/mol
# GULP energy per Si atom -12398.962237 kJ/mol
# Density = 1.944659 g / cm^3
# Si number density = 19.490953 Si / 1000 Ang^3
#
#
#
# Elastic Constant Matrix: (Units=GPa)
#
#
# Indices 1 2 3 4 5 6 
#
# 1 144.1480 76.0119 39.1406 0.0000 0.0000 0.0000
# 2 76.0119 84.4323 30.9005 0.0000 0.0000 0.0000
# 3 39.1406 30.9005 69.7508 0.0000 0.0000 0.0000
# 4 0.0000 0.0000 0.0000 11.6868 0.0000 0.0000
# 5 0.0000 0.0000 0.0000 0.0000 30.1558 0.0000
# 6 0.0000 0.0000 0.0000 0.0000 0.0000 33.3798
#
#
#
# Elastic Compliance Matrix: (Units=1/GPa)
#
#
# Indices 1 2 3 4 5 6 
#
# 1 0.013601 -0.011280 -0.002635 0.000000 0.000000 0.000000
# 2 -0.011280 0.023491 -0.004077 0.000000 0.000000 0.000000
# 3 -0.002635 -0.004077 0.017621 0.000000 0.000000 0.000000
# 4 0.000000 0.000000 0.000000 0.085566 0.000000 0.000000
# 5 0.000000 0.000000 0.000000 0.000000 0.033161 0.000000
# 6 0.000000 0.000000 0.000000 0.000000 0.000000 0.029958
#
#
# Mechanical properties :
#
#
# Convention : Reuss Voigt Hill
#
# Bulk Modulus (GPa) = 53.39203 65.60413 59.49808
# Shear Modulus (GPa) = 20.35605 25.19636 22.77621
#
# Velocity S-wave (km/s) = 3.23520 3.59934 3.42212
# Velocity P-wave (km/s) = 6.43491 7.14182 6.79756
#
# Compressibility (1/GPa) = 0.01872939
#
# Stress axis : x y z
#
# Youngs Moduli (GPa) = 73.52342 42.56904 56.74888
#
# Poissons Ratio (x) = 0.48019 0.14953
# Poissons Ratio (y) = 0.82937 0.23136
# Poissons Ratio (z) = 0.19373 0.17355
#
# Static dielectric constant tensor:
#      x y z
#    x 3.696230 0.000000 0.000000 
#    y 0.000000 3.553610 0.000000 
#    z 0.000000 0.000000 3.485440 
# 
# 
# High freq. dielectric constant tensor:
#      x y z
#    x 1.766940 0.000000 0.000000 
#    y 0.000000 1.740380 0.000000 
#    z 0.000000 0.000000 1.758820 
# 
# From -- ./inp_files/2946.got.cif
#   From: 2010.03.12/outbox.cif.g09.slc.cpg/sg55_2_cif.got.tgz:2946.got - 2010.04.16 15:19:21.
