data_PCOD8226896
_publ_section_title
;
Structure prediction by ZEFSAII (Michael W. Deem and Ramdas Pophale) SiO2 
 PCOD8226896
Probable space group: P B A M
;
_chemical_formula_sum "Si O2"
_cell_formula_units_Z 64
_cell_length_a 18.862527
_cell_length_b 18.883480
_cell_length_c 9.356645
_cell_angle_alpha 90.000000
_cell_angle_beta 90.000000
_cell_angle_gamma 90.000000
_cell_volume 3332.744799
_symmetry_space_group_name_H-M "P B A M"
_symmetry_group_IT_number 55
_symmetry_cell_setting 'orthorhombic'
loop_
_space_group_symop_operation_xyz
x,y,z
-x,-y,z
1/2+x,1/2-y,-z
1/2-x,1/2+y,-z
-x,-y,-z
x,y,-z
1/2-x,1/2+y,z
1/2+x,1/2-y,z
loop_
_atom_site_type_symbol
_atom_site_label
_atom_site_fract_x
_atom_site_fract_y
_atom_site_fract_z
Si Si1 0.529365 0.120460 0.335823
Si Si2 0.371705 0.972614 0.167775
Si Si3 0.965108 0.891649 0.831119
Si Si4 0.133765 0.613854 0.666243
Si Si5 0.400537 0.732371 0.335418
Si Si6 0.261853 0.239926 0.333356
Si Si7 0.104198 0.968614 0.168873
Si Si8 0.764217 0.117742 0.166823
O O1 0.540486 0.097766 0.500000
O O2 0.555282 0.055014 0.238173
O O3 0.447205 0.137125 0.304317
O O4 0.576713 0.188170 0.296798
O O5 0.313039 0.912894 0.199807
O O6 0.347043 0.045659 0.239542
O O7 0.382748 0.985193 0.000000
O O8 0.948943 0.817801 0.758447
O O9 0.042848 0.915423 0.778700
O O10 0.909280 0.951394 0.776320
O O11 0.961194 0.880578 0.000000
O O12 0.145993 0.595574 0.500000
O O13 0.185531 0.677266 0.715256
O O14 0.416050 0.716067 0.500000
O O15 0.318663 0.718787 0.296630
O O16 0.270775 0.256772 0.500000
O O17 0.281214 0.310375 0.248525
O O18 0.179853 0.940899 0.222407
O O19 0.099551 0.971813 0.000000
O O20 0.774650 0.133186 0.000000
#
# Coordination Sequence:
#
# PCOD8226896 Si02
#       8
#     8   8   8   8   8   8   8   8
#     4  10  21  40  61  81 112 154 190 229 284 340
#     4  11  23  38  59  88 116 147 189 238 284 330
#     4   9  18  34  58  81 107 146 186 221 267 332
#     4  10  23  40  61  85 112 149 191 231 281 338
#     4  10  21  36  55  81 114 145 180 230 280 325
#     4  10  22  40  58  81 112 147 187 228 272 331
#     4   8  17  35  55  80 111 144 182 224 271 326
#     4  10  21  37  57  81 113 148 183 227 278 328
#
# _framework density 19.203389999999999
#
# number of rings (size 3 to 8) (size 9 to 14) (size 15 to 20)
#    0.000    2.250    1.250    1.500    3.500    4.000 
#    0.000    1.875    0.000    0.000    0.000    0.000 
#    0.000    0.000    0.000    0.000    0.000    0.000 
#
# Total GULP energy -793659.953632 kJ/mol
# GULP energy per Si atom -12400.936776 kJ/mol
# Density = 1.915968 g / cm^3
# Si number density = 19.203390 Si / 1000 Ang^3
#
#
#
# Elastic Constant Matrix: (Units=GPa)
#
#
# Indices 1 2 3 4 5 6 
#
# 1 78.9301 35.7673 31.0643 0.0000 0.0000 0.0000
# 2 35.7673 96.4066 51.1436 0.0000 0.0000 0.0000
# 3 31.0643 51.1436 58.6946 0.0000 0.0000 0.0000
# 4 0.0000 0.0000 0.0000 38.4322 0.0000 0.0000
# 5 0.0000 0.0000 0.0000 0.0000 22.0639 0.0000
# 6 0.0000 0.0000 0.0000 0.0000 0.0000 37.2416
#
#
#
# Elastic Compliance Matrix: (Units=1/GPa)
#
#
# Indices 1 2 3 4 5 6 
#
# 1 0.016386 -0.002750 -0.006276 0.000000 0.000000 0.000000
# 2 -0.002750 0.019751 -0.015754 0.000000 0.000000 0.000000
# 3 -0.006276 -0.015754 0.034087 0.000000 0.000000 0.000000
# 4 0.000000 0.000000 0.000000 0.026020 0.000000 0.000000
# 5 0.000000 0.000000 0.000000 0.000000 0.045323 0.000000
# 6 0.000000 0.000000 0.000000 0.000000 0.000000 0.026852
#
#
# Mechanical properties :
#
#
# Convention : Reuss Voigt Hill
#
# Bulk Modulus (GPa) = 48.39739 52.22021 50.30880
# Shear Modulus (GPa) = 22.23553 27.28462 24.76007
#
# Velocity S-wave (km/s) = 3.40648 3.77347 3.59466
# Velocity P-wave (km/s) = 6.38196 6.79983 6.59420
#
# Compressibility (1/GPa) = 0.02066227
#
# Stress axis : x y z
#
# Youngs Moduli (GPa) = 61.02944 50.63144 29.33686
#
# Poissons Ratio (x) = 0.13921 0.18413
# Poissons Ratio (y) = 0.16780 0.46219
# Poissons Ratio (z) = 0.38304 0.79767
#
# Static dielectric constant tensor:
#      x y z
#    x 3.713890 0.000000 0.000000 
#    y 0.000000 3.512020 0.000000 
#    z 0.000000 0.000000 3.300040 
# 
# 
# High freq. dielectric constant tensor:
#      x y z
#    x 1.756370 0.000000 0.000000 
#    y 0.000000 1.751660 0.000000 
#    z 0.000000 0.000000 1.727480 
# 
# From -- ./inp_files/9008.got.cif
#   From: 2010.03.12/outbox.cif.g09.slc.cpg/sg55_5_cif.got.tgz:9008.got - 2010.04.16 15:19:21.
