data_PCOD8226271
_publ_section_title
;
Structure prediction by ZEFSAII (Michael W. Deem and Ramdas Pophale) SiO2 
 PCOD8226271
Probable space group: P B A M
;
_chemical_formula_sum "Si O2"
_cell_formula_units_Z 40
_cell_length_a 8.788811
_cell_length_b 28.517943
_cell_length_c 7.642758
_cell_angle_alpha 90.000000
_cell_angle_beta 90.000000
_cell_angle_gamma 90.000000
_cell_volume 1915.571779
_symmetry_space_group_name_H-M "P B A M"
_symmetry_group_IT_number 55
_symmetry_cell_setting 'orthorhombic'
loop_
_space_group_symop_operation_xyz
x,y,z
-x,-y,z
1/2+x,1/2-y,-z
1/2-x,1/2+y,-z
-x,-y,-z
x,y,-z
1/2-x,1/2+y,z
1/2+x,1/2-y,z
loop_
_atom_site_type_symbol
_atom_site_label
_atom_site_fract_x
_atom_site_fract_y
_atom_site_fract_z
Si Si1 0.349141 0.710662 0.793951
Si Si2 0.854353 0.937304 0.000000
Si Si3 0.197764 0.618392 0.303094
Si Si4 0.305841 0.305919 0.205886
Si Si5 0.353239 0.898675 0.303158
Si Si6 0.206570 0.955553 0.000000
O O1 0.241946 0.672937 0.700733
O O2 0.296880 0.762166 0.734840
O O3 0.522240 0.703716 0.734499
O O4 0.328944 0.704176 0.000000
O O5 0.804811 0.910811 0.174750
O O6 0.035437 0.937193 0.000000
O O7 0.782499 0.988641 0.000000
O O8 0.220217 0.599140 0.500000
O O9 0.023594 0.613751 0.242521
O O10 0.247609 0.351968 0.302224
O O11 0.294133 0.314884 0.000000
O O12 0.350142 0.919182 0.500000
O O13 0.289302 0.937991 0.174315
#
# Coordination Sequence:
#
# PCOD8226271 Si02
#       6
#     8   4   8   8   8   4
#     4  10  20  35  59  90 125 167 210 252 302 360
#     4  11  25  45  68  93 122 159 203 255 315 371
#     4  11  24  41  64  94 127 164 206 253 307 367
#     4  10  20  35  59  90 125 167 210 252 302 360
#     4  11  24  41  64  94 127 164 206 253 307 367
#     4  11  25  45  68  93 122 159 203 255 315 371
#
# _framework density 20.881494
#
# number of rings (size 3 to 8) (size 9 to 14) (size 15 to 20)
#    0.000    1.400    2.000    3.000    0.000    8.000 
#    0.000    4.000    0.000    0.000    0.000    0.000 
#    0.000    0.000    0.000    0.000    0.000    0.000 
#
# Total GULP energy -496243.304086 kJ/mol
# GULP energy per Si atom -12406.082602 kJ/mol
# Density = 2.083397 g / cm^3
# Si number density = 20.881494 Si / 1000 Ang^3
#
#
#
# Elastic Constant Matrix: (Units=GPa)
#
#
# Indices 1 2 3 4 5 6 
#
# 1 50.7378 -6.6161 7.4319 0.0000 0.0000 0.0000
# 2 -6.6161 59.4600 19.3704 0.0000 0.0000 0.0000
# 3 7.4319 19.3704 83.6231 0.0000 0.0000 0.0000
# 4 0.0000 0.0000 0.0000 6.6136 0.0000 0.0000
# 5 0.0000 0.0000 0.0000 0.0000 22.4363 0.0000
# 6 0.0000 0.0000 0.0000 0.0000 0.0000 37.4015
#
#
#
# Elastic Compliance Matrix: (Units=1/GPa)
#
#
# Indices 1 2 3 4 5 6 
#
# 1 0.020486 0.003107 -0.002540 0.000000 0.000000 0.000000
# 2 0.003107 0.018662 -0.004599 0.000000 0.000000 0.000000
# 3 -0.002540 -0.004599 0.013250 0.000000 0.000000 0.000000
# 4 0.000000 0.000000 0.000000 0.151203 0.000000 0.000000
# 5 0.000000 0.000000 0.000000 0.000000 0.044571 0.000000
# 6 0.000000 0.000000 0.000000 0.000000 0.000000 0.026737
#
#
# Mechanical properties :
#
#
# Convention : Reuss Voigt Hill
#
# Bulk Modulus (GPa) = 22.55643 26.02151 24.28897
# Shear Modulus (GPa) = 16.79255 24.86592 20.82923
#
# Velocity S-wave (km/s) = 2.83889 3.45456 3.16174
# Velocity P-wave (km/s) = 4.64449 5.32921 4.99859
#
# Compressibility (1/GPa) = 0.04433326
#
# Stress axis : x y z
#
# Youngs Moduli (GPa) = 48.81280 53.58488 75.47453
#
# Poissons Ratio (x) = -0.16649 0.19174
# Poissons Ratio (y) = -0.15167 0.34711
# Poissons Ratio (z) = 0.12401 0.24644
#
# Static dielectric constant tensor:
#      x y z
#    x 3.938240 0.000000 0.000000 
#    y 0.000000 3.724030 0.000000 
#    z 0.000000 0.000000 3.720970 
# 
# 
# High freq. dielectric constant tensor:
#      x y z
#    x 1.832940 0.000000 0.000000 
#    y 0.000000 1.813220 0.000000 
#    z 0.000000 0.000000 1.819440 
# 
# From -- ./inp_files/2531.got.cif
#   From: 2010.03.12/outbox.cif.g09.slc.cpg/sg55_2_cif.got.tgz:2531.got - 2010.04.16 15:19:21.
