data_PCOD8226402
_publ_section_title
;
Structure prediction by ZEFSAII (Michael W. Deem and Ramdas Pophale) SiO2 
 PCOD8226402
Probable space group: P B A M
;
_chemical_formula_sum "Si O2"
_cell_formula_units_Z 48
_cell_length_a 19.867689
_cell_length_b 10.004987
_cell_length_c 12.870981
_cell_angle_alpha 90.000000
_cell_angle_beta 90.000000
_cell_angle_gamma 90.000000
_cell_volume 2558.441735
_symmetry_space_group_name_H-M "P B A M"
_symmetry_group_IT_number 55
_symmetry_cell_setting 'orthorhombic'
loop_
_space_group_symop_operation_xyz
x,y,z
-x,-y,z
1/2+x,1/2-y,-z
1/2-x,1/2+y,-z
-x,-y,-z
x,y,-z
1/2-x,1/2+y,z
1/2+x,1/2-y,z
loop_
_atom_site_type_symbol
_atom_site_label
_atom_site_fract_x
_atom_site_fract_y
_atom_site_fract_z
Si Si1 0.739215 0.793739 0.760108
Si Si2 0.510578 0.349404 0.728842
Si Si3 0.373512 0.303827 0.618135
Si Si4 0.702539 0.053209 0.878170
Si Si5 0.950552 0.617649 0.878139
Si Si6 0.144651 0.111459 0.615970
O O1 0.677814 0.790476 0.679550
O O2 0.747701 0.655688 0.821275
O O3 0.807205 0.818966 0.697706
O O4 0.724640 0.906106 0.845005
O O5 0.500000 0.500000 0.771960
O O6 0.445216 0.291708 0.672850
O O7 0.529418 0.256805 0.825485
O O8 0.568366 0.349623 0.642089
O O9 0.379562 0.252081 0.500000
O O10 0.344853 0.453178 0.621125
O O11 0.625200 0.078776 0.847506
O O12 0.713784 0.068222 0.000000
O O13 0.000000 0.500000 0.839646
O O14 0.958660 0.641241 0.000000
O O15 0.160511 0.163978 0.500000
#
# Coordination Sequence:
#
# PCOD8226402 Si02
#       6
#     8   8   8   8   8   8
#     4  12  21  40  61  88 119 157 198 249 297 354
#     4  10  20  37  61  87 117 156 199 246 293 349
#     4  10  21  37  60  89 121 155 198 245 295 354
#     4  11  24  40  62  88 118 158 200 248 302 355
#     4  10  21  39  60  85 121 160 195 243 305 361
#     4  10  20  36  59  86 118 157 198 242 297 349
#
# _framework density 18.761420000000001
#
# number of rings (size 3 to 8) (size 9 to 14) (size 15 to 20)
#    0.000    1.500    3.333    2.500    0.000    2.333 
#    0.000    0.833    0.000    2.000    0.000    0.000 
#    0.000    0.000    0.000    0.000    0.000    0.000 
#
# Total GULP energy -595420.292031 kJ/mol
# GULP energy per Si atom -12404.589417 kJ/mol
# Density = 1.871872 g / cm^3
# Si number density = 18.761420 Si / 1000 Ang^3
#
#
#
# Elastic Constant Matrix: (Units=GPa)
#
#
# Indices 1 2 3 4 5 6 
#
# 1 89.3077 20.0438 24.8485 0.0000 0.0000 0.0000
# 2 20.0438 66.5759 29.4047 0.0000 0.0000 0.0000
# 3 24.8485 29.4047 72.5028 0.0000 0.0000 0.0000
# 4 0.0000 0.0000 0.0000 26.0817 0.0000 0.0000
# 5 0.0000 0.0000 0.0000 0.0000 27.8548 0.0000
# 6 0.0000 0.0000 0.0000 0.0000 0.0000 29.8115
#
#
#
# Elastic Compliance Matrix: (Units=1/GPa)
#
#
# Indices 1 2 3 4 5 6 
#
# 1 0.012662 -0.002309 -0.003403 0.000000 0.000000 0.000000
# 2 -0.002309 0.018719 -0.006801 0.000000 0.000000 0.000000
# 3 -0.003403 -0.006801 0.017717 0.000000 0.000000 0.000000
# 4 0.000000 0.000000 0.000000 0.038341 0.000000 0.000000
# 5 0.000000 0.000000 0.000000 0.000000 0.035900 0.000000
# 6 0.000000 0.000000 0.000000 0.000000 0.000000 0.033544
#
#
# Mechanical properties :
#
#
# Convention : Reuss Voigt Hill
#
# Bulk Modulus (GPa) = 41.54042 41.88673 41.71357
# Shear Modulus (GPa) = 26.32491 27.02223 26.67357
#
# Velocity S-wave (km/s) = 3.74992 3.79926 3.77467
# Velocity P-wave (km/s) = 6.39833 6.45138 6.42491
#
# Compressibility (1/GPa) = 0.02407294
#
# Stress axis : x y z
#
# Youngs Moduli (GPa) = 78.97412 53.42093 56.44299
#
# Poissons Ratio (x) = 0.12336 0.19209
# Poissons Ratio (y) = 0.18236 0.38384
# Poissons Ratio (z) = 0.26877 0.36329
#
# Static dielectric constant tensor:
#      x y z
#    x 3.539890 0.000000 0.000000 
#    y 0.000000 3.369240 0.000000 
#    z 0.000000 0.000000 3.399560 
# 
# 
# High freq. dielectric constant tensor:
#      x y z
#    x 1.741610 0.000000 0.000000 
#    y 0.000000 1.722120 0.000000 
#    z 0.000000 0.000000 1.732930 
# 
# From -- ./inp_files/13215.got.cif
#   From: 2010.03.12/outbox.cif.g09.slc.cpg/sg55_7_cif.got.tgz:13215.got - 2010.04.16 15:19:21.
