data_PCOD8226868
_publ_section_title
;
Structure prediction by ZEFSAII (Michael W. Deem and Ramdas Pophale) SiO2 
 PCOD8226868
Probable space group: P B A M
;
_chemical_formula_sum "Si O2"
_cell_formula_units_Z 32
_cell_length_a 4.997875
_cell_length_b 24.836670
_cell_length_c 13.360863
_cell_angle_alpha 90.000000
_cell_angle_beta 90.000000
_cell_angle_gamma 90.000000
_cell_volume 1658.491568
_symmetry_space_group_name_H-M "P B A M"
_symmetry_group_IT_number 55
_symmetry_cell_setting 'orthorhombic'
loop_
_space_group_symop_operation_xyz
x,y,z
-x,-y,z
1/2+x,1/2-y,-z
1/2-x,1/2+y,-z
-x,-y,-z
x,y,-z
1/2-x,1/2+y,z
1/2+x,1/2-y,z
loop_
_atom_site_type_symbol
_atom_site_label
_atom_site_fract_x
_atom_site_fract_y
_atom_site_fract_z
Si Si1 0.004751 0.285655 0.114407
Si Si2 0.367698 0.555027 0.115811
Si Si3 0.242808 0.963172 0.612492
Si Si4 0.854230 0.605167 0.204538
O O1 0.212333 0.237891 0.134404
O O2 0.044782 0.333809 0.193340
O O3 0.028915 0.307453 0.000000
O O4 0.500000 0.500000 0.155686
O O5 0.588008 0.601049 0.136219
O O6 0.088199 0.564458 0.171271
O O7 0.296207 0.552312 0.000000
O O8 0.184919 0.942066 0.500000
O O9 0.276328 0.910206 0.681713
O O10 0.500000 0.000000 0.614900
O O11 0.000000 0.000000 0.651983
#
# Coordination Sequence:
#
# PCOD8226868 Si02
#       4
#     8   8   8   8
#     4  10  21  36  53  75 104 140 184 228 268 316
#     4  11  22  33  49  79 114 143 173 212 266 335
#     4  10  21  37  57  82 110 140 178 222 268 323
#     4  12  21  35  57  77 106 146 184 221 271 323
#
# _framework density 19.294642
#
# number of rings (size 3 to 8) (size 9 to 14) (size 15 to 20)
#    0.000    1.250    0.000    8.250    0.000    4.000 
#    0.000    0.000    0.000    1.500    0.000    0.000 
#    0.000    0.000    0.000    0.000    0.000    0.000 
#
# Total GULP energy -396897.513436 kJ/mol
# GULP energy per Si atom -12403.047295 kJ/mol
# Density = 1.925073 g / cm^3
# Si number density = 19.294642 Si / 1000 Ang^3
#
#
#
# Elastic Constant Matrix: (Units=GPa)
#
#
# Indices 1 2 3 4 5 6 
#
# 1 89.5953 -3.7453 23.1250 0.0000 0.0000 0.0000
# 2 -3.7453 77.9460 49.0755 0.0000 0.0000 0.0000
# 3 23.1250 49.0755 105.4565 0.0000 0.0000 0.0000
# 4 0.0000 0.0000 0.0000 31.9408 0.0000 0.0000
# 5 0.0000 0.0000 0.0000 0.0000 23.2362 0.0000
# 6 0.0000 0.0000 0.0000 0.0000 0.0000 24.8183
#
#
#
# Elastic Compliance Matrix: (Units=1/GPa)
#
#
# Indices 1 2 3 4 5 6 
#
# 1 0.012391 0.003262 -0.004235 0.000000 0.000000 0.000000
# 2 0.003262 0.019005 -0.009559 0.000000 0.000000 0.000000
# 3 -0.004235 -0.009559 0.014860 0.000000 0.000000 0.000000
# 4 0.000000 0.000000 0.000000 0.031308 0.000000 0.000000
# 5 0.000000 0.000000 0.000000 0.000000 0.043036 0.000000
# 6 0.000000 0.000000 0.000000 0.000000 0.000000 0.040293
#
#
# Mechanical properties :
#
#
# Convention : Reuss Voigt Hill
#
# Bulk Modulus (GPa) = 39.69806 45.54534 42.62170
# Shear Modulus (GPa) = 26.26681 29.63524 27.95102
#
# Velocity S-wave (km/s) = 3.69365 3.92335 3.81023
# Velocity P-wave (km/s) = 6.22977 6.64680 6.44166
#
# Compressibility (1/GPa) = 0.02519015
#
# Stress axis : x y z
#
# Youngs Moduli (GPa) = 80.70551 52.61826 67.29549
#
# Poissons Ratio (x) = -0.17163 0.28500
# Poissons Ratio (y) = -0.26324 0.64330
# Poissons Ratio (z) = 0.34179 0.50300
#
# Static dielectric constant tensor:
#      x y z
#    x 3.774650 0.000000 0.000000 
#    y 0.000000 3.228430 0.000000 
#    z 0.000000 0.000000 3.556590 
# 
# 
# High freq. dielectric constant tensor:
#      x y z
#    x 1.780520 0.000000 0.000000 
#    y 0.000000 1.724000 0.000000 
#    z 0.000000 0.000000 1.732890 
# 
# From -- ./inp_files/11206.got.cif
#   From: 2010.03.12/outbox.cif.g09.slc.cpg/sg55_6_cif.got.tgz:11206.got - 2010.04.16 15:19:21.
