data_PCOD8226080
_publ_section_title
;
Structure prediction by ZEFSAII (Michael W. Deem and Ramdas Pophale) SiO2 
 PCOD8226080
Probable space group: P B A M
;
_chemical_formula_sum "Si O2"
_cell_formula_units_Z 56
_cell_length_a 15.855912
_cell_length_b 12.688664
_cell_length_c 13.837772
_cell_angle_alpha 90.000000
_cell_angle_beta 90.000000
_cell_angle_gamma 90.000000
_cell_volume 2784.026050
_symmetry_space_group_name_H-M "P B A M"
_symmetry_group_IT_number 55
_symmetry_cell_setting 'orthorhombic'
loop_
_space_group_symop_operation_xyz
x,y,z
-x,-y,z
1/2+x,1/2-y,-z
1/2-x,1/2+y,-z
-x,-y,-z
x,y,-z
1/2-x,1/2+y,z
1/2+x,1/2-y,z
loop_
_atom_site_type_symbol
_atom_site_label
_atom_site_fract_x
_atom_site_fract_y
_atom_site_fract_z
Si Si1 0.905785 0.523516 0.885548
Si Si2 0.029321 0.886659 0.109175
Si Si3 0.966972 0.881441 0.394950
Si Si4 0.802169 0.988799 0.387979
Si Si5 0.639974 0.257434 0.111238
Si Si6 0.884819 0.180796 0.285622
Si Si7 0.286412 0.124631 0.227966
O O1 0.869375 0.637021 0.851421
O O2 0.843923 0.430663 0.852046
O O3 0.000000 0.500000 0.844603
O O4 0.908902 0.520969 0.000000
O O5 0.110702 0.856176 0.173626
O O6 0.952849 0.806143 0.119071
O O7 0.063476 0.893084 0.000000
O O8 0.000000 0.000000 0.146949
O O9 0.982324 0.830671 0.500000
O O10 0.016498 0.809018 0.318103
O O11 0.867619 0.891289 0.373812
O O12 0.000000 0.000000 0.392472
O O13 0.771348 0.994449 0.500000
O O14 0.840056 0.101792 0.359633
O O15 0.730974 0.963096 0.309913
O O16 0.705386 0.322640 0.176900
O O17 0.671144 0.261863 0.000000
O O18 0.837777 0.290238 0.289438
#
# Coordination Sequence:
#
# PCOD8226080 Si02
#       7
#     8   8   8   8   8   8   8
#     4  10  22  41  61  83 119 164 202 234 281 355
#     4  10  20  34  56  86 117 146 182 236 293 345
#     4   8  15  31  55  77  98 131 176 228 287 346
#     4  10  22  39  57  81 113 145 182 237 301 353
#     4  10  21  37  57  84 119 156 194 237 290 348
#     4  11  20  33  56  80 109 144 187 234 284 344
#     4  12  23  35  57  86 115 151 195 245 287 338
#
# _framework density 20.114754999999999
#
# number of rings (size 3 to 8) (size 9 to 14) (size 15 to 20)
#    0.000    1.857    0.000    6.429    0.000    3.429 
#    0.000    3.571    0.000    0.429    0.000    0.000 
#    0.000    0.000    0.000    0.000    0.000    0.000 
#
# Total GULP energy -694114.780175 kJ/mol
# GULP energy per Si atom -12394.906789 kJ/mol
# Density = 2.006897 g / cm^3
# Si number density = 20.114755 Si / 1000 Ang^3
#
#
#
# Elastic Constant Matrix: (Units=GPa)
#
#
# Indices 1 2 3 4 5 6 
#
# 1 42.3778 19.1900 16.8589 0.0000 0.0000 0.0000
# 2 19.1900 80.8440 24.1779 0.0000 0.0000 0.0000
# 3 16.8589 24.1779 72.5501 0.0000 0.0000 0.0000
# 4 0.0000 0.0000 0.0000 20.5646 0.0000 0.0000
# 5 0.0000 0.0000 0.0000 0.0000 22.6642 0.0000
# 6 0.0000 0.0000 0.0000 0.0000 0.0000 30.0919
#
#
#
# Elastic Compliance Matrix: (Units=1/GPa)
#
#
# Indices 1 2 3 4 5 6 
#
# 1 0.027832 -0.005190 -0.004738 0.000000 0.000000 0.000000
# 2 -0.005190 0.014706 -0.003695 0.000000 0.000000 0.000000
# 3 -0.004738 -0.003695 0.016116 0.000000 0.000000 0.000000
# 4 0.000000 0.000000 0.000000 0.048627 0.000000 0.000000
# 5 0.000000 0.000000 0.000000 0.000000 0.044122 0.000000
# 6 0.000000 0.000000 0.000000 0.000000 0.000000 0.033232
#
#
# Mechanical properties :
#
#
# Convention : Reuss Voigt Hill
#
# Bulk Modulus (GPa) = 31.83782 35.13616 33.48699
# Shear Modulus (GPa) = 22.48696 23.70048 23.09372
#
# Velocity S-wave (km/s) = 3.34718 3.43631 3.39204
# Velocity P-wave (km/s) = 5.54983 5.76629 5.65909
#
# Compressibility (1/GPa) = 0.03140918
#
# Stress axis : x y z
#
# Youngs Moduli (GPa) = 35.92965 67.99745 62.05005
#
# Poissons Ratio (x) = 0.35287 0.29400
# Poissons Ratio (y) = 0.18646 0.22928
# Poissons Ratio (z) = 0.17024 0.25126
#
# Static dielectric constant tensor:
#      x y z
#    x 3.769200 0.000000 0.000000 
#    y 0.000000 3.538380 0.000000 
#    z 0.000000 0.000000 3.759040 
# 
# 
# High freq. dielectric constant tensor:
#      x y z
#    x 1.772300 0.000000 0.000000 
#    y 0.000000 1.766750 0.000000 
#    z 0.000000 0.000000 1.792620 
# 
# From -- ./inp_files/18940.got.cif
#   From: 2010.03.12/outbox.cif.g09.slc.cpg/sg55_10_cif.got.tgz:18940.got - 2010.04.16 15:19:21.
