data_PCOD8226241
_publ_section_title
;
Structure prediction by ZEFSAII (Michael W. Deem and Ramdas Pophale) SiO2 
 PCOD8226241
Probable space group: P B A M
;
_chemical_formula_sum "Si O2"
_cell_formula_units_Z 56
_cell_length_a 21.888140
_cell_length_b 14.488078
_cell_length_c 8.808608
_cell_angle_alpha 90.000000
_cell_angle_beta 90.000000
_cell_angle_gamma 90.000000
_cell_volume 2793.360044
_symmetry_space_group_name_H-M "P B A M"
_symmetry_group_IT_number 55
_symmetry_cell_setting 'orthorhombic'
loop_
_space_group_symop_operation_xyz
x,y,z
-x,-y,z
1/2+x,1/2-y,-z
1/2-x,1/2+y,-z
-x,-y,-z
x,y,-z
1/2-x,1/2+y,z
1/2+x,1/2-y,z
loop_
_atom_site_type_symbol
_atom_site_label
_atom_site_fract_x
_atom_site_fract_y
_atom_site_fract_z
Si Si1 0.072508 0.586079 0.820885
Si Si2 0.302717 0.586861 0.679178
Si Si3 0.476072 0.402615 0.178825
Si Si4 0.682566 0.812961 0.676439
Si Si5 0.653436 0.609633 0.674502
Si Si6 0.417529 0.699403 0.675544
Si Si7 0.057851 0.401889 0.324123
O O1 0.124200 0.657960 0.773534
O O2 0.091733 0.482604 0.769596
O O3 0.010490 0.613459 0.736385
O O4 0.062059 0.589872 0.000000
O O5 0.301867 0.601086 0.500000
O O6 0.241088 0.632928 0.744204
O O7 0.306317 0.478973 0.726241
O O8 0.361515 0.640859 0.746096
O O9 0.500000 0.500000 0.244645
O O10 0.407535 0.383391 0.228726
O O11 0.519778 0.322561 0.239204
O O12 0.478401 0.401614 0.000000
O O13 0.671365 0.837435 0.500000
O O14 0.692773 0.702841 0.697455
O O15 0.633968 0.596780 0.500000
O O16 0.427019 0.674422 0.500000
O O17 0.403767 0.807964 0.697633
O O18 0.054986 0.430433 0.500000
#
# Coordination Sequence:
#
# PCOD8226241 Si02
#       7
#     8   8   8   8   8   8   8
#     4  11  22  37  56  80 112 150 186 226 279 334
#     4   9  19  36  57  82 111 143 185 233 278 329
#     4  11  22  34  53  83 117 153 185 229 285 337
#     4  10  21  37  58  83 110 146 192 234 279 333
#     4  10  20  36  60  84 111 149 188 234 286 336
#     4  10  20  35  58  86 113 145 185 232 284 335
#     4  10  20  35  59  87 113 142 182 234 284 330
#
# _framework density 20.047540000000001
#
# number of rings (size 3 to 8) (size 9 to 14) (size 15 to 20)
#    0.000    1.857    1.429    3.857    0.000    6.857 
#    0.000    5.714    0.000    1.714    0.000    0.000 
#    0.000    0.000    0.000    0.000    0.000    0.000 
#
# Total GULP energy -694467.920456 kJ/mol
# GULP energy per Si atom -12401.212865 kJ/mol
# Density = 2.000191 g / cm^3
# Si number density = 20.047540 Si / 1000 Ang^3
#
#
#
# Elastic Constant Matrix: (Units=GPa)
#
#
# Indices 1 2 3 4 5 6 
#
# 1 72.2995 39.1388 11.3847 0.0000 0.0000 0.0000
# 2 39.1388 132.3777 18.3557 0.0000 0.0000 0.0000
# 3 11.3847 18.3557 47.9044 0.0000 0.0000 0.0000
# 4 0.0000 0.0000 0.0000 18.7132 0.0000 0.0000
# 5 0.0000 0.0000 0.0000 0.0000 1.4779 0.0000
# 6 0.0000 0.0000 0.0000 0.0000 0.0000 32.2239
#
#
#
# Elastic Compliance Matrix: (Units=1/GPa)
#
#
# Indices 1 2 3 4 5 6 
#
# 1 0.016682 -0.004628 -0.002191 0.000000 0.000000 0.000000
# 2 -0.004628 0.009262 -0.002449 0.000000 0.000000 0.000000
# 3 -0.002191 -0.002449 0.022334 0.000000 0.000000 0.000000
# 4 0.000000 0.000000 0.000000 0.053438 0.000000 0.000000
# 5 0.000000 0.000000 0.000000 0.000000 0.676643 0.000000
# 6 0.000000 0.000000 0.000000 0.000000 0.000000 0.031033
#
#
# Mechanical properties :
#
#
# Convention : Reuss Voigt Hill
#
# Bulk Modulus (GPa) = 33.62348 43.37111 38.49730
# Shear Modulus (GPa) = 5.96771 22.72982 14.34876
#
# Velocity S-wave (km/s) = 1.72721 3.37084 2.67823
# Velocity P-wave (km/s) = 4.55916 6.06887 5.36736
#
# Compressibility (1/GPa) = 0.02974112
#
# Stress axis : x y z
#
# Youngs Moduli (GPa) = 59.94521 107.96623 44.77470
#
# Poissons Ratio (x) = 0.49971 0.09810
# Poissons Ratio (y) = 0.27745 0.10966
# Poissons Ratio (z) = 0.13134 0.26442
#
# Static dielectric constant tensor:
#      x y z
#    x 3.505120 0.000000 0.000000 
#    y 0.000000 3.979070 0.000000 
#    z 0.000000 0.000000 3.399710 
# 
# 
# High freq. dielectric constant tensor:
#      x y z
#    x 1.764590 0.000000 0.000000 
#    y 0.000000 1.802620 0.000000 
#    z 0.000000 0.000000 1.759260 
# 
# From -- ./inp_files/8784.got.cif
#   From: 2010.03.12/outbox.cif.g09.slc.cpg/sg55_5_cif.got.tgz:8784.got - 2010.04.16 15:19:21.
