data_PCOD8226448
_publ_section_title
;
Structure prediction by ZEFSAII (Michael W. Deem and Ramdas Pophale) SiO2 
 PCOD8226448
Probable space group: P B A M
;
_chemical_formula_sum "Si O2"
_cell_formula_units_Z 64
_cell_length_a 20.728790
_cell_length_b 16.688510
_cell_length_c 9.384870
_cell_angle_alpha 90.000000
_cell_angle_beta 90.000000
_cell_angle_gamma 90.000000
_cell_volume 3246.532660
_symmetry_space_group_name_H-M "P B A M"
_symmetry_group_IT_number 55
_symmetry_cell_setting 'orthorhombic'
loop_
_space_group_symop_operation_xyz
x,y,z
-x,-y,z
1/2+x,1/2-y,-z
1/2-x,1/2+y,-z
-x,-y,-z
x,y,-z
1/2-x,1/2+y,z
1/2+x,1/2-y,z
loop_
_atom_site_type_symbol
_atom_site_label
_atom_site_fract_x
_atom_site_fract_y
_atom_site_fract_z
Si Si1 0.628142 0.666542 0.162025
Si Si2 0.408833 0.190510 0.336617
Si Si3 0.317414 0.618102 0.166771
Si Si4 0.135740 0.408680 0.334597
Si Si5 0.299218 0.072132 0.658835
Si Si6 0.989573 0.593829 0.838470
Si Si7 0.722018 0.202900 0.162444
Si Si8 0.427347 0.503196 0.832294
O O1 0.586945 0.721457 0.268737
O O2 0.701553 0.694698 0.174758
O O3 0.614505 0.575215 0.209496
O O4 0.603900 0.679422 0.000000
O O5 0.432644 0.193464 0.500000
O O6 0.336058 0.156649 0.326075
O O7 0.451978 0.132159 0.244592
O O8 0.260350 0.565810 0.234698
O O9 0.306894 0.710649 0.208350
O O10 0.386513 0.581755 0.219834
O O11 0.310066 0.604903 0.000000
O O12 0.123492 0.389161 0.500000
O O13 0.149498 0.502175 0.309431
O O14 0.074908 0.381240 0.242996
O O15 0.196193 0.359660 0.276528
O O16 0.271149 0.062271 0.500000
O O17 0.000000 0.500000 0.837331
O O18 0.986145 0.626675 0.000000
O O19 0.700450 0.183671 0.000000
O O20 0.500000 0.500000 0.764492
O O21 0.435329 0.509219 0.000000
#
# Coordination Sequence:
#
# PCOD8226448 Si02
#       8
#     8   8   8   8   8   8   8   8
#     4  10  20  37  60  88 118 151 201 256 301 354
#     4  11  22  37  59  85 118 156 197 242 298 360
#     4  10  20  36  61  86 114 152 197 250 301 354
#     4  11  23  38  57  83 119 159 195 236 292 354
#     4  10  21  36  56  83 115 153 193 238 292 355
#     4  11  23  38  58  84 115 154 197 239 287 346
#     4  10  21  36  56  88 121 150 195 251 304 356
#     4   9  19  36  59  86 116 155 199 247 304 358
#
# _framework density 19.713339000000001
#
# number of rings (size 3 to 8) (size 9 to 14) (size 15 to 20)
#    0.000    1.750    2.500    1.875    0.000    5.000 
#    0.000    3.125    0.000    1.500    0.000    0.000 
#    0.000    0.000    0.000    0.000    0.000    0.000 
#
# Total GULP energy -793485.245474 kJ/mol
# GULP energy per Si atom -12398.206961 kJ/mol
# Density = 1.966847 g / cm^3
# Si number density = 19.713339 Si / 1000 Ang^3
#
#
#
# Elastic Constant Matrix: (Units=GPa)
#
#
# Indices 1 2 3 4 5 6 
#
# 1 70.5546 25.8634 31.2949 0.0000 0.0000 0.0000
# 2 25.8634 94.1832 34.6438 0.0000 0.0000 0.0000
# 3 31.2949 34.6438 98.0776 0.0000 0.0000 0.0000
# 4 0.0000 0.0000 0.0000 25.8362 0.0000 0.0000
# 5 0.0000 0.0000 0.0000 0.0000 17.2007 0.0000
# 6 0.0000 0.0000 0.0000 0.0000 0.0000 30.1188
#
#
#
# Elastic Compliance Matrix: (Units=1/GPa)
#
#
# Indices 1 2 3 4 5 6 
#
# 1 0.017273 -0.003122 -0.004409 0.000000 0.000000 0.000000
# 2 -0.003122 0.012767 -0.003514 0.000000 0.000000 0.000000
# 3 -0.004409 -0.003514 0.012844 0.000000 0.000000 0.000000
# 4 0.000000 0.000000 0.000000 0.038705 0.000000 0.000000
# 5 0.000000 0.000000 0.000000 0.000000 0.058137 0.000000
# 6 0.000000 0.000000 0.000000 0.000000 0.000000 0.033202
#
#
# Mechanical properties :
#
#
# Convention : Reuss Voigt Hill
#
# Bulk Modulus (GPa) = 48.08618 49.60216 48.84417
# Shear Modulus (GPa) = 24.75864 26.03202 25.39533
#
# Velocity S-wave (km/s) = 3.54776 3.63785 3.59309
# Velocity P-wave (km/s) = 6.42089 6.54688 6.48419
#
# Compressibility (1/GPa) = 0.02079599
#
# Stress axis : x y z
#
# Youngs Moduli (GPa) = 57.89261 78.32517 77.85739
#
# Poissons Ratio (x) = 0.24450 0.34327
# Poissons Ratio (y) = 0.18072 0.27357
# Poissons Ratio (z) = 0.25525 0.27521
#
# Static dielectric constant tensor:
#      x y z
#    x 3.605690 0.000000 0.000000 
#    y 0.000000 3.653740 0.000000 
#    z 0.000000 0.000000 3.533560 
# 
# 
# High freq. dielectric constant tensor:
#      x y z
#    x 1.764730 0.000000 0.000000 
#    y 0.000000 1.767880 0.000000 
#    z 0.000000 0.000000 1.757010 
# 
# From -- ./inp_files/9010.got.cif
#   From: 2010.03.12/outbox.cif.g09.slc.cpg/sg55_5_cif.got.tgz:9010.got - 2010.04.16 15:19:21.
