data_PCOD8226160
_publ_section_title
;
Structure prediction by ZEFSAII (Michael W. Deem and Ramdas Pophale) SiO2 
 PCOD8226160
Probable space group: P B A M
;
_chemical_formula_sum "Si O2"
_cell_formula_units_Z 48
_cell_length_a 27.653635
_cell_length_b 5.174389
_cell_length_c 15.602313
_cell_angle_alpha 90.000000
_cell_angle_beta 90.000000
_cell_angle_gamma 90.000000
_cell_volume 2232.545339
_symmetry_space_group_name_H-M "P B A M"
_symmetry_group_IT_number 55
_symmetry_cell_setting 'orthorhombic'
loop_
_space_group_symop_operation_xyz
x,y,z
-x,-y,z
1/2+x,1/2-y,-z
1/2-x,1/2+y,-z
-x,-y,-z
x,y,-z
1/2-x,1/2+y,z
1/2+x,1/2-y,z
loop_
_atom_site_type_symbol
_atom_site_label
_atom_site_fract_x
_atom_site_fract_y
_atom_site_fract_z
Si Si1 0.000000 0.000000 0.764479
Si Si2 0.544519 0.820133 0.909529
Si Si3 0.343213 0.079304 0.670796
Si Si4 0.102802 0.088760 0.271550
Si Si5 0.130687 0.303524 0.904645
Si Si6 0.216675 0.596514 0.500000
Si Si7 0.220499 0.554517 0.832557
O O1 0.964767 0.161708 0.825063
O O2 0.044000 0.130786 0.711865
O O3 0.500000 0.000000 0.926134
O O4 0.591181 0.981432 0.888111
O O5 0.551468 0.660657 0.000000
O O6 0.378364 0.318374 0.691761
O O7 0.318813 0.122606 0.580004
O O8 0.299412 0.037932 0.736637
O O9 0.374849 0.819465 0.672759
O O10 0.120993 0.096070 0.171148
O O11 0.180673 0.459283 0.899677
O O12 0.126921 0.176953 0.000000
O O13 0.243922 0.323431 0.500000
O O14 0.264737 0.353231 0.847081
#
# Coordination Sequence:
#
# PCOD8226160 Si02
#       7
#     4   8   8   8   8   4   8
#     4  12  21  34  62  87 122 176 228 250 326 397
#     4  10  20  35  55  85 121 159 220 297 338 365
#     4  11  24  44  66 100 131 161 201 265 332 381
#     4  11  24  40  64  93 135 171 213 269 314 375
#     4  10  22  40  59  86 126 173 223 273 325 371
#     4  12  24  44  80 109 130 159 204 260 328 406
#     4  11  22  39  60  84 121 163 207 255 307 377
#
# _framework density 21.500122000000001
#
# number of rings (size 3 to 8) (size 9 to 14) (size 15 to 20)
#    0.000    1.167    1.667    6.250    0.000    1.333 
#    0.000    8.333    0.000    3.000    0.000    0.000 
#    0.000    0.000    0.000    0.000    0.000    0.000 
#
# Total GULP energy -594679.494181 kJ/mol
# GULP energy per Si atom -12389.156129 kJ/mol
# Density = 2.145119 g / cm^3
# Si number density = 21.500122 Si / 1000 Ang^3
#
#
#
# Elastic Constant Matrix: (Units=GPa)
#
#
# Indices 1 2 3 4 5 6 
#
# 1 116.4259 24.2620 31.0802 0.0000 0.0000 0.0000
# 2 24.2620 91.7347 17.9416 0.0000 0.0000 0.0000
# 3 31.0802 17.9416 97.3592 0.0000 0.0000 0.0000
# 4 0.0000 0.0000 0.0000 21.6856 0.0000 0.0000
# 5 0.0000 0.0000 0.0000 0.0000 35.9183 0.0000
# 6 0.0000 0.0000 0.0000 0.0000 0.0000 43.7820
#
#
#
# Elastic Compliance Matrix: (Units=1/GPa)
#
#
# Indices 1 2 3 4 5 6 
#
# 1 0.009745 -0.002042 -0.002734 0.000000 0.000000 0.000000
# 2 -0.002042 0.011737 -0.001511 0.000000 0.000000 0.000000
# 3 -0.002734 -0.001511 0.011423 0.000000 0.000000 0.000000
# 4 0.000000 0.000000 0.000000 0.046113 0.000000 0.000000
# 5 0.000000 0.000000 0.000000 0.000000 0.027841 0.000000
# 6 0.000000 0.000000 0.000000 0.000000 0.000000 0.022840
#
#
# Mechanical properties :
#
#
# Convention : Reuss Voigt Hill
#
# Bulk Modulus (GPa) = 49.19204 50.23193 49.71199
# Shear Modulus (GPa) = 33.54566 35.75960 34.65263
#
# Velocity S-wave (km/s) = 3.95429 4.08269 4.01900
# Velocity P-wave (km/s) = 6.61650 6.75565 6.68644
#
# Compressibility (1/GPa) = 0.02032849
#
# Stress axis : x y z
#
# Youngs Moduli (GPa) = 102.61928 85.20293 87.54583
#
# Poissons Ratio (x) = 0.17403 0.23939
# Poissons Ratio (y) = 0.20960 0.13227
# Poissons Ratio (z) = 0.28061 0.12873
#
# Static dielectric constant tensor:
#      x y z
#    x 4.246290 0.000000 0.000000 
#    y 0.000000 3.898310 0.000000 
#    z 0.000000 0.000000 4.725400 
# 
# 
# High freq. dielectric constant tensor:
#      x y z
#    x 1.869900 0.000000 0.000000 
#    y 0.000000 1.846170 0.000000 
#    z 0.000000 0.000000 1.813280 
# 
# From -- ./inp_files/20130.got.cif
#   From: 2010.03.12/outbox.cif.g09.slc.cpg/sg55_11_cif.got.tgz:20130.got - 2010.04.16 15:19:21.
