data_PCOD8226382
_publ_section_title
;
Structure prediction by ZEFSAII (Michael W. Deem and Ramdas Pophale) SiO2 
 PCOD8226382
Probable space group: P B A M
;
_chemical_formula_sum "Si O2"
_cell_formula_units_Z 48
_cell_length_a 10.248164
_cell_length_b 26.457527
_cell_length_c 8.907354
_cell_angle_alpha 90.000000
_cell_angle_beta 90.000000
_cell_angle_gamma 90.000000
_cell_volume 2415.149545
_symmetry_space_group_name_H-M "P B A M"
_symmetry_group_IT_number 55
_symmetry_cell_setting 'orthorhombic'
loop_
_space_group_symop_operation_xyz
x,y,z
-x,-y,z
1/2+x,1/2-y,-z
1/2-x,1/2+y,-z
-x,-y,-z
x,y,-z
1/2-x,1/2+y,z
1/2+x,1/2-y,z
loop_
_atom_site_type_symbol
_atom_site_label
_atom_site_fract_x
_atom_site_fract_y
_atom_site_fract_z
Si Si1 0.597778 0.301351 0.675817
Si Si2 0.632854 0.642780 0.822920
Si Si3 0.385143 0.815429 0.675361
Si Si4 0.116986 0.961752 0.325918
Si Si5 0.634164 0.976731 0.678742
Si Si6 0.345627 0.136765 0.678454
O O1 0.574204 0.310527 0.500000
O O2 0.465508 0.315192 0.760575
O O3 0.631729 0.243487 0.709512
O O4 0.717277 0.334789 0.739363
O O5 0.777567 0.653190 0.764084
O O6 0.586260 0.587958 0.768541
O O7 0.632049 0.644975 0.000000
O O8 0.367973 0.827500 0.500000
O O9 0.525962 0.833838 0.733984
O O10 0.129586 0.946562 0.500000
O O11 0.248761 0.987804 0.265484
O O12 0.000000 0.000000 0.299571
O O13 0.632237 0.974378 0.500000
O O14 0.652973 0.920198 0.742698
O O15 0.500000 0.000000 0.741733
O O16 0.341216 0.137003 0.500000
#
# Coordination Sequence:
#
# PCOD8226382 Si02
#       6
#     8   8   8   8   8   8
#     4  10  20  37  61  86 111 144 192 243 287 334
#     4  12  25  38  55  83 122 161 190 225 282 352
#     4  10  20  37  62  87 111 144 190 241 285 333
#     4  10  20  36  59  82 106 143 193 245 288 329
#     4   9  16  27  48  78 106 132 170 227 288 334
#     4   9  17  31  55  85 110 135 179 241 296 334
#
# _framework density 19.874545000000001
#
# number of rings (size 3 to 8) (size 9 to 14) (size 15 to 20)
#    0.000    2.000    0.000    4.500    0.000    9.000 
#    0.000    0.833    0.000    4.500    0.000    0.000 
#    0.000    0.000    0.000    0.000    0.000    0.000 
#
# Total GULP energy -595397.933657 kJ/mol
# GULP energy per Si atom -12404.123618 kJ/mol
# Density = 1.982931 g / cm^3
# Si number density = 19.874545 Si / 1000 Ang^3
#
#
#
# Elastic Constant Matrix: (Units=GPa)
#
#
# Indices 1 2 3 4 5 6 
#
# 1 109.4954 16.7581 25.5309 0.0000 0.0000 0.0000
# 2 16.7581 91.0594 30.7866 0.0000 0.0000 0.0000
# 3 25.5309 30.7866 56.6988 0.0000 0.0000 0.0000
# 4 0.0000 0.0000 0.0000 7.7884 0.0000 0.0000
# 5 0.0000 0.0000 0.0000 0.0000 9.2625 0.0000
# 6 0.0000 0.0000 0.0000 0.0000 0.0000 37.1995
#
#
#
# Elastic Compliance Matrix: (Units=1/GPa)
#
#
# Indices 1 2 3 4 5 6 
#
# 1 0.010216 -0.000398 -0.004384 0.000000 0.000000 0.000000
# 2 -0.000398 0.013467 -0.007133 0.000000 0.000000 0.000000
# 3 -0.004384 -0.007133 0.023484 0.000000 0.000000 0.000000
# 4 0.000000 0.000000 0.000000 0.128396 0.000000 0.000000
# 5 0.000000 0.000000 0.000000 0.000000 0.107963 0.000000
# 6 0.000000 0.000000 0.000000 0.000000 0.000000 0.026882
#
#
# Mechanical properties :
#
#
# Convention : Reuss Voigt Hill
#
# Bulk Modulus (GPa) = 42.85057 44.82274 43.83665
# Shear Modulus (GPa) = 14.61916 23.12861 18.87388
#
# Velocity S-wave (km/s) = 2.71509 3.41505 3.08498
# Velocity P-wave (km/s) = 5.60680 6.17672 5.89865
#
# Compressibility (1/GPa) = 0.02333691
#
# Stress axis : x y z
#
# Youngs Moduli (GPa) = 97.88632 74.25724 42.58165
#
# Poissons Ratio (x) = 0.02954 0.18668
# Poissons Ratio (y) = 0.03894 0.30374
# Poissons Ratio (z) = 0.42914 0.52968
#
# Static dielectric constant tensor:
#      x y z
#    x 3.826240 0.000000 0.000000 
#    y 0.000000 3.789410 0.000000 
#    z 0.000000 0.000000 3.099740 
# 
# 
# High freq. dielectric constant tensor:
#      x y z
#    x 1.794360 0.000000 0.000000 
#    y 0.000000 1.792780 0.000000 
#    z 0.000000 0.000000 1.716400 
# 
# From -- ./inp_files/2845.got.cif
#   From: 2010.03.12/outbox.cif.g09.slc.cpg/sg55_2_cif.got.tgz:2845.got - 2010.04.16 15:19:21.
