data_PCOD8226363
_publ_section_title
;
Structure prediction by ZEFSAII (Michael W. Deem and Ramdas Pophale) SiO2 
 PCOD8226363
Probable space group: P B A M
;
_chemical_formula_sum "Si O2"
_cell_formula_units_Z 56
_cell_length_a 21.234898
_cell_length_b 14.793897
_cell_length_c 9.026300
_cell_angle_alpha 90.000000
_cell_angle_beta 90.000000
_cell_angle_gamma 90.000000
_cell_volume 2835.584108
_symmetry_space_group_name_H-M "P B A M"
_symmetry_group_IT_number 55
_symmetry_cell_setting 'orthorhombic'
loop_
_space_group_symop_operation_xyz
x,y,z
-x,-y,z
1/2+x,1/2-y,-z
1/2-x,1/2+y,-z
-x,-y,-z
x,y,-z
1/2-x,1/2+y,z
1/2+x,1/2-y,z
loop_
_atom_site_type_symbol
_atom_site_label
_atom_site_fract_x
_atom_site_fract_y
_atom_site_fract_z
Si Si1 0.572267 0.512062 0.325596
Si Si2 0.407050 0.969504 0.174555
Si Si3 0.186588 0.065181 0.828022
Si Si4 0.224892 0.400719 0.828529
Si Si5 0.977918 0.357398 0.825371
Si Si6 0.099159 0.784647 0.673573
Si Si7 0.263538 0.223803 0.324743
O O1 0.500000 0.500000 0.273573
O O2 0.578358 0.495111 0.500000
O O3 0.616986 0.438297 0.244537
O O4 0.596820 0.610939 0.278585
O O5 0.336507 0.953960 0.228707
O O6 0.451150 0.884936 0.221396
O O7 0.432012 0.064213 0.239204
O O8 0.411657 0.979350 0.000000
O O9 0.232158 0.137720 0.751875
O O10 0.216127 0.966126 0.805251
O O11 0.180581 0.090969 0.000000
O O12 0.227799 0.313485 0.726040
O O13 0.218195 0.371202 0.000000
O O14 0.960140 0.263650 0.748961
O O15 0.970929 0.344567 0.000000
O O16 0.090703 0.776444 0.500000
O O17 0.163878 0.736685 0.726157
O O18 0.257666 0.213096 0.500000
#
# Coordination Sequence:
#
# PCOD8226363 Si02
#       7
#     8   8   8   8   8   8   8
#     4  10  22  42  64  84 117 162 203 247 301 364
#     4   8  16  32  53  81 113 146 184 231 288 344
#     4  11  23  39  62  91 121 153 198 256 306 360
#     4  10  20  36  58  84 115 148 189 242 293 346
#     4   9  17  32  56  80 109 149 188 228 283 348
#     4  10  21  37  56  82 114 150 196 243 291 352
#     4  11  23  38  59  84 115 155 197 243 297 362
#
# _framework density 19.749016999999998
#
# number of rings (size 3 to 8) (size 9 to 14) (size 15 to 20)
#    0.000    2.143    1.429    2.571    0.000    4.857 
#    0.000    5.714    0.000    0.000    0.000    0.000 
#    0.000    0.000    0.000    0.000    0.000    0.000 
#
# Total GULP energy -694328.566136 kJ/mol
# GULP energy per Si atom -12398.724395 kJ/mol
# Density = 1.970407 g / cm^3
# Si number density = 19.749017 Si / 1000 Ang^3
#
#
#
# Elastic Constant Matrix: (Units=GPa)
#
#
# Indices 1 2 3 4 5 6 
#
# 1 117.5345 27.8319 39.2994 0.0000 0.0000 0.0000
# 2 27.8319 74.0962 39.9946 0.0000 0.0000 0.0000
# 3 39.2994 39.9946 54.3803 0.0000 0.0000 0.0000
# 4 0.0000 0.0000 0.0000 31.0269 0.0000 0.0000
# 5 0.0000 0.0000 0.0000 0.0000 26.7990 0.0000
# 6 0.0000 0.0000 0.0000 0.0000 0.0000 34.4404
#
#
#
# Elastic Compliance Matrix: (Units=1/GPa)
#
#
# Indices 1 2 3 4 5 6 
#
# 1 0.011222 0.000269 -0.008308 0.000000 0.000000 0.000000
# 2 0.000269 0.022387 -0.016659 0.000000 0.000000 0.000000
# 3 -0.008308 -0.016659 0.036645 0.000000 0.000000 0.000000
# 4 0.000000 0.000000 0.000000 0.032230 0.000000 0.000000
# 5 0.000000 0.000000 0.000000 0.000000 0.037315 0.000000
# 6 0.000000 0.000000 0.000000 0.000000 0.000000 0.029036
#
#
# Mechanical properties :
#
#
# Convention : Reuss Voigt Hill
#
# Bulk Modulus (GPa) = 47.94270 51.14032 49.54151
# Shear Modulus (GPa) = 22.20402 27.71226 24.95814
#
# Velocity S-wave (km/s) = 3.35671 3.75002 3.55881
# Velocity P-wave (km/s) = 6.27312 6.68592 6.48281
#
# Compressibility (1/GPa) = 0.02085823
#
# Stress axis : x y z
#
# Youngs Moduli (GPa) = 89.10794 44.66878 27.28861
#
# Poissons Ratio (x) = -0.01202 0.22672
# Poissons Ratio (y) = -0.02398 0.45461
# Poissons Ratio (z) = 0.74031 0.74415
#
# Static dielectric constant tensor:
#      x y z
#    x 3.851770 0.000000 0.000000 
#    y 0.000000 3.584690 0.000000 
#    z 0.000000 0.000000 3.342880 
# 
# 
# High freq. dielectric constant tensor:
#      x y z
#    x 1.779250 0.000000 0.000000 
#    y 0.000000 1.768380 0.000000 
#    z 0.000000 0.000000 1.748470 
# 
# From -- ./inp_files/8780.got.cif
#   From: 2010.03.12/outbox.cif.g09.slc.cpg/sg55_5_cif.got.tgz:8780.got - 2010.04.16 15:19:21.
