data_PCOD8226177
_publ_section_title
;
Structure prediction by ZEFSAII (Michael W. Deem and Ramdas Pophale) SiO2 
 PCOD8226177
Probable space group: P B A M
;
_chemical_formula_sum "Si O2"
_cell_formula_units_Z 64
_cell_length_a 15.233442
_cell_length_b 23.463456
_cell_length_c 9.436010
_cell_angle_alpha 90.000000
_cell_angle_beta 90.000000
_cell_angle_gamma 90.000000
_cell_volume 3372.705469
_symmetry_space_group_name_H-M "P B A M"
_symmetry_group_IT_number 55
_symmetry_cell_setting 'orthorhombic'
loop_
_space_group_symop_operation_xyz
x,y,z
-x,-y,z
1/2+x,1/2-y,-z
1/2-x,1/2+y,-z
-x,-y,-z
x,y,-z
1/2-x,1/2+y,z
1/2+x,1/2-y,z
loop_
_atom_site_type_symbol
_atom_site_label
_atom_site_fract_x
_atom_site_fract_y
_atom_site_fract_z
Si Si1 0.348152 0.869110 0.835365
Si Si2 0.006595 0.827977 0.339621
Si Si3 0.260137 0.065721 0.664262
Si Si4 0.669130 0.812433 0.662531
Si Si5 0.061927 0.050947 0.668267
Si Si6 0.498816 0.216805 0.167555
Si Si7 0.399467 0.993345 0.167520
Si Si8 0.710971 0.688635 0.655398
O O1 0.423038 0.825178 0.793495
O O2 0.372391 0.931209 0.779459
O O3 0.257312 0.851247 0.767165
O O4 0.331607 0.870809 0.000000
O O5 0.970661 0.817970 0.500000
O O6 0.110674 0.829551 0.341128
O O7 0.972394 0.887929 0.276483
O O8 0.975810 0.777072 0.237574
O O9 0.274416 0.050023 0.500000
O O10 0.267190 0.133905 0.687489
O O11 0.163959 0.044118 0.715657
O O12 0.337215 0.038189 0.755253
O O13 0.634140 0.810339 0.500000
O O14 0.586669 0.813374 0.767552
O O15 0.724193 0.755184 0.694911
O O16 0.055588 0.050219 0.500000
O O17 0.000000 0.000000 0.730237
O O18 0.485159 0.224744 0.000000
O O19 0.500000 0.000000 0.214740
O O20 0.389235 0.002633 0.000000
O O21 0.750764 0.676983 0.500000
#
# Coordination Sequence:
#
# PCOD8226177 Si02
#       8
#     8   8   8   8   8   8   8   8
#     4  10  22  36  53  79 110 144 185 226 271 331
#     4   9  19  36  58  82 110 145 183 225 278 333
#     4  10  21  36  60  89 115 145 190 240 279 328
#     4   9  19  36  55  82 113 141 179 226 279 331
#     4   9  19  35  58  84 112 148 188 231 281 338
#     4  10  20  35  56  82 110 146 185 225 274 334
#     4  10  22  41  60  79 111 155 192 226 280 342
#     4   9  19  33  54  82 109 141 179 222 274 332
#
# _framework density 18.975864000000001
#
# number of rings (size 3 to 8) (size 9 to 14) (size 15 to 20)
#    0.000    2.500    0.000    1.875    3.500    5.250 
#    0.000    0.625    0.000    0.750    0.000    0.000 
#    0.000    0.000    0.000    0.000    0.000    0.000 
#
# Total GULP energy -793512.980174 kJ/mol
# GULP energy per Si atom -12398.640315 kJ/mol
# Density = 1.893267 g / cm^3
# Si number density = 18.975864 Si / 1000 Ang^3
#
#
#
# Elastic Constant Matrix: (Units=GPa)
#
#
# Indices 1 2 3 4 5 6 
#
# 1 83.4192 54.2209 19.4978 0.0000 0.0000 0.0000
# 2 54.2209 118.6944 30.2350 0.0000 0.0000 0.0000
# 3 19.4978 30.2350 18.0675 0.0000 0.0000 0.0000
# 4 0.0000 0.0000 0.0000 25.5607 0.0000 0.0000
# 5 0.0000 0.0000 0.0000 0.0000 29.0400 0.0000
# 6 0.0000 0.0000 0.0000 0.0000 0.0000 29.5542
#
#
#
# Elastic Compliance Matrix: (Units=1/GPa)
#
#
# Indices 1 2 3 4 5 6 
#
# 1 0.018008 -0.005710 -0.009878 0.000000 0.000000 0.000000
# 2 -0.005710 0.016495 -0.021442 0.000000 0.000000 0.000000
# 3 -0.009878 -0.021442 0.101891 0.000000 0.000000 0.000000
# 4 0.000000 0.000000 0.000000 0.039123 0.000000 0.000000
# 5 0.000000 0.000000 0.000000 0.000000 0.034435 0.000000
# 6 0.000000 0.000000 0.000000 0.000000 0.000000 0.033836
#
#
# Mechanical properties :
#
#
# Convention : Reuss Voigt Hill
#
# Bulk Modulus (GPa) = 16.04279 47.56539 31.80409
# Shear Modulus (GPa) = 14.76554 24.57947 19.67251
#
# Velocity S-wave (km/s) = 2.79251 3.60293 3.22329
# Velocity P-wave (km/s) = 4.34398 6.51374 5.53620
#
# Compressibility (1/GPa) = 0.06233331
#
# Stress axis : x y z
#
# Youngs Moduli (GPa) = 55.53136 60.62333 9.81443
#
# Poissons Ratio (x) = 0.34615 0.09695
# Poissons Ratio (y) = 0.31708 0.21044
# Poissons Ratio (z) = 0.54855 1.29989
#
# Static dielectric constant tensor:
#      x y z
#    x 3.277400 0.000000 0.000000 
#    y 0.000000 3.763730 0.000000 
#    z 0.000000 0.000000 3.308200 
# 
# 
# High freq. dielectric constant tensor:
#      x y z
#    x 1.736710 0.000000 0.000000 
#    y 0.000000 1.750180 0.000000 
#    z 0.000000 0.000000 1.716000 
# 
# From -- ./inp_files/6612.got.cif
#   From: 2010.03.12/outbox.cif.g09.slc.cpg/sg55_4_cif.got.tgz:6612.got - 2010.04.16 15:19:21.
