data_PCOD8226588
_publ_section_title
;
Structure prediction by ZEFSAII (Michael W. Deem and Ramdas Pophale) SiO2 
 PCOD8226588
Probable space group: P B A M
;
_chemical_formula_sum "Si O2"
_cell_formula_units_Z 48
_cell_length_a 8.880911
_cell_length_b 26.723862
_cell_length_c 9.639432
_cell_angle_alpha 90.000000
_cell_angle_beta 90.000000
_cell_angle_gamma 90.000000
_cell_volume 2287.747989
_symmetry_space_group_name_H-M "P B A M"
_symmetry_group_IT_number 55
_symmetry_cell_setting 'orthorhombic'
loop_
_space_group_symop_operation_xyz
x,y,z
-x,-y,z
1/2+x,1/2-y,-z
1/2-x,1/2+y,-z
-x,-y,-z
x,y,-z
1/2-x,1/2+y,z
1/2+x,1/2-y,z
loop_
_atom_site_type_symbol
_atom_site_label
_atom_site_fract_x
_atom_site_fract_y
_atom_site_fract_z
Si Si1 0.512027 0.261185 0.268767
Si Si2 0.820368 0.408738 0.159653
Si Si3 0.823595 0.991370 0.339365
Si Si4 0.787300 0.318919 0.646607
Si Si5 0.334458 0.924328 0.160265
Si Si6 0.240934 0.317252 0.845229
O O1 0.402241 0.227683 0.361595
O O2 0.617623 0.297650 0.357198
O O3 0.618801 0.225323 0.180685
O O4 0.409215 0.297066 0.174384
O O5 0.709536 0.440108 0.257526
O O6 0.819970 0.352197 0.218617
O O7 0.986303 0.431614 0.166570
O O8 0.762904 0.407495 0.000000
O O9 0.769729 0.988106 0.500000
O O10 0.738547 0.035449 0.260791
O O11 0.000000 0.000000 0.332249
O O12 0.807799 0.348434 0.500000
O O13 0.290095 0.870455 0.230094
O O14 0.280337 0.932453 0.000000
O O15 0.217245 0.334656 0.000000
#
# Coordination Sequence:
#
# PCOD8226588 Si02
#       6
#     8   8   8   8   8   8
#     4  10  22  38  60  92 127 174 215 259 308 366
#     4  11  24  43  68  97 127 164 209 261 315 376
#     4  11  26  46  67  96 127 162 205 258 317 382
#     4  11  23  41  63  92 130 172 215 260 310 371
#     4  10  22  42  65  96 129 165 209 259 313 375
#     4  10  20  37  61  93 131 168 212 259 309 366
#
# _framework density 20.981334
#
# number of rings (size 3 to 8) (size 9 to 14) (size 15 to 20)
#    0.000    1.500    1.667    2.500    2.333    8.000 
#    0.000    0.833    0.000    0.000    0.000    0.000 
#    0.000    0.000    0.000    0.000    0.000    0.000 
#
# Total GULP energy -594939.906205 kJ/mol
# GULP energy per Si atom -12394.581379 kJ/mol
# Density = 2.093358 g / cm^3
# Si number density = 20.981334 Si / 1000 Ang^3
#
#
#
# Elastic Constant Matrix: (Units=GPa)
#
#
# Indices 1 2 3 4 5 6 
#
# 1 98.9578 17.3590 37.3376 0.0000 0.0000 0.0000
# 2 17.3590 76.8133 45.4241 0.0000 0.0000 0.0000
# 3 37.3376 45.4241 146.3859 0.0000 0.0000 0.0000
# 4 0.0000 0.0000 0.0000 13.0337 0.0000 0.0000
# 5 0.0000 0.0000 0.0000 0.0000 17.0028 0.0000
# 6 0.0000 0.0000 0.0000 0.0000 0.0000 18.8155
#
#
#
# Elastic Compliance Matrix: (Units=1/GPa)
#
#
# Indices 1 2 3 4 5 6 
#
# 1 0.011248 -0.001035 -0.002548 0.000000 0.000000 0.000000
# 2 -0.001035 0.016040 -0.004713 0.000000 0.000000 0.000000
# 3 -0.002548 -0.004713 0.008944 0.000000 0.000000 0.000000
# 4 0.000000 0.000000 0.000000 0.076724 0.000000 0.000000
# 5 0.000000 0.000000 0.000000 0.000000 0.058814 0.000000
# 6 0.000000 0.000000 0.000000 0.000000 0.000000 0.053148
#
#
# Mechanical properties :
#
#
# Convention : Reuss Voigt Hill
#
# Bulk Modulus (GPa) = 50.91879 58.04427 54.48153
# Shear Modulus (GPa) = 20.15677 24.57283 22.36480
#
# Velocity S-wave (km/s) = 3.10288 3.42596 3.26841
# Velocity P-wave (km/s) = 6.09577 6.58592 6.34558
#
# Compressibility (1/GPa) = 0.01963912
#
# Stress axis : x y z
#
# Youngs Moduli (GPa) = 88.90297 62.34537 111.81203
#
# Poissons Ratio (x) = 0.06455 0.28487
# Poissons Ratio (y) = 0.09205 0.52698
# Poissons Ratio (z) = 0.22650 0.29384
#
# Static dielectric constant tensor:
#      x y z
#    x 3.984320 0.000000 0.000000 
#    y 0.000000 3.807860 0.000000 
#    z 0.000000 0.000000 3.766880 
# 
# 
# High freq. dielectric constant tensor:
#      x y z
#    x 1.827260 0.000000 0.000000 
#    y 0.000000 1.829430 0.000000 
#    z 0.000000 0.000000 1.817020 
# 
# From -- ./inp_files/2899.got.cif
#   From: 2010.03.12/outbox.cif.g09.slc.cpg/sg55_2_cif.got.tgz:2899.got - 2010.04.16 15:19:21.
