data_PCOD8226708
_publ_section_title
;
Structure prediction by ZEFSAII (Michael W. Deem and Ramdas Pophale) SiO2 
 PCOD8226708
Probable space group: P B A M
;
_chemical_formula_sum "Si O2"
_cell_formula_units_Z 64
_cell_length_a 30.079550
_cell_length_b 9.777949
_cell_length_c 11.117510
_cell_angle_alpha 90.000000
_cell_angle_beta 90.000000
_cell_angle_gamma 90.000000
_cell_volume 3269.840971
_symmetry_space_group_name_H-M "P B A M"
_symmetry_group_IT_number 55
_symmetry_cell_setting 'orthorhombic'
loop_
_space_group_symop_operation_xyz
x,y,z
-x,-y,z
1/2+x,1/2-y,-z
1/2-x,1/2+y,-z
-x,-y,-z
x,y,-z
1/2-x,1/2+y,z
1/2+x,1/2-y,z
loop_
_atom_site_type_symbol
_atom_site_label
_atom_site_fract_x
_atom_site_fract_y
_atom_site_fract_z
Si Si1 0.620161 0.983411 0.790304
Si Si2 0.514098 0.654909 0.362270
Si Si3 0.340719 0.475014 0.139709
Si Si4 0.175512 0.273986 0.866822
Si Si5 0.078989 0.787760 0.861091
Si Si6 0.800031 0.390656 0.630305
Si Si7 0.257932 0.373472 0.718229
Si Si8 0.540618 0.087934 0.636287
O O1 0.639615 0.104353 0.871898
O O2 0.586545 0.056593 0.700396
O O3 0.595823 0.868626 0.869307
O O4 0.661144 0.909289 0.725656
O O5 0.500000 0.500000 0.341340
O O6 0.534876 0.671811 0.500000
O O7 0.543944 0.700177 0.248232
O O8 0.470554 0.750883 0.354835
O O9 0.348225 0.633603 0.175861
O O10 0.382523 0.388486 0.186431
O O11 0.293919 0.422794 0.187023
O O12 0.338261 0.450484 0.000000
O O13 0.216541 0.302724 0.782013
O O14 0.194842 0.252532 0.000000
O O15 0.062415 0.823338 0.000000
O O16 0.821492 0.413752 0.500000
O O17 0.759492 0.496700 0.644947
O O18 0.780287 0.238263 0.632741
O O19 0.547407 0.039534 0.500000
O O20 0.500000 0.000000 0.693138
#
# Coordination Sequence:
#
# PCOD8226708 Si02
#       8
#     8   8   8   8   8   8   8   8
#     4  11  22  38  61  88 123 154 199 246 306 360
#     4  10  23  43  66  91 122 160 205 247 296 366
#     4  10  21  38  58  84 117 154 196 247 299 356
#     4  10  22  38  59  84 115 155 198 245 296 355
#     4  11  23  40  63  93 126 158 201 251 305 361
#     4  11  23  37  57  83 119 159 200 252 302 355
#     4  11  20  39  58  82 114 153 205 243 297 356
#     4  10  20  38  64  90 117 156 200 246 295 361
#
# _framework density 19.572817000000001
#
# number of rings (size 3 to 8) (size 9 to 14) (size 15 to 20)
#    0.000    1.500    3.750    1.500    1.750    0.750 
#    0.000    1.875    0.000    0.000    0.000    0.000 
#    0.000    0.000    0.000    0.000    0.000    0.000 
#
# Total GULP energy -793154.791774 kJ/mol
# GULP energy per Si atom -12393.043621 kJ/mol
# Density = 1.952827 g / cm^3
# Si number density = 19.572817 Si / 1000 Ang^3
#
#
#
# Elastic Constant Matrix: (Units=GPa)
#
#
# Indices 1 2 3 4 5 6 
#
# 1 64.8504 21.7702 31.4445 0.0000 0.0000 0.0000
# 2 21.7702 118.8858 15.7965 0.0000 0.0000 0.0000
# 3 31.4445 15.7965 68.1059 0.0000 0.0000 0.0000
# 4 0.0000 0.0000 0.0000 20.5442 0.0000 0.0000
# 5 0.0000 0.0000 0.0000 0.0000 21.3004 0.0000
# 6 0.0000 0.0000 0.0000 0.0000 0.0000 26.0638
#
#
#
# Elastic Compliance Matrix: (Units=1/GPa)
#
#
# Indices 1 2 3 4 5 6 
#
# 1 0.020613 -0.002590 -0.008916 0.000000 0.000000 0.000000
# 2 -0.002590 0.009004 -0.000893 0.000000 0.000000 0.000000
# 3 -0.008916 -0.000893 0.019007 0.000000 0.000000 0.000000
# 4 0.000000 0.000000 0.000000 0.048676 0.000000 0.000000
# 5 0.000000 0.000000 0.000000 0.000000 0.046947 0.000000
# 6 0.000000 0.000000 0.000000 0.000000 0.000000 0.038367
#
#
# Mechanical properties :
#
#
# Convention : Reuss Voigt Hill
#
# Bulk Modulus (GPa) = 41.97068 43.31827 42.64447
# Shear Modulus (GPa) = 23.21761 25.77042 24.49402
#
# Velocity S-wave (km/s) = 3.44789 3.63249 3.54139
# Velocity P-wave (km/s) = 6.11068 6.30660 6.20942
#
# Compressibility (1/GPa) = 0.02382616
#
# Stress axis : x y z
#
# Youngs Moduli (GPa) = 48.51358 111.05796 52.61307
#
# Poissons Ratio (x) = 0.28763 0.46911
# Poissons Ratio (y) = 0.12564 0.04697
# Poissons Ratio (z) = 0.43256 0.09914
#
# Static dielectric constant tensor:
#      x y z
#    x 3.475930 0.000000 0.000000 
#    y 0.000000 3.972880 0.000000 
#    z 0.000000 0.000000 3.451020 
# 
# 
# High freq. dielectric constant tensor:
#      x y z
#    x 1.747010 0.000000 0.000000 
#    y 0.000000 1.784800 0.000000 
#    z 0.000000 0.000000 1.757370 
# 
# From -- ./inp_files/16228.got.cif
#   From: 2010.03.12/outbox.cif.g09.slc.cpg/sg55_9_cif.got.tgz:16228.got - 2010.04.16 15:19:21.
