data_PCOD8226603
_publ_section_title
;
Structure prediction by ZEFSAII (Michael W. Deem and Ramdas Pophale) SiO2 
 PCOD8226603
Probable space group: P B A M
;
_chemical_formula_sum "Si O2"
_cell_formula_units_Z 56
_cell_length_a 14.943663
_cell_length_b 12.148930
_cell_length_c 13.417535
_cell_angle_alpha 90.000000
_cell_angle_beta 90.000000
_cell_angle_gamma 90.000000
_cell_volume 2435.946982
_symmetry_space_group_name_H-M "P B A M"
_symmetry_group_IT_number 55
_symmetry_cell_setting 'orthorhombic'
loop_
_space_group_symop_operation_xyz
x,y,z
-x,-y,z
1/2+x,1/2-y,-z
1/2-x,1/2+y,-z
-x,-y,-z
x,y,-z
1/2-x,1/2+y,z
1/2+x,1/2-y,z
loop_
_atom_site_type_symbol
_atom_site_label
_atom_site_fract_x
_atom_site_fract_y
_atom_site_fract_z
Si Si1 0.085989 0.748762 0.614367
Si Si2 0.657496 0.562545 0.252973
Si Si3 0.946544 0.602398 0.308134
Si Si4 0.517590 0.814069 0.111936
Si Si5 0.283339 0.255578 0.884263
Si Si6 0.890992 0.884370 0.112571
Si Si7 0.297954 0.035716 0.617575
O O1 0.098565 0.780065 0.500000
O O2 0.099950 0.856647 0.678872
O O3 0.153861 0.650408 0.646139
O O4 0.984106 0.711313 0.637318
O O5 0.723640 0.634281 0.182386
O O6 0.593820 0.490409 0.181746
O O7 0.704905 0.472775 0.324565
O O8 0.964204 0.607835 0.188787
O O9 0.845732 0.575877 0.339968
O O10 0.000000 0.500000 0.354989
O O11 0.622974 0.808227 0.138231
O O12 0.477936 0.691831 0.122822
O O13 0.501392 0.859789 0.000000
O O14 0.199909 0.179083 0.855177
O O15 0.278517 0.290070 0.000000
O O16 0.880901 0.927022 0.000000
O O17 0.284416 0.025186 0.500000
#
# Coordination Sequence:
#
# PCOD8226603 Si02
#       7
#     8   8   8   8   8   8   8
#     4  10  21  39  60  86 121 157 203 262 318 377
#     4  12  21  36  63  91 123 160 209 258 313 376
#     4  10  20  37  62  89 121 163 207 253 311 373
#     4  10  21  40  63  93 132 169 209 254 308 377
#     4  10  21  39  61  90 129 170 211 255 307 376
#     4  10  23  40  61  92 128 168 209 257 317 380
#     4  10  22  38  61  92 121 159 208 259 320 378
#
# _framework density 22.989004999999999
#
# number of rings (size 3 to 8) (size 9 to 14) (size 15 to 20)
#    0.000    1.714    1.429    3.000    2.000    2.571 
#    0.000    2.857    0.000    3.429    0.000    0.000 
#    0.000    0.000    0.000    0.000    0.000    0.000 
#
# Total GULP energy -694257.809239 kJ/mol
# GULP energy per Si atom -12397.460879 kJ/mol
# Density = 2.293668 g / cm^3
# Si number density = 22.989005 Si / 1000 Ang^3
#
#
#
# Elastic Constant Matrix: (Units=GPa)
#
#
# Indices 1 2 3 4 5 6 
#
# 1 47.1655 10.2260 4.2169 0.0000 0.0000 0.0000
# 2 10.2260 73.6719 31.8008 0.0000 0.0000 0.0000
# 3 4.2169 31.8008 107.7709 0.0000 0.0000 0.0000
# 4 0.0000 0.0000 0.0000 48.9897 0.0000 0.0000
# 5 0.0000 0.0000 0.0000 0.0000 24.5005 0.0000
# 6 0.0000 0.0000 0.0000 0.0000 0.0000 15.1948
#
#
#
# Elastic Compliance Matrix: (Units=1/GPa)
#
#
# Indices 1 2 3 4 5 6 
#
# 1 0.021860 -0.003054 0.000046 0.000000 0.000000 0.000000
# 2 -0.003054 0.015982 -0.004596 0.000000 0.000000 0.000000
# 3 0.000046 -0.004596 0.010633 0.000000 0.000000 0.000000
# 4 0.000000 0.000000 0.000000 0.020412 0.000000 0.000000
# 5 0.000000 0.000000 0.000000 0.000000 0.040815 0.000000
# 6 0.000000 0.000000 0.000000 0.000000 0.000000 0.065812
#
#
# Mechanical properties :
#
#
# Convention : Reuss Voigt Hill
#
# Bulk Modulus (GPa) = 30.06076 35.67731 32.86903
# Shear Modulus (GPa) = 24.77543 29.89464 27.33504
#
# Velocity S-wave (km/s) = 3.28641 3.61000 3.45200
# Velocity P-wave (km/s) = 5.24454 5.73839 5.49701
#
# Compressibility (1/GPa) = 0.03326596
#
# Stress axis : x y z
#
# Youngs Moduli (GPa) = 45.74571 62.57181 94.04310
#
# Poissons Ratio (x) = 0.19110 -0.00431
# Poissons Ratio (y) = 0.13971 0.43225
# Poissons Ratio (z) = -0.00210 0.28760
#
# Static dielectric constant tensor:
#      x y z
#    x 4.006830 0.000000 0.000000 
#    y 0.000000 3.938790 0.000000 
#    z 0.000000 0.000000 4.299420 
# 
# 
# High freq. dielectric constant tensor:
#      x y z
#    x 1.890560 0.000000 0.000000 
#    y 0.000000 1.891740 0.000000 
#    z 0.000000 0.000000 1.924800 
# 
# From -- ./inp_files/18951.got.cif
#   From: 2010.03.12/outbox.cif.g09.slc.cpg/sg55_10_cif.got.tgz:18951.got - 2010.04.16 15:19:21.
