data_PCOD8226534
_publ_section_title
;
Structure prediction by ZEFSAII (Michael W. Deem and Ramdas Pophale) SiO2 
 PCOD8226534
Probable space group: P B A M
;
_chemical_formula_sum "Si O2"
_cell_formula_units_Z 64
_cell_length_a 20.258841
_cell_length_b 8.568527
_cell_length_c 18.928986
_cell_angle_alpha 90.000000
_cell_angle_beta 90.000000
_cell_angle_gamma 90.000000
_cell_volume 3285.852887
_symmetry_space_group_name_H-M "P B A M"
_symmetry_group_IT_number 55
_symmetry_cell_setting 'orthorhombic'
loop_
_space_group_symop_operation_xyz
x,y,z
-x,-y,z
1/2+x,1/2-y,-z
1/2-x,1/2+y,-z
-x,-y,-z
x,y,-z
1/2-x,1/2+y,z
1/2+x,1/2-y,z
loop_
_atom_site_type_symbol
_atom_site_label
_atom_site_fract_x
_atom_site_fract_y
_atom_site_fract_z
Si Si1 0.453204 0.195774 0.581615
Si Si2 0.176572 0.734538 0.785015
Si Si3 0.416004 0.868592 0.645936
Si Si4 0.775619 0.974930 0.863241
Si Si5 0.076027 0.473125 0.803833
Si Si6 0.676294 0.663626 0.625375
Si Si7 0.801642 0.826772 0.580191
Si Si8 0.660672 0.178813 0.079265
O O1 0.472858 0.185711 0.500000
O O2 0.519765 0.235878 0.625675
O O3 0.397727 0.326441 0.594123
O O4 0.422918 0.033765 0.607869
O O5 0.176917 0.897041 0.827475
O O6 0.239668 0.627139 0.802843
O O7 0.110012 0.642822 0.804551
O O8 0.179277 0.767665 0.702966
O O9 0.411387 0.885935 0.729978
O O10 0.348670 0.795645 0.618784
O O11 0.722666 0.063350 0.911783
O O12 0.818896 0.859343 0.910895
O O13 0.103580 0.363083 0.865491
O O14 0.000000 0.500000 0.818513
O O15 0.727433 0.760849 0.577818
O O16 0.696758 0.484059 0.625239
O O17 0.825108 0.856763 0.500000
O O18 0.633240 0.158448 0.000000
#
# Coordination Sequence:
#
# PCOD8226534 Si02
#       8
#     8   8   8   8   8   8   8   8
#     4  11  21  40  64  84 113 158 207 252 306 360
#     4  10  20  37  59  91 114 159 197 253 293 352
#     4  11  22  40  61  85 113 158 202 254 298 362
#     4   9  20  36  63  91 128 152 198 238 295 354
#     4  11  22  41  62  89 120 158 206 243 293 354
#     4  12  24  38  60  83 123 155 204 253 309 363
#     4  12  26  39  55  85 120 155 197 253 316 366
#     4  10  21  37  65  96 127 159 190 239 292 353
#
# _framework density 19.477440000000001
#
# number of rings (size 3 to 8) (size 9 to 14) (size 15 to 20)
#    0.000    1.250    2.500    4.500    7.000    0.750 
#    0.000    2.500    0.000    0.750    0.000    0.000 
#    0.000    0.000    0.000    0.000    0.000    0.000 
#
# Total GULP energy -793849.716721 kJ/mol
# GULP energy per Si atom -12403.901824 kJ/mol
# Density = 1.943311 g / cm^3
# Si number density = 19.477440 Si / 1000 Ang^3
#
#
#
# Elastic Constant Matrix: (Units=GPa)
#
#
# Indices 1 2 3 4 5 6 
#
# 1 83.4395 25.4120 38.3740 0.0000 0.0000 0.0000
# 2 25.4120 79.0710 36.7634 0.0000 0.0000 0.0000
# 3 38.3740 36.7634 141.5980 0.0000 0.0000 0.0000
# 4 0.0000 0.0000 0.0000 20.7504 0.0000 0.0000
# 5 0.0000 0.0000 0.0000 0.0000 25.0135 0.0000
# 6 0.0000 0.0000 0.0000 0.0000 0.0000 28.8938
#
#
#
# Elastic Compliance Matrix: (Units=1/GPa)
#
#
# Indices 1 2 3 4 5 6 
#
# 1 0.014366 -0.003192 -0.003065 0.000000 0.000000 0.000000
# 2 -0.003192 0.015092 -0.003053 0.000000 0.000000 0.000000
# 3 -0.003065 -0.003053 0.008686 0.000000 0.000000 0.000000
# 4 0.000000 0.000000 0.000000 0.048192 0.000000 0.000000
# 5 0.000000 0.000000 0.000000 0.000000 0.039978 0.000000
# 6 0.000000 0.000000 0.000000 0.000000 0.000000 0.034609
#
#
# Mechanical properties :
#
#
# Convention : Reuss Voigt Hill
#
# Bulk Modulus (GPa) = 51.21915 56.13414 53.67665
# Shear Modulus (GPa) = 26.87414 28.50214 27.68814
#
# Velocity S-wave (km/s) = 3.71854 3.82951 3.77443
# Velocity P-wave (km/s) = 6.69257 6.95961 6.82740
#
# Compressibility (1/GPa) = 0.01952395
#
# Stress axis : x y z
#
# Youngs Moduli (GPa) = 69.60706 66.25841 115.13420
#
# Poissons Ratio (x) = 0.21151 0.35284
# Poissons Ratio (y) = 0.22220 0.35155
# Poissons Ratio (z) = 0.21332 0.20231
#
# Static dielectric constant tensor:
#      x y z
#    x 3.663760 0.000000 0.000000 
#    y 0.000000 3.606700 0.000000 
#    z 0.000000 0.000000 3.525500 
# 
# 
# High freq. dielectric constant tensor:
#      x y z
#    x 1.753580 0.000000 0.000000 
#    y 0.000000 1.757700 0.000000 
#    z 0.000000 0.000000 1.760200 
# 
# From -- ./inp_files/23066.got.cif
#   From: 2010.03.12/outbox.cif.g09.slc.cpg/sg55_12_cif.got.tgz:23066.got - 2010.04.16 15:19:21.
