data_PCOD8226910
_publ_section_title
;
Structure prediction by ZEFSAII (Michael W. Deem and Ramdas Pophale) SiO2 
 PCOD8226910
Probable space group: P B A M
;
_chemical_formula_sum "Si O2"
_cell_formula_units_Z 64
_cell_length_a 15.598645
_cell_length_b 22.597474
_cell_length_c 9.333082
_cell_angle_alpha 90.000000
_cell_angle_beta 90.000000
_cell_angle_gamma 90.000000
_cell_volume 3289.817839
_symmetry_space_group_name_H-M "P B A M"
_symmetry_group_IT_number 55
_symmetry_cell_setting 'orthorhombic'
loop_
_space_group_symop_operation_xyz
x,y,z
-x,-y,z
1/2+x,1/2-y,-z
1/2-x,1/2+y,-z
-x,-y,-z
x,y,-z
1/2-x,1/2+y,z
1/2+x,1/2-y,z
loop_
_atom_site_type_symbol
_atom_site_label
_atom_site_fract_x
_atom_site_fract_y
_atom_site_fract_z
Si Si1 0.993516 0.209338 0.164813
Si Si2 0.845507 0.865132 0.160177
Si Si3 0.193641 0.677507 0.332401
Si Si4 0.404048 0.501710 0.161215
Si Si5 0.563685 0.054037 0.332437
Si Si6 0.025808 0.655808 0.168171
Si Si7 0.241645 0.934183 0.334600
Si Si8 0.670504 0.689394 0.664729
O O1 0.007649 0.278279 0.198994
O O2 0.916394 0.178837 0.249167
O O3 0.079196 0.177288 0.212809
O O4 0.971898 0.198669 0.000000
O O5 0.774089 0.859516 0.280491
O O6 0.876343 0.931289 0.158599
O O7 0.813748 0.846703 0.000000
O O8 0.178238 0.667358 0.500000
O O9 0.115865 0.648396 0.246796
O O10 0.209375 0.746578 0.293001
O O11 0.500000 0.500000 0.229139
O O12 0.334140 0.465014 0.248322
O O13 0.407167 0.475395 0.000000
O O14 0.554673 0.070050 0.500000
O O15 0.540541 0.110250 0.236678
O O16 0.663717 0.040337 0.294896
O O17 0.500000 0.000000 0.292167
O O18 0.036273 0.642637 0.000000
O O19 0.222696 0.946826 0.500000
O O20 0.237955 0.863268 0.302467
O O21 0.643728 0.689841 0.500000
#
# Coordination Sequence:
#
# PCOD8226910 Si02
#       8
#     8   8   8   8   8   8   8   8
#     4   9  19  36  58  85 117 151 185 231 289 348
#     4  10  21  36  56  84 117 148 187 235 281 342
#     4  10  21  36  57  84 114 150 187 230 289 350
#     4  10  22  40  61  86 117 156 196 236 289 347
#     4  10  23  41  60  83 115 157 200 246 297 349
#     4  10  21  38  60  86 115 149 191 239 291 344
#     4  10  22  39  60  86 119 155 198 247 290 342
#     4   9  19  36  56  82 113 147 189 235 285 340
#
# _framework density 19.453965
#
# number of rings (size 3 to 8) (size 9 to 14) (size 15 to 20)
#    0.000    2.250    0.000    1.500    3.500    4.500 
#    0.000    0.000    0.000    0.000    0.000    0.000 
#    0.000    0.000    0.000    0.000    0.000    0.000 
#
# Total GULP energy -793533.154939 kJ/mol
# GULP energy per Si atom -12398.955546 kJ/mol
# Density = 1.940969 g / cm^3
# Si number density = 19.453965 Si / 1000 Ang^3
#
#
#
# Elastic Constant Matrix: (Units=GPa)
#
#
# Indices 1 2 3 4 5 6 
#
# 1 126.1830 49.3051 51.0218 0.0000 0.0000 0.0000
# 2 49.3051 64.9086 34.0175 0.0000 0.0000 0.0000
# 3 51.0218 34.0175 68.6861 0.0000 0.0000 0.0000
# 4 0.0000 0.0000 0.0000 43.0525 0.0000 0.0000
# 5 0.0000 0.0000 0.0000 0.0000 35.9871 0.0000
# 6 0.0000 0.0000 0.0000 0.0000 0.0000 34.4658
#
#
#
# Elastic Compliance Matrix: (Units=1/GPa)
#
#
# Indices 1 2 3 4 5 6 
#
# 1 0.013113 -0.006558 -0.006493 0.000000 0.000000 0.000000
# 2 -0.006558 0.024086 -0.007058 0.000000 0.000000 0.000000
# 3 -0.006493 -0.007058 0.022877 0.000000 0.000000 0.000000
# 4 0.000000 0.000000 0.000000 0.023227 0.000000 0.000000
# 5 0.000000 0.000000 0.000000 0.000000 0.027788 0.000000
# 6 0.000000 0.000000 0.000000 0.000000 0.000000 0.029014
#
#
# Mechanical properties :
#
#
# Convention : Reuss Voigt Hill
#
# Bulk Modulus (GPa) = 50.35226 58.71850 54.53538
# Shear Modulus (GPa) = 26.74621 31.06330 28.90475
#
# Velocity S-wave (km/s) = 3.71191 4.00028 3.85879
# Velocity P-wave (km/s) = 6.65658 7.18228 6.92442
#
# Compressibility (1/GPa) = 0.01986008
#
# Stress axis : x y z
#
# Youngs Moduli (GPa) = 76.26196 41.51704 43.71149
#
# Poissons Ratio (x) = 0.27226 0.28380
# Poissons Ratio (y) = 0.50011 0.30850
# Poissons Ratio (z) = 0.49514 0.29302
#
# Static dielectric constant tensor:
#      x y z
#    x 3.596600 0.000000 0.000000 
#    y 0.000000 3.508320 0.000000 
#    z 0.000000 0.000000 3.614670 
# 
# 
# High freq. dielectric constant tensor:
#      x y z
#    x 1.757970 0.000000 0.000000 
#    y 0.000000 1.762750 0.000000 
#    z 0.000000 0.000000 1.754990 
# 
# From -- ./inp_files/6550.got.cif
#   From: 2010.03.12/outbox.cif.g09.slc.cpg/sg55_4_cif.got.tgz:6550.got - 2010.04.16 15:19:21.
