data_PCOD8226185
_publ_section_title
;
Structure prediction by ZEFSAII (Michael W. Deem and Ramdas Pophale) SiO2 
 PCOD8226185
Probable space group: P B A M
;
_chemical_formula_sum "Si O2"
_cell_formula_units_Z 56
_cell_length_a 9.905743
_cell_length_b 18.547663
_cell_length_c 15.073039
_cell_angle_alpha 90.000000
_cell_angle_beta 90.000000
_cell_angle_gamma 90.000000
_cell_volume 2769.345081
_symmetry_space_group_name_H-M "P B A M"
_symmetry_group_IT_number 55
_symmetry_cell_setting 'orthorhombic'
loop_
_space_group_symop_operation_xyz
x,y,z
-x,-y,z
1/2+x,1/2-y,-z
1/2-x,1/2+y,-z
-x,-y,-z
x,y,-z
1/2-x,1/2+y,z
1/2+x,1/2-y,z
loop_
_atom_site_type_symbol
_atom_site_label
_atom_site_fract_x
_atom_site_fract_y
_atom_site_fract_z
Si Si1 0.695421 0.425838 0.603138
Si Si2 0.991243 0.287823 0.804296
Si Si3 0.004693 0.085677 0.099090
Si Si4 0.017854 0.580389 0.312839
Si Si5 0.212401 0.204675 0.098921
Si Si6 0.539555 0.647187 0.282798
Si Si7 0.750746 0.090278 0.402902
O O1 0.684312 0.400255 0.500000
O O2 0.837083 0.400833 0.645651
O O3 0.575981 0.394651 0.663418
O O4 0.683656 0.511636 0.608782
O O5 0.020694 0.367204 0.767951
O O6 0.838888 0.285734 0.838373
O O7 0.004269 0.230331 0.723957
O O8 0.098565 0.264755 0.879023
O O9 0.153286 0.122709 0.107969
O O10 0.924900 0.117148 0.183570
O O11 0.946912 0.106527 0.000000
O O12 0.000000 0.000000 0.108301
O O13 0.000000 0.500000 0.273537
O O14 0.909889 0.588565 0.391681
O O15 0.262151 0.219341 0.000000
O O16 0.680836 0.643967 0.333625
O O17 0.782717 0.120287 0.500000
#
# Coordination Sequence:
#
# PCOD8226185 Si02
#       7
#     8   8   8   8   8   8   8
#     4  10  20  36  58  81 110 152 197 235 279 341
#     4  11  22  38  58  85 116 150 195 237 288 355
#     4   9  18  33  55  84 113 144 186 234 285 339
#     4  10  21  38  57  77 108 150 191 236 288 341
#     4  10  21  38  61  85 116 155 191 237 291 348
#     4  11  21  34  55  84 116 147 185 237 288 336
#     4  10  20  35  56  83 114 149 191 237 286 340
#
# _framework density 20.221388000000001
#
# number of rings (size 3 to 8) (size 9 to 14) (size 15 to 20)
#    0.000    1.857    0.000    5.143    0.000    4.571 
#    0.000    4.286    0.000    1.714    0.000    2.000 
#    0.000    0.000    0.000    0.000    0.000    0.000 
#
# Total GULP energy -694058.107783 kJ/mol
# GULP energy per Si atom -12393.894782 kJ/mol
# Density = 2.017536 g / cm^3
# Si number density = 20.221388 Si / 1000 Ang^3
#
#
#
# Elastic Constant Matrix: (Units=GPa)
#
#
# Indices 1 2 3 4 5 6 
#
# 1 82.7813 22.1692 33.0717 0.0000 0.0000 0.0000
# 2 22.1692 86.5162 47.2586 0.0000 0.0000 0.0000
# 3 33.0717 47.2586 118.7242 0.0000 0.0000 0.0000
# 4 0.0000 0.0000 0.0000 21.4973 0.0000 0.0000
# 5 0.0000 0.0000 0.0000 0.0000 24.4649 0.0000
# 6 0.0000 0.0000 0.0000 0.0000 0.0000 24.1159
#
#
#
# Elastic Compliance Matrix: (Units=1/GPa)
#
#
# Indices 1 2 3 4 5 6 
#
# 1 0.013818 -0.001838 -0.003117 0.000000 0.000000 0.000000
# 2 -0.001838 0.015014 -0.005465 0.000000 0.000000 0.000000
# 3 -0.003117 -0.005465 0.011467 0.000000 0.000000 0.000000
# 4 0.000000 0.000000 0.000000 0.046517 0.000000 0.000000
# 5 0.000000 0.000000 0.000000 0.000000 0.040875 0.000000
# 6 0.000000 0.000000 0.000000 0.000000 0.000000 0.041466
#
#
# Mechanical properties :
#
#
# Convention : Reuss Voigt Hill
#
# Bulk Modulus (GPa) = 51.39064 54.78008 53.08536
# Shear Modulus (GPa) = 25.44744 26.38376 25.91560
#
# Velocity S-wave (km/s) = 3.55130 3.61604 3.58382
# Velocity P-wave (km/s) = 6.50268 6.67708 6.59045
#
# Compressibility (1/GPa) = 0.01945880
#
# Stress axis : x y z
#
# Youngs Moduli (GPa) = 72.37115 66.60248 87.21055
#
# Poissons Ratio (x) = 0.12240 0.27188
# Poissons Ratio (y) = 0.13300 0.47657
# Poissons Ratio (z) = 0.22562 0.36396
#
# Static dielectric constant tensor:
#      x y z
#    x 3.598620 0.000000 0.000000 
#    y 0.000000 3.758630 0.000000 
#    z 0.000000 0.000000 3.833810 
# 
# 
# High freq. dielectric constant tensor:
#      x y z
#    x 1.786760 0.000000 0.000000 
#    y 0.000000 1.779620 0.000000 
#    z 0.000000 0.000000 1.796340 
# 
# From -- ./inp_files/17676.got.cif
#   From: 2010.03.12/outbox.cif.g09.slc.cpg/sg55_9_cif.got.tgz:17676.got - 2010.04.16 15:19:21.
