data_PCOD8226862
_publ_section_title
;
Structure prediction by ZEFSAII (Michael W. Deem and Ramdas Pophale) SiO2 
 PCOD8226862
Probable space group: P B A M
;
_chemical_formula_sum "Si O2"
_cell_formula_units_Z 64
_cell_length_a 11.498490
_cell_length_b 34.182141
_cell_length_c 8.957374
_cell_angle_alpha 90.000000
_cell_angle_beta 90.000000
_cell_angle_gamma 90.000000
_cell_volume 3520.633207
_symmetry_space_group_name_H-M "P B A M"
_symmetry_group_IT_number 55
_symmetry_cell_setting 'orthorhombic'
loop_
_space_group_symop_operation_xyz
x,y,z
-x,-y,z
1/2+x,1/2-y,-z
1/2-x,1/2+y,-z
-x,-y,-z
x,y,-z
1/2-x,1/2+y,z
1/2+x,1/2-y,z
loop_
_atom_site_type_symbol
_atom_site_label
_atom_site_fract_x
_atom_site_fract_y
_atom_site_fract_z
Si Si1 0.396063 0.780762 0.169766
Si Si2 0.894579 0.948045 0.322287
Si Si3 0.984290 0.350911 0.324649
Si Si4 0.839515 0.172960 0.830577
Si Si5 0.851112 0.032729 0.324287
Si Si6 0.271583 0.629031 0.677467
Si Si7 0.431937 0.699760 0.676675
Si Si8 0.713488 0.105362 0.674319
O O1 0.488192 0.810224 0.243711
O O2 0.267852 0.797847 0.179192
O O3 0.390179 0.740403 0.256619
O O4 0.435887 0.773612 0.000000
O O5 0.889718 0.945058 0.500000
O O6 0.826698 0.910741 0.254010
O O7 0.028169 0.948312 0.264673
O O8 0.833384 0.988387 0.264308
O O9 0.981603 0.342107 0.500000
O O10 0.861016 0.366905 0.265936
O O11 0.080623 0.383988 0.285101
O O12 0.803545 0.130992 0.767638
O O13 0.938567 0.190846 0.728330
O O14 0.883275 0.168131 0.000000
O O15 0.864818 0.029474 0.500000
O O16 0.741244 0.060230 0.281735
O O17 0.274356 0.627399 0.500000
O O18 0.345741 0.665895 0.735172
O O19 0.429519 0.702896 0.500000
O O20 0.737941 0.113009 0.500000
#
# Coordination Sequence:
#
# PCOD8226862 Si02
#       8
#     8   8   8   8   8   8   8   8
#     4  10  22  38  53  72  98 128 165 207 253 303
#     4   8  13  23  40  67 104 135 163 205 256 301
#     4   9  18  33  51  72 100 134 169 209 252 299
#     4  10  21  36  52  73 101 129 163 207 254 302
#     4   8  13  22  42  71 100 132 168 209 253 296
#     4   9  18  31  47  72 103 134 166 205 253 304
#     4  11  22  34  53  76  98 127 166 209 253 303
#     4   9  16  29  50  74  99 130 172 212 248 294
#
# _framework density 18.178547999999999
#
# number of rings (size 3 to 8) (size 9 to 14) (size 15 to 20)
#    0.000    2.750    0.000    2.625    1.750    3.500 
#    0.000    1.250    0.000    3.750    0.000    8.750 
#    0.000    4.000    0.000    0.000    0.000    0.000 
#
# Total GULP energy -793373.747066 kJ/mol
# GULP energy per Si atom -12396.464798 kJ/mol
# Density = 1.813717 g / cm^3
# Si number density = 18.178548 Si / 1000 Ang^3
#
#
#
# Elastic Constant Matrix: (Units=GPa)
#
#
# Indices 1 2 3 4 5 6 
#
# 1 77.6753 67.0071 22.8349 0.0000 0.0000 0.0000
# 2 67.0071 164.1336 35.1629 0.0000 0.0000 0.0000
# 3 22.8349 35.1629 45.8124 0.0000 0.0000 0.0000
# 4 0.0000 0.0000 0.0000 4.3232 0.0000 0.0000
# 5 0.0000 0.0000 0.0000 0.0000 14.9669 0.0000
# 6 0.0000 0.0000 0.0000 0.0000 0.0000 20.3957
#
#
#
# Elastic Compliance Matrix: (Units=1/GPa)
#
#
# Indices 1 2 3 4 5 6 
#
# 1 0.020643 -0.007448 -0.004573 0.000000 0.000000 0.000000
# 2 -0.007448 0.009979 -0.003947 0.000000 0.000000 0.000000
# 3 -0.004573 -0.003947 0.027137 0.000000 0.000000 0.000000
# 4 0.000000 0.000000 0.000000 0.231309 0.000000 0.000000
# 5 0.000000 0.000000 0.000000 0.000000 0.066814 0.000000
# 6 0.000000 0.000000 0.000000 0.000000 0.000000 0.049030
#
#
# Mechanical properties :
#
#
# Convention : Reuss Voigt Hill
#
# Bulk Modulus (GPa) = 38.72412 59.73678 49.23045
# Shear Modulus (GPa) = 11.22448 18.77827 15.00138
#
# Velocity S-wave (km/s) = 2.48757 3.21750 2.87579
# Velocity P-wave (km/s) = 5.44049 6.83634 6.17797
#
# Compressibility (1/GPa) = 0.02582370
#
# Stress axis : x y z
#
# Youngs Moduli (GPa) = 48.44142 100.21324 36.85035
#
# Poissons Ratio (x) = 0.74638 0.16852
# Poissons Ratio (y) = 0.36079 0.14544
# Poissons Ratio (z) = 0.22152 0.39551
#
# Static dielectric constant tensor:
#      x y z
#    x 3.428520 0.000000 0.000000 
#    y 0.000000 3.725720 0.000000 
#    z 0.000000 0.000000 3.080910 
# 
# 
# High freq. dielectric constant tensor:
#      x y z
#    x 1.700390 0.000000 0.000000 
#    y 0.000000 1.713130 0.000000 
#    z 0.000000 0.000000 1.667010 
# 
# From -- ./inp_files/4543.got.cif
#   From: 2010.03.12/outbox.cif.g09.slc.cpg/sg55_3_cif.got.tgz:4543.got - 2010.04.16 15:19:21.
