data_PCOD8226580
_publ_section_title
;
Structure prediction by ZEFSAII (Michael W. Deem and Ramdas Pophale) SiO2 
 PCOD8226580
Probable space group: P B A M
;
_chemical_formula_sum "Si O2"
_cell_formula_units_Z 64
_cell_length_a 24.876753
_cell_length_b 14.420782
_cell_length_c 8.741004
_cell_angle_alpha 90.000000
_cell_angle_beta 90.000000
_cell_angle_gamma 90.000000
_cell_volume 3135.767284
_symmetry_space_group_name_H-M "P B A M"
_symmetry_group_IT_number 55
_symmetry_cell_setting 'orthorhombic'
loop_
_space_group_symop_operation_xyz
x,y,z
-x,-y,z
1/2+x,1/2-y,-z
1/2-x,1/2+y,-z
-x,-y,-z
x,y,-z
1/2-x,1/2+y,z
1/2+x,1/2-y,z
loop_
_atom_site_type_symbol
_atom_site_label
_atom_site_fract_x
_atom_site_fract_y
_atom_site_fract_z
Si Si1 0.016122 0.396809 0.820640
Si Si2 0.130849 0.101670 0.820094
Si Si3 0.444466 0.454157 0.679785
Si Si4 0.113091 0.291989 0.681129
Si Si5 0.259688 0.556428 0.324346
Si Si6 0.680834 0.783350 0.674851
Si Si7 0.771634 0.643318 0.318410
Si Si8 0.570469 0.742880 0.177780
O O1 0.069327 0.366998 0.731094
O O2 0.000000 0.500000 0.766852
O O3 0.968651 0.326578 0.776090
O O4 0.028608 0.394840 0.000000
O O5 0.100101 0.190778 0.750702
O O6 0.193147 0.103954 0.772103
O O7 0.104608 0.006685 0.760548
O O8 0.125197 0.106043 0.000000
O O9 0.500000 0.500000 0.733756
O O10 0.435983 0.462802 0.500000
O O11 0.445255 0.347035 0.725710
O O12 0.113229 0.282286 0.500000
O O13 0.170529 0.326300 0.746605
O O14 0.279540 0.551057 0.500000
O O15 0.204815 0.614063 0.312849
O O16 0.245361 0.456681 0.254434
O O17 0.664441 0.759498 0.500000
O O18 0.726160 0.713758 0.736892
O O19 0.630167 0.776322 0.784430
O O20 0.775685 0.641049 0.500000
O O21 0.566063 0.718128 0.000000
#
# Coordination Sequence:
#
# PCOD8226580 Si02
#       8
#     8   8   8   8   8   8   8   8
#     4  10  24  45  64  88 128 173 211 258 319 372
#     4  12  24  39  62  94 129 165 202 252 319 384
#     4  11  24  42  66  93 121 158 206 259 314 375
#     4  11  22  40  65  92 123 162 215 267 311 370
#     4  10  20  37  61  87 120 162 207 254 307 366
#     4  10  20  37  61  88 124 164 204 253 310 366
#     4   9  19  36  59  89 120 156 200 255 312 358
#     4  11  24  41  62  90 127 166 209 260 313 376
#
# _framework density 20.409679000000001
#
# number of rings (size 3 to 8) (size 9 to 14) (size 15 to 20)
#    0.000    1.500    1.250    3.750    1.750    5.750 
#    0.000    1.250    0.000    0.000    0.000    0.000 
#    0.000    0.000    0.000    0.000    0.000    0.000 
#
# Total GULP energy -793971.312350 kJ/mol
# GULP energy per Si atom -12405.801755 kJ/mol
# Density = 2.036323 g / cm^3
# Si number density = 20.409679 Si / 1000 Ang^3
#
#
#
# Elastic Constant Matrix: (Units=GPa)
#
#
# Indices 1 2 3 4 5 6 
#
# 1 114.6307 37.1658 31.7346 0.0000 0.0000 0.0000
# 2 37.1658 131.2578 29.0611 0.0000 0.0000 0.0000
# 3 31.7346 29.0611 69.2818 0.0000 0.0000 0.0000
# 4 0.0000 0.0000 0.0000 27.4814 0.0000 0.0000
# 5 0.0000 0.0000 0.0000 0.0000 27.0468 0.0000
# 6 0.0000 0.0000 0.0000 0.0000 0.0000 35.0336
#
#
#
# Elastic Compliance Matrix: (Units=1/GPa)
#
#
# Indices 1 2 3 4 5 6 
#
# 1 0.010491 -0.002102 -0.003924 0.000000 0.000000 0.000000
# 2 -0.002102 0.008820 -0.002737 0.000000 0.000000 0.000000
# 3 -0.003924 -0.002737 0.017379 0.000000 0.000000 0.000000
# 4 0.000000 0.000000 0.000000 0.036388 0.000000 0.000000
# 5 0.000000 0.000000 0.000000 0.000000 0.036973 0.000000
# 6 0.000000 0.000000 0.000000 0.000000 0.000000 0.028544
#
#
# Mechanical properties :
#
#
# Convention : Reuss Voigt Hill
#
# Bulk Modulus (GPa) = 52.17822 56.78813 54.48318
# Shear Modulus (GPa) = 30.76752 32.39295 31.58023
#
# Velocity S-wave (km/s) = 3.88686 3.98821 3.93786
# Velocity P-wave (km/s) = 6.76495 7.00659 6.88683
#
# Compressibility (1/GPa) = 0.01916509
#
# Stress axis : x y z
#
# Youngs Moduli (GPa) = 95.31556 113.38283 57.54020
#
# Poissons Ratio (x) = 0.23832 0.22579
# Poissons Ratio (y) = 0.20034 0.15747
# Poissons Ratio (z) = 0.37402 0.31030
#
# Static dielectric constant tensor:
#      x y z
#    x 3.745340 0.000000 0.000000 
#    y 0.000000 3.894990 0.000000 
#    z 0.000000 0.000000 3.483090 
# 
# 
# High freq. dielectric constant tensor:
#      x y z
#    x 1.805520 0.000000 0.000000 
#    y 0.000000 1.813190 0.000000 
#    z 0.000000 0.000000 1.779340 
# 
# From -- ./inp_files/9764.got.cif
#   From: 2010.03.12/outbox.cif.g09.slc.cpg/sg55_5_cif.got.tgz:9764.got - 2010.04.16 15:19:21.
