data_PCOD8226465
_publ_section_title
;
Structure prediction by ZEFSAII (Michael W. Deem and Ramdas Pophale) SiO2 
 PCOD8226465
Probable space group: P B A M
;
_chemical_formula_sum "Si O2"
_cell_formula_units_Z 48
_cell_length_a 9.228270
_cell_length_b 18.076846
_cell_length_c 13.395343
_cell_angle_alpha 90.000000
_cell_angle_beta 90.000000
_cell_angle_gamma 90.000000
_cell_volume 2234.584538
_symmetry_space_group_name_H-M "P B A M"
_symmetry_group_IT_number 55
_symmetry_cell_setting 'orthorhombic'
loop_
_space_group_symop_operation_xyz
x,y,z
-x,-y,z
1/2+x,1/2-y,-z
1/2-x,1/2+y,-z
-x,-y,-z
x,y,-z
1/2-x,1/2+y,z
1/2+x,1/2-y,z
loop_
_atom_site_type_symbol
_atom_site_label
_atom_site_fract_x
_atom_site_fract_y
_atom_site_fract_z
Si Si1 0.520651 0.347174 0.387418
Si Si2 0.801355 0.399732 0.710633
Si Si3 0.095109 0.689639 0.114224
Si Si4 0.449829 0.817336 0.387709
Si Si5 0.218368 0.321586 0.809561
Si Si6 0.641355 0.543255 0.254244
O O1 0.558048 0.370686 0.500000
O O2 0.664764 0.350875 0.320881
O O3 0.467525 0.262030 0.381293
O O4 0.402499 0.404466 0.346879
O O5 0.842670 0.379940 0.824830
O O6 0.763008 0.486468 0.706034
O O7 0.935324 0.381701 0.637906
O O8 0.156458 0.764139 0.163111
O O9 0.921103 0.692306 0.121741
O O10 0.143096 0.681741 0.000000
O O11 0.388101 0.829866 0.500000
O O12 0.319588 0.818454 0.308408
O O13 0.287345 0.403381 0.829676
O O14 0.500000 0.500000 0.211310
#
# Coordination Sequence:
#
# PCOD8226465 Si02
#       6
#     8   8   8   8   8   8
#     4  10  20  36  61  95 134 179 225 265 320 389
#     4  10  21  39  62  91 133 172 217 271 324 395
#     4  11  24  43  72  98 125 167 222 280 336 390
#     4  10  21  36  63  97 131 174 224 274 326 383
#     4  11  23  44  67  98 133 170 218 275 323 392
#     4  10  23  40  63  92 135 183 213 263 331 395
#
# _framework density 21.480502999999999
#
# number of rings (size 3 to 8) (size 9 to 14) (size 15 to 20)
#    0.000    1.667    1.667    3.000    2.333    7.000 
#    0.000    3.333    0.000    6.500    0.000    0.000 
#    0.000    0.000    0.000    0.000    0.000    0.000 
#
# Total GULP energy -595084.018555 kJ/mol
# GULP energy per Si atom -12397.583720 kJ/mol
# Density = 2.143161 g / cm^3
# Si number density = 21.480503 Si / 1000 Ang^3
#
#
#
# Elastic Constant Matrix: (Units=GPa)
#
#
# Indices 1 2 3 4 5 6 
#
# 1 99.3665 56.5900 39.8482 0.0000 0.0000 0.0000
# 2 56.5900 113.2074 22.6345 0.0000 0.0000 0.0000
# 3 39.8482 22.6345 123.5758 0.0000 0.0000 0.0000
# 4 0.0000 0.0000 0.0000 11.9692 0.0000 0.0000
# 5 0.0000 0.0000 0.0000 0.0000 19.2031 0.0000
# 6 0.0000 0.0000 0.0000 0.0000 0.0000 49.7512
#
#
#
# Elastic Compliance Matrix: (Units=1/GPa)
#
#
# Indices 1 2 3 4 5 6 
#
# 1 0.015567 -0.007036 -0.003731 0.000000 0.000000 0.000000
# 2 -0.007036 0.012349 0.000007 0.000000 0.000000 0.000000
# 3 -0.003731 0.000007 0.009294 0.000000 0.000000 0.000000
# 4 0.000000 0.000000 0.000000 0.083548 0.000000 0.000000
# 5 0.000000 0.000000 0.000000 0.000000 0.052075 0.000000
# 6 0.000000 0.000000 0.000000 0.000000 0.000000 0.020100
#
#
# Mechanical properties :
#
#
# Convention : Reuss Voigt Hill
#
# Bulk Modulus (GPa) = 63.73378 63.81059 63.77218
# Shear Modulus (GPa) = 22.76019 30.65650 26.70834
#
# Velocity S-wave (km/s) = 3.25864 3.78190 3.52998
# Velocity P-wave (km/s) = 6.62520 6.98864 6.80935
#
# Compressibility (1/GPa) = 0.01569027
#
# Stress axis : x y z
#
# Youngs Moduli (GPa) = 64.23946 80.97888 107.59571
#
# Poissons Ratio (x) = 0.56973 0.40144
# Poissons Ratio (y) = 0.45196 -0.00073
# Poissons Ratio (z) = 0.23968 -0.00055
#
# Static dielectric constant tensor:
#      x y z
#    x 3.925940 0.000000 0.000000 
#    y 0.000000 4.003760 0.000000 
#    z 0.000000 0.000000 3.665620 
# 
# 
# High freq. dielectric constant tensor:
#      x y z
#    x 1.851730 0.000000 0.000000 
#    y 0.000000 1.845100 0.000000 
#    z 0.000000 0.000000 1.815690 
# 
# From -- ./inp_files/17331.got.cif
#   From: 2010.03.12/outbox.cif.g09.slc.cpg/sg55_9_cif.got.tgz:17331.got - 2010.04.16 15:19:21.
