data_PCOD8226093
_publ_section_title
;
Structure prediction by ZEFSAII (Michael W. Deem and Ramdas Pophale) SiO2 
 PCOD8226093
Probable space group: P B A M
;
_chemical_formula_sum "Si O2"
_cell_formula_units_Z 48
_cell_length_a 14.606588
_cell_length_b 19.898976
_cell_length_c 8.988909
_cell_angle_alpha 90.000000
_cell_angle_beta 90.000000
_cell_angle_gamma 90.000000
_cell_volume 2612.681629
_symmetry_space_group_name_H-M "P B A M"
_symmetry_group_IT_number 55
_symmetry_cell_setting 'orthorhombic'
loop_
_space_group_symop_operation_xyz
x,y,z
-x,-y,z
1/2+x,1/2-y,-z
1/2-x,1/2+y,-z
-x,-y,-z
x,y,-z
1/2-x,1/2+y,z
1/2+x,1/2-y,z
loop_
_atom_site_type_symbol
_atom_site_label
_atom_site_fract_x
_atom_site_fract_y
_atom_site_fract_z
Si Si1 0.394736 0.315759 0.174596
Si Si2 0.491505 0.800081 0.673522
Si Si3 0.687640 0.164618 0.171065
Si Si4 0.731751 0.012969 0.826523
Si Si5 0.072826 0.555135 0.326908
Si Si6 0.412363 0.454150 0.671582
O O1 0.450060 0.253583 0.237620
O O2 0.287171 0.304906 0.208741
O O3 0.431321 0.383474 0.249392
O O4 0.411640 0.322670 0.000000
O O5 0.494884 0.783106 0.500000
O O6 0.386212 0.798215 0.726042
O O7 0.533984 0.872106 0.710986
O O8 0.687486 0.085457 0.207383
O O9 0.661424 0.177310 0.000000
O O10 0.665534 0.954982 0.765720
O O11 0.828208 0.006124 0.744317
O O12 0.749199 0.002473 0.000000
O O13 0.095532 0.546284 0.500000
O O14 0.000000 0.500000 0.273429
O O15 0.500000 0.500000 0.693421
O O16 0.390098 0.440303 0.500000
#
# Coordination Sequence:
#
# PCOD8226093 Si02
#       6
#     8   8   8   8   8   8
#     4  10  22  40  60  84 115 150 190 235 285 342
#     4  11  22  36  58  85 114 152 192 236 287 338
#     4   9  19  36  57  80 108 147 188 228 281 339
#     4  10  20  34  57  86 114 149 188 232 283 336
#     4  10  20  35  55  84 118 151 188 232 284 337
#     4  10  21  39  63  87 113 148 190 236 284 338
#
# _framework density 18.371928
#
# number of rings (size 3 to 8) (size 9 to 14) (size 15 to 20)
#    0.000    2.000    1.667    3.000    0.000    6.333 
#    3.000    0.000    0.000    0.000    0.000    0.000 
#    0.000    0.000    0.000    0.000    0.000    0.000 
#
# Total GULP energy -595404.746006 kJ/mol
# GULP energy per Si atom -12404.265542 kJ/mol
# Density = 1.833011 g / cm^3
# Si number density = 18.371928 Si / 1000 Ang^3
#
#
#
# Elastic Constant Matrix: (Units=GPa)
#
#
# Indices 1 2 3 4 5 6 
#
# 1 120.0468 58.8937 78.0113 0.0000 0.0000 0.0000
# 2 58.8937 82.5079 58.9356 0.0000 0.0000 0.0000
# 3 78.0113 58.9356 117.9613 0.0000 0.0000 0.0000
# 4 0.0000 0.0000 0.0000 27.6689 0.0000 0.0000
# 5 0.0000 0.0000 0.0000 0.0000 36.2334 0.0000
# 6 0.0000 0.0000 0.0000 0.0000 0.0000 28.3513
#
#
#
# Elastic Compliance Matrix: (Units=1/GPa)
#
#
# Indices 1 2 3 4 5 6 
#
# 1 0.016399 -0.006156 -0.007770 0.000000 0.000000 0.000000
# 2 -0.006156 0.021156 -0.006499 0.000000 0.000000 0.000000
# 3 -0.007770 -0.006499 0.016863 0.000000 0.000000 0.000000
# 4 0.000000 0.000000 0.000000 0.036142 0.000000 0.000000
# 5 0.000000 0.000000 0.000000 0.000000 0.027599 0.000000
# 6 0.000000 0.000000 0.000000 0.000000 0.000000 0.035272
#
#
# Mechanical properties :
#
#
# Convention : Reuss Voigt Hill
#
# Bulk Modulus (GPa) = 73.69677 79.13303 76.41490
# Shear Modulus (GPa) = 25.15061 26.76242 25.95651
#
# Velocity S-wave (km/s) = 3.70397 3.82082 3.76285
# Velocity P-wave (km/s) = 7.64810 7.91398 7.78218
#
# Compressibility (1/GPa) = 0.01356912
#
# Stress axis : x y z
#
# Youngs Moduli (GPa) = 60.97914 47.26736 59.30213
#
# Poissons Ratio (x) = 0.29096 0.46076
# Poissons Ratio (y) = 0.37536 0.38541
# Poissons Ratio (z) = 0.47379 0.30720
#
# Static dielectric constant tensor:
#      x y z
#    x 3.424290 0.000000 0.000000 
#    y 0.000000 3.266570 0.000000 
#    z 0.000000 0.000000 3.456730 
# 
# 
# High freq. dielectric constant tensor:
#      x y z
#    x 1.719050 0.000000 0.000000 
#    y 0.000000 1.697300 0.000000 
#    z 0.000000 0.000000 1.724740 
# 
# From -- ./inp_files/5656.got.cif
#   From: 2010.03.12/outbox.cif.g09.slc.cpg/sg55_3_cif.got.tgz:5656.got - 2010.04.16 15:19:21.
