data_PCOD8226059
_publ_section_title
;
Structure prediction by ZEFSAII (Michael W. Deem and Ramdas Pophale) SiO2 
 PCOD8226059
Probable space group: P B A M
;
_chemical_formula_sum "Si O2"
_cell_formula_units_Z 64
_cell_length_a 14.477594
_cell_length_b 24.267719
_cell_length_c 9.219086
_cell_angle_alpha 90.000000
_cell_angle_beta 90.000000
_cell_angle_gamma 90.000000
_cell_volume 3239.016924
_symmetry_space_group_name_H-M "P B A M"
_symmetry_group_IT_number 55
_symmetry_cell_setting 'orthorhombic'
loop_
_space_group_symop_operation_xyz
x,y,z
-x,-y,z
1/2+x,1/2-y,-z
1/2-x,1/2+y,-z
-x,-y,-z
x,y,-z
1/2-x,1/2+y,z
1/2+x,1/2-y,z
loop_
_atom_site_type_symbol
_atom_site_label
_atom_site_fract_x
_atom_site_fract_y
_atom_site_fract_z
Si Si1 0.249034 0.943340 0.333374
Si Si2 0.360762 0.746368 0.171741
Si Si3 0.456455 0.940766 0.329283
Si Si4 0.102341 0.013534 0.165325
Si Si5 0.440755 0.633043 0.162912
Si Si6 0.610284 0.644976 0.659864
Si Si7 0.671890 0.764163 0.667523
Si Si8 0.477774 0.167119 0.827446
O O1 0.251850 0.961421 0.500000
O O2 0.351908 0.943933 0.270308
O O3 0.210754 0.881416 0.309628
O O4 0.183812 0.986585 0.254649
O O5 0.394323 0.686923 0.232320
O O6 0.266624 0.755231 0.258269
O O7 0.435634 0.793325 0.211901
O O8 0.340370 0.746096 0.000000
O O9 0.461611 0.925920 0.500000
O O10 0.507596 0.893455 0.238371
O O11 0.500000 0.000000 0.296107
O O12 0.123089 0.079133 0.175039
O O13 0.107338 0.992417 0.000000
O O14 0.000000 0.000000 0.227588
O O15 0.538178 0.617436 0.232792
O O16 0.464453 0.649125 0.000000
O O17 0.578042 0.627547 0.500000
O O18 0.608596 0.710294 0.675416
O O19 0.687909 0.782468 0.500000
O O20 0.617545 0.810883 0.756689
O O21 0.463917 0.163468 0.000000
#
# Coordination Sequence:
#
# PCOD8226059 Si02
#       8
#     8   8   8   8   8   8   8   8
#     4  10  21  37  59  86 117 155 201 251 299 353
#     4  10  22  39  59  87 122 159 199 247 304 361
#     4  10  23  44  66  88 120 160 205 256 307 360
#     4  10  20  34  55  83 115 153 193 236 292 355
#     4  10  20  36  56  81 117 155 191 239 293 351
#     4  10  20  34  55  84 114 149 193 242 295 349
#     4  11  23  38  61  90 122 160 203 251 303 364
#     4  11  23  41  66  93 123 160 204 255 310 368
#
# _framework density 19.759081999999999
#
# number of rings (size 3 to 8) (size 9 to 14) (size 15 to 20)
#    0.000    1.750    2.500    1.500    0.000    5.500 
#    0.000    2.500    0.000    0.000    0.000    0.000 
#    0.000    0.000    0.000    0.000    0.000    0.000 
#
# Total GULP energy -793474.445190 kJ/mol
# GULP energy per Si atom -12398.038206 kJ/mol
# Density = 1.971411 g / cm^3
# Si number density = 19.759082 Si / 1000 Ang^3
#
#
#
# Elastic Constant Matrix: (Units=GPa)
#
#
# Indices 1 2 3 4 5 6 
#
# 1 75.8851 23.4052 37.5259 0.0000 0.0000 0.0000
# 2 23.4052 107.8963 37.9830 0.0000 0.0000 0.0000
# 3 37.5259 37.9830 71.7931 0.0000 0.0000 0.0000
# 4 0.0000 0.0000 0.0000 30.4762 0.0000 0.0000
# 5 0.0000 0.0000 0.0000 0.0000 29.7692 0.0000
# 6 0.0000 0.0000 0.0000 0.0000 0.0000 30.2394
#
#
#
# Elastic Compliance Matrix: (Units=1/GPa)
#
#
# Indices 1 2 3 4 5 6 
#
# 1 0.017817 -0.000721 -0.008931 0.000000 0.000000 0.000000
# 2 -0.000721 0.011419 -0.005664 0.000000 0.000000 0.000000
# 3 -0.008931 -0.005664 0.021594 0.000000 0.000000 0.000000
# 4 0.000000 0.000000 0.000000 0.032812 0.000000 0.000000
# 5 0.000000 0.000000 0.000000 0.000000 0.033592 0.000000
# 6 0.000000 0.000000 0.000000 0.000000 0.000000 0.033069
#
#
# Mechanical properties :
#
#
# Convention : Reuss Voigt Hill
#
# Bulk Modulus (GPa) = 49.51384 50.37806 49.94595
# Shear Modulus (GPa) = 26.64273 28.54100 27.59187
#
# Velocity S-wave (km/s) = 3.67601 3.80471 3.74092
# Velocity P-wave (km/s) = 6.56739 6.69721 6.63262
#
# Compressibility (1/GPa) = 0.02019637
#
# Stress axis : x y z
#
# Youngs Moduli (GPa) = 56.12682 87.57678 46.30879
#
# Poissons Ratio (x) = 0.06312 0.41360
# Poissons Ratio (y) = 0.04045 0.26231
# Poissons Ratio (z) = 0.50129 0.49607
#
# Static dielectric constant tensor:
#      x y z
#    x 3.503270 0.000000 0.000000 
#    y 0.000000 3.706990 0.000000 
#    z 0.000000 0.000000 3.540470 
# 
# 
# High freq. dielectric constant tensor:
#      x y z
#    x 1.763940 0.000000 0.000000 
#    y 0.000000 1.779150 0.000000 
#    z 0.000000 0.000000 1.764880 
# 
# From -- ./inp_files/6482.got.cif
#   From: 2010.03.12/outbox.cif.g09.slc.cpg/sg55_4_cif.got.tgz:6482.got - 2010.04.16 15:19:21.
