data_PCOD8226295
_publ_section_title
;
Structure prediction by ZEFSAII (Michael W. Deem and Ramdas Pophale) SiO2 
 PCOD8226295
Probable space group: P B A M
;
_chemical_formula_sum "Si O2"
_cell_formula_units_Z 28
_cell_length_a 19.724540
_cell_length_b 5.094559
_cell_length_c 12.620641
_cell_angle_alpha 90.000000
_cell_angle_beta 90.000000
_cell_angle_gamma 90.000000
_cell_volume 1268.220862
_symmetry_space_group_name_H-M "P B A M"
_symmetry_group_IT_number 55
_symmetry_cell_setting 'orthorhombic'
loop_
_space_group_symop_operation_xyz
x,y,z
-x,-y,z
1/2+x,1/2-y,-z
1/2-x,1/2+y,-z
-x,-y,-z
x,y,-z
1/2-x,1/2+y,z
1/2+x,1/2-y,z
loop_
_atom_site_type_symbol
_atom_site_label
_atom_site_fract_x
_atom_site_fract_y
_atom_site_fract_z
Si Si1 0.430342 0.909864 0.750962
Si Si2 0.414872 0.421206 0.618125
Si Si3 0.708099 0.500242 0.500000
Si Si4 0.292714 0.858116 0.125299
O O1 0.453210 0.649703 0.684419
O O2 0.369170 0.846469 0.830098
O O3 0.500000 0.000000 0.811424
O O4 0.408976 0.140587 0.672720
O O5 0.446905 0.384616 0.500000
O O6 0.337889 0.533041 0.605450
O O7 0.731275 0.800917 0.500000
O O8 0.248475 0.611850 0.164359
O O9 0.301520 0.856363 0.000000
#
# Coordination Sequence:
#
# PCOD8226295 Si02
#       4
#     8   8   4   8
#     4  12  24  40  64  95 125 166 210 255 313 366
#     4  10  24  39  56  90 124 169 209 256 291 369
#     4  10  20  36  55  80 117 160 206 250 294 346
#     4  10  23  44  68  93 123 161 205 258 320 377
#
# _framework density 22.078171999999999
#
# number of rings (size 3 to 8) (size 9 to 14) (size 15 to 20)
#    0.857    0.571    0.000    5.143    0.000   10.857 
#    0.000    0.000    0.000    8.571    0.000    0.000 
#    0.000    0.000    0.000    0.000    0.000    0.000 
#
# Total GULP energy -346986.263923 kJ/mol
# GULP energy per Si atom -12392.366569 kJ/mol
# Density = 2.202792 g / cm^3
# Si number density = 22.078172 Si / 1000 Ang^3
#
#
#
# Elastic Constant Matrix: (Units=GPa)
#
#
# Indices 1 2 3 4 5 6 
#
# 1 105.1970 19.1761 21.4572 0.0000 0.0000 0.0000
# 2 19.1761 147.6261 23.8834 0.0000 0.0000 0.0000
# 3 21.4572 23.8834 46.3277 0.0000 0.0000 0.0000
# 4 0.0000 0.0000 0.0000 20.8239 0.0000 0.0000
# 5 0.0000 0.0000 0.0000 0.0000 -11.1794 0.0000
# 6 0.0000 0.0000 0.0000 0.0000 0.0000 38.9295
#
#
#
# Elastic Compliance Matrix: (Units=1/GPa)
#
#
# Indices 1 2 3 4 5 6 
#
# 1 0.010552 -0.000633 -0.004561 0.000000 0.000000 0.000000
# 2 -0.000633 0.007428 -0.003536 0.000000 0.000000 0.000000
# 3 -0.004561 -0.003536 0.025521 0.000000 0.000000 0.000000
# 4 0.000000 0.000000 0.000000 0.048022 0.000000 0.000000
# 5 0.000000 0.000000 0.000000 0.000000 -0.089450 0.000000
# 6 0.000000 0.000000 0.000000 0.000000 0.000000 0.025687
#
#
# Mechanical properties :
#
#
# Convention : Reuss Voigt Hill
#
# Bulk Modulus (GPa) = 38.40152 47.57601 42.98876
# Shear Modulus (GPa) = 92.76367 25.35707 59.06037
#
# Velocity S-wave (km/s) = 6.48901 3.39265 5.17771
# Velocity P-wave (km/s) = 8.57754 6.07803 7.43359
#
# Compressibility (1/GPa) = 0.02604064
#
# Stress axis : x y z
#
# Youngs Moduli (GPa) = 94.77229 134.62235 39.18352
#
# Poissons Ratio (x) = 0.08518 0.17871
# Poissons Ratio (y) = 0.05997 0.13857
# Poissons Ratio (z) = 0.43225 0.47608
#
# Static dielectric constant tensor:
#      x y z
#    x 4.161430 0.000000 0.000000 
#    y 0.000000 4.025630 0.000000 
#    z 0.000000 0.000000 3.579490 
# 
# 
# High freq. dielectric constant tensor:
#      x y z
#    x 1.897400 0.000000 0.000000 
#    y 0.000000 1.887590 0.000000 
#    z 0.000000 0.000000 1.831600 
# 
# From -- ./inp_files/15120.got.cif
#   From: 2010.03.12/outbox.cif.g09.slc.cpg/sg55_8_cif.got.tgz:15120.got - 2010.04.16 15:19:21.
