data_PCOD8226009
_publ_section_title
;
Structure prediction by ZEFSAII (Michael W. Deem and Ramdas Pophale) SiO2 
 PCOD8226009
Probable space group: P B A M
;
_chemical_formula_sum "Si O2"
_cell_formula_units_Z 48
_cell_length_a 4.976133
_cell_length_b 17.022931
_cell_length_c 25.406261
_cell_angle_alpha 90.000000
_cell_angle_beta 90.000000
_cell_angle_gamma 90.000000
_cell_volume 2152.122924
_symmetry_space_group_name_H-M "P B A M"
_symmetry_group_IT_number 55
_symmetry_cell_setting 'orthorhombic'
loop_
_space_group_symop_operation_xyz
x,y,z
-x,-y,z
1/2+x,1/2-y,-z
1/2-x,1/2+y,-z
-x,-y,-z
x,y,-z
1/2-x,1/2+y,z
1/2+x,1/2-y,z
loop_
_atom_site_type_symbol
_atom_site_label
_atom_site_fract_x
_atom_site_fract_y
_atom_site_fract_z
Si Si1 0.713603 0.698878 0.939258
Si Si2 0.113414 0.415490 0.361437
Si Si3 0.883912 0.584307 0.246625
Si Si4 0.787115 0.302232 0.303061
Si Si5 0.755146 0.055403 0.137138
Si Si6 0.136904 0.802304 0.439431
O O1 0.420545 0.731599 0.925456
O O2 0.775607 0.622037 0.906036
O O3 0.741293 0.674192 0.000000
O O4 0.268161 0.419350 0.304014
O O5 0.858397 0.356346 0.353800
O O6 0.312781 0.380931 0.405331
O O7 0.000000 0.500000 0.379521
O O8 0.125848 0.649331 0.250490
O O9 0.703838 0.598957 0.194702
O O10 0.000000 0.500000 0.235723
O O11 0.974978 0.222859 0.304310
O O12 0.500000 0.000000 0.135182
O O13 0.000000 0.000000 0.123224
O O14 0.160569 0.828243 0.500000
O O15 0.348292 0.733585 0.425823
#
# Coordination Sequence:
#
# PCOD8226009 Si02
#       6
#     8   8   8   8   8   8
#     4  10  22  41  63  90 125 162 205 259 311 357
#     4   9  19  39  57  85 115 154 189 237 287 351
#     4   8  20  39  54  83 117 154 185 237 292 343
#     4  10  20  34  54  78 106 143 188 229 272 336
#     4  11  23  40  62  90 125 163 205 251 303 369
#     4  10  21  39  61  85 115 148 189 242 292 343
#
# _framework density 22.303560999999998
#
# number of rings (size 3 to 8) (size 9 to 14) (size 15 to 20)
#    1.000    1.333    0.000    2.000    0.000    5.000 
#    0.000    3.333    0.000    3.000    0.000    0.000 
#    0.000    0.000    0.000    0.000    0.000    0.000 
#
# Total GULP energy -594647.230400 kJ/mol
# GULP energy per Si atom -12388.483967 kJ/mol
# Density = 2.225280 g / cm^3
# Si number density = 22.303561 Si / 1000 Ang^3
#
#
#
# Elastic Constant Matrix: (Units=GPa)
#
#
# Indices 1 2 3 4 5 6 
#
# 1 65.4056 10.7602 17.7371 0.0000 0.0000 0.0000
# 2 10.7602 111.7847 48.1848 0.0000 0.0000 0.0000
# 3 17.7371 48.1848 105.6337 0.0000 0.0000 0.0000
# 4 0.0000 0.0000 0.0000 49.6591 0.0000 0.0000
# 5 0.0000 0.0000 0.0000 0.0000 56.1973 0.0000
# 6 0.0000 0.0000 0.0000 0.0000 0.0000 19.5232
#
#
#
# Elastic Compliance Matrix: (Units=1/GPa)
#
#
# Indices 1 2 3 4 5 6 
#
# 1 0.016039 -0.000477 -0.002476 0.000000 0.000000 0.000000
# 2 -0.000477 0.011149 -0.005006 0.000000 0.000000 0.000000
# 3 -0.002476 -0.005006 0.012166 0.000000 0.000000 0.000000
# 4 0.000000 0.000000 0.000000 0.020137 0.000000 0.000000
# 5 0.000000 0.000000 0.000000 0.000000 0.017794 0.000000
# 6 0.000000 0.000000 0.000000 0.000000 0.000000 0.051221
#
#
# Mechanical properties :
#
#
# Convention : Reuss Voigt Hill
#
# Bulk Modulus (GPa) = 42.66608 48.46535 45.56571
# Shear Modulus (GPa) = 32.84374 38.81869 35.83122
#
# Velocity S-wave (km/s) = 3.84158 4.17642 4.01250
# Velocity P-wave (km/s) = 6.23284 6.71072 6.47619
#
# Compressibility (1/GPa) = 0.02343782
#
# Stress axis : x y z
#
# Youngs Moduli (GPa) = 62.34800 89.69108 82.19806
#
# Poissons Ratio (x) = 0.04276 0.20350
# Poissons Ratio (y) = 0.02972 0.41146
# Poissons Ratio (z) = 0.15435 0.44897
#
# Static dielectric constant tensor:
#      x y z
#    x 3.724320 0.000000 0.000000 
#    y 0.000000 3.989890 0.000000 
#    z 0.000000 0.000000 4.366480 
# 
# 
# High freq. dielectric constant tensor:
#      x y z
#    x 1.862760 0.000000 0.000000 
#    y 0.000000 1.882650 0.000000 
#    z 0.000000 0.000000 1.874140 
# 
# From -- ./inp_files/23835.got.cif
#   From: 2010.03.12/outbox.cif.g09.slc.cpg/sg55_12_cif.got.tgz:23835.got - 2010.04.16 15:19:21.
