data_PCOD8226523
_publ_section_title
;
Structure prediction by ZEFSAII (Michael W. Deem and Ramdas Pophale) SiO2 
 PCOD8226523
Probable space group: P B A M
;
_chemical_formula_sum "Si O2"
_cell_formula_units_Z 64
_cell_length_a 23.344407
_cell_length_b 15.079448
_cell_length_c 9.196680
_cell_angle_alpha 90.000000
_cell_angle_beta 90.000000
_cell_angle_gamma 90.000000
_cell_volume 3237.422388
_symmetry_space_group_name_H-M "P B A M"
_symmetry_group_IT_number 55
_symmetry_cell_setting 'orthorhombic'
loop_
_space_group_symop_operation_xyz
x,y,z
-x,-y,z
1/2+x,1/2-y,-z
1/2-x,1/2+y,-z
-x,-y,-z
x,y,-z
1/2-x,1/2+y,z
1/2+x,1/2-y,z
loop_
_atom_site_type_symbol
_atom_site_label
_atom_site_fract_x
_atom_site_fract_y
_atom_site_fract_z
Si Si1 0.692925 0.803731 0.328415
Si Si2 0.784913 0.504286 0.331430
Si Si3 0.173956 0.008545 0.165629
Si Si4 0.552844 0.556732 0.829488
Si Si5 0.376483 0.849402 0.329963
Si Si6 0.919380 0.252872 0.167675
Si Si7 0.513325 0.102725 0.835158
Si Si8 0.194662 0.215063 0.833687
O O1 0.696055 0.788258 0.500000
O O2 0.693032 0.907242 0.285052
O O3 0.636554 0.756996 0.267274
O O4 0.748294 0.758990 0.255086
O O5 0.770150 0.507127 0.500000
O O6 0.727164 0.534670 0.250423
O O7 0.835305 0.569907 0.287072
O O8 0.178303 0.113295 0.179514
O O9 0.113700 0.976788 0.235231
O O10 0.178584 0.976060 0.000000
O O11 0.500000 0.500000 0.760138
O O12 0.546090 0.661833 0.796581
O O13 0.553583 0.536978 0.000000
O O14 0.374726 0.827735 0.500000
O O15 0.440071 0.873883 0.284144
O O16 0.358676 0.764201 0.238350
O O17 0.958195 0.337887 0.202343
O O18 0.899627 0.252836 0.000000
O O19 0.500000 0.000000 0.817048
O O20 0.534229 0.123138 0.000000
O O21 0.203076 0.244370 0.000000
#
# Coordination Sequence:
#
# PCOD8226523 Si02
#       8
#     8   8   8   8   8   8   8   8
#     4  10  20  37  59  83 116 151 186 230 288 347
#     4   9  20  37  56  81 114 151 183 227 286 343
#     4   9  19  35  58  84 108 143 188 232 285 341
#     4   9  19  35  57  82 109 143 187 239 287 336
#     4  11  23  37  57  85 116 152 194 235 287 350
#     4  10  21  36  59  87 116 150 193 239 286 341
#     4  10  22  39  59  86 118 154 195 242 291 343
#     4  10  21  36  57  84 114 147 187 235 286 343
#
# _framework density 19.768813000000002
#
# number of rings (size 3 to 8) (size 9 to 14) (size 15 to 20)
#    0.000    2.250    0.000    1.875    3.500    2.750 
#    0.000    0.000    0.000    0.750    0.000    0.000 
#    0.000    0.000    0.000    0.000    0.000    0.000 
#
# Total GULP energy -793733.726631 kJ/mol
# GULP energy per Si atom -12402.089479 kJ/mol
# Density = 1.972382 g / cm^3
# Si number density = 19.768813 Si / 1000 Ang^3
#
#
#
# Elastic Constant Matrix: (Units=GPa)
#
#
# Indices 1 2 3 4 5 6 
#
# 1 113.2948 37.4626 43.1267 0.0000 0.0000 0.0000
# 2 37.4626 66.9691 30.8952 0.0000 0.0000 0.0000
# 3 43.1267 30.8952 74.2669 0.0000 0.0000 0.0000
# 4 0.0000 0.0000 0.0000 14.5929 0.0000 0.0000
# 5 0.0000 0.0000 0.0000 0.0000 29.2131 0.0000
# 6 0.0000 0.0000 0.0000 0.0000 0.0000 29.6651
#
#
#
# Elastic Compliance Matrix: (Units=1/GPa)
#
#
# Indices 1 2 3 4 5 6 
#
# 1 0.012314 -0.004442 -0.005303 0.000000 0.000000 0.000000
# 2 -0.004442 0.020081 -0.005774 0.000000 0.000000 0.000000
# 3 -0.005303 -0.005774 0.018946 0.000000 0.000000 0.000000
# 4 0.000000 0.000000 0.000000 0.068527 0.000000 0.000000
# 5 0.000000 0.000000 0.000000 0.000000 0.034231 0.000000
# 6 0.000000 0.000000 0.000000 0.000000 0.000000 0.033710
#
#
# Mechanical properties :
#
#
# Convention : Reuss Voigt Hill
#
# Bulk Modulus (GPa) = 49.25347 53.05552 51.15450
# Shear Modulus (GPa) = 22.16170 24.23064 23.19617
#
# Velocity S-wave (km/s) = 3.35183 3.50480 3.42917
# Velocity P-wave (km/s) = 6.32048 6.57833 6.45069
#
# Compressibility (1/GPa) = 0.02030314
#
# Stress axis : x y z
#
# Youngs Moduli (GPa) = 81.20897 49.79826 52.78063
#
# Poissons Ratio (x) = 0.22121 0.27988
# Poissons Ratio (y) = 0.36074 0.30477
# Poissons Ratio (z) = 0.43063 0.28755
#
# Static dielectric constant tensor:
#      x y z
#    x 3.650250 0.000000 0.000000 
#    y 0.000000 3.481160 0.000000 
#    z 0.000000 0.000000 3.472940 
# 
# 
# High freq. dielectric constant tensor:
#      x y z
#    x 1.774030 0.000000 0.000000 
#    y 0.000000 1.778300 0.000000 
#    z 0.000000 0.000000 1.753700 
# 
# From -- ./inp_files/9742.got.cif
#   From: 2010.03.12/outbox.cif.g09.slc.cpg/sg55_5_cif.got.tgz:9742.got - 2010.04.16 15:19:21.
