data_PCOD8226239
_publ_section_title
;
Structure prediction by ZEFSAII (Michael W. Deem and Ramdas Pophale) SiO2 
 PCOD8226239
Probable space group: P B A M
;
_chemical_formula_sum "Si O2"
_cell_formula_units_Z 56
_cell_length_a 21.246076
_cell_length_b 14.876337
_cell_length_c 8.706311
_cell_angle_alpha 90.000000
_cell_angle_beta 90.000000
_cell_angle_gamma 90.000000
_cell_volume 2751.749621
_symmetry_space_group_name_H-M "P B A M"
_symmetry_group_IT_number 55
_symmetry_cell_setting 'orthorhombic'
loop_
_space_group_symop_operation_xyz
x,y,z
-x,-y,z
1/2+x,1/2-y,-z
1/2-x,1/2+y,-z
-x,-y,-z
x,y,-z
1/2-x,1/2+y,z
1/2+x,1/2-y,z
loop_
_atom_site_type_symbol
_atom_site_label
_atom_site_fract_x
_atom_site_fract_y
_atom_site_fract_z
Si Si1 0.389434 0.283835 0.677636
Si Si2 0.587706 0.041084 0.821996
Si Si3 0.692912 0.430905 0.675623
Si Si4 0.738802 0.765407 0.820229
Si Si5 0.713172 0.087766 0.675035
Si Si6 0.931162 0.023566 0.681828
Si Si7 0.477235 0.124217 0.324454
O O1 0.367868 0.290752 0.500000
O O2 0.334023 0.234417 0.770463
O O3 0.406513 0.381114 0.747914
O O4 0.452475 0.224998 0.696095
O O5 0.660461 0.043023 0.779866
O O6 0.549937 0.118619 0.728699
O O7 0.562453 0.942711 0.781594
O O8 0.578434 0.059988 0.000000
O O9 0.698578 0.397399 0.500000
O O10 0.727471 0.359739 0.783783
O O11 0.724040 0.529053 0.694165
O O12 0.619524 0.445395 0.723052
O O13 0.774916 0.688526 0.728598
O O14 0.743770 0.746967 0.000000
O O15 0.689819 0.089009 0.500000
O O16 0.937137 0.034363 0.500000
O O17 0.000000 0.000000 0.751898
O O18 0.470526 0.092485 0.500000
#
# Coordination Sequence:
#
# PCOD8226239 Si02
#       7
#     8   8   8   8   8   8   8
#     4  10  20  38  61  88 118 157 209 253 299 368
#     4  11  22  36  55  84 123 158 195 250 315 367
#     4  10  21  39  64  90 120 159 202 256 308 364
#     4  12  25  38  59  90 123 160 201 252 314 373
#     4  11  22  40  63  86 116 156 205 253 300 362
#     4   9  18  36  63  92 119 151 198 253 306 359
#     4  10  20  35  58  85 116 159 208 249 294 360
#
# _framework density 20.350688999999999
#
# number of rings (size 3 to 8) (size 9 to 14) (size 15 to 20)
#    0.000    1.571    1.429    5.143    0.000    6.857 
#    0.000    2.857    0.000    1.714    0.000    0.000 
#    0.000    0.000    0.000    0.000    0.000    0.000 
#
# Total GULP energy -694500.885312 kJ/mol
# GULP energy per Si atom -12401.801523 kJ/mol
# Density = 2.030437 g / cm^3
# Si number density = 20.350689 Si / 1000 Ang^3
#
#
#
# Elastic Constant Matrix: (Units=GPa)
#
#
# Indices 1 2 3 4 5 6 
#
# 1 123.1828 34.2479 27.6107 0.0000 0.0000 0.0000
# 2 34.2479 93.1389 28.2421 0.0000 0.0000 0.0000
# 3 27.6107 28.2421 70.6437 0.0000 0.0000 0.0000
# 4 0.0000 0.0000 0.0000 5.8643 0.0000 0.0000
# 5 0.0000 0.0000 0.0000 0.0000 13.0399 0.0000
# 6 0.0000 0.0000 0.0000 0.0000 0.0000 32.3066
#
#
#
# Elastic Compliance Matrix: (Units=1/GPa)
#
#
# Indices 1 2 3 4 5 6 
#
# 1 0.009451 -0.002680 -0.002622 0.000000 0.000000 0.000000
# 2 -0.002680 0.012978 -0.004141 0.000000 0.000000 0.000000
# 3 -0.002622 -0.004141 0.016836 0.000000 0.000000 0.000000
# 4 0.000000 0.000000 0.000000 0.170522 0.000000 0.000000
# 5 0.000000 0.000000 0.000000 0.000000 0.076688 0.000000
# 6 0.000000 0.000000 0.000000 0.000000 0.000000 0.030953
#
#
# Mechanical properties :
#
#
# Convention : Reuss Voigt Hill
#
# Bulk Modulus (GPa) = 49.07224 51.90741 50.48983
# Shear Modulus (GPa) = 14.57273 23.36650 18.96961
#
# Velocity S-wave (km/s) = 2.67887 3.39217 3.05640
# Velocity P-wave (km/s) = 5.80811 6.39565 6.10895
#
# Compressibility (1/GPa) = 0.02037812
#
# Stress axis : x y z
#
# Youngs Moduli (GPa) = 105.80980 77.05527 59.39687
#
# Poissons Ratio (x) = 0.20651 0.15576
# Poissons Ratio (y) = 0.28357 0.24595
# Poissons Ratio (z) = 0.27748 0.31907
#
# Static dielectric constant tensor:
#      x y z
#    x 3.950750 0.000000 0.000000 
#    y 0.000000 3.565020 0.000000 
#    z 0.000000 0.000000 3.508500 
# 
# 
# High freq. dielectric constant tensor:
#      x y z
#    x 1.803930 0.000000 0.000000 
#    y 0.000000 1.790760 0.000000 
#    z 0.000000 0.000000 1.775910 
# 
# From -- ./inp_files/8751.got.cif
#   From: 2010.03.12/outbox.cif.g09.slc.cpg/sg55_5_cif.got.tgz:8751.got - 2010.04.16 15:19:21.
