data_PCOD8226285
_publ_section_title
;
Structure prediction by ZEFSAII (Michael W. Deem and Ramdas Pophale) SiO2 
 PCOD8226285
Probable space group: P B A M
;
_chemical_formula_sum "Si O2"
_cell_formula_units_Z 36
_cell_length_a 28.011327
_cell_length_b 5.101061
_cell_length_c 12.767519
_cell_angle_alpha 90.000000
_cell_angle_beta 90.000000
_cell_angle_gamma 90.000000
_cell_volume 1824.318714
_symmetry_space_group_name_H-M "P B A M"
_symmetry_group_IT_number 55
_symmetry_cell_setting 'orthorhombic'
loop_
_space_group_symop_operation_xyz
x,y,z
-x,-y,z
1/2+x,1/2-y,-z
1/2-x,1/2+y,-z
-x,-y,-z
x,y,-z
1/2-x,1/2+y,z
1/2+x,1/2-y,z
loop_
_atom_site_type_symbol
_atom_site_label
_atom_site_fract_x
_atom_site_fract_y
_atom_site_fract_z
Si Si1 0.623102 0.315836 0.248468
Si Si2 0.719148 0.312287 0.378363
Si Si3 0.779855 0.176726 0.000000
Si Si4 0.367909 0.196724 0.883942
Si Si5 0.529453 0.249974 0.623599
O O1 0.608660 0.586953 0.191505
O O2 0.581750 0.241016 0.328296
O O3 0.671711 0.352136 0.311769
O O4 0.627531 0.092067 0.161812
O O5 0.704692 0.329455 0.500000
O O6 0.742488 0.034745 0.350023
O O7 0.811617 0.230719 0.896346
O O8 0.735027 0.372579 0.000000
O O9 0.392300 0.200590 0.000000
O O10 0.500000 0.500000 0.662534
O O11 0.536502 0.250360 0.500000
O O12 0.500000 0.000000 0.662570
#
# Coordination Sequence:
#
# PCOD8226285 Si02
#       5
#     8   8   4   8   8
#     4  12  21  39  64  84 117 162 196 239 305 354
#     4  10  22  37  54  84 121 153 192 235 283 359
#     4  10  20  36  54  78 114 152 198 252 292 324
#     4  10  24  37  55  85 114 157 193 251 289 341
#     4  10  22  40  64  95 122 148 195 252 303 361
#
# _framework density 19.733395000000002
#
# number of rings (size 3 to 8) (size 9 to 14) (size 15 to 20)
#    0.667    0.889    0.000    5.333    0.000    5.333 
#    0.000    8.889    0.000   13.333    0.000    0.000 
#    0.000    0.000    0.000    0.000    0.000    0.000 
#
# Total GULP energy -446447.613246 kJ/mol
# GULP energy per Si atom -12401.322590 kJ/mol
# Density = 1.968848 g / cm^3
# Si number density = 19.733395 Si / 1000 Ang^3
#
#
#
# Elastic Constant Matrix: (Units=GPa)
#
#
# Indices 1 2 3 4 5 6 
#
# 1 71.8025 9.2143 35.9692 0.0000 0.0000 0.0000
# 2 9.2143 96.3981 32.1805 0.0000 0.0000 0.0000
# 3 35.9692 32.1805 74.5061 0.0000 0.0000 0.0000
# 4 0.0000 0.0000 0.0000 9.3695 0.0000 0.0000
# 5 0.0000 0.0000 0.0000 0.0000 64.3573 0.0000
# 6 0.0000 0.0000 0.0000 0.0000 0.0000 28.0926
#
#
#
# Elastic Compliance Matrix: (Units=1/GPa)
#
#
# Indices 1 2 3 4 5 6 
#
# 1 0.018535 0.001420 -0.009561 0.000000 0.000000 0.000000
# 2 0.001420 0.012230 -0.005968 0.000000 0.000000 0.000000
# 3 -0.009561 -0.005968 0.020615 0.000000 0.000000 0.000000
# 4 0.000000 0.000000 0.000000 0.106729 0.000000 0.000000
# 5 0.000000 0.000000 0.000000 0.000000 0.015538 0.000000
# 6 0.000000 0.000000 0.000000 0.000000 0.000000 0.035597
#
#
# Mechanical properties :
#
#
# Convention : Reuss Voigt Hill
#
# Bulk Modulus (GPa) = 43.17466 44.15942 43.66704
# Shear Modulus (GPa) = 20.39294 31.38672 25.88983
#
# Velocity S-wave (km/s) = 3.21818 3.99248 3.62606
# Velocity P-wave (km/s) = 5.97791 6.60907 6.30140
#
# Compressibility (1/GPa) = 0.02316173
#
# Stress axis : x y z
#
# Youngs Moduli (GPa) = 53.95333 81.76465 48.50756
#
# Poissons Ratio (x) = -0.11612 0.46380
# Poissons Ratio (y) = -0.07662 0.28950
# Poissons Ratio (z) = 0.51586 0.48798
#
# Static dielectric constant tensor:
#      x y z
#    x 3.328350 0.000000 0.000000 
#    y 0.000000 3.601200 0.000000 
#    z 0.000000 0.000000 3.552170 
# 
# 
# High freq. dielectric constant tensor:
#      x y z
#    x 1.748270 0.000000 0.000000 
#    y 0.000000 1.788840 0.000000 
#    z 0.000000 0.000000 1.771230 
# 
# From -- ./inp_files/15536.got.cif
#   From: 2010.03.12/outbox.cif.g09.slc.cpg/sg55_8_cif.got.tgz:15536.got - 2010.04.16 15:19:21.
