data_PCOD8226268
_publ_section_title
;
Structure prediction by ZEFSAII (Michael W. Deem and Ramdas Pophale) SiO2 
 PCOD8226268
Probable space group: P B A M
;
_chemical_formula_sum "Si O2"
_cell_formula_units_Z 64
_cell_length_a 29.154630
_cell_length_b 12.414008
_cell_length_c 8.961557
_cell_angle_alpha 90.000000
_cell_angle_beta 90.000000
_cell_angle_gamma 90.000000
_cell_volume 3243.418777
_symmetry_space_group_name_H-M "P B A M"
_symmetry_group_IT_number 55
_symmetry_cell_setting 'orthorhombic'
loop_
_space_group_symop_operation_xyz
x,y,z
-x,-y,z
1/2+x,1/2-y,-z
1/2-x,1/2+y,-z
-x,-y,-z
x,y,-z
1/2-x,1/2+y,z
1/2+x,1/2-y,z
loop_
_atom_site_type_symbol
_atom_site_label
_atom_site_fract_x
_atom_site_fract_y
_atom_site_fract_z
Si Si1 0.069084 0.820449 0.326731
Si Si2 0.399527 0.559733 0.673706
Si Si3 0.080606 0.424300 0.832555
Si Si4 0.305560 0.604628 0.827498
Si Si5 0.179550 0.349431 0.165499
Si Si6 0.213054 0.547736 0.325740
Si Si7 0.031306 0.243952 0.676124
Si Si8 0.126896 0.642502 0.177246
O O1 0.075038 0.790869 0.500000
O O2 0.075076 0.946906 0.299137
O O3 0.106828 0.754644 0.234195
O O4 0.018973 0.788426 0.266417
O O5 0.387984 0.577142 0.500000
O O6 0.352825 0.557673 0.765860
O O7 0.432672 0.654435 0.734167
O O8 0.124680 0.346954 0.826647
O O9 0.042173 0.364516 0.734561
O O10 0.094183 0.542934 0.770466
O O11 0.061342 0.434931 0.000000
O O12 0.301944 0.731666 0.804307
O O13 0.264244 0.556505 0.733938
O O14 0.301298 0.571584 0.000000
O O15 0.199131 0.424841 0.294437
O O16 0.194349 0.391177 0.000000
O O17 0.211386 0.572356 0.500000
O O18 0.177898 0.628452 0.243545
O O19 0.032379 0.246406 0.500000
O O20 0.131532 0.642402 0.000000
#
# Coordination Sequence:
#
# PCOD8226268 Si02
#       8
#     8   8   8   8   8   8   8   8
#     4  10  22  39  58  84 121 161 199 243 294 351
#     4  10  21  38  59  85 119 155 197 246 295 347
#     4   9  18  35  58  83 112 146 191 242 289 342
#     4  11  22  38  61  87 116 151 194 240 289 349
#     4   9  19  37  58  81 112 150 188 233 287 342
#     4  11  23  38  60  88 116 149 191 239 294 352
#     4  10  20  35  59  88 117 154 197 243 296 349
#     4  10  22  41  60  82 116 157 197 242 298 353
#
# _framework density 19.732265999999999
#
# number of rings (size 3 to 8) (size 9 to 14) (size 15 to 20)
#    0.000    2.000    1.250    3.000    0.000    7.500 
#    0.000    2.500    0.000    2.250    0.000    0.000 
#    0.000    0.000    0.000    0.000    0.000    0.000 
#
# Total GULP energy -793683.552308 kJ/mol
# GULP energy per Si atom -12401.305505 kJ/mol
# Density = 1.968735 g / cm^3
# Si number density = 19.732266 Si / 1000 Ang^3
#
#
#
# Elastic Constant Matrix: (Units=GPa)
#
#
# Indices 1 2 3 4 5 6 
#
# 1 88.1694 8.1924 29.9681 0.0000 0.0000 0.0000
# 2 8.1924 41.1465 18.5988 0.0000 0.0000 0.0000
# 3 29.9681 18.5988 71.1479 0.0000 0.0000 0.0000
# 4 0.0000 0.0000 0.0000 32.1936 0.0000 0.0000
# 5 0.0000 0.0000 0.0000 0.0000 22.4947 0.0000
# 6 0.0000 0.0000 0.0000 0.0000 0.0000 25.9947
#
#
#
# Elastic Compliance Matrix: (Units=1/GPa)
#
#
# Indices 1 2 3 4 5 6 
#
# 1 0.013237 -0.000131 -0.005542 0.000000 0.000000 0.000000
# 2 -0.000131 0.027561 -0.007150 0.000000 0.000000 0.000000
# 3 -0.005542 -0.007150 0.018258 0.000000 0.000000 0.000000
# 4 0.000000 0.000000 0.000000 0.031062 0.000000 0.000000
# 5 0.000000 0.000000 0.000000 0.000000 0.044455 0.000000
# 6 0.000000 0.000000 0.000000 0.000000 0.000000 0.038469
#
#
# Mechanical properties :
#
#
# Convention : Reuss Voigt Hill
#
# Bulk Modulus (GPa) = 29.92844 34.88693 32.40769
# Shear Modulus (GPa) = 23.82937 25.71691 24.77314
#
# Velocity S-wave (km/s) = 3.47887 3.61403 3.54710
# Velocity P-wave (km/s) = 5.59794 5.92735 5.76500
#
# Compressibility (1/GPa) = 0.03341303
#
# Stress axis : x y z
#
# Youngs Moduli (GPa) = 75.54308 36.28290 54.76942
#
# Poissons Ratio (x) = 0.00475 0.30351
# Poissons Ratio (y) = 0.00988 0.39158
# Poissons Ratio (z) = 0.41863 0.25941
#
# Static dielectric constant tensor:
#      x y z
#    x 3.594340 0.000000 0.000000 
#    y 0.000000 3.544830 0.000000 
#    z 0.000000 0.000000 3.526040 
# 
# 
# High freq. dielectric constant tensor:
#      x y z
#    x 1.769550 0.000000 0.000000 
#    y 0.000000 1.769720 0.000000 
#    z 0.000000 0.000000 1.762710 
# 
# From -- ./inp_files/10743.got.cif
#   From: 2010.03.12/outbox.cif.g09.slc.cpg/sg55_6_cif.got.tgz:10743.got - 2010.04.16 15:19:21.
