data_PCOD8226853
_publ_section_title
;
Structure prediction by ZEFSAII (Michael W. Deem and Ramdas Pophale) SiO2 
 PCOD8226853
Probable space group: P B A M
;
_chemical_formula_sum "Si O2"
_cell_formula_units_Z 48
_cell_length_a 23.414735
_cell_length_b 11.737561
_cell_length_c 9.141807
_cell_angle_alpha 90.000000
_cell_angle_beta 90.000000
_cell_angle_gamma 90.000000
_cell_volume 2512.460008
_symmetry_space_group_name_H-M "P B A M"
_symmetry_group_IT_number 55
_symmetry_cell_setting 'orthorhombic'
loop_
_space_group_symop_operation_xyz
x,y,z
-x,-y,z
1/2+x,1/2-y,-z
1/2-x,1/2+y,-z
-x,-y,-z
x,y,-z
1/2-x,1/2+y,z
1/2+x,1/2-y,z
loop_
_atom_site_type_symbol
_atom_site_label
_atom_site_fract_x
_atom_site_fract_y
_atom_site_fract_z
Si Si1 0.621986 0.237585 0.664820
Si Si2 0.279310 0.601723 0.668487
Si Si3 0.347594 0.183122 0.667290
Si Si4 0.341410 0.415980 0.171261
Si Si5 0.935170 0.512004 0.673500
Si Si6 0.062420 0.035812 0.664529
O O1 0.638069 0.203276 0.500000
O O2 0.679990 0.295617 0.733040
O O3 0.597996 0.122596 0.742475
O O4 0.570092 0.328055 0.671013
O O5 0.297772 0.583966 0.500000
O O6 0.212926 0.622532 0.685457
O O7 0.289435 0.482912 0.751999
O O8 0.356558 0.223175 0.500000
O O9 0.346900 0.287720 0.775801
O O10 0.398480 0.099018 0.715810
O O11 0.399116 0.479226 0.212959
O O12 0.331047 0.417339 0.000000
O O13 0.938769 0.527928 0.500000
O O14 0.000000 0.500000 0.736335
O O15 0.076926 0.991667 0.500000
O O16 0.000000 0.000000 0.710630
#
# Coordination Sequence:
#
# PCOD8226853 Si02
#       6
#     8   8   8   8   8   8
#     4   8  15  29  49  78 110 135 169 227 287 331
#     4   9  19  36  59  83 107 140 191 245 286 331
#     4  10  21  35  59  85 109 144 190 240 283 335
#     4  11  23  37  54  80 118 151 184 228 285 356
#     4   9  18  30  50  83 115 141 176 229 290 340
#     4   9  18  33  58  84 108 142 188 239 284 329
#
# _framework density 19.104782
#
# number of rings (size 3 to 8) (size 9 to 14) (size 15 to 20)
#    0.000    2.667    0.000    2.500    4.667    1.000 
#    0.000    0.000    0.000    1.500    0.000    0.000 
#    0.000    0.000    0.000    0.000    0.000    0.000 
#
# Total GULP energy -594857.516863 kJ/mol
# GULP energy per Si atom -12392.864935 kJ/mol
# Density = 1.906130 g / cm^3
# Si number density = 19.104782 Si / 1000 Ang^3
#
#
#
# Elastic Constant Matrix: (Units=GPa)
#
#
# Indices 1 2 3 4 5 6 
#
# 1 105.8705 47.1044 24.1228 0.0000 0.0000 0.0000
# 2 47.1044 116.7753 50.9888 0.0000 0.0000 0.0000
# 3 24.1228 50.9888 66.7205 0.0000 0.0000 0.0000
# 4 0.0000 0.0000 0.0000 8.9390 0.0000 0.0000
# 5 0.0000 0.0000 0.0000 0.0000 6309.8015 0.0000
# 6 0.0000 0.0000 0.0000 0.0000 0.0000 17.7725
#
#
#
# Elastic Compliance Matrix: (Units=1/GPa)
#
#
# Indices 1 2 3 4 5 6 
#
# 1 0.011549 -0.004255 -0.000924 0.000000 0.000000 0.000000
# 2 -0.004255 0.014420 -0.009481 0.000000 0.000000 0.000000
# 3 -0.000924 -0.009481 0.022568 0.000000 0.000000 0.000000
# 4 0.000000 0.000000 0.000000 0.111870 0.000000 0.000000
# 5 0.000000 0.000000 0.000000 0.000000 0.000158 0.000000
# 6 0.000000 0.000000 0.000000 0.000000 0.000000 0.056267
#
#
# Mechanical properties :
#
#
# Convention : Reuss Voigt Hill
#
# Bulk Modulus (GPa) = 52.03976 59.31093 55.67535
# Shear Modulus (GPa) = 19.79744 1278.44596 649.12170
#
# Velocity S-wave (km/s) = 3.22258 25.89650 18.45283
# Velocity P-wave (km/s) = 6.41444 30.41848 21.98214
#
# Compressibility (1/GPa) = 0.01921608
#
# Stress axis : x y z
#
# Youngs Moduli (GPa) = 86.58542 69.34831 44.31121
#
# Poissons Ratio (x) = 0.29511 0.04092
# Poissons Ratio (y) = 0.36846 0.42013
# Poissons Ratio (z) = 0.07997 0.65752
#
# Static dielectric constant tensor:
#      x y z
#    x 3.725870 0.000000 0.000000 
#    y 0.000000 3.714040 0.000000 
#    z 0.000000 0.000000 2.993230 
# 
# 
# High freq. dielectric constant tensor:
#      x y z
#    x 1.752000 0.000000 0.000000 
#    y 0.000000 1.750440 0.000000 
#    z 0.000000 0.000000 1.682780 
# 
# From -- ./inp_files/9424.got.cif
#   From: 2010.03.12/outbox.cif.g09.slc.cpg/sg55_5_cif.got.tgz:9424.got - 2010.04.16 15:19:21.
