data_PCOD8226477
_publ_section_title
;
Structure prediction by ZEFSAII (Michael W. Deem and Ramdas Pophale) SiO2 
 PCOD8226477
Probable space group: P B A M
;
_chemical_formula_sum "Si O2"
_cell_formula_units_Z 40
_cell_length_a 9.689057
_cell_length_b 15.504122
_cell_length_c 12.583164
_cell_angle_alpha 90.000000
_cell_angle_beta 90.000000
_cell_angle_gamma 90.000000
_cell_volume 1890.246945
_symmetry_space_group_name_H-M "P B A M"
_symmetry_group_IT_number 55
_symmetry_cell_setting 'orthorhombic'
loop_
_space_group_symop_operation_xyz
x,y,z
-x,-y,z
1/2+x,1/2-y,-z
1/2-x,1/2+y,-z
-x,-y,-z
x,y,-z
1/2-x,1/2+y,z
1/2+x,1/2-y,z
loop_
_atom_site_type_symbol
_atom_site_label
_atom_site_fract_x
_atom_site_fract_y
_atom_site_fract_z
Si Si1 0.897662 0.287135 0.379449
Si Si2 0.348405 0.019347 0.618837
Si Si3 0.330100 0.781355 0.758667
Si Si4 0.188489 0.942480 0.199326
Si Si5 0.600465 0.386731 0.121413
O O1 0.938364 0.259823 0.500000
O O2 0.820517 0.378838 0.380159
O O3 0.790759 0.219858 0.329447
O O4 0.028927 0.291934 0.303548
O O5 0.344465 0.981068 0.500000
O O6 0.500000 0.000000 0.668395
O O7 0.226051 0.972205 0.681477
O O8 0.296763 0.866091 0.831648
O O9 0.323643 0.697717 0.834099
O O10 0.033775 0.905042 0.193082
O O11 0.200503 0.028802 0.126181
O O12 0.556399 0.370412 0.000000
#
# Coordination Sequence:
#
# PCOD8226477 Si02
#       5
#     8   8   8   8   8
#     4  11  23  40  63  98 139 175 210 262 327 395
#     4  10  20  36  62  93 130 170 207 261 326 389
#     4  12  23  42  69  99 132 173 223 270 325 400
#     4  11  22  42  68  91 129 171 220 269 333 394
#     4  11  26  46  65  92 130 173 224 282 337 383
#
# _framework density 21.161255000000001
#
# number of rings (size 3 to 8) (size 9 to 14) (size 15 to 20)
#    0.000    1.000    6.000    1.800    0.000    2.400 
#    0.000    2.000    0.000    3.600    0.000    0.000 
#    0.000    0.000    0.000    0.000    0.000    0.000 
#
# Total GULP energy -495828.707594 kJ/mol
# GULP energy per Si atom -12395.717690 kJ/mol
# Density = 2.111309 g / cm^3
# Si number density = 21.161255 Si / 1000 Ang^3
#
#
#
# Elastic Constant Matrix: (Units=GPa)
#
#
# Indices 1 2 3 4 5 6 
#
# 1 86.4286 37.5213 48.7650 0.0000 0.0000 0.0000
# 2 37.5213 137.8195 45.8077 0.0000 0.0000 0.0000
# 3 48.7650 45.8077 96.7995 0.0000 0.0000 0.0000
# 4 0.0000 0.0000 0.0000 17.6181 0.0000 0.0000
# 5 0.0000 0.0000 0.0000 0.0000 19.9250 0.0000
# 6 0.0000 0.0000 0.0000 0.0000 0.0000 31.8553
#
#
#
# Elastic Compliance Matrix: (Units=1/GPa)
#
#
# Indices 1 2 3 4 5 6 
#
# 1 0.016648 -0.002071 -0.007407 0.000000 0.000000 0.000000
# 2 -0.002071 0.008868 -0.003153 0.000000 0.000000 0.000000
# 3 -0.007407 -0.003153 0.015554 0.000000 0.000000 0.000000
# 4 0.000000 0.000000 0.000000 0.056760 0.000000 0.000000
# 5 0.000000 0.000000 0.000000 0.000000 0.050188 0.000000
# 6 0.000000 0.000000 0.000000 0.000000 0.000000 0.031392
#
#
# Mechanical properties :
#
#
# Convention : Reuss Voigt Hill
#
# Bulk Modulus (GPa) = 63.25753 65.02617 64.14185
# Shear Modulus (GPa) = 23.81611 26.47660 25.14635
#
# Velocity S-wave (km/s) = 3.35842 3.54104 3.45094
# Velocity P-wave (km/s) = 6.70796 6.89306 6.80114
#
# Compressibility (1/GPa) = 0.01580839
#
# Stress axis : x y z
#
# Youngs Moduli (GPa) = 60.06566 112.76950 64.29058
#
# Poissons Ratio (x) = 0.23350 0.47621
# Poissons Ratio (y) = 0.12437 0.20273
# Poissons Ratio (z) = 0.44492 0.35559
#
# Static dielectric constant tensor:
#      x y z
#    x 3.697390 0.000000 0.000000 
#    y 0.000000 4.279330 0.000000 
#    z 0.000000 0.000000 3.655600 
# 
# 
# High freq. dielectric constant tensor:
#      x y z
#    x 1.812080 0.000000 0.000000 
#    y 0.000000 1.853930 0.000000 
#    z 0.000000 0.000000 1.806060 
# 
# From -- ./inp_files/7170.got.cif
#   From: 2010.03.12/outbox.cif.g09.slc.cpg/sg55_4_cif.got.tgz:7170.got - 2010.04.16 15:19:21.
