data_PCOD8226446
_publ_section_title
;
Structure prediction by ZEFSAII (Michael W. Deem and Ramdas Pophale) SiO2 
 PCOD8226446
Probable space group: P B A M
;
_chemical_formula_sum "Si O2"
_cell_formula_units_Z 64
_cell_length_a 23.486388
_cell_length_b 15.180341
_cell_length_c 9.055964
_cell_angle_alpha 90.000000
_cell_angle_beta 90.000000
_cell_angle_gamma 90.000000
_cell_volume 3228.735330
_symmetry_space_group_name_H-M "P B A M"
_symmetry_group_IT_number 55
_symmetry_cell_setting 'orthorhombic'
loop_
_space_group_symop_operation_xyz
x,y,z
-x,-y,z
1/2+x,1/2-y,-z
1/2-x,1/2+y,-z
-x,-y,-z
x,y,-z
1/2-x,1/2+y,z
1/2+x,1/2-y,z
loop_
_atom_site_type_symbol
_atom_site_label
_atom_site_fract_x
_atom_site_fract_y
_atom_site_fract_z
Si Si1 0.463531 0.081472 0.325394
Si Si2 0.961165 0.082216 0.829839
Si Si3 0.521904 0.237489 0.167626
Si Si4 0.751277 0.261768 0.324323
Si Si5 0.165742 0.584939 0.676516
Si Si6 0.138452 0.180397 0.829976
Si Si7 0.870574 0.992070 0.330784
Si Si8 0.252524 0.934814 0.669433
O O1 0.460350 0.076000 0.500000
O O2 0.497231 0.168026 0.280902
O O3 0.398927 0.083151 0.261976
O O4 0.500000 0.000000 0.260918
O O5 0.905075 0.077241 0.727083
O O6 0.993857 0.170433 0.790026
O O7 0.942673 0.079286 0.000000
O O8 0.000000 0.000000 0.786712
O O9 0.590089 0.244813 0.186825
O O10 0.506890 0.210214 0.000000
O O11 0.753033 0.261160 0.500000
O O12 0.802156 0.325937 0.266482
O O13 0.691163 0.299008 0.273696
O O14 0.755446 0.162226 0.257203
O O15 0.167403 0.584004 0.500000
O O16 0.197338 0.496346 0.737881
O O17 0.111691 0.088837 0.774048
O O18 0.157430 0.171347 0.000000
O O19 0.886164 0.971809 0.500000
O O20 0.804162 0.009338 0.311962
O O21 0.267363 0.917228 0.500000
#
# Coordination Sequence:
#
# PCOD8226446 Si02
#       8
#     8   8   8   8   8   8   8   8
#     4  10  23  40  62  89 116 153 203 256 299 339
#     4  10  20  38  57  79 119 162 189 226 293 355
#     4  10  23  41  60  81 115 163 198 233 296 356
#     4  10  20  36  61  86 112 151 190 238 295 351
#     4   9  18  36  57  84 121 150 185 239 298 350
#     4  11  22  39  59  83 118 155 193 241 295 354
#     4  11  21  35  58  88 116 151 196 239 286 350
#     4   9  19  34  57  85 114 148 185 231 298 354
#
# _framework density 19.822002999999999
#
# number of rings (size 3 to 8) (size 9 to 14) (size 15 to 20)
#    0.000    2.000    2.500    0.750    3.500    2.000 
#    0.000    1.875    0.000    0.000    0.000    0.000 
#    0.000    0.000    0.000    0.000    0.000    0.000 
#
# Total GULP energy -793437.058482 kJ/mol
# GULP energy per Si atom -12397.454039 kJ/mol
# Density = 1.977689 g / cm^3
# Si number density = 19.822003 Si / 1000 Ang^3
#
#
#
# Elastic Constant Matrix: (Units=GPa)
#
#
# Indices 1 2 3 4 5 6 
#
# 1 113.0794 55.7244 18.5254 0.0000 0.0000 0.0000
# 2 55.7244 133.8009 20.3598 0.0000 0.0000 0.0000
# 3 18.5254 20.3598 15.7027 0.0000 0.0000 0.0000
# 4 0.0000 0.0000 0.0000 21.3303 0.0000 0.0000
# 5 0.0000 0.0000 0.0000 0.0000 19.8930 0.0000
# 6 0.0000 0.0000 0.0000 0.0000 0.0000 28.7155
#
#
#
# Elastic Compliance Matrix: (Units=1/GPa)
#
#
# Indices 1 2 3 4 5 6 
#
# 1 0.012215 -0.003606 -0.009736 0.000000 0.000000 0.000000
# 2 -0.003606 0.010375 -0.009198 0.000000 0.000000 0.000000
# 3 -0.009736 -0.009198 0.087095 0.000000 0.000000 0.000000
# 4 0.000000 0.000000 0.000000 0.046882 0.000000 0.000000
# 5 0.000000 0.000000 0.000000 0.000000 0.050269 0.000000
# 6 0.000000 0.000000 0.000000 0.000000 0.000000 0.034824
#
#
# Mechanical properties :
#
#
# Convention : Reuss Voigt Hill
#
# Bulk Modulus (GPa) = 15.47843 50.20025 32.83934
# Shear Modulus (GPa) = 16.21926 25.18598 20.70262
#
# Velocity S-wave (km/s) = 2.86360 3.56842 3.23526
# Velocity P-wave (km/s) = 4.33120 6.50836 5.52802
#
# Compressibility (1/GPa) = 0.06460605
#
# Stress axis : x y z
#
# Youngs Moduli (GPa) = 81.86486 96.38381 11.48170
#
# Poissons Ratio (x) = 0.34755 0.11178
# Poissons Ratio (y) = 0.29520 0.10561
# Poissons Ratio (z) = 0.79701 0.88656
#
# Static dielectric constant tensor:
#      x y z
#    x 3.731050 0.000000 0.000000 
#    y 0.000000 3.854310 0.000000 
#    z 0.000000 0.000000 3.212180 
# 
# 
# High freq. dielectric constant tensor:
#      x y z
#    x 1.782330 0.000000 0.000000 
#    y 0.000000 1.778810 0.000000 
#    z 0.000000 0.000000 1.735630 
# 
# From -- ./inp_files/9789.got.cif
#   From: 2010.03.12/outbox.cif.g09.slc.cpg/sg55_5_cif.got.tgz:9789.got - 2010.04.16 15:19:21.
