data_PCOD8226308
_publ_section_title
;
Structure prediction by ZEFSAII (Michael W. Deem and Ramdas Pophale) SiO2 
 PCOD8226308
Probable space group: P B A M
;
_chemical_formula_sum "Si O2"
_cell_formula_units_Z 64
_cell_length_a 26.010319
_cell_length_b 14.725285
_cell_length_c 8.841680
_cell_angle_alpha 90.000000
_cell_angle_beta 90.000000
_cell_angle_gamma 90.000000
_cell_volume 3386.446200
_symmetry_space_group_name_H-M "P B A M"
_symmetry_group_IT_number 55
_symmetry_cell_setting 'orthorhombic'
loop_
_space_group_symop_operation_xyz
x,y,z
-x,-y,z
1/2+x,1/2-y,-z
1/2-x,1/2+y,-z
-x,-y,-z
x,y,-z
1/2-x,1/2+y,z
1/2+x,1/2-y,z
loop_
_atom_site_type_symbol
_atom_site_label
_atom_site_fract_x
_atom_site_fract_y
_atom_site_fract_z
Si Si1 0.000202 0.395003 0.321045
Si Si2 0.603471 0.175038 0.179802
Si Si3 0.212630 0.003571 0.820900
Si Si4 0.362537 0.639022 0.321331
Si Si5 0.828181 0.508417 0.820853
Si Si6 0.370011 0.358859 0.825340
Si Si7 0.056393 0.988893 0.322436
Si Si8 0.604643 0.841624 0.822767
O O1 0.005093 0.387539 0.500000
O O2 0.948533 0.345815 0.267298
O O3 0.000000 0.500000 0.267216
O O4 0.047234 0.340751 0.247723
O O5 0.629116 0.266534 0.238484
O O6 0.641025 0.095605 0.238229
O O7 0.598979 0.177276 0.000000
O O8 0.189309 0.091947 0.739213
O O9 0.270193 0.990395 0.757746
O O10 0.181597 0.912087 0.775090
O O11 0.211485 0.020598 0.000000
O O12 0.358537 0.653942 0.500000
O O13 0.410195 0.575572 0.274793
O O14 0.857497 0.419343 0.761303
O O15 0.826216 0.508300 0.000000
O O16 0.419350 0.396492 0.738531
O O17 0.365604 0.252336 0.789041
O O18 0.380365 0.376578 0.000000
O O19 0.052898 0.978843 0.500000
O O20 0.000000 0.000000 0.250614
O O21 0.592453 0.853660 0.000000
#
# Coordination Sequence:
#
# PCOD8226308 Si02
#       8
#     8   8   8   8   8   8   8   8
#     4  11  23  38  56  80 113 152 187 231 283 338
#     4  11  22  37  59  86 114 149 190 235 284 335
#     4   9  18  37  60  83 111 146 187 232 280 330
#     4  10  21  37  55  81 115 149 187 232 282 335
#     4   9  19  35  59  85 110 145 189 232 276 329
#     4   9  19  33  53  81 110 139 178 229 276 321
#     4   9  19  35  53  73 103 144 184 224 273 330
#     4  10  20  36  56  83 114 147 186 233 281 333
#
# _framework density 18.898868
#
# number of rings (size 3 to 8) (size 9 to 14) (size 15 to 20)
#    0.000    2.250    1.250    1.125    1.750    2.750 
#    0.000    5.625    0.000    3.000    0.000    0.000 
#    0.000    0.000    0.000    0.000    0.000    0.000 
#
# Total GULP energy -793714.844950 kJ/mol
# GULP energy per Si atom -12401.794452 kJ/mol
# Density = 1.885585 g / cm^3
# Si number density = 18.898868 Si / 1000 Ang^3
#
#
#
# Elastic Constant Matrix: (Units=GPa)
#
#
# Indices 1 2 3 4 5 6 
#
# 1 158.2157 65.2578 27.0974 0.0000 0.0000 0.0000
# 2 65.2578 144.4123 34.2877 0.0000 0.0000 0.0000
# 3 27.0974 34.2877 34.2017 0.0000 0.0000 0.0000
# 4 0.0000 0.0000 0.0000 22.9913 0.0000 0.0000
# 5 0.0000 0.0000 0.0000 0.0000 -305.3078 0.0000
# 6 0.0000 0.0000 0.0000 0.0000 0.0000 15.9939
#
#
#
# Elastic Compliance Matrix: (Units=1/GPa)
#
#
# Indices 1 2 3 4 5 6 
#
# 1 0.008093 -0.002802 -0.003603 0.000000 0.000000 0.000000
# 2 -0.002802 0.010058 -0.007863 0.000000 0.000000 0.000000
# 3 -0.003603 -0.007863 0.039976 0.000000 0.000000 0.000000
# 4 0.000000 0.000000 0.000000 0.043495 0.000000 0.000000
# 5 0.000000 0.000000 0.000000 0.000000 -0.003275 0.000000
# 6 0.000000 0.000000 0.000000 0.000000 0.000000 0.062524
#
#
# Mechanical properties :
#
#
# Convention : Reuss Voigt Hill
#
# Bulk Modulus (GPa) = 33.79462 65.56838 49.68150
# Shear Modulus (GPa) = 25.09158 -39.25207 -7.08025
#
# Velocity S-wave (km/s) = 3.64768 -4.56230 -1.93766
# Velocity P-wave (km/s) = 5.97172 2.64893 4.61943
#
# Compressibility (1/GPa) = 0.02959051
#
# Stress axis : x y z
#
# Youngs Moduli (GPa) = 123.56037 99.42736 25.01488
#
# Poissons Ratio (x) = 0.27856 0.09014
# Poissons Ratio (y) = 0.34617 0.19670
# Poissons Ratio (z) = 0.44524 0.78182
#
# Static dielectric constant tensor:
#      x y z
#    x 3.685600 0.000000 0.000000 
#    y 0.000000 3.567420 0.000000 
#    z 0.000000 0.000000 3.297480 
# 
# 
# High freq. dielectric constant tensor:
#      x y z
#    x 1.739290 0.000000 0.000000 
#    y 0.000000 1.741310 0.000000 
#    z 0.000000 0.000000 1.719340 
# 
# From -- ./inp_files/9831.got.cif
#   From: 2010.03.12/outbox.cif.g09.slc.cpg/sg55_5_cif.got.tgz:9831.got - 2010.04.16 15:19:21.
