data_PCOD8226010
_publ_section_title
;
Structure prediction by ZEFSAII (Michael W. Deem and Ramdas Pophale) SiO2 
 PCOD8226010
Probable space group: P B A M
;
_chemical_formula_sum "Si O2"
_cell_formula_units_Z 48
_cell_length_a 9.112963
_cell_length_b 19.872981
_cell_length_c 13.727402
_cell_angle_alpha 90.000000
_cell_angle_beta 90.000000
_cell_angle_gamma 90.000000
_cell_volume 2486.056395
_symmetry_space_group_name_H-M "P B A M"
_symmetry_group_IT_number 55
_symmetry_cell_setting 'orthorhombic'
loop_
_space_group_symop_operation_xyz
x,y,z
-x,-y,z
1/2+x,1/2-y,-z
1/2-x,1/2+y,-z
-x,-y,-z
x,y,-z
1/2-x,1/2+y,z
1/2+x,1/2-y,z
loop_
_atom_site_type_symbol
_atom_site_label
_atom_site_fract_x
_atom_site_fract_y
_atom_site_fract_z
Si Si1 0.364291 0.839144 0.769776
Si Si2 0.340605 0.525319 0.720095
Si Si3 0.379918 0.946083 0.388161
Si Si4 0.102345 0.754050 0.297247
Si Si5 0.154413 0.164016 0.612475
Si Si6 0.341499 0.968909 0.107676
O O1 0.397500 0.876492 0.667868
O O2 0.501392 0.787794 0.779651
O O3 0.207911 0.801500 0.766785
O O4 0.354685 0.891603 0.857695
O O5 0.500000 0.500000 0.745404
O O6 0.278343 0.478320 0.633517
O O7 0.337381 0.601800 0.686253
O O8 0.249718 0.515623 0.819174
O O9 0.400495 0.928542 0.500000
O O10 0.500000 0.000000 0.351132
O O11 0.202652 0.708761 0.367396
O O12 0.996076 0.796521 0.367503
O O13 0.156710 0.140288 0.500000
O O14 0.500000 0.000000 0.101536
O O15 0.268754 0.969157 0.000000
#
# Coordination Sequence:
#
# PCOD8226010 Si02
#       6
#     8   8   8   8   8   8
#     4  10  20  37  55  78 110 142 180 223 270 322
#     4  11  22  35  55  84 114 141 175 231 289 328
#     4  10  20  34  54  78 108 150 194 231 268 317
#     4  10  22  35  52  75 110 153 187 219 258 312
#     4  11  21  34  52  78 113 151 188 220 258 312
#     4  10  21  40  65  85 103 135 179 227 281 339
#
# _framework density 19.307687999999999
#
# number of rings (size 3 to 8) (size 9 to 14) (size 15 to 20)
#    0.000    1.667    0.000    7.000    0.000    8.333 
#    0.000    0.833    0.000    4.000    0.000    0.000 
#    0.000    0.000    0.000    0.000    0.000    0.000 
#
# Total GULP energy -595215.232206 kJ/mol
# GULP energy per Si atom -12400.317338 kJ/mol
# Density = 1.926374 g / cm^3
# Si number density = 19.307688 Si / 1000 Ang^3
#
#
#
# Elastic Constant Matrix: (Units=GPa)
#
#
# Indices 1 2 3 4 5 6 
#
# 1 121.3231 50.4068 43.5981 0.0000 0.0000 0.0000
# 2 50.4068 123.4110 64.4492 0.0000 0.0000 0.0000
# 3 43.5981 64.4492 116.3535 0.0000 0.0000 0.0000
# 4 0.0000 0.0000 0.0000 -27.5503 0.0000 0.0000
# 5 0.0000 0.0000 0.0000 0.0000 24.2494 0.0000
# 6 0.0000 0.0000 0.0000 0.0000 0.0000 28.8982
#
#
#
# Elastic Compliance Matrix: (Units=1/GPa)
#
#
# Indices 1 2 3 4 5 6 
#
# 1 0.010296 -0.003082 -0.002151 0.000000 0.000000 0.000000
# 2 -0.003082 0.012324 -0.005671 0.000000 0.000000 0.000000
# 3 -0.002151 -0.005671 0.012542 0.000000 0.000000 0.000000
# 4 0.000000 0.000000 0.000000 -0.036297 0.000000 0.000000
# 5 0.000000 0.000000 0.000000 0.000000 0.041238 0.000000
# 6 0.000000 0.000000 0.000000 0.000000 0.000000 0.034604
#
#
# Mechanical properties :
#
#
# Convention : Reuss Voigt Hill
#
# Bulk Modulus (GPa) = 74.88937 75.33288 75.11113
# Shear Modulus (GPa) = 49.52184 18.62836 34.07510
#
# Velocity S-wave (km/s) = 5.06996 3.10952 4.20556
# Velocity P-wave (km/s) = 8.55243 7.21068 7.91006
#
# Compressibility (1/GPa) = 0.01335303
#
# Stress axis : x y z
#
# Youngs Moduli (GPa) = 97.12633 81.14500 79.73391
#
# Poissons Ratio (x) = 0.25010 0.17148
# Poissons Ratio (y) = 0.29936 0.45219
# Poissons Ratio (z) = 0.20889 0.46019
#
# Static dielectric constant tensor:
#      x y z
#    x 3.719570 0.000000 0.000000 
#    y 0.000000 3.652320 0.000000 
#    z 0.000000 0.000000 3.371950 
# 
# 
# High freq. dielectric constant tensor:
#      x y z
#    x 1.767790 0.000000 0.000000 
#    y 0.000000 1.762850 0.000000 
#    z 0.000000 0.000000 1.722800 
# 
# From -- ./inp_files/17376.got.cif
#   From: 2010.03.12/outbox.cif.g09.slc.cpg/sg55_9_cif.got.tgz:17376.got - 2010.04.16 15:19:21.
