data_PCOD8226608
_publ_section_title
;
Structure prediction by ZEFSAII (Michael W. Deem and Ramdas Pophale) SiO2 
 PCOD8226608
Probable space group: P B A M
;
_chemical_formula_sum "Si O2"
_cell_formula_units_Z 40
_cell_length_a 15.179720
_cell_length_b 15.185904
_cell_length_c 8.860136
_cell_angle_alpha 90.000000
_cell_angle_beta 90.000000
_cell_angle_gamma 90.000000
_cell_volume 2042.418799
_symmetry_space_group_name_H-M "P B A M"
_symmetry_group_IT_number 55
_symmetry_cell_setting 'orthorhombic'
loop_
_space_group_symop_operation_xyz
x,y,z
-x,-y,z
1/2+x,1/2-y,-z
1/2-x,1/2+y,-z
-x,-y,-z
x,y,-z
1/2-x,1/2+y,z
1/2+x,1/2-y,z
loop_
_atom_site_type_symbol
_atom_site_label
_atom_site_fract_x
_atom_site_fract_y
_atom_site_fract_z
Si Si1 0.758330 0.977815 0.827104
Si Si2 0.059745 0.581189 0.827944
Si Si3 0.706734 0.675223 0.821857
Si Si4 0.838157 0.815671 0.322895
Si Si5 0.967114 0.239657 0.324033
O O1 0.659844 0.945291 0.807266
O O2 0.820364 0.915661 0.727448
O O3 0.763977 0.078127 0.769148
O O4 0.789703 0.971864 0.000000
O O5 0.036241 0.657514 0.712419
O O6 0.000000 0.500000 0.780692
O O7 0.040266 0.611066 0.000000
O O8 0.771305 0.747826 0.753553
O O9 0.606776 0.688318 0.769333
O O10 0.711794 0.686689 0.000000
O O11 0.824582 0.806529 0.500000
O O12 0.937771 0.795594 0.273943
O O13 0.949556 0.224717 0.500000
#
# Coordination Sequence:
#
# PCOD8226608 Si02
#       5
#     8   8   8   8   8
#     4  10  22  39  62  91 122 162 208 256 310 368
#     4  10  20  37  62  92 122 157 205 259 312 365
#     4  11  23  41  65  92 124 163 209 261 312 368
#     4  11  24  41  62  90 127 167 206 256 313 374
#     4  11  24  40  60  90 126 166 208 252 312 373
#
# _framework density 19.584622
#
# number of rings (size 3 to 8) (size 9 to 14) (size 15 to 20)
#    0.000    1.400    2.000    3.000    0.000    7.600 
#    0.000    4.000    0.000    0.000    0.000    0.000 
#    0.000    0.000    0.000    0.000    0.000    0.000 
#
# Total GULP energy -496198.424976 kJ/mol
# GULP energy per Si atom -12404.960624 kJ/mol
# Density = 1.954005 g / cm^3
# Si number density = 19.584622 Si / 1000 Ang^3
#
#
#
# Elastic Constant Matrix: (Units=GPa)
#
#
# Indices 1 2 3 4 5 6 
#
# 1 192.4003 118.5026 31.0419 0.0000 0.0000 0.0000
# 2 118.5026 183.0633 23.8989 0.0000 0.0000 0.0000
# 3 31.0419 23.8989 61.7107 0.0000 0.0000 0.0000
# 4 0.0000 0.0000 0.0000 43.6017 0.0000 0.0000
# 5 0.0000 0.0000 0.0000 0.0000 32.2566 0.0000
# 6 0.0000 0.0000 0.0000 0.0000 0.0000 40.6884
#
#
#
# Elastic Compliance Matrix: (Units=1/GPa)
#
#
# Indices 1 2 3 4 5 6 
#
# 1 0.008964 -0.005492 -0.002382 0.000000 0.000000 0.000000
# 2 -0.005492 0.009118 -0.000769 0.000000 0.000000 0.000000
# 3 -0.002382 -0.000769 0.017701 0.000000 0.000000 0.000000
# 4 0.000000 0.000000 0.000000 0.022935 0.000000 0.000000
# 5 0.000000 0.000000 0.000000 0.000000 0.031001 0.000000
# 6 0.000000 0.000000 0.000000 0.000000 0.000000 0.024577
#
#
# Mechanical properties :
#
#
# Convention : Reuss Voigt Hill
#
# Bulk Modulus (GPa) = 54.06212 87.11791 70.59002
# Shear Modulus (GPa) = 36.29808 40.89140 38.59474
#
# Velocity S-wave (km/s) = 4.30978 4.57435 4.44403
# Velocity P-wave (km/s) = 7.24085 8.51346 7.90281
#
# Compressibility (1/GPa) = 0.01849724
#
# Stress axis : x y z
#
# Youngs Moduli (GPa) = 111.55145 109.67260 56.49489
#
# Poissons Ratio (x) = 0.60232 0.13460
# Poissons Ratio (y) = 0.61264 0.04342
# Poissons Ratio (z) = 0.26577 0.08429
#
# Static dielectric constant tensor:
#      x y z
#    x 3.722600 0.000000 0.000000 
#    y 0.000000 3.870590 0.000000 
#    z 0.000000 0.000000 3.585040 
# 
# 
# High freq. dielectric constant tensor:
#      x y z
#    x 1.775400 0.000000 0.000000 
#    y 0.000000 1.773920 0.000000 
#    z 0.000000 0.000000 1.763810 
# 
# From -- ./inp_files/5181.got.cif
#   From: 2010.03.12/outbox.cif.g09.slc.cpg/sg55_3_cif.got.tgz:5181.got - 2010.04.16 15:19:21.
