data_PCOD8226982
_publ_section_title
;
Structure prediction by ZEFSAII (Michael W. Deem and Ramdas Pophale) SiO2 
 PCOD8226982
Probable space group: P B A M
;
_chemical_formula_sum "Si O2"
_cell_formula_units_Z 48
_cell_length_a 33.861055
_cell_length_b 9.176808
_cell_length_c 7.694927
_cell_angle_alpha 90.000000
_cell_angle_beta 90.000000
_cell_angle_gamma 90.000000
_cell_volume 2391.093917
_symmetry_space_group_name_H-M "P B A M"
_symmetry_group_IT_number 55
_symmetry_cell_setting 'orthorhombic'
loop_
_space_group_symop_operation_xyz
x,y,z
-x,-y,z
1/2+x,1/2-y,-z
1/2-x,1/2+y,-z
-x,-y,-z
x,y,-z
1/2-x,1/2+y,z
1/2+x,1/2-y,z
loop_
_atom_site_type_symbol
_atom_site_label
_atom_site_fract_x
_atom_site_fract_y
_atom_site_fract_z
Si Si1 0.071965 0.844118 0.803226
Si Si2 0.154277 0.328555 0.802227
Si Si3 0.705555 0.817791 0.500000
Si Si4 0.146126 0.664608 0.201775
Si Si5 0.425448 0.666495 0.796641
Si Si6 0.287276 0.843272 0.500000
Si Si7 0.500296 0.161946 0.696794
O O1 0.106499 0.742367 0.726348
O O2 0.029784 0.766141 0.797293
O O3 0.070294 0.003947 0.714973
O O4 0.083812 0.874051 0.000000
O O5 0.139060 0.492785 0.773650
O O6 0.118489 0.221269 0.757594
O O7 0.189859 0.290199 0.672630
O O8 0.169151 0.305598 0.000000
O O9 0.681478 0.780374 0.675573
O O10 0.744055 0.720932 0.500000
O O11 0.718068 0.984730 0.500000
O O12 0.155946 0.701409 0.000000
O O13 0.456039 0.772299 0.701859
O O14 0.435521 0.671511 0.000000
O O15 0.485124 0.151837 0.500000
O O16 0.500000 0.000000 0.780669
#
# Coordination Sequence:
#
# PCOD8226982 Si02
#       7
#     8   8   4   8   8   4   8
#     4  10  21  37  57  82 111 144 185 234 284 332
#     4   9  19  37  59  82 112 150 188 229 278 334
#     4  10  22  38  58  85 114 145 184 228 279 340
#     4   9  19  37  59  82 112 150 188 229 278 334
#     4  10  21  37  57  82 111 144 185 234 284 332
#     4  10  22  38  58  85 114 145 184 228 279 340
#     4  11  24  37  52  78 112 151 192 231 274 328
#
# _framework density 20.074494999999999
#
# number of rings (size 3 to 8) (size 9 to 14) (size 15 to 20)
#    0.000    2.167    0.000    2.000    2.333    7.333 
#    0.000    0.000    0.000    0.000    0.000    0.000 
#    0.000    0.000    0.000    0.000    0.000    0.000 
#
# Total GULP energy -595252.041277 kJ/mol
# GULP energy per Si atom -12401.084193 kJ/mol
# Density = 2.002880 g / cm^3
# Si number density = 20.074495 Si / 1000 Ang^3
#
#
#
# Elastic Constant Matrix: (Units=GPa)
#
#
# Indices 1 2 3 4 5 6 
#
# 1 82.8490 23.2210 33.1427 0.0000 0.0000 0.0000
# 2 23.2210 86.8901 20.5508 0.0000 0.0000 0.0000
# 3 33.1427 20.5508 75.6646 0.0000 0.0000 0.0000
# 4 0.0000 0.0000 0.0000 15.1952 0.0000 0.0000
# 5 0.0000 0.0000 0.0000 0.0000 32.1826 0.0000
# 6 0.0000 0.0000 0.0000 0.0000 0.0000 42.4197
#
#
#
# Elastic Compliance Matrix: (Units=1/GPa)
#
#
# Indices 1 2 3 4 5 6 
#
# 1 0.015187 -0.002656 -0.005931 0.000000 0.000000 0.000000
# 2 -0.002656 0.012763 -0.002303 0.000000 0.000000 0.000000
# 3 -0.005931 -0.002303 0.016440 0.000000 0.000000 0.000000
# 4 0.000000 0.000000 0.000000 0.065810 0.000000 0.000000
# 5 0.000000 0.000000 0.000000 0.000000 0.031073 0.000000
# 6 0.000000 0.000000 0.000000 0.000000 0.000000 0.023574
#
#
# Mechanical properties :
#
#
# Convention : Reuss Voigt Hill
#
# Bulk Modulus (GPa) = 44.22829 44.35919 44.29374
# Shear Modulus (GPa) = 25.75145 29.19212 27.47178
#
# Velocity S-wave (km/s) = 3.58550 3.81752 3.70333
# Velocity P-wave (km/s) = 6.26266 6.44799 6.35600
#
# Compressibility (1/GPa) = 0.02260996
#
# Stress axis : x y z
#
# Youngs Moduli (GPa) = 65.84516 78.34943 60.82857
#
# Poissons Ratio (x) = 0.20809 0.36077
# Poissons Ratio (y) = 0.17488 0.14010
# Poissons Ratio (z) = 0.39052 0.18046
#
# Static dielectric constant tensor:
#      x y z
#    x 3.397620 0.000000 0.000000 
#    y 0.000000 3.791300 0.000000 
#    z 0.000000 0.000000 3.704600 
# 
# 
# High freq. dielectric constant tensor:
#      x y z
#    x 1.772530 0.000000 0.000000 
#    y 0.000000 1.788060 0.000000 
#    z 0.000000 0.000000 1.783560 
# 
# From -- ./inp_files/2990.got.cif
#   From: 2010.03.12/outbox.cif.g09.slc.cpg/sg55_2_cif.got.tgz:2990.got - 2010.04.16 15:19:21.
