data_PCOD8226686
_publ_section_title
;
Structure prediction by ZEFSAII (Michael W. Deem and Ramdas Pophale) SiO2 
 PCOD8226686
Probable space group: P B A M
;
_chemical_formula_sum "Si O2"
_cell_formula_units_Z 56
_cell_length_a 21.061090
_cell_length_b 14.894172
_cell_length_c 8.759247
_cell_angle_alpha 90.000000
_cell_angle_beta 90.000000
_cell_angle_gamma 90.000000
_cell_volume 2747.666267
_symmetry_space_group_name_H-M "P B A M"
_symmetry_group_IT_number 55
_symmetry_cell_setting 'orthorhombic'
loop_
_space_group_symop_operation_xyz
x,y,z
-x,-y,z
1/2+x,1/2-y,-z
1/2-x,1/2+y,-z
-x,-y,-z
x,y,-z
1/2-x,1/2+y,z
1/2+x,1/2-y,z
loop_
_atom_site_type_symbol
_atom_site_label
_atom_site_fract_x
_atom_site_fract_y
_atom_site_fract_z
Si Si1 0.945435 0.572697 0.672950
Si Si2 0.230532 0.820625 0.319100
Si Si3 0.254714 0.525193 0.324926
Si Si4 0.469131 0.740715 0.178903
Si Si5 0.341083 0.686536 0.325188
Si Si6 0.367499 0.068837 0.821407
Si Si7 0.903556 0.252294 0.319058
O O1 0.929613 0.603242 0.500000
O O2 0.963958 0.656186 0.774722
O O3 0.884029 0.528329 0.750630
O O4 0.000000 0.500000 0.677588
O O5 0.227645 0.812574 0.500000
O O6 0.288529 0.757820 0.259274
O O7 0.162164 0.788682 0.254009
O O8 0.237207 0.923602 0.265445
O O9 0.230195 0.526190 0.500000
O O10 0.318914 0.583103 0.311697
O O11 0.206538 0.579768 0.216987
O O12 0.406506 0.688948 0.233258
O O13 0.534153 0.700939 0.253582
O O14 0.475381 0.730186 0.000000
O O15 0.354783 0.712530 0.500000
O O16 0.408176 0.145053 0.737057
O O17 0.381606 0.073412 0.000000
O O18 0.906890 0.249184 0.500000
#
# Coordination Sequence:
#
# PCOD8226686 Si02
#       7
#     8   8   8   8   8   8   8
#     4  11  22  36  57  82 113 156 197 239 292 360
#     4   9  19  37  64  93 116 148 205 259 298 347
#     4  10  20  38  64  90 117 155 206 256 298 354
#     4  12  25  39  57  87 124 160 198 251 308 367
#     4  10  20  38  62  89 121 161 203 250 305 361
#     4  12  23  35  56  88 123 157 192 244 305 365
#     4  11  21  39  62  86 117 159 201 248 300 360
#
# _framework density 20.380932000000001
#
# number of rings (size 3 to 8) (size 9 to 14) (size 15 to 20)
#    0.000    1.286    2.857    4.286    0.000    2.286 
#    0.000    2.143    0.000    4.286    0.000    0.000 
#    0.000    0.000    0.000    0.000    0.000    0.000 
#
# Total GULP energy -694332.275371 kJ/mol
# GULP energy per Si atom -12398.790632 kJ/mol
# Density = 2.033454 g / cm^3
# Si number density = 20.380932 Si / 1000 Ang^3
#
#
#
# Elastic Constant Matrix: (Units=GPa)
#
#
# Indices 1 2 3 4 5 6 
#
# 1 126.3516 15.8725 36.7395 0.0000 0.0000 0.0000
# 2 15.8725 66.6491 9.2439 0.0000 0.0000 0.0000
# 3 36.7395 9.2439 85.8838 0.0000 0.0000 0.0000
# 4 0.0000 0.0000 0.0000 15.1250 0.0000 0.0000
# 5 0.0000 0.0000 0.0000 0.0000 22.2347 0.0000
# 6 0.0000 0.0000 0.0000 0.0000 0.0000 30.7609
#
#
#
# Elastic Compliance Matrix: (Units=1/GPa)
#
#
# Indices 1 2 3 4 5 6 
#
# 1 0.009219 -0.001674 -0.003764 0.000000 0.000000 0.000000
# 2 -0.001674 0.015535 -0.000956 0.000000 0.000000 0.000000
# 3 -0.003764 -0.000956 0.013357 0.000000 0.000000 0.000000
# 4 0.000000 0.000000 0.000000 0.066116 0.000000 0.000000
# 5 0.000000 0.000000 0.000000 0.000000 0.044975 0.000000
# 6 0.000000 0.000000 0.000000 0.000000 0.000000 0.032509
#
#
# Mechanical properties :
#
#
# Convention : Reuss Voigt Hill
#
# Bulk Modulus (GPa) = 39.48809 44.73290 42.11050
# Shear Modulus (GPa) = 24.63805 28.09267 26.36536
#
# Velocity S-wave (km/s) = 3.48066 3.71668 3.60061
# Velocity P-wave (km/s) = 5.96410 6.35723 6.16380
#
# Compressibility (1/GPa) = 0.02532409
#
# Stress axis : x y z
#
# Youngs Moduli (GPa) = 108.47162 64.37033 74.86960
#
# Poissons Ratio (x) = 0.10772 0.28178
# Poissons Ratio (y) = 0.18153 0.07159
# Poissons Ratio (z) = 0.40824 0.06155
#
# Static dielectric constant tensor:
#      x y z
#    x 3.992460 0.000000 0.000000 
#    y 0.000000 3.640500 0.000000 
#    z 0.000000 0.000000 3.434560 
# 
# 
# High freq. dielectric constant tensor:
#      x y z
#    x 1.811370 0.000000 0.000000 
#    y 0.000000 1.777410 0.000000 
#    z 0.000000 0.000000 1.773650 
# 
# From -- ./inp_files/8694.got.cif
#   From: 2010.03.12/outbox.cif.g09.slc.cpg/sg55_5_cif.got.tgz:8694.got - 2010.04.16 15:19:21.
