data_PCOD8226718
_publ_section_title
;
Structure prediction by ZEFSAII (Michael W. Deem and Ramdas Pophale) SiO2 
 PCOD8226718
Probable space group: P B A M
;
_chemical_formula_sum "Si O2"
_cell_formula_units_Z 56
_cell_length_a 8.787398
_cell_length_b 19.779700
_cell_length_c 16.231986
_cell_angle_alpha 90.000000
_cell_angle_beta 90.000000
_cell_angle_gamma 90.000000
_cell_volume 2821.315512
_symmetry_space_group_name_H-M "P B A M"
_symmetry_group_IT_number 55
_symmetry_cell_setting 'orthorhombic'
loop_
_space_group_symop_operation_xyz
x,y,z
-x,-y,z
1/2+x,1/2-y,-z
1/2-x,1/2+y,-z
-x,-y,-z
x,y,-z
1/2-x,1/2+y,z
1/2+x,1/2-y,z
loop_
_atom_site_type_symbol
_atom_site_label
_atom_site_fract_x
_atom_site_fract_y
_atom_site_fract_z
Si Si1 0.343837 0.842214 0.910460
Si Si2 0.117674 0.944819 0.329722
Si Si3 0.065966 0.609898 0.500000
Si Si4 0.976572 0.216069 0.092316
Si Si5 0.604825 0.825361 0.674447
Si Si6 0.754442 0.528486 0.500000
Si Si7 0.414075 0.934914 0.231858
Si Si8 0.549983 0.313697 0.270335
O O1 0.493469 0.796270 0.899649
O O2 0.203677 0.791064 0.898749
O O3 0.332831 0.901205 0.845443
O O4 0.339968 0.876925 0.000000
O O5 0.140746 0.955430 0.425984
O O6 0.283417 0.958502 0.293075
O O7 0.058207 0.870263 0.309492
O O8 0.000000 0.000000 0.294104
O O9 0.087540 0.659133 0.422143
O O10 0.190097 0.549543 0.500000
O O11 0.897640 0.578808 0.500000
O O12 0.054372 0.178254 0.170203
O O13 0.031036 0.190467 0.000000
O O14 0.534105 0.887262 0.723840
O O15 0.781405 0.819822 0.695504
O O16 0.517534 0.757765 0.700813
O O17 0.500000 0.000000 0.198101
#
# Coordination Sequence:
#
# PCOD8226718 Si02
#       8
#     8   8   4   8   8   4   8   8
#     4  10  21  38  63  94 128 168 213 267 328 395
#     4  12  25  43  69  96 128 173 225 274 326 396
#     4  11  24  43  65  96 133 173 216 268 330 383
#     4  10  20  38  65  95 129 166 210 266 326 389
#     4  12  26  42  67  95 134 174 218 276 330 388
#     4  11  23  43  69  92 128 175 225 266 318 397
#     4  12  23  41  63  92 130 174 219 269 330 391
#     4  12  24  43  67  99 131 168 223 272 332 392
#
# _framework density 19.848897000000001
#
# number of rings (size 3 to 8) (size 9 to 14) (size 15 to 20)
#    0.000    0.714    4.286    4.500    0.000    2.000 
#    0.000    0.000    0.000    3.429    0.000    0.000 
#    0.000    0.000    0.000    0.000    0.000    0.000 
#
# Total GULP energy -694385.709204 kJ/mol
# GULP energy per Si atom -12399.744807 kJ/mol
# Density = 1.980372 g / cm^3
# Si number density = 19.848897 Si / 1000 Ang^3
#
#
#
# Elastic Constant Matrix: (Units=GPa)
#
#
# Indices 1 2 3 4 5 6 
#
# 1 89.5003 33.9551 25.2686 0.0000 0.0000 0.0000
# 2 33.9551 95.9934 41.2917 0.0000 0.0000 0.0000
# 3 25.2686 41.2917 136.7150 0.0000 0.0000 0.0000
# 4 0.0000 0.0000 0.0000 13.0093 0.0000 0.0000
# 5 0.0000 0.0000 0.0000 0.0000 76.9810 0.0000
# 6 0.0000 0.0000 0.0000 0.0000 0.0000 36.7845
#
#
#
# Elastic Compliance Matrix: (Units=1/GPa)
#
#
# Indices 1 2 3 4 5 6 
#
# 1 0.013066 -0.004118 -0.001171 0.000000 0.000000 0.000000
# 2 -0.004118 0.013271 -0.003247 0.000000 0.000000 0.000000
# 3 -0.001171 -0.003247 0.008512 0.000000 0.000000 0.000000
# 4 0.000000 0.000000 0.000000 0.076868 0.000000 0.000000
# 5 0.000000 0.000000 0.000000 0.000000 0.012990 0.000000
# 6 0.000000 0.000000 0.000000 0.000000 0.000000 0.027185
#
#
# Mechanical properties :
#
#
# Convention : Reuss Voigt Hill
#
# Bulk Modulus (GPa) = 56.25549 58.13772 57.19661
# Shear Modulus (GPa) = 28.58940 40.13451 34.36196
#
# Velocity S-wave (km/s) = 3.79931 4.50155 4.16526
# Velocity P-wave (km/s) = 6.90288 7.50815 7.21187
#
# Compressibility (1/GPa) = 0.01777604
#
# Stress axis : x y z
#
# Youngs Moduli (GPa) = 76.53383 75.35393 117.48609
#
# Poissons Ratio (x) = 0.31031 0.13760
# Poissons Ratio (y) = 0.31517 0.38148
# Poissons Ratio (z) = 0.08964 0.24467
#
# Static dielectric constant tensor:
#      x y z
#    x 3.712320 0.000000 0.000000 
#    y 0.000000 3.628110 0.000000 
#    z 0.000000 0.000000 3.987690 
# 
# 
# High freq. dielectric constant tensor:
#      x y z
#    x 1.787930 0.000000 0.000000 
#    y 0.000000 1.760730 0.000000 
#    z 0.000000 0.000000 1.791500 
# 
# From -- ./inp_files/17687.got.cif
#   From: 2010.03.12/outbox.cif.g09.slc.cpg/sg55_9_cif.got.tgz:17687.got - 2010.04.16 15:19:21.
