data_PCOD8226476
_publ_section_title
;
Structure prediction by ZEFSAII (Michael W. Deem and Ramdas Pophale) SiO2 
 PCOD8226476
Probable space group: P B A M
;
_chemical_formula_sum "Si O2"
_cell_formula_units_Z 56
_cell_length_a 13.305708
_cell_length_b 9.613132
_cell_length_c 20.231988
_cell_angle_alpha 90.000000
_cell_angle_beta 90.000000
_cell_angle_gamma 90.000000
_cell_volume 2587.864023
_symmetry_space_group_name_H-M "P B A M"
_symmetry_group_IT_number 55
_symmetry_cell_setting 'orthorhombic'
loop_
_space_group_symop_operation_xyz
x,y,z
-x,-y,z
1/2+x,1/2-y,-z
1/2-x,1/2+y,-z
-x,-y,-z
x,y,-z
1/2-x,1/2+y,z
1/2+x,1/2-y,z
loop_
_atom_site_type_symbol
_atom_site_label
_atom_site_fract_x
_atom_site_fract_y
_atom_site_fract_z
Si Si1 0.662416 0.896277 0.075109
Si Si2 0.284011 0.593704 0.336438
Si Si3 0.488881 0.157832 0.189725
Si Si4 0.536506 0.344572 0.425873
Si Si5 0.094080 0.595922 0.576344
Si Si6 0.697485 0.183305 0.865479
Si Si7 0.325175 0.322871 0.743559
O O1 0.573152 0.844416 0.121727
O O2 0.764831 0.817089 0.094476
O O3 0.678484 0.060401 0.082660
O O4 0.632225 0.863079 0.000000
O O5 0.367589 0.674029 0.379165
O O6 0.190243 0.549227 0.381958
O O7 0.248041 0.700798 0.281280
O O8 0.331807 0.454430 0.305000
O O9 0.596433 0.224505 0.173916
O O10 0.435609 0.255466 0.244654
O O11 0.500000 0.000000 0.217902
O O12 0.500000 0.500000 0.425906
O O13 0.568105 0.296321 0.500000
O O14 0.441358 0.251299 0.402924
O O15 0.125488 0.585930 0.500000
O O16 0.000000 0.500000 0.593505
O O17 0.779293 0.127094 0.813013
#
# Coordination Sequence:
#
# PCOD8226476 Si02
#       7
#     8   8   8   8   8   8   8
#     4  10  20  36  62  92 116 149 201 247 293 358
#     4  12  23  39  62  90 121 160 209 259 312 368
#     4   9  20  39  61  85 119 162 200 242 300 359
#     4  10  22  40  60  86 120 156 198 251 312 374
#     4  10  22  40  62  89 120 155 200 257 318 374
#     4  10  21  40  58  81 122 158 190 244 301 349
#     4  11  24  39  60  89 120 160 207 249 298 366
#
# _framework density 21.639468000000001
#
# number of rings (size 3 to 8) (size 9 to 14) (size 15 to 20)
#    0.000    1.714    0.000    5.143    0.000    7.143 
#    0.000   12.857    0.000    4.286    0.000    0.000 
#    0.000    0.000    0.000    0.000    0.000    0.000 
#
# Total GULP energy -694570.112667 kJ/mol
# GULP energy per Si atom -12403.037726 kJ/mol
# Density = 2.159022 g / cm^3
# Si number density = 21.639468 Si / 1000 Ang^3
#
#
#
# Elastic Constant Matrix: (Units=GPa)
#
#
# Indices 1 2 3 4 5 6 
#
# 1 87.5732 23.1726 22.3746 0.0000 0.0000 0.0000
# 2 23.1726 90.7133 24.9742 0.0000 0.0000 0.0000
# 3 22.3746 24.9742 78.5830 0.0000 0.0000 0.0000
# 4 0.0000 0.0000 0.0000 31.9219 0.0000 0.0000
# 5 0.0000 0.0000 0.0000 0.0000 29.6301 0.0000
# 6 0.0000 0.0000 0.0000 0.0000 0.0000 37.5690
#
#
#
# Elastic Compliance Matrix: (Units=1/GPa)
#
#
# Indices 1 2 3 4 5 6 
#
# 1 0.012806 -0.002485 -0.002857 0.000000 0.000000 0.000000
# 2 -0.002485 0.012563 -0.003285 0.000000 0.000000 0.000000
# 3 -0.002857 -0.003285 0.014583 0.000000 0.000000 0.000000
# 4 0.000000 0.000000 0.000000 0.031326 0.000000 0.000000
# 5 0.000000 0.000000 0.000000 0.000000 0.033749 0.000000
# 6 0.000000 0.000000 0.000000 0.000000 0.000000 0.026618
#
#
# Mechanical properties :
#
#
# Convention : Reuss Voigt Hill
#
# Bulk Modulus (GPa) = 44.05492 44.21245 44.13369
# Shear Modulus (GPa) = 31.95603 32.24743 32.10173
#
# Velocity S-wave (km/s) = 3.84702 3.86452 3.85578
# Velocity P-wave (km/s) = 6.33526 6.35519 6.34523
#
# Compressibility (1/GPa) = 0.02269894
#
# Stress axis : x y z
#
# Youngs Moduli (GPa) = 78.08600 79.59933 68.57418
#
# Poissons Ratio (x) = 0.19780 0.19589
# Poissons Ratio (y) = 0.19404 0.22527
# Poissons Ratio (z) = 0.22306 0.26149
#
# Static dielectric constant tensor:
#      x y z
#    x 4.063630 0.000000 0.000000 
#    y 0.000000 3.953410 0.000000 
#    z 0.000000 0.000000 3.898890 
# 
# 
# High freq. dielectric constant tensor:
#      x y z
#    x 1.849810 0.000000 0.000000 
#    y 0.000000 1.848160 0.000000 
#    z 0.000000 0.000000 1.852810 
# 
# From -- ./inp_files/22984.got.cif
#   From: 2010.03.12/outbox.cif.g09.slc.cpg/sg55_12_cif.got.tgz:22984.got - 2010.04.16 15:19:21.
