data_PCOD8226728
_publ_section_title
;
Structure prediction by ZEFSAII (Michael W. Deem and Ramdas Pophale) SiO2 
 PCOD8226728
Probable space group: P B A M
;
_chemical_formula_sum "Si O2"
_cell_formula_units_Z 32
_cell_length_a 11.955720
_cell_length_b 10.903089
_cell_length_c 11.584510
_cell_angle_alpha 90.000000
_cell_angle_beta 90.000000
_cell_angle_gamma 90.000000
_cell_volume 1510.090451
_symmetry_space_group_name_H-M "P B A M"
_symmetry_group_IT_number 55
_symmetry_cell_setting 'orthorhombic'
loop_
_space_group_symop_operation_xyz
x,y,z
-x,-y,z
1/2+x,1/2-y,-z
1/2-x,1/2+y,-z
-x,-y,-z
x,y,-z
1/2-x,1/2+y,z
1/2+x,1/2-y,z
loop_
_atom_site_type_symbol
_atom_site_label
_atom_site_fract_x
_atom_site_fract_y
_atom_site_fract_z
Si Si1 0.909823 0.396227 0.229739
Si Si2 0.155765 0.026782 0.248743
Si Si3 0.521951 0.677397 0.365900
Si Si4 0.153294 0.700694 0.000000
Si Si5 0.318490 0.474805 0.000000
O O1 0.788487 0.454875 0.251693
O O2 0.942794 0.316676 0.341121
O O3 0.917118 0.305670 0.118371
O O4 0.000000 0.500000 0.209801
O O5 0.091534 0.146485 0.295549
O O6 0.123016 0.912569 0.329525
O O7 0.113002 0.999845 0.117604
O O8 0.496998 0.661469 0.500000
O O9 0.221360 0.830371 0.000000
O O10 0.219322 0.572714 0.000000
#
# Coordination Sequence:
#
# PCOD8226728 Si02
#       5
#     8   8   8   4   4
#     4  11  25  42  69 102 135 173 222 281 346 408
#     4  10  23  43  67  97 132 174 226 276 340 410
#     4  11  25  44  67  93 132 182 229 280 336 398
#     4  10  21  41  68 104 142 175 218 282 344 418
#     4  10  20  38  71 101 134 182 220 280 354 407
#
# _framework density 21.190781999999999
#
# number of rings (size 3 to 8) (size 9 to 14) (size 15 to 20)
#    0.000    1.500    2.500    1.875    3.500    7.500 
#    0.000    0.000    0.000    0.000    0.000    0.000 
#    0.000    0.000    0.000    0.000    0.000    0.000 
#
# Total GULP energy -396580.295223 kJ/mol
# GULP energy per Si atom -12393.134226 kJ/mol
# Density = 2.114255 g / cm^3
# Si number density = 21.190782 Si / 1000 Ang^3
#
#
#
# Elastic Constant Matrix: (Units=GPa)
#
#
# Indices 1 2 3 4 5 6 
#
# 1 129.0380 44.5329 44.0630 0.0000 0.0000 0.0000
# 2 44.5329 126.3614 54.8557 0.0000 0.0000 0.0000
# 3 44.0630 54.8557 151.6532 0.0000 0.0000 0.0000
# 4 0.0000 0.0000 0.0000 34.3728 0.0000 0.0000
# 5 0.0000 0.0000 0.0000 0.0000 20.7308 0.0000
# 6 0.0000 0.0000 0.0000 0.0000 0.0000 27.9055
#
#
#
# Elastic Compliance Matrix: (Units=1/GPa)
#
#
# Indices 1 2 3 4 5 6 
#
# 1 0.009212 -0.002473 -0.001782 0.000000 0.000000 0.000000
# 2 -0.002473 0.010052 -0.002917 0.000000 0.000000 0.000000
# 3 -0.001782 -0.002917 0.008167 0.000000 0.000000 0.000000
# 4 0.000000 0.000000 0.000000 0.029093 0.000000 0.000000
# 5 0.000000 0.000000 0.000000 0.000000 0.048238 0.000000
# 6 0.000000 0.000000 0.000000 0.000000 0.000000 0.035835
#
#
# Mechanical properties :
#
#
# Convention : Reuss Voigt Hill
#
# Bulk Modulus (GPa) = 76.41775 77.10620 76.76198
# Shear Modulus (GPa) = 31.38687 34.17521 32.78104
#
# Velocity S-wave (km/s) = 3.85275 4.02025 3.93739
# Velocity P-wave (km/s) = 7.47875 7.61679 7.54809
#
# Compressibility (1/GPa) = 0.01308596
#
# Stress axis : x y z
#
# Youngs Moduli (GPa) = 108.55944 99.48472 122.44341
#
# Poissons Ratio (x) = 0.24601 0.21819
# Poissons Ratio (y) = 0.26845 0.35722
# Poissons Ratio (z) = 0.19345 0.29024
#
# Static dielectric constant tensor:
#      x y z
#    x 3.544510 0.000000 0.000000 
#    y 0.000000 3.822870 0.000000 
#    z 0.000000 0.000000 4.330660 
# 
# 
# High freq. dielectric constant tensor:
#      x y z
#    x 1.807480 0.000000 0.000000 
#    y 0.000000 1.838410 0.000000 
#    z 0.000000 0.000000 1.845450 
# 
# From -- ./inp_files/13874.got.cif
#   From: 2010.03.12/outbox.cif.g09.slc.cpg/sg55_7_cif.got.tgz:13874.got - 2010.04.16 15:19:21.
