data_PCOD8226104
_publ_section_title
;
Structure prediction by ZEFSAII (Michael W. Deem and Ramdas Pophale) SiO2 
 PCOD8226104
Probable space group: P B A M
;
_chemical_formula_sum "Si O2"
_cell_formula_units_Z 48
_cell_length_a 24.928460
_cell_length_b 11.636836
_cell_length_c 7.621926
_cell_angle_alpha 90.000000
_cell_angle_beta 90.000000
_cell_angle_gamma 90.000000
_cell_volume 2211.032324
_symmetry_space_group_name_H-M "P B A M"
_symmetry_group_IT_number 55
_symmetry_cell_setting 'orthorhombic'
loop_
_space_group_symop_operation_xyz
x,y,z
-x,-y,z
1/2+x,1/2-y,-z
1/2-x,1/2+y,-z
-x,-y,-z
x,y,-z
1/2-x,1/2+y,z
1/2+x,1/2-y,z
loop_
_atom_site_type_symbol
_atom_site_label
_atom_site_fract_x
_atom_site_fract_y
_atom_site_fract_z
Si Si1 0.290401 0.544339 0.500000
Si Si2 0.634143 0.166440 0.801529
Si Si3 0.047261 0.161052 0.200122
Si Si4 0.066685 0.771634 0.792462
Si Si5 0.782235 0.688012 0.500000
Si Si6 0.631346 0.519953 0.200072
Si Si7 0.059429 0.520222 0.302313
O O1 0.258034 0.422777 0.500000
O O2 0.261872 0.674186 0.500000
O O3 0.326435 0.541961 0.325064
O O4 0.590973 0.253307 0.715414
O O5 0.685724 0.167492 0.678634
O O6 0.605299 0.042903 0.808725
O O7 0.651940 0.200386 0.000000
O O8 0.988499 0.172915 0.285508
O O9 0.071448 0.033847 0.217268
O O10 0.041597 0.199797 0.000000
O O11 0.119109 0.848502 0.746759
O O12 0.075771 0.652468 0.696867
O O13 0.062767 0.755171 0.000000
O O14 0.652574 0.507681 0.000000
O O15 0.060126 0.472111 0.500000
O O16 0.000000 0.500000 0.219805
#
# Coordination Sequence:
#
# PCOD8226104 Si02
#       7
#     4   8   8   8   4   8   8
#     4  12  28  48  74  95 128 169 216 286 349 398
#     4  11  22  41  69  94 126 172 217 263 321 391
#     4   9  17  34  63  93 128 170 211 253 305 380
#     4  10  20  34  58  95 137 177 218 262 311 378
#     4  12  28  50  70 100 124 161 224 287 347 400
#     4  10  22  42  66  96 130 171 217 263 326 397
#     4  11  22  34  54  91 139 181 219 261 309 380
#
# _framework density 21.709315
#
# number of rings (size 3 to 8) (size 9 to 14) (size 15 to 20)
#    0.000    1.500    4.167    1.000    1.167    4.667 
#    1.500    0.833    0.000    0.000    0.000    0.000 
#    0.000    0.000    0.000    0.000    0.000    0.000 
#
# Total GULP energy -594647.431672 kJ/mol
# GULP energy per Si atom -12388.488160 kJ/mol
# Density = 2.165990 g / cm^3
# Si number density = 21.709315 Si / 1000 Ang^3
#
#
#
# Elastic Constant Matrix: (Units=GPa)
#
#
# Indices 1 2 3 4 5 6 
#
# 1 52.9801 30.1472 24.9313 0.0000 0.0000 0.0000
# 2 30.1472 137.3634 17.2229 0.0000 0.0000 0.0000
# 3 24.9313 17.2229 82.8972 0.0000 0.0000 0.0000
# 4 0.0000 0.0000 0.0000 912.2217 0.0000 0.0000
# 5 0.0000 0.0000 0.0000 0.0000 5.3777 0.0000
# 6 0.0000 0.0000 0.0000 0.0000 0.0000 37.5233
#
#
#
# Elastic Compliance Matrix: (Units=1/GPa)
#
#
# Indices 1 2 3 4 5 6 
#
# 1 0.024496 -0.004572 -0.006417 0.000000 0.000000 0.000000
# 2 -0.004572 0.008328 -0.000355 0.000000 0.000000 0.000000
# 3 -0.006417 -0.000355 0.014067 0.000000 0.000000 0.000000
# 4 0.000000 0.000000 0.000000 0.001096 0.000000 0.000000
# 5 0.000000 0.000000 0.000000 0.000000 0.185952 0.000000
# 6 0.000000 0.000000 0.000000 0.000000 0.000000 0.026650
#
#
# Mechanical properties :
#
#
# Convention : Reuss Voigt Hill
#
# Bulk Modulus (GPa) = 41.31813 46.42705 43.87259
# Shear Modulus (GPa) = 17.16175 204.42051 110.79113
#
# Velocity S-wave (km/s) = 2.81468 9.71427 7.15155
# Velocity P-wave (km/s) = 5.44398 12.13486 9.40457
#
# Compressibility (1/GPa) = 0.02420245
#
# Stress axis : x y z
#
# Youngs Moduli (GPa) = 40.82251 120.07930 71.08834
#
# Poissons Ratio (x) = 0.54895 0.45621
# Poissons Ratio (y) = 0.18662 0.02526
# Poissons Ratio (z) = 0.26198 0.04266
#
# Static dielectric constant tensor:
#      x y z
#    x 3.628580 0.000000 0.000000 
#    y 0.000000 4.193760 0.000000 
#    z 0.000000 0.000000 3.725950 
# 
# 
# High freq. dielectric constant tensor:
#      x y z
#    x 1.809840 0.000000 0.000000 
#    y 0.000000 1.870960 0.000000 
#    z 0.000000 0.000000 1.846260 
# 
# From -- ./inp_files/9480.got.cif
#   From: 2010.03.12/outbox.cif.g09.slc.cpg/sg55_5_cif.got.tgz:9480.got - 2010.04.16 15:19:21.
