data_PCOD8226617
_publ_section_title
;
Structure prediction by ZEFSAII (Michael W. Deem and Ramdas Pophale) SiO2 
 PCOD8226617
Probable space group: P B A M
;
_chemical_formula_sum "Si O2"
_cell_formula_units_Z 48
_cell_length_a 9.901054
_cell_length_b 27.436267
_cell_length_c 8.853119
_cell_angle_alpha 90.000000
_cell_angle_beta 90.000000
_cell_angle_gamma 90.000000
_cell_volume 2404.931726
_symmetry_space_group_name_H-M "P B A M"
_symmetry_group_IT_number 55
_symmetry_cell_setting 'orthorhombic'
loop_
_space_group_symop_operation_xyz
x,y,z
-x,-y,z
1/2+x,1/2-y,-z
1/2-x,1/2+y,-z
-x,-y,-z
x,y,-z
1/2-x,1/2+y,z
1/2+x,1/2-y,z
loop_
_atom_site_type_symbol
_atom_site_label
_atom_site_fract_x
_atom_site_fract_y
_atom_site_fract_z
Si Si1 0.115752 0.214784 0.821547
Si Si2 0.986074 0.882969 0.677816
Si Si3 0.920732 0.299150 0.822771
Si Si4 0.276937 0.437351 0.822820
Si Si5 0.476022 0.093434 0.822210
Si Si6 0.762118 0.960825 0.322217
O O1 0.273304 0.221695 0.780731
O O2 0.057269 0.170155 0.728890
O O3 0.035860 0.262461 0.763148
O O4 0.095057 0.205628 0.000000
O O5 0.011427 0.884204 0.500000
O O6 0.123341 0.895902 0.763382
O O7 0.870184 0.920515 0.727504
O O8 0.942332 0.353060 0.753647
O O9 0.938466 0.304179 0.000000
O O10 0.312159 0.487939 0.742430
O O11 0.128026 0.419704 0.780105
O O12 0.295173 0.444261 0.000000
O O13 0.382676 0.053045 0.745208
O O14 0.448946 0.091290 0.000000
O O15 0.749494 0.965265 0.500000
#
# Coordination Sequence:
#
# PCOD8226617 Si02
#       6
#     8   8   8   8   8   8
#     4  10  20  37  63  89 116 153 194 243 296 349
#     4  11  24  41  59  85 122 160 199 245 295 354
#     4   9  19  35  61  91 117 147 191 243 294 346
#     4  11  24  38  61  91 120 155 202 250 297 354
#     4  10  21  39  61  89 121 154 196 247 296 353
#     4  11  23  40  61  85 120 160 201 245 298 358
#
# _framework density 19.958985999999999
#
# number of rings (size 3 to 8) (size 9 to 14) (size 15 to 20)
#    0.000    1.667    1.667    2.500    2.333    7.333 
#    0.000    1.667    0.000    0.000    0.000    0.000 
#    0.000    0.000    0.000    0.000    0.000    0.000 
#
# Total GULP energy -595445.685633 kJ/mol
# GULP energy per Si atom -12405.118451 kJ/mol
# Density = 1.991356 g / cm^3
# Si number density = 19.958986 Si / 1000 Ang^3
#
#
#
# Elastic Constant Matrix: (Units=GPa)
#
#
# Indices 1 2 3 4 5 6 
#
# 1 76.2538 11.3587 32.7638 0.0000 0.0000 0.0000
# 2 11.3587 81.9368 6.0757 0.0000 0.0000 0.0000
# 3 32.7638 6.0757 32.2952 0.0000 0.0000 0.0000
# 4 0.0000 0.0000 0.0000 12.3550 0.0000 0.0000
# 5 0.0000 0.0000 0.0000 0.0000 20.8310 0.0000
# 6 0.0000 0.0000 0.0000 0.0000 0.0000 40.7845
#
#
#
# Elastic Compliance Matrix: (Units=1/GPa)
#
#
# Indices 1 2 3 4 5 6 
#
# 1 0.023430 -0.001507 -0.023486 0.000000 0.000000 0.000000
# 2 -0.001507 0.012474 -0.000818 0.000000 0.000000 0.000000
# 3 -0.023486 -0.000818 0.054945 0.000000 0.000000 0.000000
# 4 0.000000 0.000000 0.000000 0.080939 0.000000 0.000000
# 5 0.000000 0.000000 0.000000 0.000000 0.048005 0.000000
# 6 0.000000 0.000000 0.000000 0.000000 0.000000 0.024519
#
#
# Mechanical properties :
#
#
# Convention : Reuss Voigt Hill
#
# Bulk Modulus (GPa) = 25.49273 32.32022 28.90648
# Shear Modulus (GPa) = 16.18065 24.14660 20.16363
#
# Velocity S-wave (km/s) = 2.85036 3.48201 3.18190
# Velocity P-wave (km/s) = 4.86138 5.69160 5.29279
#
# Compressibility (1/GPa) = 0.03922687
#
# Stress axis : x y z
#
# Youngs Moduli (GPa) = 42.68060 80.16636 18.19986
#
# Poissons Ratio (x) = 0.12077 0.42745
# Poissons Ratio (y) = 0.06430 0.01489
# Poissons Ratio (z) = 1.00241 0.06561
#
# Static dielectric constant tensor:
#      x y z
#    x 3.816970 0.000000 0.000000 
#    y 0.000000 3.831920 0.000000 
#    z 0.000000 0.000000 3.389950 
# 
# 
# High freq. dielectric constant tensor:
#      x y z
#    x 1.793430 0.000000 0.000000 
#    y 0.000000 1.789540 0.000000 
#    z 0.000000 0.000000 1.758300 
# 
# From -- ./inp_files/2838.got.cif
#   From: 2010.03.12/outbox.cif.g09.slc.cpg/sg55_2_cif.got.tgz:2838.got - 2010.04.16 15:19:21.
