data_PCOD8226244
_publ_section_title
;
Structure prediction by ZEFSAII (Michael W. Deem and Ramdas Pophale) SiO2 
 PCOD8226244
Probable space group: P B A M
;
_chemical_formula_sum "Si O2"
_cell_formula_units_Z 64
_cell_length_a 19.050345
_cell_length_b 19.157947
_cell_length_c 8.803504
_cell_angle_alpha 90.000000
_cell_angle_beta 90.000000
_cell_angle_gamma 90.000000
_cell_volume 3212.975238
_symmetry_space_group_name_H-M "P B A M"
_symmetry_group_IT_number 55
_symmetry_cell_setting 'orthorhombic'
loop_
_space_group_symop_operation_xyz
x,y,z
-x,-y,z
1/2+x,1/2-y,-z
1/2-x,1/2+y,-z
-x,-y,-z
x,y,-z
1/2-x,1/2+y,z
1/2+x,1/2-y,z
loop_
_atom_site_type_symbol
_atom_site_label
_atom_site_fract_x
_atom_site_fract_y
_atom_site_fract_z
Si Si1 0.529257 0.126433 0.320467
Si Si2 0.363548 0.969300 0.179517
Si Si3 0.968165 0.900933 0.679772
Si Si4 0.131432 0.616751 0.679741
Si Si5 0.391331 0.736770 0.319683
Si Si6 0.266492 0.238821 0.320235
Si Si7 0.095667 0.968888 0.175947
Si Si8 0.769601 0.117510 0.175121
O O1 0.536749 0.118387 0.500000
O O2 0.562009 0.057348 0.244099
O O3 0.448316 0.134113 0.271872
O O4 0.571316 0.193586 0.257605
O O5 0.304293 0.913888 0.231799
O O6 0.344148 0.044530 0.246389
O O7 0.367055 0.975931 0.000000
O O8 0.980703 0.902333 0.500000
O O9 0.936478 0.828370 0.737439
O O10 0.041578 0.910210 0.766066
O O11 0.913906 0.961628 0.724982
O O12 0.138167 0.609541 0.500000
O O13 0.181931 0.678398 0.742604
O O14 0.389020 0.738681 0.500000
O O15 0.312385 0.728953 0.255098
O O16 0.267266 0.236194 0.500000
O O17 0.292911 0.314713 0.268998
O O18 0.173867 0.942736 0.203178
O O19 0.080699 0.985210 0.000000
O O20 0.765932 0.139371 0.000000
#
# Coordination Sequence:
#
# PCOD8226244 Si02
#       8
#     8   8   8   8   8   8   8   8
#     4  10  20  39  61  85 117 152 188 238 295 343
#     4  11  23  40  60  85 116 155 198 239 282 337
#     4  10  20  35  58  87 113 143 190 241 282 333
#     4  10  23  38  61  91 117 147 190 239 291 344
#     4   9  19  35  57  84 115 146 183 233 285 335
#     4  10  21  39  61  86 112 147 191 234 282 340
#     4  10  21  38  56  79 115 153 188 230 284 342
#     4  10  23  40  57  81 115 154 192 232 282 338
#
# _framework density 19.919232000000001
#
# number of rings (size 3 to 8) (size 9 to 14) (size 15 to 20)
#    0.000    2.000    1.250    2.250    3.500    4.000 
#    0.000    2.500    0.000    0.000    0.000    0.000 
#    0.000    0.000    0.000    0.000    0.000    0.000 
#
# Total GULP energy -793749.952215 kJ/mol
# GULP energy per Si atom -12402.343003 kJ/mol
# Density = 1.987390 g / cm^3
# Si number density = 19.919232 Si / 1000 Ang^3
#
#
#
# Elastic Constant Matrix: (Units=GPa)
#
#
# Indices 1 2 3 4 5 6 
#
# 1 94.0472 52.3007 22.5758 0.0000 0.0000 0.0000
# 2 52.3007 120.5383 19.5534 0.0000 0.0000 0.0000
# 3 22.5758 19.5534 28.3567 0.0000 0.0000 0.0000
# 4 0.0000 0.0000 0.0000 16.1146 0.0000 0.0000
# 5 0.0000 0.0000 0.0000 0.0000 21.8638 0.0000
# 6 0.0000 0.0000 0.0000 0.0000 0.0000 37.5184
#
#
#
# Elastic Compliance Matrix: (Units=1/GPa)
#
#
# Indices 1 2 3 4 5 6 
#
# 1 0.015756 -0.005406 -0.008816 0.000000 0.000000 0.000000
# 2 -0.005406 0.011196 -0.003416 0.000000 0.000000 0.000000
# 3 -0.008816 -0.003416 0.044639 0.000000 0.000000 0.000000
# 4 0.000000 0.000000 0.000000 0.062056 0.000000 0.000000
# 5 0.000000 0.000000 0.000000 0.000000 0.045738 0.000000
# 6 0.000000 0.000000 0.000000 0.000000 0.000000 0.026654
#
#
# Mechanical properties :
#
#
# Convention : Reuss Voigt Hill
#
# Bulk Modulus (GPa) = 27.53717 47.97802 37.75760
# Shear Modulus (GPa) = 19.73019 25.00016 22.36518
#
# Velocity S-wave (km/s) = 3.15065 3.54655 3.35445
# Velocity P-wave (km/s) = 5.20480 6.39603 5.83092
#
# Compressibility (1/GPa) = 0.03631455
#
# Stress axis : x y z
#
# Youngs Moduli (GPa) = 63.46953 89.31777 22.40184
#
# Poissons Ratio (x) = 0.48287 0.19749
# Poissons Ratio (y) = 0.34313 0.07653
# Poissons Ratio (z) = 0.55953 0.30512
#
# Static dielectric constant tensor:
#      x y z
#    x 3.809730 0.000000 0.000000 
#    y 0.000000 3.681960 0.000000 
#    z 0.000000 0.000000 3.372390 
# 
# 
# High freq. dielectric constant tensor:
#      x y z
#    x 1.786530 0.000000 0.000000 
#    y 0.000000 1.784850 0.000000 
#    z 0.000000 0.000000 1.757340 
# 
# From -- ./inp_files/9007.got.cif
#   From: 2010.03.12/outbox.cif.g09.slc.cpg/sg55_5_cif.got.tgz:9007.got - 2010.04.16 15:19:21.
