data_PCOD8226286
_publ_section_title
;
Structure prediction by ZEFSAII (Michael W. Deem and Ramdas Pophale) SiO2 
 PCOD8226286
Probable space group: P B A M
;
_chemical_formula_sum "Si O2"
_cell_formula_units_Z 56
_cell_length_a 10.149290
_cell_length_b 21.709855
_cell_length_c 14.295509
_cell_angle_alpha 90.000000
_cell_angle_beta 90.000000
_cell_angle_gamma 90.000000
_cell_volume 3149.866939
_symmetry_space_group_name_H-M "P B A M"
_symmetry_group_IT_number 55
_symmetry_cell_setting 'orthorhombic'
loop_
_space_group_symop_operation_xyz
x,y,z
-x,-y,z
1/2+x,1/2-y,-z
1/2-x,1/2+y,-z
-x,-y,-z
x,y,-z
1/2-x,1/2+y,z
1/2+x,1/2-y,z
loop_
_atom_site_type_symbol
_atom_site_label
_atom_site_fract_x
_atom_site_fract_y
_atom_site_fract_z
Si Si1 0.936798 0.194132 0.610181
Si Si2 0.212726 0.376005 0.713641
Si Si3 0.685097 0.383240 0.390378
Si Si4 0.038359 0.663643 0.609017
Si Si5 0.184223 0.543660 0.896390
Si Si6 0.911267 0.595838 0.896990
Si Si7 0.849336 0.993070 0.730446
O O1 0.903919 0.183146 0.500000
O O2 0.810779 0.175526 0.672887
O O3 0.975555 0.264198 0.629698
O O4 0.060821 0.155374 0.647299
O O5 0.169677 0.363317 0.821603
O O6 0.278945 0.442824 0.708345
O O7 0.078560 0.375594 0.654660
O O8 0.688584 0.375342 0.500000
O O9 0.822104 0.358150 0.348253
O O10 0.665888 0.454326 0.364418
O O11 0.031209 0.649271 0.500000
O O12 0.134460 0.474146 0.894823
O O13 0.292255 0.548316 0.815274
O O14 0.067714 0.592756 0.875064
O O15 0.243467 0.557847 0.000000
O O16 0.885906 0.624675 0.000000
O O17 0.000000 0.000000 0.757760
#
# Coordination Sequence:
#
# PCOD8226286 Si02
#       7
#     8   8   8   8   8   8   8
#     4  10  20  36  55  75 103 137 177 220 262 302
#     4  11  20  33  56  80 102 140 173 211 262 317
#     4  10  21  35  50  72 107 141 165 211 268 313
#     4  10  21  36  55  78  99 130 185 231 251 292
#     4   8  15  29  49  72 103 138 170 208 252 300
#     4   8  15  29  50  77 104 133 169 209 255 306
#     4  11  21  33  48  76 111 139 171 209 266 333
#
# _framework density 17.77853
#
# number of rings (size 3 to 8) (size 9 to 14) (size 15 to 20)
#    0.000    2.286    1.429    3.000    0.000    5.714 
#    0.000    1.429    0.000    0.857    0.000    2.000 
#    0.000    0.000    0.000    0.000    0.000    0.000 
#
# Total GULP energy -694087.504741 kJ/mol
# GULP energy per Si atom -12394.419728 kJ/mol
# Density = 1.773806 g / cm^3
# Si number density = 17.778530 Si / 1000 Ang^3
#
#
#
# Elastic Constant Matrix: (Units=GPa)
#
#
# Indices 1 2 3 4 5 6 
#
# 1 131.1390 29.9556 52.1864 0.0000 0.0000 0.0000
# 2 29.9556 47.9173 29.5506 0.0000 0.0000 0.0000
# 3 52.1864 29.5506 65.1873 0.0000 0.0000 0.0000
# 4 0.0000 0.0000 0.0000 10.4344 0.0000 0.0000
# 5 0.0000 0.0000 0.0000 0.0000 16.4174 0.0000
# 6 0.0000 0.0000 0.0000 0.0000 0.0000 27.3615
#
#
#
# Elastic Compliance Matrix: (Units=1/GPa)
#
#
# Indices 1 2 3 4 5 6 
#
# 1 0.011336 -0.002068 -0.008138 0.000000 0.000000 0.000000
# 2 -0.002068 0.029345 -0.011647 0.000000 0.000000 0.000000
# 3 -0.008138 -0.011647 0.027135 0.000000 0.000000 0.000000
# 4 0.000000 0.000000 0.000000 0.095837 0.000000 0.000000
# 5 0.000000 0.000000 0.000000 0.000000 0.060911 0.000000
# 6 0.000000 0.000000 0.000000 0.000000 0.000000 0.036548
#
#
# Mechanical properties :
#
#
# Convention : Reuss Voigt Hill
#
# Bulk Modulus (GPa) = 41.47599 51.95875 46.71737
# Shear Modulus (GPa) = 15.98188 19.67939 17.83063
#
# Velocity S-wave (km/s) = 3.00149 3.33065 3.17034
# Velocity P-wave (km/s) = 5.94910 6.63927 6.30364
#
# Compressibility (1/GPa) = 0.02411034
#
# Stress axis : x y z
#
# Youngs Moduli (GPa) = 88.21137 34.07757 36.85288
#
# Poissons Ratio (x) = 0.07048 0.29990
# Poissons Ratio (y) = 0.18245 0.42921
# Poissons Ratio (z) = 0.71785 0.39689
#
# Static dielectric constant tensor:
#      x y z
#    x 3.560260 0.000000 0.000000 
#    y 0.000000 2.981090 0.000000 
#    z 0.000000 0.000000 3.517650 
# 
# 
# High freq. dielectric constant tensor:
#      x y z
#    x 1.699490 0.000000 0.000000 
#    y 0.000000 1.656530 0.000000 
#    z 0.000000 0.000000 1.682000 
# 
# From -- ./inp_files/17621.got.cif
#   From: 2010.03.12/outbox.cif.g09.slc.cpg/sg55_9_cif.got.tgz:17621.got - 2010.04.16 15:19:21.
