data_PCOD8226498
_publ_section_title
;
Structure prediction by ZEFSAII (Michael W. Deem and Ramdas Pophale) SiO2 
 PCOD8226498
Probable space group: P B A M
;
_chemical_formula_sum "Si O2"
_cell_formula_units_Z 48
_cell_length_a 29.355625
_cell_length_b 10.298941
_cell_length_c 8.542636
_cell_angle_alpha 90.000000
_cell_angle_beta 90.000000
_cell_angle_gamma 90.000000
_cell_volume 2582.710945
_symmetry_space_group_name_H-M "P B A M"
_symmetry_group_IT_number 55
_symmetry_cell_setting 'orthorhombic'
loop_
_space_group_symop_operation_xyz
x,y,z
-x,-y,z
1/2+x,1/2-y,-z
1/2-x,1/2+y,-z
-x,-y,-z
x,y,-z
1/2-x,1/2+y,z
1/2+x,1/2-y,z
loop_
_atom_site_type_symbol
_atom_site_label
_atom_site_fract_x
_atom_site_fract_y
_atom_site_fract_z
Si Si1 0.377668 0.983764 0.677335
Si Si2 0.521704 0.631333 0.686649
Si Si3 0.722369 0.992213 0.313808
Si Si4 0.618490 0.717366 0.678274
Si Si5 0.469854 0.881439 0.312424
Si Si6 0.285466 0.286474 0.818058
O O1 0.371396 0.938769 0.500000
O O2 0.327726 0.969134 0.755674
O O3 0.394525 0.131755 0.686064
O O4 0.417857 0.896466 0.753716
O O5 0.500000 0.500000 0.753888
O O6 0.520671 0.635663 0.500000
O O7 0.574257 0.640442 0.741854
O O8 0.491176 0.748787 0.753335
O O9 0.724363 0.003773 0.500000
O O10 0.732333 0.842008 0.270985
O O11 0.758555 0.086877 0.237037
O O12 0.630633 0.677840 0.500000
O O13 0.661532 0.684284 0.785581
O O14 0.468747 0.884673 0.500000
O O15 0.500000 0.000000 0.248473
O O16 0.277575 0.263931 0.000000
#
# Coordination Sequence:
#
# PCOD8226498 Si02
#       6
#     8   8   8   8   8   8
#     4   8  14  25  45  71  96 128 169 214 260 309
#     4   9  16  25  40  68 104 133 164 215 270 314
#     4  10  20  37  58  81 109 140 182 231 275 325
#     4   9  16  30  50  72 101 138 176 215 263 320
#     4   9  13  21  40  65  96 129 161 201 255 309
#     4  11  22  37  57  81 109 144 182 225 279 336
#
# _framework density 18.585122999999999
#
# number of rings (size 3 to 8) (size 9 to 14) (size 15 to 20)
#    0.000    2.667    1.667    3.000    0.000    0.000 
#    3.000    0.000    0.000    0.500    0.000   10.500 
#    0.000    0.000    0.000    0.000    0.000    0.000 
#
# Total GULP energy -594903.409976 kJ/mol
# GULP energy per Si atom -12393.821041 kJ/mol
# Density = 1.854282 g / cm^3
# Si number density = 18.585123 Si / 1000 Ang^3
#
#
#
# Elastic Constant Matrix: (Units=GPa)
#
#
# Indices 1 2 3 4 5 6 
#
# 1 127.1164 72.5425 20.1787 0.0000 0.0000 0.0000
# 2 72.5425 109.9483 6.7066 0.0000 0.0000 0.0000
# 3 20.1787 6.7066 36.5796 0.0000 0.0000 0.0000
# 4 0.0000 0.0000 0.0000 13.2602 0.0000 0.0000
# 5 0.0000 0.0000 0.0000 0.0000 6.8510 0.0000
# 6 0.0000 0.0000 0.0000 0.0000 0.0000 38.4704
#
#
#
# Elastic Compliance Matrix: (Units=1/GPa)
#
#
# Indices 1 2 3 4 5 6 
#
# 1 0.013814 -0.008747 -0.006016 0.000000 0.000000 0.000000
# 2 -0.008747 0.014737 0.002123 0.000000 0.000000 0.000000
# 3 -0.006016 0.002123 0.030267 0.000000 0.000000 0.000000
# 4 0.000000 0.000000 0.000000 0.075414 0.000000 0.000000
# 5 0.000000 0.000000 0.000000 0.000000 0.145965 0.000000
# 6 0.000000 0.000000 0.000000 0.000000 0.000000 0.025994
#
#
# Mechanical properties :
#
#
# Convention : Reuss Voigt Hill
#
# Bulk Modulus (GPa) = 29.81743 52.49997 41.15870
# Shear Modulus (GPa) = 14.59216 23.33075 18.96146
#
# Velocity S-wave (km/s) = 2.80510 3.54693 3.19760
# Velocity P-wave (km/s) = 5.15461 6.71446 5.98556
#
# Compressibility (1/GPa) = 0.03353744
#
# Stress axis : x y z
#
# Youngs Moduli (GPa) = 72.39232 67.85703 33.03901
#
# Poissons Ratio (x) = 0.59355 0.19878
# Poissons Ratio (y) = 0.63322 -0.07015
# Poissons Ratio (z) = 0.43554 -0.14408
#
# Static dielectric constant tensor:
#      x y z
#    x 3.712910 0.000000 0.000000 
#    y 0.000000 3.383930 0.000000 
#    z 0.000000 0.000000 2.885080 
# 
# 
# High freq. dielectric constant tensor:
#      x y z
#    x 1.736800 0.000000 0.000000 
#    y 0.000000 1.706750 0.000000 
#    z 0.000000 0.000000 1.667520 
# 
# From -- ./inp_files/10526.got.cif
#   From: 2010.03.12/outbox.cif.g09.slc.cpg/sg55_6_cif.got.tgz:10526.got - 2010.04.16 15:19:21.
