data_PCOD8226474
_publ_section_title
;
Structure prediction by ZEFSAII (Michael W. Deem and Ramdas Pophale) SiO2 
 PCOD8226474
Probable space group: P B A M
;
_chemical_formula_sum "Si O2"
_cell_formula_units_Z 56
_cell_length_a 21.367385
_cell_length_b 9.441291
_cell_length_c 14.379845
_cell_angle_alpha 90.000000
_cell_angle_beta 90.000000
_cell_angle_gamma 90.000000
_cell_volume 2900.928093
_symmetry_space_group_name_H-M "P B A M"
_symmetry_group_IT_number 55
_symmetry_cell_setting 'orthorhombic'
loop_
_space_group_symop_operation_xyz
x,y,z
-x,-y,z
1/2+x,1/2-y,-z
1/2-x,1/2+y,-z
-x,-y,-z
x,y,-z
1/2-x,1/2+y,z
1/2+x,1/2-y,z
loop_
_atom_site_type_symbol
_atom_site_label
_atom_site_fract_x
_atom_site_fract_y
_atom_site_fract_z
Si Si1 0.494213 0.158513 0.894085
Si Si2 0.865257 0.724738 0.107233
Si Si3 0.634742 0.224738 0.392767
Si Si4 0.818622 0.505333 0.250000
Si Si5 0.600621 0.735280 0.250000
Si Si6 0.824848 0.951090 0.750000
Si Si7 0.005787 0.658513 0.394085
O O1 0.559995 0.238873 0.884142
O O2 0.441923 0.246212 0.840661
O O3 0.500000 0.000000 0.852211
O O4 0.471557 0.148798 0.000000
O O5 0.843543 0.580646 0.156813
O O6 0.834335 0.858943 0.157158
O O7 0.843653 0.720428 0.000000
O O8 0.656347 0.220427 0.500000
O O9 0.656456 0.080646 0.343186
O O10 0.665665 0.358943 0.342842
O O11 0.559994 0.238873 0.384143
O O12 0.841615 0.344000 0.250000
O O13 0.744253 0.513323 0.250001
O O14 0.626180 0.577665 0.250000
O O15 0.558077 0.753788 0.340661
O O16 0.028443 0.648798 0.500000
O O17 0.000000 0.500000 0.352211
#
# Coordination Sequence:
#
# PCOD8226474 Si02
#       7
#     8   8   8   8   8   8   8
#     4  10  20  36  62  92 115 147 200 249 294 352
#     4  10  22  42  63  85 119 157 194 245 300 345
#     4  10  22  42  63  85 119 157 194 245 300 345
#     4  11  22  41  63  85 114 160 208 239 274 349
#     4  12  21  36  64  89 119 154 193 247 301 340
#     4  11  26  40  55  90 129 158 194 237 293 359
#     4  10  20  36  62  92 115 147 200 249 294 352
#
# _framework density 19.304169000000002
#
# number of rings (size 3 to 8) (size 9 to 14) (size 15 to 20)
#    0.000    1.429    2.857    3.857    0.000    4.571 
#    0.000    5.714    0.000    0.000    0.000    0.000 
#    0.000    0.000    0.000    0.000    0.000    0.000 
#
# Total GULP energy -694688.552156 kJ/mol
# GULP energy per Si atom -12405.152717 kJ/mol
# Density = 1.926023 g / cm^3
# Si number density = 19.304169 Si / 1000 Ang^3
#
#
#
# Elastic Constant Matrix: (Units=GPa)
#
#
# Indices 1 2 3 4 5 6 
#
# 1 82.0358 7.4556 32.6113 0.0000 0.0000 0.0000
# 2 7.4556 73.3213 33.5134 0.0000 0.0000 0.0000
# 3 32.6113 33.5134 140.7260 0.0000 0.0000 0.0000
# 4 0.0000 0.0000 0.0000 0.0116 0.0000 0.0000
# 5 0.0000 0.0000 0.0000 0.0000 2.3517 0.0000
# 6 0.0000 0.0000 0.0000 0.0000 0.0000 32.2276
#
#
#
# Elastic Compliance Matrix: (Units=1/GPa)
#
#
# Indices 1 2 3 4 5 6 
#
# 1 0.013427 0.000064 -0.003127 0.000000 0.000000 0.000000
# 2 0.000064 0.015305 -0.003660 0.000000 0.000000 0.000000
# 3 -0.003127 -0.003660 0.008702 0.000000 0.000000 0.000000
# 4 0.000000 0.000000 0.000000 86.323959 0.000000 0.000000
# 5 0.000000 0.000000 0.000000 0.000000 0.425233 0.000000
# 6 0.000000 0.000000 0.000000 0.000000 0.000000 0.031029
#
#
# Mechanical properties :
#
#
# Convention : Reuss Voigt Hill
#
# Bulk Modulus (GPa) = 41.68587 49.24931 45.46759
# Shear Modulus (GPa) = 0.05758 21.75167 10.90462
#
# Velocity S-wave (km/s) = 0.17289 3.36041 2.37931
# Velocity P-wave (km/s) = 4.65628 6.37370 5.58144
#
# Compressibility (1/GPa) = 0.02398894
#
# Stress axis : x y z
#
# Youngs Moduli (GPa) = 74.47713 65.33885 114.91475
#
# Poissons Ratio (x) = -0.00417 0.35931
# Poissons Ratio (y) = -0.00475 0.42054
# Poissons Ratio (z) = 0.23287 0.23911
#
# Static dielectric constant tensor:
#      x y z
#    x 3.501670 0.000000 0.000000 
#    y 0.000000 3.400770 0.000000 
#    z 0.000000 0.000000 3.665660 
# 
# 
# High freq. dielectric constant tensor:
#      x y z
#    x 1.754890 0.000000 0.000000 
#    y 0.000000 1.743000 0.000000 
#    z 0.000000 0.000000 1.760440 
# 
# From -- ./inp_files/17647.got.cif
#   From: 2010.03.12/outbox.cif.g09.slc.cpg/sg55_9_cif.got.tgz:17647.got - 2010.04.16 15:19:21.
