data_PCOD8226672
_publ_section_title
;
Structure prediction by ZEFSAII (Michael W. Deem and Ramdas Pophale) SiO2 
 PCOD8226672
Probable space group: P B A M
;
_chemical_formula_sum "Si O2"
_cell_formula_units_Z 64
_cell_length_a 30.201025
_cell_length_b 9.197749
_cell_length_c 11.288676
_cell_angle_alpha 90.000000
_cell_angle_beta 90.000000
_cell_angle_gamma 90.000000
_cell_volume 3135.784760
_symmetry_space_group_name_H-M "P B A M"
_symmetry_group_IT_number 55
_symmetry_cell_setting 'orthorhombic'
loop_
_space_group_symop_operation_xyz
x,y,z
-x,-y,z
1/2+x,1/2-y,-z
1/2-x,1/2+y,-z
-x,-y,-z
x,y,-z
1/2-x,1/2+y,z
1/2+x,1/2-y,z
loop_
_atom_site_type_symbol
_atom_site_label
_atom_site_fract_x
_atom_site_fract_y
_atom_site_fract_z
Si Si1 0.384675 0.996143 0.362854
Si Si2 0.754802 0.937866 0.254631
Si Si3 0.697397 0.174102 0.635540
Si Si4 0.801362 0.197418 0.132500
Si Si5 0.014910 0.664160 0.870434
Si Si6 0.963721 0.702171 0.365808
Si Si7 0.603015 0.732993 0.785545
Si Si8 0.447748 0.490218 0.630417
O O1 0.373802 0.006111 0.500000
O O2 0.380044 0.157237 0.314206
O O3 0.348188 0.887260 0.306466
O O4 0.434463 0.939364 0.338141
O O5 0.791430 0.827611 0.304397
O O6 0.715465 0.837260 0.204847
O O7 0.734598 0.048057 0.351914
O O8 0.778457 0.043248 0.160753
O O9 0.691401 0.212664 0.500000
O O10 0.854257 0.178706 0.143781
O O11 0.788521 0.235040 0.000000
O O12 0.068018 0.684631 0.870320
O O13 0.000000 0.500000 0.871797
O O14 0.997690 0.729173 0.744074
O O15 0.998695 0.731231 0.000000
O O16 0.985965 0.686813 0.500000
O O17 0.931373 0.842004 0.369149
O O18 0.579628 0.593675 0.728406
O O19 0.500000 0.500000 0.658553
O O20 0.440130 0.420099 0.500000
#
# Coordination Sequence:
#
# PCOD8226672 Si02
#       8
#     8   8   8   8   8   8   8   8
#     4  10  21  36  59  90 122 156 201 252 300 369
#     4  10  22  41  66  88 120 161 201 249 315 379
#     4  10  20  38  61  94 127 154 192 246 316 387
#     4  11  24  43  65  89 120 161 213 262 309 369
#     4  11  23  39  60  88 125 163 206 257 315 369
#     4  10  21  39  62  87 120 164 211 253 301 362
#     4  12  22  39  61  91 125 161 208 256 313 369
#     4  10  21  37  60  90 125 161 203 258 308 364
#
# _framework density 20.409562999999999
#
# number of rings (size 3 to 8) (size 9 to 14) (size 15 to 20)
#    0.000    1.500    3.750    1.500    1.750    0.750 
#    0.000    3.125    0.000    0.000    0.000    0.000 
#    0.000    0.000    0.000    0.000    0.000    0.000 
#
# Total GULP energy -792844.809420 kJ/mol
# GULP energy per Si atom -12388.200147 kJ/mol
# Density = 2.036311 g / cm^3
# Si number density = 20.409563 Si / 1000 Ang^3
#
#
#
# Elastic Constant Matrix: (Units=GPa)
#
#
# Indices 1 2 3 4 5 6 
#
# 1 80.5956 17.0422 33.4561 0.0000 0.0000 0.0000
# 2 17.0422 91.8635 20.6284 0.0000 0.0000 0.0000
# 3 33.4561 20.6284 98.0815 0.0000 0.0000 0.0000
# 4 0.0000 0.0000 0.0000 -8.8365 0.0000 0.0000
# 5 0.0000 0.0000 0.0000 0.0000 -3.0130 0.0000
# 6 0.0000 0.0000 0.0000 0.0000 0.0000 35.8321
#
#
#
# Elastic Compliance Matrix: (Units=1/GPa)
#
#
# Indices 1 2 3 4 5 6 
#
# 1 0.014697 -0.001680 -0.004660 0.000000 0.000000 0.000000
# 2 -0.001680 0.011617 -0.001870 0.000000 0.000000 0.000000
# 3 -0.004660 -0.001870 0.012178 0.000000 0.000000 0.000000
# 4 0.000000 0.000000 0.000000 -0.113167 0.000000 0.000000
# 5 0.000000 0.000000 0.000000 0.000000 -0.331893 0.000000
# 6 0.000000 0.000000 0.000000 0.000000 0.000000 0.027908
#
#
# Mechanical properties :
#
#
# Convention : Reuss Voigt Hill
#
# Bulk Modulus (GPa) = 45.30537 45.86599 45.58568
# Shear Modulus (GPa) = -14.08924 18.09079 2.00078
#
# Velocity S-wave (km/s) = -2.63025 2.98046 0.99118
# Velocity P-wave (km/s) = 3.60860 5.86223 4.86763
#
# Compressibility (1/GPa) = 0.02207244
#
# Stress axis : x y z
#
# Youngs Moduli (GPa) = 68.03973 86.07793 82.11203
#
# Poissons Ratio (x) = 0.14463 0.38264
# Poissons Ratio (y) = 0.11432 0.15357
# Poissons Ratio (z) = 0.31706 0.16099
#
# Static dielectric constant tensor:
#      x y z
#    x 3.688050 0.000000 0.000000 
#    y 0.000000 3.842990 0.000000 
#    z 0.000000 0.000000 3.841060 
# 
# 
# High freq. dielectric constant tensor:
#      x y z
#    x 1.788590 0.000000 0.000000 
#    y 0.000000 1.806740 0.000000 
#    z 0.000000 0.000000 1.787470 
# 
# From -- ./inp_files/16230.got.cif
#   From: 2010.03.12/outbox.cif.g09.slc.cpg/sg55_9_cif.got.tgz:16230.got - 2010.04.16 15:19:21.
