data_PCOD8226217
_publ_section_title
;
Structure prediction by ZEFSAII (Michael W. Deem and Ramdas Pophale) SiO2 
 PCOD8226217
Probable space group: P B A M
;
_chemical_formula_sum "Si O2"
_cell_formula_units_Z 64
_cell_length_a 27.578884
_cell_length_b 12.463632
_cell_length_c 9.338952
_cell_angle_alpha 90.000000
_cell_angle_beta 90.000000
_cell_angle_gamma 90.000000
_cell_volume 3210.106559
_symmetry_space_group_name_H-M "P B A M"
_symmetry_group_IT_number 55
_symmetry_cell_setting 'orthorhombic'
loop_
_space_group_symop_operation_xyz
x,y,z
-x,-y,z
1/2+x,1/2-y,-z
1/2-x,1/2+y,-z
-x,-y,-z
x,y,-z
1/2-x,1/2+y,z
1/2+x,1/2-y,z
loop_
_atom_site_type_symbol
_atom_site_label
_atom_site_fract_x
_atom_site_fract_y
_atom_site_fract_z
Si Si1 0.874471 0.036741 0.160867
Si Si2 0.720068 0.154037 0.668398
Si Si3 0.810884 0.231796 0.833457
Si Si4 0.830920 0.825684 0.155803
Si Si5 0.342553 0.057346 0.665942
Si Si6 0.945077 0.539083 0.663146
Si Si7 0.060513 0.252552 0.842556
Si Si8 0.546535 0.432873 0.654192
O O1 0.829039 0.953943 0.185005
O O2 0.916243 0.013156 0.272208
O O3 0.858603 0.159446 0.182016
O O4 0.894628 0.020023 0.000000
O O5 0.730767 0.157597 0.500000
O O6 0.769780 0.160059 0.756402
O O7 0.692676 0.262909 0.713454
O O8 0.686969 0.050940 0.708772
O O9 0.820756 0.346406 0.760071
O O10 0.797539 0.251090 0.000000
O O11 0.887019 0.798262 0.148410
O O12 0.806822 0.797954 0.000000
O O13 0.333135 0.084499 0.500000
O O14 0.400927 0.045093 0.693182
O O15 0.940102 0.579826 0.500000
O O16 0.935885 0.632368 0.773362
O O17 0.000000 0.500000 0.690751
O O18 0.029912 0.170580 0.746046
O O19 0.036896 0.263138 0.000000
O O20 0.500000 0.500000 0.623248
O O21 0.567915 0.394639 0.500000
#
# Coordination Sequence:
#
# PCOD8226217 Si02
#       8
#     8   8   8   8   8   8   8   8
#     4   9  21  40  59  86 120 154 197 247 303 358
#     4  11  23  39  62  90 119 155 203 253 303 362
#     4  11  25  42  62  89 124 165 204 251 311 374
#     4   9  18  35  59  85 113 149 193 246 302 356
#     4  10  23  43  63  91 128 164 208 258 309 371
#     4  10  21  39  63  90 124 166 209 257 312 369
#     4  10  20  35  57  85 117 154 199 252 305 360
#     4  10  21  36  58  87 118 157 203 249 303 363
#
# _framework density 19.937033
#
# number of rings (size 3 to 8) (size 9 to 14) (size 15 to 20)
#    0.000    2.000    1.250    2.250    1.750    6.750 
#    0.000    3.750    0.000    0.000    0.000    0.000 
#    0.000    0.000    0.000    0.000    0.000    0.000 
#
# Total GULP energy -793051.833887 kJ/mol
# GULP energy per Si atom -12391.434904 kJ/mol
# Density = 1.989166 g / cm^3
# Si number density = 19.937033 Si / 1000 Ang^3
#
#
#
# Elastic Constant Matrix: (Units=GPa)
#
#
# Indices 1 2 3 4 5 6 
#
# 1 80.2906 30.1754 38.3384 0.0000 0.0000 0.0000
# 2 30.1754 97.4890 61.5362 0.0000 0.0000 0.0000
# 3 38.3384 61.5362 127.8451 0.0000 0.0000 0.0000
# 4 0.0000 0.0000 0.0000 23.5180 0.0000 0.0000
# 5 0.0000 0.0000 0.0000 0.0000 15.1543 0.0000
# 6 0.0000 0.0000 0.0000 0.0000 0.0000 22.0579
#
#
#
# Elastic Compliance Matrix: (Units=1/GPa)
#
#
# Indices 1 2 3 4 5 6 
#
# 1 0.014977 -0.002587 -0.003246 0.000000 0.000000 0.000000
# 2 -0.002587 0.015181 -0.006531 0.000000 0.000000 0.000000
# 3 -0.003246 -0.006531 0.011939 0.000000 0.000000 0.000000
# 4 0.000000 0.000000 0.000000 0.042521 0.000000 0.000000
# 5 0.000000 0.000000 0.000000 0.000000 0.065988 0.000000
# 6 0.000000 0.000000 0.000000 0.000000 0.000000 0.045335
#
#
# Mechanical properties :
#
#
# Convention : Reuss Voigt Hill
#
# Bulk Modulus (GPa) = 57.57566 62.85830 60.21698
# Shear Modulus (GPa) = 22.07907 23.85103 22.96505
#
# Velocity S-wave (km/s) = 3.33143 3.46254 3.39762
# Velocity P-wave (km/s) = 6.61357 6.89800 6.75728
#
# Compressibility (1/GPa) = 0.01736845
#
# Stress axis : x y z
#
# Youngs Moduli (GPa) = 66.76917 65.87225 83.75743
#
# Poissons Ratio (x) = 0.17039 0.27190
# Poissons Ratio (y) = 0.17271 0.54705
# Poissons Ratio (z) = 0.21675 0.43024
#
# Static dielectric constant tensor:
#      x y z
#    x 3.611640 0.000000 0.000000 
#    y 0.000000 3.898350 0.000000 
#    z 0.000000 0.000000 4.010560 
# 
# 
# High freq. dielectric constant tensor:
#      x y z
#    x 1.763320 0.000000 0.000000 
#    y 0.000000 1.778100 0.000000 
#    z 0.000000 0.000000 1.790650 
# 
# From -- ./inp_files/10717.got.cif
#   From: 2010.03.12/outbox.cif.g09.slc.cpg/sg55_6_cif.got.tgz:10717.got - 2010.04.16 15:19:21.
