data_PCOD8226307
_publ_section_title
;
Structure prediction by ZEFSAII (Michael W. Deem and Ramdas Pophale) SiO2 
 PCOD8226307
Probable space group: P B A M
;
_chemical_formula_sum "Si O2"
_cell_formula_units_Z 48
_cell_length_a 13.101877
_cell_length_b 12.196516
_cell_length_c 15.697200
_cell_angle_alpha 90.000000
_cell_angle_beta 90.000000
_cell_angle_gamma 90.000000
_cell_volume 2508.369431
_symmetry_space_group_name_H-M "P B A M"
_symmetry_group_IT_number 55
_symmetry_cell_setting 'orthorhombic'
loop_
_space_group_symop_operation_xyz
x,y,z
-x,-y,z
1/2+x,1/2-y,-z
1/2-x,1/2+y,-z
-x,-y,-z
x,y,-z
1/2-x,1/2+y,z
1/2+x,1/2-y,z
loop_
_atom_site_type_symbol
_atom_site_label
_atom_site_fract_x
_atom_site_fract_y
_atom_site_fract_z
Si Si1 0.240836 0.854190 0.094220
Si Si2 0.604015 0.948760 0.095482
Si Si3 0.151821 0.407353 0.500000
Si Si4 0.806972 0.192210 0.366396
Si Si5 0.886880 0.039047 0.230000
Si Si6 0.249263 0.170818 0.792570
Si Si7 0.416327 0.158138 0.500000
O O1 0.142554 0.878128 0.153809
O O2 0.302117 0.752583 0.137716
O O3 0.312192 0.957856 0.089328
O O4 0.203251 0.820975 0.000000
O O5 0.640829 0.859870 0.164805
O O6 0.500000 0.000000 0.130904
O O7 0.588109 0.898528 0.000000
O O8 0.215574 0.366069 0.581602
O O9 0.140360 0.539751 0.500000
O O10 0.038844 0.354367 0.500000
O O11 0.873953 0.097312 0.321692
O O12 0.755945 0.268585 0.296610
O O13 0.882321 0.270175 0.419285
O O14 0.815932 0.934498 0.225399
O O15 0.000000 0.000000 0.216200
#
# Coordination Sequence:
#
# PCOD8226307 Si02
#       7
#     8   8   4   8   8   8   4
#     4   9  19  35  54  79 113 154 194 234 284 335
#     4   9  18  34  54  81 112 149 197 239 280 333
#     4  10  22  42  63  89 121 145 198 242 288 358
#     4  10  22  40  61  88 118 151 192 240 297 356
#     4  10  22  37  56  86 117 152 196 238 292 348
#     4  10  20  36  56  82 116 152 186 242 289 339
#     4  10  22  42  65  89 111 159 190 242 300 354
#
# _framework density 19.135937999999999
#
# number of rings (size 3 to 8) (size 9 to 14) (size 15 to 20)
#    0.000    2.333    0.000    1.500    2.333    3.667 
#    9.000    2.500    0.000    0.000    0.000    0.000 
#    0.000    0.000    0.000    0.000    0.000    0.000 
#
# Total GULP energy -594876.554305 kJ/mol
# GULP energy per Si atom -12393.261548 kJ/mol
# Density = 1.909238 g / cm^3
# Si number density = 19.135938 Si / 1000 Ang^3
#
#
#
# Elastic Constant Matrix: (Units=GPa)
#
#
# Indices 1 2 3 4 5 6 
#
# 1 85.8484 24.9704 40.4730 0.0000 0.0000 0.0000
# 2 24.9704 104.5916 56.8841 0.0000 0.0000 0.0000
# 3 40.4730 56.8841 143.6688 0.0000 0.0000 0.0000
# 4 0.0000 0.0000 0.0000 -7.4825 0.0000 0.0000
# 5 0.0000 0.0000 0.0000 0.0000 33.6096 0.0000
# 6 0.0000 0.0000 0.0000 0.0000 0.0000 20.7247
#
#
#
# Elastic Compliance Matrix: (Units=1/GPa)
#
#
# Indices 1 2 3 4 5 6 
#
# 1 0.013611 -0.001484 -0.003247 0.000000 0.000000 0.000000
# 2 -0.001484 0.012347 -0.004471 0.000000 0.000000 0.000000
# 3 -0.003247 -0.004471 0.009645 0.000000 0.000000 0.000000
# 4 0.000000 0.000000 0.000000 -0.133645 0.000000 0.000000
# 5 0.000000 0.000000 0.000000 0.000000 0.029753 0.000000
# 6 0.000000 0.000000 0.000000 0.000000 0.000000 0.048252
#
#
# Mechanical properties :
#
#
# Convention : Reuss Voigt Hill
#
# Bulk Modulus (GPa) = 58.13793 64.30709 61.22251
# Shear Modulus (GPa) = 1220.16899 23.48912 621.82906
#
# Velocity S-wave (km/s) = 25.27877 3.50735 18.04602
# Velocity P-wave (km/s) = 29.70639 7.07675 21.59340
#
# Compressibility (1/GPa) = 0.01720048
#
# Stress axis : x y z
#
# Youngs Moduli (GPa) = 73.47168 80.99405 103.67852
#
# Poissons Ratio (x) = 0.12016 0.33663
# Poissons Ratio (y) = 0.10900 0.46350
# Poissons Ratio (z) = 0.23855 0.36209
#
# Static dielectric constant tensor:
#      x y z
#    x 3.311700 0.000000 0.000000 
#    y 0.000000 3.810290 0.000000 
#    z 0.000000 0.000000 3.886030 
# 
# 
# High freq. dielectric constant tensor:
#      x y z
#    x 1.721920 0.000000 0.000000 
#    y 0.000000 1.764930 0.000000 
#    z 0.000000 0.000000 1.756220 
# 
# From -- ./inp_files/18897.got.cif
#   From: 2010.03.12/outbox.cif.g09.slc.cpg/sg55_10_cif.got.tgz:18897.got - 2010.04.16 15:19:21.
