data_PCOD8226126
_publ_section_title
;
Structure prediction by ZEFSAII (Michael W. Deem and Ramdas Pophale) SiO2 
 PCOD8226126
Probable space group: P B A M
;
_chemical_formula_sum "Si O2"
_cell_formula_units_Z 64
_cell_length_a 18.965098
_cell_length_b 22.922056
_cell_length_c 8.553309
_cell_angle_alpha 90.000000
_cell_angle_beta 90.000000
_cell_angle_gamma 90.000000
_cell_volume 3718.286264
_symmetry_space_group_name_H-M "P B A M"
_symmetry_group_IT_number 55
_symmetry_cell_setting 'orthorhombic'
loop_
_space_group_symop_operation_xyz
x,y,z
-x,-y,z
1/2+x,1/2-y,-z
1/2-x,1/2+y,-z
-x,-y,-z
x,y,-z
1/2-x,1/2+y,z
1/2+x,1/2-y,z
loop_
_atom_site_type_symbol
_atom_site_label
_atom_site_fract_x
_atom_site_fract_y
_atom_site_fract_z
Si Si1 0.636799 0.219132 0.181515
Si Si2 0.145903 0.942636 0.817979
Si Si3 0.007203 0.749639 0.682494
Si Si4 0.653706 0.763098 0.817852
Si Si5 0.503942 0.623892 0.181492
Si Si6 0.129237 0.066026 0.320436
Si Si7 0.766283 0.156272 0.317497
Si Si8 0.282656 0.661842 0.178355
O O1 0.560289 0.213837 0.258578
O O2 0.687764 0.173068 0.265056
O O3 0.664969 0.284331 0.207621
O O4 0.632828 0.203356 0.000000
O O5 0.073317 0.911250 0.769869
O O6 0.211500 0.901645 0.775089
O O7 0.153756 0.001242 0.719259
O O8 0.147180 0.958080 0.000000
O O9 0.017013 0.739771 0.500000
O O10 0.074023 0.722007 0.772046
O O11 0.998803 0.817957 0.716963
O O12 0.678407 0.707351 0.719957
O O13 0.702955 0.818717 0.779791
O O14 0.660624 0.746380 0.000000
O O15 0.436817 0.583276 0.212846
O O16 0.505680 0.642040 0.000000
O O17 0.106474 0.070294 0.500000
O O18 0.195092 0.109008 0.289729
O O19 0.767778 0.143085 0.500000
O O20 0.287884 0.640524 0.000000
#
# Coordination Sequence:
#
# PCOD8226126 Si02
#       8
#     8   8   8   8   8   8   8   8
#     4  10  20  35  55  75 104 141 176 211 261 323
#     4  11  23  38  55  72 101 144 187 218 259 316
#     4  12  22  32  52  81 109 138 174 220 266 309
#     4  10  20  35  54  75 103 140 176 212 263 321
#     4  11  22  36  52  71 103 144 184 217 254 311
#     4  12  24  35  52  76 106 138 179 226 268 305
#     4  11  21  34  53  78 106 133 174 225 267 304
#     4   9  19  35  54  73  99 137 179 215 256 312
#
# _framework density 17.212230999999999
#
# number of rings (size 3 to 8) (size 9 to 14) (size 15 to 20)
#    0.000    1.250    2.500    6.000    0.000    5.500 
#    0.000    0.000    0.000    0.000    0.000    0.875 
#    0.000    7.000    0.000    0.000    0.000    0.000 
#
# Total GULP energy -793978.740619 kJ/mol
# GULP energy per Si atom -12405.917822 kJ/mol
# Density = 1.717305 g / cm^3
# Si number density = 17.212231 Si / 1000 Ang^3
#
#
#
# Elastic Constant Matrix: (Units=GPa)
#
#
# Indices 1 2 3 4 5 6 
#
# 1 106.5895 40.2925 22.2441 0.0000 0.0000 0.0000
# 2 40.2925 62.5476 19.8866 0.0000 0.0000 0.0000
# 3 22.2441 19.8866 64.5113 0.0000 0.0000 0.0000
# 4 0.0000 0.0000 0.0000 24.9796 0.0000 0.0000
# 5 0.0000 0.0000 0.0000 0.0000 25.7950 0.0000
# 6 0.0000 0.0000 0.0000 0.0000 0.0000 20.9099
#
#
#
# Elastic Compliance Matrix: (Units=1/GPa)
#
#
# Indices 1 2 3 4 5 6 
#
# 1 0.012642 -0.007492 -0.002049 0.000000 0.000000 0.000000
# 2 -0.007492 0.022165 -0.004249 0.000000 0.000000 0.000000
# 3 -0.002049 -0.004249 0.017518 0.000000 0.000000 0.000000
# 4 0.000000 0.000000 0.000000 0.040033 0.000000 0.000000
# 5 0.000000 0.000000 0.000000 0.000000 0.038767 0.000000
# 6 0.000000 0.000000 0.000000 0.000000 0.000000 0.047824
#
#
# Mechanical properties :
#
#
# Convention : Reuss Voigt Hill
#
# Bulk Modulus (GPa) = 40.41574 44.27719 42.34647
# Shear Modulus (GPa) = 23.27987 24.41858 23.84922
#
# Velocity S-wave (km/s) = 3.68165 3.77062 3.72640
# Velocity P-wave (km/s) = 6.45016 6.68856 6.57044
#
# Compressibility (1/GPa) = 0.02474283
#
# Stress axis : x y z
#
# Youngs Moduli (GPa) = 79.10425 45.11586 57.08491
#
# Poissons Ratio (x) = 0.33801 0.11699
# Poissons Ratio (y) = 0.59265 0.24258
# Poissons Ratio (z) = 0.16212 0.19172
#
# Static dielectric constant tensor:
#      x y z
#    x 3.339680 0.000000 0.000000 
#    y 0.000000 2.981150 0.000000 
#    z 0.000000 0.000000 3.240720 
# 
# 
# High freq. dielectric constant tensor:
#      x y z
#    x 1.664000 0.000000 0.000000 
#    y 0.000000 1.632180 0.000000 
#    z 0.000000 0.000000 1.678650 
# 
# From -- ./inp_files/7955.got.cif
#   From: 2010.03.12/outbox.cif.g09.slc.cpg/sg55_4_cif.got.tgz:7955.got - 2010.04.16 15:19:21.
