data_PCOD8226795
_publ_section_title
;
Structure prediction by ZEFSAII (Michael W. Deem and Ramdas Pophale) SiO2 
 PCOD8226795
Probable space group: P B A M
;
_chemical_formula_sum "Si O2"
_cell_formula_units_Z 52
_cell_length_a 9.482933
_cell_length_b 21.399375
_cell_length_c 12.905690
_cell_angle_alpha 90.000000
_cell_angle_beta 90.000000
_cell_angle_gamma 90.000000
_cell_volume 2618.936693
_symmetry_space_group_name_H-M "P B A M"
_symmetry_group_IT_number 55
_symmetry_cell_setting 'orthorhombic'
loop_
_space_group_symop_operation_xyz
x,y,z
-x,-y,z
1/2+x,1/2-y,-z
1/2-x,1/2+y,-z
-x,-y,-z
x,y,-z
1/2-x,1/2+y,z
1/2+x,1/2-y,z
loop_
_atom_site_type_symbol
_atom_site_label
_atom_site_fract_x
_atom_site_fract_y
_atom_site_fract_z
Si Si1 0.965568 0.897065 0.884730
Si Si2 0.274652 0.487190 0.884300
Si Si3 0.056425 0.678143 0.281608
Si Si4 0.261951 0.889341 0.500000
Si Si5 0.628164 0.302131 0.721560
Si Si6 0.591876 0.055436 0.300769
Si Si7 0.969825 0.830238 0.500000
Si Si8 0.513421 0.807955 0.500000
O O1 0.963690 0.842564 0.800464
O O2 0.108369 0.934528 0.869668
O O3 0.835529 0.943579 0.868792
O O4 0.959385 0.867368 0.000000
O O5 0.162987 0.478287 0.795607
O O6 0.209141 0.481567 0.000000
O O7 0.209161 0.698409 0.236450
O O8 0.938715 0.732817 0.273850
O O9 0.991440 0.612740 0.242893
O O10 0.086227 0.661243 0.401505
O O11 0.303406 0.924276 0.393259
O O12 0.344109 0.822720 0.500000
O O13 0.092860 0.882179 0.500000
O O14 0.621302 0.332780 0.606188
O O15 0.500000 0.000000 0.351248
O O16 0.049653 0.764635 0.500000
#
# Coordination Sequence:
#
# PCOD8226795 Si02
#       8
#     8   8   8   4   8   8   4   4
#     4   9  19  38  62  86 118 153 193 247 299 356
#     4   9  19  37  64  89 110 154 207 243 290 357
#     4  10  23  35  58  86 119 157 199 245 301 359
#     4  10  21  36  53  90 118 159 197 241 301 360
#     4  11  22  37  58  87 120 153 198 249 299 355
#     4  11  22  38  59  84 124 161 200 248 305 354
#     4  10  21  31  62  82 118 153 199 243 293 353
#     4   8  19  31  53  76 117 150 197 232 282 343
#
# _framework density 19.855387
#
# number of rings (size 3 to 8) (size 9 to 14) (size 15 to 20)
#    0.000    2.154    0.000    3.462   15.077    0.308 
#    0.000    4.615    0.000    5.538    0.000    0.000 
#    0.000    0.000    0.000    0.000    0.000    0.000 
#
# Total GULP energy -644215.476492 kJ/mol
# GULP energy per Si atom -12388.759163 kJ/mol
# Density = 1.981019 g / cm^3
# Si number density = 19.855387 Si / 1000 Ang^3
#
#
#
# Elastic Constant Matrix: (Units=GPa)
#
#
# Indices 1 2 3 4 5 6 
#
# 1 65.4249 14.0540 1.0907 0.0000 0.0000 0.0000
# 2 14.0540 81.1496 23.7641 0.0000 0.0000 0.0000
# 3 1.0907 23.7641 82.8948 0.0000 0.0000 0.0000
# 4 0.0000 0.0000 0.0000 15.3510 0.0000 0.0000
# 5 0.0000 0.0000 0.0000 0.0000 19.0821 0.0000
# 6 0.0000 0.0000 0.0000 0.0000 0.0000 15.7765
#
#
#
# Elastic Compliance Matrix: (Units=1/GPa)
#
#
# Indices 1 2 3 4 5 6 
#
# 1 0.015906 -0.002940 0.000634 0.000000 0.000000 0.000000
# 2 -0.002940 0.013996 -0.003974 0.000000 0.000000 0.000000
# 3 0.000634 -0.003974 0.013194 0.000000 0.000000 0.000000
# 4 0.000000 0.000000 0.000000 0.065142 0.000000 0.000000
# 5 0.000000 0.000000 0.000000 0.000000 0.052405 0.000000
# 6 0.000000 0.000000 0.000000 0.000000 0.000000 0.063386
#
#
# Mechanical properties :
#
#
# Convention : Reuss Voigt Hill
#
# Bulk Modulus (GPa) = 32.74886 34.14298 33.44592
# Shear Modulus (GPa) = 20.26198 22.74596 21.50397
#
# Velocity S-wave (km/s) = 3.19796 3.38832 3.29451
# Velocity P-wave (km/s) = 5.49230 5.70445 5.59938
#
# Compressibility (1/GPa) = 0.03053542
#
# Stress axis : x y z
#
# Youngs Moduli (GPa) = 62.87046 71.45025 75.79039
#
# Poissons Ratio (x) = 0.21008 -0.04802
# Poissons Ratio (y) = 0.18485 0.30116
# Poissons Ratio (z) = -0.03984 0.28391
#
# Static dielectric constant tensor:
#      x y z
#    x 3.517170 0.000000 0.000000 
#    y 0.000000 3.505780 0.000000 
#    z 0.000000 0.000000 3.716320 
# 
# 
# High freq. dielectric constant tensor:
#      x y z
#    x 1.767030 0.000000 0.000000 
#    y 0.000000 1.766300 0.000000 
#    z 0.000000 0.000000 1.768350 
# 
# From -- ./inp_files/17586.got.cif
#   From: 2010.03.12/outbox.cif.g09.slc.cpg/sg55_9_cif.got.tgz:17586.got - 2010.04.16 15:19:21.
