data_PCOD8226960
_publ_section_title
;
Structure prediction by ZEFSAII (Michael W. Deem and Ramdas Pophale) SiO2 
 PCOD8226960
Probable space group: P B A M
;
_chemical_formula_sum "Si O2"
_cell_formula_units_Z 64
_cell_length_a 12.549136
_cell_length_b 28.157744
_cell_length_c 8.973371
_cell_angle_alpha 90.000000
_cell_angle_beta 90.000000
_cell_angle_gamma 90.000000
_cell_volume 3170.788730
_symmetry_space_group_name_H-M "P B A M"
_symmetry_group_IT_number 55
_symmetry_cell_setting 'orthorhombic'
loop_
_space_group_symop_operation_xyz
x,y,z
-x,-y,z
1/2+x,1/2-y,-z
1/2-x,1/2+y,-z
-x,-y,-z
x,y,-z
1/2-x,1/2+y,z
1/2+x,1/2-y,z
loop_
_atom_site_type_symbol
_atom_site_label
_atom_site_fract_x
_atom_site_fract_y
_atom_site_fract_z
Si Si1 0.184369 0.167172 0.332647
Si Si2 0.184697 0.920149 0.172987
Si Si3 0.248184 0.024984 0.826539
Si Si4 0.181702 0.741195 0.174260
Si Si5 0.487117 0.827250 0.825211
Si Si6 0.766648 0.672094 0.323689
Si Si7 0.558141 0.407077 0.827521
Si Si8 0.882550 0.402966 0.332475
O O1 0.158211 0.184171 0.500000
O O2 0.215730 0.212389 0.233706
O O3 0.081522 0.141148 0.263658
O O4 0.280328 0.130310 0.330597
O O5 0.239585 0.881065 0.275074
O O6 0.059965 0.924516 0.210002
O O7 0.239430 0.969846 0.214570
O O8 0.202443 0.907234 0.000000
O O9 0.137840 0.050657 0.780926
O O10 0.348751 0.046586 0.737851
O O11 0.270558 0.032743 0.000000
O O12 0.178154 0.791910 0.257226
O O13 0.073200 0.713444 0.211137
O O14 0.196422 0.749543 0.000000
O O15 0.380414 0.812187 0.741370
O O16 0.525328 0.878521 0.765137
O O17 0.465772 0.832086 0.000000
O O18 0.768025 0.675749 0.500000
O O19 0.572173 0.394196 0.000000
O O20 0.925057 0.410851 0.500000
#
# Coordination Sequence:
#
# PCOD8226960 Si02
#       8
#     8   8   8   8   8   8   8   8
#     4   9  17  30  51  82 116 146 179 223 274 328
#     4  10  21  37  55  77 111 152 193 236 278 326
#     4   9  17  32  56  84 112 147 191 234 277 326
#     4  10  21  39  63  86 108 141 185 229 273 326
#     4  10  21  40  65  87 110 143 184 229 275 326
#     4  12  26  41  58  82 115 150 183 226 279 333
#     4   9  17  31  54  83 114 149 189 232 278 328
#     4   9  17  31  54  84 115 144 178 224 277 330
#
# _framework density 20.184252999999998
#
# number of rings (size 3 to 8) (size 9 to 14) (size 15 to 20)
#    0.000    2.250    0.000    3.000    0.000    8.000 
#    0.000    1.875    0.000    7.500    0.000    0.000 
#    0.000    0.000    0.000    0.000    0.000    0.000 
#
# Total GULP energy -793768.538006 kJ/mol
# GULP energy per Si atom -12402.633406 kJ/mol
# Density = 2.013831 g / cm^3
# Si number density = 20.184253 Si / 1000 Ang^3
#
#
#
# Elastic Constant Matrix: (Units=GPa)
#
#
# Indices 1 2 3 4 5 6 
#
# 1 53.8533 38.7409 46.0871 0.0000 0.0000 0.0000
# 2 38.7409 114.3448 59.3095 0.0000 0.0000 0.0000
# 3 46.0871 59.3095 127.7159 0.0000 0.0000 0.0000
# 4 0.0000 0.0000 0.0000 27.9027 0.0000 0.0000
# 5 0.0000 0.0000 0.0000 0.0000 25.7926 0.0000
# 6 0.0000 0.0000 0.0000 0.0000 0.0000 24.7461
#
#
#
# Elastic Compliance Matrix: (Units=1/GPa)
#
#
# Indices 1 2 3 4 5 6 
#
# 1 0.029622 -0.005917 -0.007941 0.000000 0.000000 0.000000
# 2 -0.005917 0.012702 -0.003764 0.000000 0.000000 0.000000
# 3 -0.007941 -0.003764 0.012443 0.000000 0.000000 0.000000
# 4 0.000000 0.000000 0.000000 0.035839 0.000000 0.000000
# 5 0.000000 0.000000 0.000000 0.000000 0.038771 0.000000
# 6 0.000000 0.000000 0.000000 0.000000 0.000000 0.040410
#
#
# Mechanical properties :
#
#
# Convention : Reuss Voigt Hill
#
# Bulk Modulus (GPa) = 51.22050 64.90986 58.06518
# Shear Modulus (GPa) = 23.63628 25.80671 24.72150
#
# Velocity S-wave (km/s) = 3.42574 3.57957 3.50350
# Velocity P-wave (km/s) = 6.40930 7.02231 6.72280
#
# Compressibility (1/GPa) = 0.01952343
#
# Stress axis : x y z
#
# Youngs Moduli (GPa) = 33.75907 78.72572 80.36405
#
# Poissons Ratio (x) = 0.46581 0.63821
# Poissons Ratio (y) = 0.19975 0.30246
# Poissons Ratio (z) = 0.26810 0.29629
#
# Static dielectric constant tensor:
#      x y z
#    x 3.522010 0.000000 0.000000 
#    y 0.000000 3.670900 0.000000 
#    z 0.000000 0.000000 3.697110 
# 
# 
# High freq. dielectric constant tensor:
#      x y z
#    x 1.772140 0.000000 0.000000 
#    y 0.000000 1.786540 0.000000 
#    z 0.000000 0.000000 1.788730 
# 
# From -- ./inp_files/4696.got.cif
#   From: 2010.03.12/outbox.cif.g09.slc.cpg/sg55_3_cif.got.tgz:4696.got - 2010.04.16 15:19:21.
