data_PCOD8226850
_publ_section_title
;
Structure prediction by ZEFSAII (Michael W. Deem and Ramdas Pophale) SiO2 
 PCOD8226850
Probable space group: P B A M
;
_chemical_formula_sum "Si O2"
_cell_formula_units_Z 48
_cell_length_a 14.716240
_cell_length_b 8.338145
_cell_length_c 16.136666
_cell_angle_alpha 90.000000
_cell_angle_beta 90.000000
_cell_angle_gamma 90.000000
_cell_volume 1980.068045
_symmetry_space_group_name_H-M "P B A M"
_symmetry_group_IT_number 55
_symmetry_cell_setting 'orthorhombic'
loop_
_space_group_symop_operation_xyz
x,y,z
-x,-y,z
1/2+x,1/2-y,-z
1/2-x,1/2+y,-z
-x,-y,-z
x,y,-z
1/2-x,1/2+y,z
1/2+x,1/2-y,z
loop_
_atom_site_type_symbol
_atom_site_label
_atom_site_fract_x
_atom_site_fract_y
_atom_site_fract_z
Si Si1 0.642551 0.516084 0.842245
Si Si2 0.197082 0.114852 0.334537
Si Si3 0.762391 0.906851 0.000000
Si Si4 0.396183 0.893350 0.000000
Si Si5 0.357385 0.299651 0.405670
Si Si6 0.028258 0.329646 0.332234
Si Si7 0.498096 0.761755 0.150476
O O1 0.690289 0.472613 0.754840
O O2 0.712881 0.504017 0.916824
O O3 0.561121 0.396558 0.857371
O O4 0.603021 0.698633 0.847520
O O5 0.298026 0.180869 0.348176
O O6 0.129592 0.265806 0.350123
O O7 0.177347 0.981576 0.403581
O O8 0.651344 0.928452 0.000000
O O9 0.810732 0.733250 0.000000
O O10 0.465495 0.877551 0.076819
O O11 0.356244 0.238864 0.500000
O O12 0.458696 0.302036 0.367761
O O13 0.020775 0.355316 0.234419
O O14 0.000000 0.500000 0.374448
#
# Coordination Sequence:
#
# PCOD8226850 Si02
#       7
#     8   8   4   4   8   8   8
#     4   9  18  37  67  89 126 176 230 275 335 409
#     4  11  24  44  71 101 138 181 227 284 351 424
#     4  10  21  35  57  96 127 170 217 275 330 387
#     4  10  21  37  60  91 136 177 229 284 340 406
#     4  12  26  44  70 102 134 173 226 289 358 427
#     4  11  24  44  68  98 136 182 229 281 344 420
#     4   9  18  39  62  89 123 177 228 275 334 401
#
# _framework density 24.241592000000001
#
# number of rings (size 3 to 8) (size 9 to 14) (size 15 to 20)
#    0.000    1.667    1.667    2.500    0.000    9.667 
#    3.000    0.417    0.000    0.000    0.000    0.000 
#    0.000    0.000    0.000    0.000    0.000    0.000 
#
# Total GULP energy -594872.951018 kJ/mol
# GULP energy per Si atom -12393.186480 kJ/mol
# Density = 2.418642 g / cm^3
# Si number density = 24.241592 Si / 1000 Ang^3
#
#
#
# Elastic Constant Matrix: (Units=GPa)
#
#
# Indices 1 2 3 4 5 6 
#
# 1 71.6046 11.5102 53.3770 0.0000 0.0000 0.0000
# 2 11.5102 66.9862 13.4233 0.0000 0.0000 0.0000
# 3 53.3770 13.4233 133.6984 0.0000 0.0000 0.0000
# 4 0.0000 0.0000 0.0000 19.6521 0.0000 0.0000
# 5 0.0000 0.0000 0.0000 0.0000 7.8287 0.0000
# 6 0.0000 0.0000 0.0000 0.0000 0.0000 41.4773
#
#
#
# Elastic Compliance Matrix: (Units=1/GPa)
#
#
# Indices 1 2 3 4 5 6 
#
# 1 0.020113 -0.001885 -0.007841 0.000000 0.000000 0.000000
# 2 -0.001885 0.015412 -0.000795 0.000000 0.000000 0.000000
# 3 -0.007841 -0.000795 0.010690 0.000000 0.000000 0.000000
# 4 0.000000 0.000000 0.000000 0.050885 0.000000 0.000000
# 5 0.000000 0.000000 0.000000 0.000000 0.127736 0.000000
# 6 0.000000 0.000000 0.000000 0.000000 0.000000 0.024110
#
#
# Mechanical properties :
#
#
# Convention : Reuss Voigt Hill
#
# Bulk Modulus (GPa) = 39.72390 47.65671 43.69031
# Shear Modulus (GPa) = 17.96126 26.72354 22.34240
#
# Velocity S-wave (km/s) = 2.72495 3.32382 3.03917
# Velocity P-wave (km/s) = 5.13057 5.86789 5.51157
#
# Compressibility (1/GPa) = 0.02517376
#
# Stress axis : x y z
#
# Youngs Moduli (GPa) = 49.71821 64.88625 93.54883
#
# Poissons Ratio (x) = 0.12230 0.73349
# Poissons Ratio (y) = 0.09371 0.07435
# Poissons Ratio (z) = 0.38983 0.05157
#
# Static dielectric constant tensor:
#      x y z
#    x 3.703890 0.000000 0.000000 
#    y 0.000000 4.161640 0.000000 
#    z 0.000000 0.000000 4.226950 
# 
# 
# High freq. dielectric constant tensor:
#      x y z
#    x 1.962180 0.000000 0.000000 
#    y 0.000000 1.965350 0.000000 
#    z 0.000000 0.000000 1.954940 
# 
# From -- ./inp_files/21546.got.cif
#   From: 2010.03.12/outbox.cif.g09.slc.cpg/sg55_11_cif.got.tgz:21546.got - 2010.04.16 15:19:21.
