data_PCOD8226278
_publ_section_title
;
Structure prediction by ZEFSAII (Michael W. Deem and Ramdas Pophale) SiO2 
 PCOD8226278
Probable space group: P B A M
;
_chemical_formula_sum "Si O2"
_cell_formula_units_Z 64
_cell_length_a 15.455104
_cell_length_b 23.969970
_cell_length_c 8.453658
_cell_angle_alpha 90.000000
_cell_angle_beta 90.000000
_cell_angle_gamma 90.000000
_cell_volume 3131.728441
_symmetry_space_group_name_H-M "P B A M"
_symmetry_group_IT_number 55
_symmetry_cell_setting 'orthorhombic'
loop_
_space_group_symop_operation_xyz
x,y,z
-x,-y,z
1/2+x,1/2-y,-z
1/2-x,1/2+y,-z
-x,-y,-z
x,y,-z
1/2-x,1/2+y,z
1/2+x,1/2-y,z
loop_
_atom_site_type_symbol
_atom_site_label
_atom_site_fract_x
_atom_site_fract_y
_atom_site_fract_z
Si Si1 0.758493 0.428627 0.687548
Si Si2 0.096030 0.869986 0.686234
Si Si3 0.094352 0.369292 0.315709
Si Si4 0.086646 0.642803 0.183326
Si Si5 0.840639 0.249120 0.685255
Si Si6 0.905378 0.856642 0.314110
Si Si7 0.844503 0.745111 0.817596
Si Si8 0.251390 0.445237 0.688196
O O1 0.770908 0.425715 0.500000
O O2 0.840557 0.401137 0.769254
O O3 0.670996 0.397501 0.740815
O O4 0.751873 0.491716 0.750932
O O5 0.108587 0.869196 0.500000
O O6 0.118625 0.808236 0.749756
O O7 0.162438 0.915327 0.758709
O O8 0.997171 0.885494 0.729973
O O9 0.076852 0.378479 0.500000
O O10 0.126800 0.306586 0.288926
O O11 0.167181 0.411904 0.252199
O O12 0.006786 0.383240 0.221809
O O13 0.093938 0.700320 0.280937
O O14 0.094333 0.656866 0.000000
O O15 0.819414 0.246554 0.500000
O O16 0.753463 0.262173 0.779842
O O17 0.899256 0.843834 0.500000
O O18 0.903043 0.798361 0.222123
O O19 0.856044 0.728854 0.000000
O O20 0.255162 0.444754 0.500000
#
# Coordination Sequence:
#
# PCOD8226278 Si02
#       8
#     8   8   8   8   8   8   8   8
#     4  10  21  38  61  87 117 158 205 249 296 351
#     4   9  18  34  59  91 119 148 191 246 292 342
#     4  11  22  40  64  87 117 157 202 249 300 361
#     4  12  25  40  59  88 124 157 196 248 305 360
#     4  11  20  36  62  88 119 158 200 240 294 360
#     4  10  20  35  60  90 121 158 199 239 293 356
#     4  12  23  36  58  89 125 157 194 244 302 358
#     4   9  19  37  61  88 116 151 203 258 296 340
#
# _framework density 20.436
#
# number of rings (size 3 to 8) (size 9 to 14) (size 15 to 20)
#    0.000    1.500    2.500    3.750    0.000    2.000 
#    0.000    6.875    0.000    0.000    0.000    1.750 
#    0.000    0.000    0.000    0.000    0.000    0.000 
#
# Total GULP energy -793818.237960 kJ/mol
# GULP energy per Si atom -12403.409968 kJ/mol
# Density = 2.038949 g / cm^3
# Si number density = 20.436000 Si / 1000 Ang^3
#
#
#
# Elastic Constant Matrix: (Units=GPa)
#
#
# Indices 1 2 3 4 5 6 
#
# 1 148.4484 64.4936 20.2324 0.0000 0.0000 0.0000
# 2 64.4936 147.4182 17.6967 0.0000 0.0000 0.0000
# 3 20.2324 17.6967 42.6693 0.0000 0.0000 0.0000
# 4 0.0000 0.0000 0.0000 4.7455 0.0000 0.0000
# 5 0.0000 0.0000 0.0000 0.0000 9.6294 0.0000
# 6 0.0000 0.0000 0.0000 0.0000 0.0000 15.8264
#
#
#
# Elastic Compliance Matrix: (Units=1/GPa)
#
#
# Indices 1 2 3 4 5 6 
#
# 1 0.008592 -0.003441 -0.002647 0.000000 0.000000 0.000000
# 2 -0.003441 0.008517 -0.001901 0.000000 0.000000 0.000000
# 3 -0.002647 -0.001901 0.025479 0.000000 0.000000 0.000000
# 4 0.000000 0.000000 0.000000 0.210725 0.000000 0.000000
# 5 0.000000 0.000000 0.000000 0.000000 0.103849 0.000000
# 6 0.000000 0.000000 0.000000 0.000000 0.000000 0.063185
#
#
# Mechanical properties :
#
#
# Convention : Reuss Voigt Hill
#
# Bulk Modulus (GPa) = 37.57837 60.37568 48.97702
# Shear Modulus (GPa) = 11.23100 21.78115 16.50608
#
# Velocity S-wave (km/s) = 2.34683 3.26824 2.84508
# Velocity P-wave (km/s) = 5.07659 6.62191 5.90006
#
# Compressibility (1/GPa) = 0.02661105
#
# Stress axis : x y z
#
# Youngs Moduli (GPa) = 116.38550 117.41126 39.24743
#
# Poissons Ratio (x) = 0.40404 0.10388
# Poissons Ratio (y) = 0.40051 0.07460
# Poissons Ratio (z) = 0.30806 0.22316
#
# Static dielectric constant tensor:
#      x y z
#    x 3.923580 0.000000 0.000000 
#    y 0.000000 3.776640 0.000000 
#    z 0.000000 0.000000 3.351420 
# 
# 
# High freq. dielectric constant tensor:
#      x y z
#    x 1.815610 0.000000 0.000000 
#    y 0.000000 1.794580 0.000000 
#    z 0.000000 0.000000 1.767800 
# 
# From -- ./inp_files/6719.got.cif
#   From: 2010.03.12/outbox.cif.g09.slc.cpg/sg55_4_cif.got.tgz:6719.got - 2010.04.16 15:19:21.
