data_PCOD8226571
_publ_section_title
;
Structure prediction by ZEFSAII (Michael W. Deem and Ramdas Pophale) SiO2 
 PCOD8226571
Probable space group: P B A M
;
_chemical_formula_sum "Si O2"
_cell_formula_units_Z 64
_cell_length_a 19.624483
_cell_length_b 18.332268
_cell_length_c 8.940165
_cell_angle_alpha 90.000000
_cell_angle_beta 90.000000
_cell_angle_gamma 90.000000
_cell_volume 3216.325219
_symmetry_space_group_name_H-M "P B A M"
_symmetry_group_IT_number 55
_symmetry_cell_setting 'orthorhombic'
loop_
_space_group_symop_operation_xyz
x,y,z
-x,-y,z
1/2+x,1/2-y,-z
1/2-x,1/2+y,-z
-x,-y,-z
x,y,-z
1/2-x,1/2+y,z
1/2+x,1/2-y,z
loop_
_atom_site_type_symbol
_atom_site_label
_atom_site_fract_x
_atom_site_fract_y
_atom_site_fract_z
Si Si1 0.444071 0.056308 0.822866
Si Si2 0.628659 0.243093 0.176740
Si Si3 0.128124 0.838152 0.177069
Si Si4 0.523571 0.783346 0.177518
Si Si5 0.767830 0.641327 0.326636
Si Si6 0.305858 0.021595 0.669938
Si Si7 0.324898 0.612385 0.326826
Si Si8 0.578542 0.518364 0.671079
O O1 0.459311 0.136660 0.756789
O O2 0.369270 0.030171 0.778716
O O3 0.500000 0.000000 0.757874
O O4 0.448358 0.057840 0.000000
O O5 0.550705 0.242096 0.233151
O O6 0.665326 0.174230 0.250729
O O7 0.664703 0.317289 0.225624
O O8 0.633710 0.234783 0.000000
O O9 0.078931 0.774150 0.237387
O O10 0.201089 0.824694 0.251241
O O11 0.095850 0.914840 0.222505
O O12 0.136528 0.835592 0.000000
O O13 0.525190 0.785594 0.000000
O O14 0.767320 0.662435 0.500000
O O15 0.767882 0.554730 0.300648
O O16 0.332370 0.025318 0.500000
O O17 0.251625 0.084969 0.702755
O O18 0.336183 0.632709 0.500000
O O19 0.378649 0.551336 0.275696
O O20 0.500000 0.500000 0.688488
O O21 0.597854 0.538735 0.500000
#
# Coordination Sequence:
#
# PCOD8226571 Si02
#       8
#     8   8   8   8   8   8   8   8
#     4  10  21  39  64  89 118 157 200 250 308 364
#     4  11  23  40  63  90 120 156 200 249 304 363
#     4  11  22  37  59  88 122 160 203 252 304 360
#     4   9  21  40  59  87 125 156 194 251 308 365
#     4  11  23  42  63  86 122 163 203 250 304 364
#     4  10  22  40  61  86 120 157 199 251 298 353
#     4  10  21  39  58  86 124 159 197 244 298 354
#     4  10  20  37  61  86 118 160 202 243 294 358
#
# _framework density 19.898485999999998
#
# number of rings (size 3 to 8) (size 9 to 14) (size 15 to 20)
#    0.000    1.750    1.250    2.625    1.750    3.500 
#    0.000    3.750    0.000    0.000    0.000    0.000 
#    0.000    0.000    0.000    0.000    0.000    0.000 
#
# Total GULP energy -793940.560371 kJ/mol
# GULP energy per Si atom -12405.321256 kJ/mol
# Density = 1.985320 g / cm^3
# Si number density = 19.898486 Si / 1000 Ang^3
#
#
#
# Elastic Constant Matrix: (Units=GPa)
#
#
# Indices 1 2 3 4 5 6 
#
# 1 117.8167 34.1609 32.2170 0.0000 0.0000 0.0000
# 2 34.1609 91.0820 31.5935 0.0000 0.0000 0.0000
# 3 32.2170 31.5935 62.1617 0.0000 0.0000 0.0000
# 4 0.0000 0.0000 0.0000 32.0711 0.0000 0.0000
# 5 0.0000 0.0000 0.0000 0.0000 26.9189 0.0000
# 6 0.0000 0.0000 0.0000 0.0000 0.0000 38.0311
#
#
#
# Elastic Compliance Matrix: (Units=1/GPa)
#
#
# Indices 1 2 3 4 5 6 
#
# 1 0.010320 -0.002447 -0.004105 0.000000 0.000000 0.000000
# 2 -0.002447 0.013909 -0.005801 0.000000 0.000000 0.000000
# 3 -0.004105 -0.005801 0.021163 0.000000 0.000000 0.000000
# 4 0.000000 0.000000 0.000000 0.031181 0.000000 0.000000
# 5 0.000000 0.000000 0.000000 0.000000 0.037149 0.000000
# 6 0.000000 0.000000 0.000000 0.000000 0.000000 0.026294
#
#
# Mechanical properties :
#
#
# Convention : Reuss Voigt Hill
#
# Bulk Modulus (GPa) = 48.34145 51.88924 50.11535
# Shear Modulus (GPa) = 29.13479 30.94348 30.03914
#
# Velocity S-wave (km/s) = 3.83060 3.94771 3.88960
# Velocity P-wave (km/s) = 6.62657 6.84929 6.73885
#
# Compressibility (1/GPa) = 0.02068618
#
# Stress axis : x y z
#
# Youngs Moduli (GPa) = 96.90246 71.89604 47.25221
#
# Poissons Ratio (x) = 0.17590 0.19397
# Poissons Ratio (y) = 0.23708 0.27412
# Poissons Ratio (z) = 0.39778 0.41708
#
# Static dielectric constant tensor:
#      x y z
#    x 3.753480 0.000000 0.000000 
#    y 0.000000 3.749650 0.000000 
#    z 0.000000 0.000000 3.432910 
# 
# 
# High freq. dielectric constant tensor:
#      x y z
#    x 1.792080 0.000000 0.000000 
#    y 0.000000 1.786000 0.000000 
#    z 0.000000 0.000000 1.759440 
# 
# From -- ./inp_files/8971.got.cif
#   From: 2010.03.12/outbox.cif.g09.slc.cpg/sg55_5_cif.got.tgz:8971.got - 2010.04.16 15:19:21.
