data_PCOD8226076
_publ_section_title
;
Structure prediction by ZEFSAII (Michael W. Deem and Ramdas Pophale) SiO2 
 PCOD8226076
Probable space group: P B A M
;
_chemical_formula_sum "Si O2"
_cell_formula_units_Z 64
_cell_length_a 22.692882
_cell_length_b 15.326814
_cell_length_c 9.258314
_cell_angle_alpha 90.000000
_cell_angle_beta 90.000000
_cell_angle_gamma 90.000000
_cell_volume 3220.130318
_symmetry_space_group_name_H-M "P B A M"
_symmetry_group_IT_number 55
_symmetry_cell_setting 'orthorhombic'
loop_
_space_group_symop_operation_xyz
x,y,z
-x,-y,z
1/2+x,1/2-y,-z
1/2-x,1/2+y,-z
-x,-y,-z
x,y,-z
1/2-x,1/2+y,z
1/2+x,1/2-y,z
loop_
_atom_site_type_symbol
_atom_site_label
_atom_site_fract_x
_atom_site_fract_y
_atom_site_fract_z
Si Si1 0.433734 0.469227 0.664447
Si Si2 0.625493 0.666877 0.161261
Si Si3 0.928396 0.664629 0.164758
Si Si4 0.440141 0.157350 0.159023
Si Si5 0.814192 0.934713 0.333257
Si Si6 0.929791 0.500616 0.339784
Si Si7 0.736801 0.620514 0.329640
Si Si8 0.314551 0.741871 0.168169
O O1 0.500000 0.500000 0.687671
O O2 0.424443 0.436439 0.500000
O O3 0.427717 0.391408 0.778495
O O4 0.382690 0.540629 0.698750
O O5 0.604569 0.764649 0.152705
O O6 0.677088 0.665379 0.277338
O O7 0.644422 0.635144 0.000000
O O8 0.904178 0.584723 0.260138
O O9 0.885316 0.747361 0.186378
O O10 0.994998 0.689097 0.213014
O O11 0.926428 0.633143 0.000000
O O12 0.409162 0.087295 0.262145
O O13 0.447554 0.115447 0.000000
O O14 0.806484 0.909098 0.500000
O O15 0.795774 0.849897 0.240037
O O16 0.770436 0.016344 0.294615
O O17 0.903351 0.501093 0.500000
O O18 0.000000 0.500000 0.337387
O O19 0.745392 0.635116 0.500000
O O20 0.787669 0.671284 0.242993
O O21 0.295418 0.739950 0.000000
#
# Coordination Sequence:
#
# PCOD8226076 Si02
#       8
#     8   8   8   8   8   8   8   8
#     4   9  19  35  55  83 120 159 194 230 283 347
#     4  10  20  34  56  84 112 147 191 236 284 340
#     4   9  19  35  53  78 114 151 183 224 285 342
#     4   9  18  33  53  78 114 152 184 223 279 343
#     4   9  20  39  61  85 115 155 195 238 294 348
#     4   9  17  30  49  75 105 141 185 227 268 319
#     4  10  22  43  64  81 113 153 195 241 291 349
#     4  11  23  38  62  91 118 150 194 246 294 347
#
# _framework density 19.874972
#
# number of rings (size 3 to 8) (size 9 to 14) (size 15 to 20)
#    0.000    2.500    0.000    2.250    1.750    6.250 
#    2.250    0.000    0.000    0.000    0.000    0.000 
#    0.000    0.000    0.000    0.000    0.000    0.000 
#
# Total GULP energy -793143.268117 kJ/mol
# GULP energy per Si atom -12392.863564 kJ/mol
# Density = 1.982974 g / cm^3
# Si number density = 19.874972 Si / 1000 Ang^3
#
#
#
# Elastic Constant Matrix: (Units=GPa)
#
#
# Indices 1 2 3 4 5 6 
#
# 1 38.4826 22.5774 16.3621 0.0000 0.0000 0.0000
# 2 22.5774 102.8475 57.9860 0.0000 0.0000 0.0000
# 3 16.3621 57.9860 107.0237 0.0000 0.0000 0.0000
# 4 0.0000 0.0000 0.0000 35.0063 0.0000 0.0000
# 5 0.0000 0.0000 0.0000 0.0000 24.7621 0.0000
# 6 0.0000 0.0000 0.0000 0.0000 0.0000 22.4265
#
#
#
# Elastic Compliance Matrix: (Units=1/GPa)
#
#
# Indices 1 2 3 4 5 6 
#
# 1 0.029986 -0.005756 -0.001466 0.000000 0.000000 0.000000
# 2 -0.005756 0.015105 -0.007304 0.000000 0.000000 0.000000
# 3 -0.001466 -0.007304 0.013525 0.000000 0.000000 0.000000
# 4 0.000000 0.000000 0.000000 0.028566 0.000000 0.000000
# 5 0.000000 0.000000 0.000000 0.000000 0.040384 0.000000
# 6 0.000000 0.000000 0.000000 0.000000 0.000000 0.044590
#
#
# Mechanical properties :
#
#
# Convention : Reuss Voigt Hill
#
# Bulk Modulus (GPa) = 33.82434 49.13385 41.47910
# Shear Modulus (GPa) = 23.68966 26.53420 25.11193
#
# Velocity S-wave (km/s) = 3.45619 3.65781 3.55842
# Velocity P-wave (km/s) = 5.74304 6.52798 6.14805
#
# Compressibility (1/GPa) = 0.02956451
#
# Stress axis : x y z
#
# Youngs Moduli (GPa) = 33.34877 66.20469 73.93719
#
# Poissons Ratio (x) = 0.38110 0.10836
# Poissons Ratio (y) = 0.19197 0.54002
# Poissons Ratio (z) = 0.04887 0.48354
#
# Static dielectric constant tensor:
#      x y z
#    x 3.501410 0.000000 0.000000 
#    y 0.000000 3.504360 0.000000 
#    z 0.000000 0.000000 3.931280 
# 
# 
# High freq. dielectric constant tensor:
#      x y z
#    x 1.760740 0.000000 0.000000 
#    y 0.000000 1.765080 0.000000 
#    z 0.000000 0.000000 1.782810 
# 
# From -- ./inp_files/9826.got.cif
#   From: 2010.03.12/outbox.cif.g09.slc.cpg/sg55_5_cif.got.tgz:9826.got - 2010.04.16 15:19:21.
