data_PCOD8226961
_publ_section_title
;
Structure prediction by ZEFSAII (Michael W. Deem and Ramdas Pophale) SiO2 
 PCOD8226961
Probable space group: P B A M
;
_chemical_formula_sum "Si O2"
_cell_formula_units_Z 64
_cell_length_a 29.002553
_cell_length_b 12.587194
_cell_length_c 9.036545
_cell_angle_alpha 90.000000
_cell_angle_beta 90.000000
_cell_angle_gamma 90.000000
_cell_volume 3298.887995
_symmetry_space_group_name_H-M "P B A M"
_symmetry_group_IT_number 55
_symmetry_cell_setting 'orthorhombic'
loop_
_space_group_symop_operation_xyz
x,y,z
-x,-y,z
1/2+x,1/2-y,-z
1/2-x,1/2+y,-z
-x,-y,-z
x,y,-z
1/2-x,1/2+y,z
1/2+x,1/2-y,z
loop_
_atom_site_type_symbol
_atom_site_label
_atom_site_fract_x
_atom_site_fract_y
_atom_site_fract_z
Si Si1 0.860328 0.503278 0.676703
Si Si2 0.255933 0.974857 0.671973
Si Si3 0.444340 0.616831 0.669686
Si Si4 0.793930 0.858307 0.161498
Si Si5 0.947334 0.124344 0.330505
Si Si6 0.384198 0.210083 0.174871
Si Si7 0.285975 0.292810 0.837823
Si Si8 0.621097 0.221004 0.824894
O O1 0.864469 0.504493 0.500000
O O2 0.807055 0.497064 0.731750
O O3 0.887930 0.402487 0.741353
O O4 0.884139 0.609378 0.740607
O O5 0.256550 0.989291 0.500000
O O6 0.242968 0.856526 0.717037
O O7 0.212397 0.041868 0.732184
O O8 0.429884 0.638556 0.500000
O O9 0.431390 0.495239 0.712972
O O10 0.498315 0.634828 0.690500
O O11 0.419050 0.698534 0.777675
O O12 0.742240 0.815111 0.146487
O O13 0.830239 0.773088 0.224604
O O14 0.811755 0.895993 0.000000
O O15 0.933385 0.147607 0.500000
O O16 0.924708 0.211554 0.224515
O O17 0.336705 0.267163 0.220874
O O18 0.387030 0.189540 0.000000
O O19 0.287738 0.349682 0.000000
O O20 0.618800 0.200159 0.000000
#
# Coordination Sequence:
#
# PCOD8226961 Si02
#       8
#     8   8   8   8   8   8   8   8
#     4  11  23  39  58  82 117 158 198 242 292 343
#     4  11  23  35  53  80 111 150 197 247 286 328
#     4   9  20  41  66  90 119 153 187 232 293 352
#     4  10  21  37  55  77 113 157 194 231 282 343
#     4   9  20  41  66  90 119 153 187 232 293 352
#     4  11  23  38  60  88 117 154 198 242 288 342
#     4  10  21  37  55  77 113 157 194 231 282 343
#     4  11  23  38  60  88 117 154 198 242 288 342
#
# _framework density 19.400476999999999
#
# number of rings (size 3 to 8) (size 9 to 14) (size 15 to 20)
#    0.000    1.750    2.500    2.250    1.750    4.500 
#    0.000    1.875    0.000    3.750    0.000    0.000 
#    0.000    0.000    0.000    0.000    0.000    0.000 
#
# Total GULP energy -793455.240958 kJ/mol
# GULP energy per Si atom -12397.738140 kJ/mol
# Density = 1.935632 g / cm^3
# Si number density = 19.400477 Si / 1000 Ang^3
#
#
#
# Elastic Constant Matrix: (Units=GPa)
#
#
# Indices 1 2 3 4 5 6 
#
# 1 65.9783 43.7704 33.0879 0.0000 0.0000 0.0000
# 2 43.7704 118.0623 53.4557 0.0000 0.0000 0.0000
# 3 33.0879 53.4557 74.2427 0.0000 0.0000 0.0000
# 4 0.0000 0.0000 0.0000 36.9083 0.0000 0.0000
# 5 0.0000 0.0000 0.0000 0.0000 29.5798 0.0000
# 6 0.0000 0.0000 0.0000 0.0000 0.0000 33.4639
#
#
#
# Elastic Compliance Matrix: (Units=1/GPa)
#
#
# Indices 1 2 3 4 5 6 
#
# 1 0.021630 -0.005422 -0.005736 0.000000 0.000000 0.000000
# 2 -0.005422 0.013926 -0.007611 0.000000 0.000000 0.000000
# 3 -0.005736 -0.007611 0.021505 0.000000 0.000000 0.000000
# 4 0.000000 0.000000 0.000000 0.027094 0.000000 0.000000
# 5 0.000000 0.000000 0.000000 0.000000 0.033807 0.000000
# 6 0.000000 0.000000 0.000000 0.000000 0.000000 0.029883
#
#
# Mechanical properties :
#
#
# Convention : Reuss Voigt Hill
#
# Bulk Modulus (GPa) = 51.21776 57.65681 54.43728
# Shear Modulus (GPa) = 26.05648 28.52170 27.28909
#
# Velocity S-wave (km/s) = 3.66879 3.83842 3.75456
# Velocity P-wave (km/s) = 6.66365 7.03053 6.84955
#
# Compressibility (1/GPa) = 0.01952448
#
# Stress axis : x y z
#
# Youngs Moduli (GPa) = 46.23193 71.80751 46.49991
#
# Poissons Ratio (x) = 0.38934 0.26672
# Poissons Ratio (y) = 0.25067 0.35389
# Poissons Ratio (z) = 0.26519 0.54649
#
# Static dielectric constant tensor:
#      x y z
#    x 3.411020 0.000000 0.000000 
#    y 0.000000 3.485560 0.000000 
#    z 0.000000 0.000000 3.501790 
# 
# 
# High freq. dielectric constant tensor:
#      x y z
#    x 1.740700 0.000000 0.000000 
#    y 0.000000 1.758510 0.000000 
#    z 0.000000 0.000000 1.755320 
# 
# From -- ./inp_files/4539.got.cif
#   From: 2010.03.12/outbox.cif.g09.slc.cpg/sg55_3_cif.got.tgz:4539.got - 2010.04.16 15:19:21.
