data_PCOD8226596
_publ_section_title
;
Structure prediction by ZEFSAII (Michael W. Deem and Ramdas Pophale) SiO2 
 PCOD8226596
Probable space group: P B A M
;
_chemical_formula_sum "Si O2"
_cell_formula_units_Z 56
_cell_length_a 18.347086
_cell_length_b 17.074475
_cell_length_c 9.198323
_cell_angle_alpha 90.000000
_cell_angle_beta 90.000000
_cell_angle_gamma 90.000000
_cell_volume 2881.529775
_symmetry_space_group_name_H-M "P B A M"
_symmetry_group_IT_number 55
_symmetry_cell_setting 'orthorhombic'
loop_
_space_group_symop_operation_xyz
x,y,z
-x,-y,z
1/2+x,1/2-y,-z
1/2-x,1/2+y,-z
-x,-y,-z
x,y,-z
1/2-x,1/2+y,z
1/2+x,1/2-y,z
loop_
_atom_site_type_symbol
_atom_site_label
_atom_site_fract_x
_atom_site_fract_y
_atom_site_fract_z
Si Si1 0.857740 0.458546 0.831051
Si Si2 0.128344 0.814157 0.167378
Si Si3 0.526794 0.826442 0.164537
Si Si4 0.298478 0.605248 0.171610
Si Si5 0.230675 0.260580 0.669617
Si Si6 0.108464 0.384367 0.331332
Si Si7 0.419893 0.482875 0.172495
O O1 0.908598 0.385423 0.792818
O O2 0.776076 0.437536 0.782196
O O3 0.887233 0.532124 0.744044
O O4 0.860172 0.480139 0.000000
O O5 0.055935 0.761802 0.180248
O O6 0.190711 0.775371 0.263012
O O7 0.109401 0.899674 0.230490
O O8 0.155265 0.817571 0.000000
O O9 0.459235 0.835370 0.271035
O O10 0.500687 0.842785 0.000000
O O11 0.307497 0.686760 0.254507
O O12 0.365090 0.550776 0.222602
O O13 0.299598 0.621906 0.000000
O O14 0.239026 0.242517 0.500000
O O15 0.181926 0.336686 0.699312
O O16 0.095261 0.398450 0.500000
O O17 0.500000 0.500000 0.237938
O O18 0.424386 0.478332 0.000000
#
# Coordination Sequence:
#
# PCOD8226596 Si02
#       7
#     8   8   8   8   8   8   8
#     4  10  20  38  60  87 115 146 194 244 292 346
#     4  10  20  39  64  89 117 152 196 242 296 350
#     4  10  21  37  60  90 118 148 189 240 292 346
#     4  10  20  37  62  88 116 152 196 244 294 347
#     4  11  24  40  58  84 119 158 200 242 283 344
#     4  11  25  39  55  84 119 156 196 232 285 352
#     4   9  19  34  59  94 123 149 191 246 297 350
#
# _framework density 19.434121000000001
#
# number of rings (size 3 to 8) (size 9 to 14) (size 15 to 20)
#    0.000    1.857    1.429    2.143    2.000    6.857 
#    0.000    0.714    0.000    0.857    0.000    0.000 
#    0.000    0.000    0.000    0.000    0.000    0.000 
#
# Total GULP energy -694676.937715 kJ/mol
# GULP energy per Si atom -12404.945316 kJ/mol
# Density = 1.938989 g / cm^3
# Si number density = 19.434121 Si / 1000 Ang^3
#
#
#
# Elastic Constant Matrix: (Units=GPa)
#
#
# Indices 1 2 3 4 5 6 
#
# 1 72.5110 12.8734 24.1385 0.0000 0.0000 0.0000
# 2 12.8734 113.4128 33.8532 0.0000 0.0000 0.0000
# 3 24.1385 33.8532 55.8861 0.0000 0.0000 0.0000
# 4 0.0000 0.0000 0.0000 16.7474 0.0000 0.0000
# 5 0.0000 0.0000 0.0000 0.0000 20.0044 0.0000
# 6 0.0000 0.0000 0.0000 0.0000 0.0000 26.2902
#
#
#
# Elastic Compliance Matrix: (Units=1/GPa)
#
#
# Indices 1 2 3 4 5 6 
#
# 1 0.016115 0.000303 -0.007144 0.000000 0.000000 0.000000
# 2 0.000303 0.010769 -0.006655 0.000000 0.000000 0.000000
# 3 -0.007144 -0.006655 0.025010 0.000000 0.000000 0.000000
# 4 0.000000 0.000000 0.000000 0.059711 0.000000 0.000000
# 5 0.000000 0.000000 0.000000 0.000000 0.049989 0.000000
# 6 0.000000 0.000000 0.000000 0.000000 0.000000 0.038037
#
#
# Mechanical properties :
#
#
# Convention : Reuss Voigt Hill
#
# Bulk Modulus (GPa) = 40.15432 42.61556 41.38494
# Shear Modulus (GPa) = 21.28346 24.00473 22.64409
#
# Velocity S-wave (km/s) = 3.31291 3.51833 3.41716
# Velocity P-wave (km/s) = 5.94478 6.20328 6.07541
#
# Compressibility (1/GPa) = 0.02490392
#
# Stress axis : x y z
#
# Youngs Moduli (GPa) = 62.05214 92.85681 39.98337
#
# Poissons Ratio (x) = -0.02817 0.28566
# Poissons Ratio (y) = -0.01882 0.26607
# Poissons Ratio (z) = 0.44332 0.61792
#
# Static dielectric constant tensor:
#      x y z
#    x 3.620700 0.000000 0.000000 
#    y 0.000000 3.649320 0.000000 
#    z 0.000000 0.000000 3.336800 
# 
# 
# High freq. dielectric constant tensor:
#      x y z
#    x 1.764570 0.000000 0.000000 
#    y 0.000000 1.771120 0.000000 
#    z 0.000000 0.000000 1.732030 
# 
# From -- ./inp_files/8736.got.cif
#   From: 2010.03.12/outbox.cif.g09.slc.cpg/sg55_5_cif.got.tgz:8736.got - 2010.04.16 15:19:21.
