data_PCOD8226865
_publ_section_title
;
Structure prediction by ZEFSAII (Michael W. Deem and Ramdas Pophale) SiO2 
 PCOD8226865
Probable space group: P B A M
;
_chemical_formula_sum "Si O2"
_cell_formula_units_Z 56
_cell_length_a 14.863592
_cell_length_b 9.303451
_cell_length_c 21.391633
_cell_angle_alpha 90.000000
_cell_angle_beta 90.000000
_cell_angle_gamma 90.000000
_cell_volume 2958.092766
_symmetry_space_group_name_H-M "P B A M"
_symmetry_group_IT_number 55
_symmetry_cell_setting 'orthorhombic'
loop_
_space_group_symop_operation_xyz
x,y,z
-x,-y,z
1/2+x,1/2-y,-z
1/2-x,1/2+y,-z
-x,-y,-z
x,y,-z
1/2-x,1/2+y,z
1/2+x,1/2-y,z
loop_
_atom_site_type_symbol
_atom_site_label
_atom_site_fract_x
_atom_site_fract_y
_atom_site_fract_z
Si Si1 0.140067 0.758910 0.500000
Si Si2 0.315100 0.601725 0.364767
Si Si3 0.023913 0.165977 0.720112
Si Si4 0.637381 0.720951 0.636712
Si Si5 0.975948 0.663968 0.845852
Si Si6 0.310818 0.901137 0.071538
Si Si7 0.204178 0.063718 0.500000
Si Si8 0.141573 0.723809 0.928431
O O1 0.089437 0.770784 0.432914
O O2 0.192034 0.609049 0.500000
O O3 0.210411 0.891553 0.500000
O O4 0.386733 0.682898 0.321594
O O5 0.214270 0.659622 0.352995
O O6 0.315444 0.432067 0.350806
O O7 0.344091 0.625208 0.437571
O O8 0.941756 0.247002 0.686029
O O9 0.042940 0.245391 0.784375
O O10 0.000000 0.000000 0.731479
O O11 0.055705 0.739227 0.884282
O O12 0.000000 0.500000 0.829197
O O13 0.886575 0.673654 0.886994
O O14 0.212739 0.845069 0.091809
O O15 0.310006 0.071305 0.080904
O O16 0.330990 0.857989 0.000000
O O17 0.109641 0.742618 0.000000
#
# Coordination Sequence:
#
# PCOD8226865 Si02
#       8
#     4   8   8   8   8   8   4   8
#     4   8  14  27  49  73  94 120 158 203 251 297
#     4   9  18  33  52  73  98 128 163 206 252 296
#     4  10  22  36  49  71 102 135 170 204 242 291
#     4   9  18  33  52  73  98 128 163 206 252 296
#     4  10  21  36  53  73 101 137 170 200 240 292
#     4   9  18  34  56  80 103 128 162 204 248 292
#     4   8  14  27  49  73  94 120 158 203 251 297
#     4   9  18  34  56  80 103 128 162 204 248 292
#
# _framework density 18.931115999999999
#
# number of rings (size 3 to 8) (size 9 to 14) (size 15 to 20)
#    0.000    2.857    0.000    0.429    0.000    5.714 
#    0.000    8.571    0.000    4.286    0.000   11.000 
#    0.000    0.000    0.000    0.000    0.000    0.000 
#
# Total GULP energy -694055.357769 kJ/mol
# GULP energy per Si atom -12393.845674 kJ/mol
# Density = 1.888803 g / cm^3
# Si number density = 18.931116 Si / 1000 Ang^3
#
#
#
# Elastic Constant Matrix: (Units=GPa)
#
#
# Indices 1 2 3 4 5 6 
#
# 1 39.0213 -1.8375 17.6840 0.0000 0.0000 0.0000
# 2 -1.8375 19.3328 12.9853 0.0000 0.0000 0.0000
# 3 17.6840 12.9853 80.7906 0.0000 0.0000 0.0000
# 4 0.0000 0.0000 0.0000 12.5819 0.0000 0.0000
# 5 0.0000 0.0000 0.0000 0.0000 12.1676 0.0000
# 6 0.0000 0.0000 0.0000 0.0000 0.0000 28.1529
#
#
#
# Elastic Compliance Matrix: (Units=1/GPa)
#
#
# Indices 1 2 3 4 5 6 
#
# 1 0.029515 0.008009 -0.007748 0.000000 0.000000 0.000000
# 2 0.008009 0.060159 -0.011422 0.000000 0.000000 0.000000
# 3 -0.007748 -0.011422 0.015909 0.000000 0.000000 0.000000
# 4 0.000000 0.000000 0.000000 0.079479 0.000000 0.000000
# 5 0.000000 0.000000 0.000000 0.000000 0.082186 0.000000
# 6 0.000000 0.000000 0.000000 0.000000 0.000000 0.035520
#
#
# Mechanical properties :
#
#
# Convention : Reuss Voigt Hill
#
# Bulk Modulus (GPa) = 12.01028 21.86757 16.93893
# Shear Modulus (GPa) = 14.17055 17.93468 16.05261
#
# Velocity S-wave (km/s) = 2.73890 3.08127 2.91511
# Velocity P-wave (km/s) = 4.04476 4.92292 4.50529
#
# Compressibility (1/GPa) = 0.08326200
#
# Stress axis : x y z
#
# Youngs Moduli (GPa) = 33.88061 16.62268 62.85566
#
# Poissons Ratio (x) = -0.13314 0.48700
# Poissons Ratio (y) = -0.27136 0.71796
# Poissons Ratio (z) = 0.26250 0.18987
#
# Static dielectric constant tensor:
#      x y z
#    x 3.273830 0.000000 0.000000 
#    y 0.000000 3.386210 0.000000 
#    z 0.000000 0.000000 3.583170 
# 
# 
# High freq. dielectric constant tensor:
#      x y z
#    x 1.716630 0.000000 0.000000 
#    y 0.000000 1.728240 0.000000 
#    z 0.000000 0.000000 1.741970 
# 
# From -- ./inp_files/22655.got.cif
#   From: 2010.03.12/outbox.cif.g09.slc.cpg/sg55_12_cif.got.tgz:22655.got - 2010.04.16 15:19:21.
