data_PCOD8226302
_publ_section_title
;
Structure prediction by ZEFSAII (Michael W. Deem and Ramdas Pophale) SiO2 
 PCOD8226302
Probable space group: P B A M
;
_chemical_formula_sum "Si O2"
_cell_formula_units_Z 64
_cell_length_a 33.398407
_cell_length_b 11.484547
_cell_length_c 9.092668
_cell_angle_alpha 90.000000
_cell_angle_beta 90.000000
_cell_angle_gamma 90.000000
_cell_volume 3487.634429
_symmetry_space_group_name_H-M "P B A M"
_symmetry_group_IT_number 55
_symmetry_cell_setting 'orthorhombic'
loop_
_space_group_symop_operation_xyz
x,y,z
-x,-y,z
1/2+x,1/2-y,-z
1/2-x,1/2+y,-z
-x,-y,-z
x,y,-z
1/2-x,1/2+y,z
1/2+x,1/2-y,z
loop_
_atom_site_type_symbol
_atom_site_label
_atom_site_fract_x
_atom_site_fract_y
_atom_site_fract_z
Si Si1 0.594607 0.803236 0.331604
Si Si2 0.629778 0.262850 0.171031
Si Si3 0.196483 0.052722 0.832294
Si Si4 0.967324 0.159010 0.826388
Si Si5 0.824560 0.176613 0.328552
Si Si6 0.446090 0.593984 0.174121
Si Si7 0.287660 0.112673 0.172007
Si Si8 0.144326 0.475841 0.326578
O O1 0.581969 0.796802 0.500000
O O2 0.555527 0.770048 0.239017
O O3 0.630020 0.713018 0.295290
O O4 0.609114 0.932652 0.289269
O O5 0.671121 0.330826 0.195285
O O6 0.593141 0.340548 0.233417
O O7 0.630363 0.147533 0.267372
O O8 0.623531 0.230648 0.000000
O O9 0.242126 0.080004 0.796624
O O10 0.180842 0.954747 0.722815
O O11 0.190851 0.009635 0.000000
O O12 0.013855 0.163188 0.776999
O O13 0.947685 0.038657 0.766088
O O14 0.963683 0.165817 0.000000
O O15 0.814431 0.189196 0.500000
O O16 0.794619 0.260071 0.239724
O O17 0.444509 0.586655 0.000000
O O18 0.314756 0.014741 0.248461
O O19 0.297683 0.115885 0.000000
O O20 0.152617 0.471309 0.500000
#
# Coordination Sequence:
#
# PCOD8226302 Si02
#       8
#     8   8   8   8   8   8   8   8
#     4   9  19  35  52  74 105 138 176 221 265 313
#     4  10  20  36  56  79 109 144 179 221 274 326
#     4  10  22  36  55  81 106 136 176 222 269 319
#     4   9  16  30  56  83 107 138 177 219 266 319
#     4  10  21  36  54  78 108 139 175 218 265 319
#     4   8  16  31  52  82 114 139 170 219 271 321
#     4  10  21  37  56  78 106 138 177 224 271 317
#     4  10  22  39  55  75 106 144 184 225 270 325
#
# _framework density 18.350546000000001
#
# number of rings (size 3 to 8) (size 9 to 14) (size 15 to 20)
#    0.000    2.500    0.000    3.375    1.750    5.500 
#    0.000    3.125    0.000    3.750    0.000    0.000 
#    0.000    0.000    0.000    0.000    0.000    0.000 
#
# Total GULP energy -793656.111128 kJ/mol
# GULP energy per Si atom -12400.876736 kJ/mol
# Density = 1.830878 g / cm^3
# Si number density = 18.350546 Si / 1000 Ang^3
#
#
#
# Elastic Constant Matrix: (Units=GPa)
#
#
# Indices 1 2 3 4 5 6 
#
# 1 97.1305 41.2692 33.9365 0.0000 0.0000 0.0000
# 2 41.2692 86.9945 33.4910 0.0000 0.0000 0.0000
# 3 33.9365 33.4910 62.2494 0.0000 0.0000 0.0000
# 4 0.0000 0.0000 0.0000 30.1404 0.0000 0.0000
# 5 0.0000 0.0000 0.0000 0.0000 16.6320 0.0000
# 6 0.0000 0.0000 0.0000 0.0000 0.0000 21.7012
#
#
#
# Elastic Compliance Matrix: (Units=1/GPa)
#
#
# Indices 1 2 3 4 5 6 
#
# 1 0.014094 -0.004702 -0.005154 0.000000 0.000000 0.000000
# 2 -0.004702 0.016066 -0.006081 0.000000 0.000000 0.000000
# 3 -0.005154 -0.006081 0.022146 0.000000 0.000000 0.000000
# 4 0.000000 0.000000 0.000000 0.033178 0.000000 0.000000
# 5 0.000000 0.000000 0.000000 0.000000 0.060125 0.000000
# 6 0.000000 0.000000 0.000000 0.000000 0.000000 0.046080
#
#
# Mechanical properties :
#
#
# Convention : Reuss Voigt Hill
#
# Bulk Modulus (GPa) = 48.94008 51.52976 50.23492
# Shear Modulus (GPa) = 21.70392 22.87324 22.28858
#
# Velocity S-wave (km/s) = 3.44283 3.53436 3.48889
# Velocity P-wave (km/s) = 6.52162 6.69308 6.60791
#
# Compressibility (1/GPa) = 0.02043315
#
# Stress axis : x y z
#
# Youngs Moduli (GPa) = 70.95270 62.24175 45.15564
#
# Poissons Ratio (x) = 0.29265 0.23273
# Poissons Ratio (y) = 0.33361 0.27457
# Poissons Ratio (z) = 0.36568 0.37847
#
# Static dielectric constant tensor:
#      x y z
#    x 3.489690 0.000000 0.000000 
#    y 0.000000 3.370530 0.000000 
#    z 0.000000 0.000000 3.238590 
# 
# 
# High freq. dielectric constant tensor:
#      x y z
#    x 1.714040 0.000000 0.000000 
#    y 0.000000 1.708010 0.000000 
#    z 0.000000 0.000000 1.700770 
# 
# From -- ./inp_files/10846.got.cif
#   From: 2010.03.12/outbox.cif.g09.slc.cpg/sg55_6_cif.got.tgz:10846.got - 2010.04.16 15:19:21.
