data_PCOD8226472
_publ_section_title
;
Structure prediction by ZEFSAII (Michael W. Deem and Ramdas Pophale) SiO2 
 PCOD8226472
Probable space group: P B A M
;
_chemical_formula_sum "Si O2"
_cell_formula_units_Z 64
_cell_length_a 12.741222
_cell_length_b 27.786161
_cell_length_c 8.712131
_cell_angle_alpha 90.000000
_cell_angle_beta 90.000000
_cell_angle_gamma 90.000000
_cell_volume 3084.352652
_symmetry_space_group_name_H-M "P B A M"
_symmetry_group_IT_number 55
_symmetry_cell_setting 'orthorhombic'
loop_
_space_group_symop_operation_xyz
x,y,z
-x,-y,z
1/2+x,1/2-y,-z
1/2-x,1/2+y,-z
-x,-y,-z
x,y,-z
1/2-x,1/2+y,z
1/2+x,1/2-y,z
loop_
_atom_site_type_symbol
_atom_site_label
_atom_site_fract_x
_atom_site_fract_y
_atom_site_fract_z
Si Si1 0.820889 0.702816 0.681034
Si Si2 0.023561 0.654972 0.818232
Si Si3 0.245367 0.954886 0.328564
Si Si4 0.540204 0.050682 0.178760
Si Si5 0.263590 0.194096 0.679283
Si Si6 0.591158 0.463920 0.674387
Si Si7 0.371774 0.361272 0.324295
Si Si8 0.585047 0.365136 0.176365
O O1 0.840189 0.701888 0.500000
O O2 0.780041 0.754661 0.737105
O O3 0.732214 0.665366 0.733603
O O4 0.929351 0.688638 0.760490
O O5 0.131235 0.679206 0.766439
O O6 0.014307 0.599537 0.754571
O O7 0.018763 0.653846 0.000000
O O8 0.291501 0.946685 0.500000
O O9 0.335839 0.945122 0.206473
O O10 0.148230 0.918227 0.303376
O O11 0.202303 0.008809 0.310898
O O12 0.500000 0.000000 0.254745
O O13 0.516544 0.048532 0.000000
O O14 0.289511 0.195073 0.500000
O O15 0.173385 0.156127 0.714163
O O16 0.500000 0.500000 0.720110
O O17 0.574880 0.444327 0.500000
O O18 0.589486 0.421990 0.798141
O O19 0.396567 0.347457 0.500000
O O20 0.470796 0.344869 0.223123
O O21 0.607806 0.352449 0.000000
#
# Coordination Sequence:
#
# PCOD8226472 Si02
#       8
#     8   8   8   8   8   8   8   8
#     4  10  23  44  71  95 120 163 215 263 316 378
#     4  11  24  43  67  98 135 168 207 264 325 383
#     4  10  20  36  62  91 119 158 210 260 307 363
#     4  10  23  41  60  87 128 171 206 251 315 381
#     4  11  26  46  68  93 125 170 218 264 316 380
#     4  10  20  38  60  87 124 166 207 252 307 367
#     4  10  20  40  66  93 125 161 208 265 313 375
#     4  12  26  41  61  93 130 170 212 262 327 382
#
# _framework density 20.749897000000001
#
# number of rings (size 3 to 8) (size 9 to 14) (size 15 to 20)
#    0.000    1.500    2.500    1.875    3.500    3.500 
#    0.000    0.000    0.000    0.000    0.000    0.000 
#    0.000    0.000    0.000    0.000    0.000    0.000 
#
# Total GULP energy -793668.006740 kJ/mol
# GULP energy per Si atom -12401.062605 kJ/mol
# Density = 2.070267 g / cm^3
# Si number density = 20.749897 Si / 1000 Ang^3
#
#
#
# Elastic Constant Matrix: (Units=GPa)
#
#
# Indices 1 2 3 4 5 6 
#
# 1 129.1204 53.0177 22.2535 0.0000 0.0000 0.0000
# 2 53.0177 112.4606 27.9346 0.0000 0.0000 0.0000
# 3 22.2535 27.9346 39.5568 0.0000 0.0000 0.0000
# 4 0.0000 0.0000 0.0000 22.1580 0.0000 0.0000
# 5 0.0000 0.0000 0.0000 0.0000 33.8079 0.0000
# 6 0.0000 0.0000 0.0000 0.0000 0.0000 30.6948
#
#
#
# Elastic Compliance Matrix: (Units=1/GPa)
#
#
# Indices 1 2 3 4 5 6 
#
# 1 0.009843 -0.003959 -0.002741 0.000000 0.000000 0.000000
# 2 -0.003959 0.012376 -0.006513 0.000000 0.000000 0.000000
# 3 -0.002741 -0.006513 0.031421 0.000000 0.000000 0.000000
# 4 0.000000 0.000000 0.000000 0.045130 0.000000 0.000000
# 5 0.000000 0.000000 0.000000 0.000000 0.029579 0.000000
# 6 0.000000 0.000000 0.000000 0.000000 0.000000 0.032579
#
#
# Mechanical properties :
#
#
# Convention : Reuss Voigt Hill
#
# Bulk Modulus (GPa) = 36.74556 54.17213 45.45885
# Shear Modulus (GPa) = 25.45483 29.19429 27.32456
#
# Velocity S-wave (km/s) = 3.50629 3.75502 3.63278
# Velocity P-wave (km/s) = 5.84289 6.70552 6.28901
#
# Compressibility (1/GPa) = 0.02721417
#
# Stress axis : x y z
#
# Youngs Moduli (GPa) = 101.59612 80.79979 31.82543
#
# Poissons Ratio (x) = 0.31992 0.08724
# Poissons Ratio (y) = 0.40226 0.20727
# Poissons Ratio (z) = 0.27850 0.52622
#
# Static dielectric constant tensor:
#      x y z
#    x 3.677290 0.000000 0.000000 
#    y 0.000000 4.058930 0.000000 
#    z 0.000000 0.000000 3.521030 
# 
# 
# High freq. dielectric constant tensor:
#      x y z
#    x 1.818750 0.000000 0.000000 
#    y 0.000000 1.821670 0.000000 
#    z 0.000000 0.000000 1.792490 
# 
# From -- ./inp_files/4528.got.cif
#   From: 2010.03.12/outbox.cif.g09.slc.cpg/sg55_3_cif.got.tgz:4528.got - 2010.04.16 15:19:21.
