data_PCOD8226958
_publ_section_title
;
Structure prediction by ZEFSAII (Michael W. Deem and Ramdas Pophale) SiO2 
 PCOD8226958
Probable space group: P B A M
;
_chemical_formula_sum "Si O2"
_cell_formula_units_Z 48
_cell_length_a 16.715560
_cell_length_b 18.223360
_cell_length_c 8.792200
_cell_angle_alpha 90.000000
_cell_angle_beta 90.000000
_cell_angle_gamma 90.000000
_cell_volume 2678.224287
_symmetry_space_group_name_H-M "P B A M"
_symmetry_group_IT_number 55
_symmetry_cell_setting 'orthorhombic'
loop_
_space_group_symop_operation_xyz
x,y,z
-x,-y,z
1/2+x,1/2-y,-z
1/2-x,1/2+y,-z
-x,-y,-z
x,y,-z
1/2-x,1/2+y,z
1/2+x,1/2-y,z
loop_
_atom_site_type_symbol
_atom_site_label
_atom_site_fract_x
_atom_site_fract_y
_atom_site_fract_z
Si Si1 0.145095 0.669238 0.818817
Si Si2 0.267824 0.551045 0.175141
Si Si3 0.993325 0.582443 0.182075
Si Si4 0.662665 0.666144 0.818234
Si Si5 0.179408 0.403427 0.825209
Si Si6 0.412995 0.472071 0.678862
O O1 0.225678 0.626233 0.766255
O O2 0.144406 0.752407 0.758018
O O3 0.065399 0.631268 0.751551
O O4 0.142451 0.667067 0.000000
O O5 0.199950 0.489159 0.194313
O O6 0.346943 0.531929 0.270363
O O7 0.294660 0.557390 0.000000
O O8 0.908105 0.613452 0.244951
O O9 0.000000 0.500000 0.243546
O O10 0.994554 0.582644 0.000000
O O11 0.750383 0.645440 0.751162
O O12 0.599284 0.607447 0.755473
O O13 0.660225 0.661142 0.000000
O O14 0.175843 0.381565 0.000000
O O15 0.500000 0.500000 0.729835
O O16 0.407022 0.462007 0.500000
#
# Coordination Sequence:
#
# PCOD8226958 Si02
#       6
#     8   8   8   8   8   8
#     4   9  16  27  44  74 109 130 154 198 249 299
#     4   9  16  29  51  75  99 126 158 203 250 295
#     4   9  13  20  39  67  98 129 155 183 231 290
#     4   9  18  32  49  73 103 129 159 204 253 295
#     4   8  13  23  40  63  94 129 156 183 228 285
#     4  10  21  37  54  70  92 130 178 216 247 293
#
# _framework density 17.922322999999999
#
# number of rings (size 3 to 8) (size 9 to 14) (size 15 to 20)
#    0.000    3.000    1.667    1.500    0.000    1.333 
#    3.000    0.833    0.000    0.000    0.000    9.333 
#    0.000    0.000    0.000    0.000    0.000    0.000 
#
# Total GULP energy -594807.371036 kJ/mol
# GULP energy per Si atom -12391.820230 kJ/mol
# Density = 1.788153 g / cm^3
# Si number density = 17.922323 Si / 1000 Ang^3
#
#
#
# Elastic Constant Matrix: (Units=GPa)
#
#
# Indices 1 2 3 4 5 6 
#
# 1 146.4651 82.9779 22.1607 0.0000 0.0000 0.0000
# 2 82.9779 150.9925 21.0651 0.0000 0.0000 0.0000
# 3 22.1607 21.0651 21.3545 0.0000 0.0000 0.0000
# 4 0.0000 0.0000 0.0000 6.8139 0.0000 0.0000
# 5 0.0000 0.0000 0.0000 0.0000 11.9782 0.0000
# 6 0.0000 0.0000 0.0000 0.0000 0.0000 26.0419
#
#
#
# Elastic Compliance Matrix: (Units=1/GPa)
#
#
# Indices 1 2 3 4 5 6 
#
# 1 0.010551 -0.004952 -0.006064 0.000000 0.000000 0.000000
# 2 -0.004952 0.010004 -0.004729 0.000000 0.000000 0.000000
# 3 -0.006064 -0.004729 0.057787 0.000000 0.000000 0.000000
# 4 0.000000 0.000000 0.000000 0.146759 0.000000 0.000000
# 5 0.000000 0.000000 0.000000 0.000000 0.083485 0.000000
# 6 0.000000 0.000000 0.000000 0.000000 0.000000 0.038400
#
#
# Mechanical properties :
#
#
# Convention : Reuss Voigt Hill
#
# Bulk Modulus (GPa) = 21.34451 63.46883 42.40667
# Shear Modulus (GPa) = 12.68739 21.80737 17.24738
#
# Velocity S-wave (km/s) = 2.66354 3.49201 3.10553
# Velocity P-wave (km/s) = 4.62543 7.19368 6.04746
#
# Compressibility (1/GPa) = 0.04685044
#
# Stress axis : x y z
#
# Youngs Moduli (GPa) = 94.78127 99.95917 17.30503
#
# Poissons Ratio (x) = 0.49501 0.10494
# Poissons Ratio (y) = 0.46937 0.08184
# Poissons Ratio (z) = 0.57475 0.47275
#
# Static dielectric constant tensor:
#      x y z
#    x 3.621880 0.000000 0.000000 
#    y 0.000000 3.403760 0.000000 
#    z 0.000000 0.000000 2.739520 
# 
# 
# High freq. dielectric constant tensor:
#      x y z
#    x 1.705590 0.000000 0.000000 
#    y 0.000000 1.684890 0.000000 
#    z 0.000000 0.000000 1.633100 
# 
# From -- ./inp_files/7572.got.cif
#   From: 2010.03.12/outbox.cif.g09.slc.cpg/sg55_4_cif.got.tgz:7572.got - 2010.04.16 15:19:21.
