data_PCOD8226456
_publ_section_title
;
Structure prediction by ZEFSAII (Michael W. Deem and Ramdas Pophale) SiO2 
 PCOD8226456
Probable space group: P B A M
;
_chemical_formula_sum "Si O2"
_cell_formula_units_Z 56
_cell_length_a 18.251248
_cell_length_b 17.055264
_cell_length_c 9.111020
_cell_angle_alpha 90.000000
_cell_angle_beta 90.000000
_cell_angle_gamma 90.000000
_cell_volume 2836.076966
_symmetry_space_group_name_H-M "P B A M"
_symmetry_group_IT_number 55
_symmetry_cell_setting 'orthorhombic'
loop_
_space_group_symop_operation_xyz
x,y,z
-x,-y,z
1/2+x,1/2-y,-z
1/2-x,1/2+y,-z
-x,-y,-z
x,y,-z
1/2-x,1/2+y,z
1/2+x,1/2-y,z
loop_
_atom_site_type_symbol
_atom_site_label
_atom_site_fract_x
_atom_site_fract_y
_atom_site_fract_z
Si Si1 0.082993 0.518646 0.171638
Si Si2 0.387756 0.178086 0.671321
Si Si3 0.141478 0.943820 0.826744
Si Si4 0.034497 0.810605 0.172380
Si Si5 0.299335 0.889019 0.172073
Si Si6 0.121399 0.117919 0.171786
Si Si7 0.725705 0.269495 0.328980
O O1 0.113899 0.591908 0.260621
O O2 0.132250 0.443718 0.212968
O O3 0.000000 0.500000 0.218193
O O4 0.088907 0.538462 0.000000
O O5 0.403726 0.170329 0.500000
O O6 0.451894 0.228581 0.746316
O O7 0.311805 0.222712 0.703547
O O8 0.088918 0.876610 0.761373
O O9 0.224831 0.931082 0.774846
O O10 0.113400 0.028420 0.773149
O O11 0.135036 0.939334 0.000000
O O12 0.952362 0.835935 0.207796
O O13 0.047042 0.797802 0.000000
O O14 0.308320 0.807384 0.255215
O O15 0.297092 0.870408 0.000000
O O16 0.187858 0.154623 0.260833
O O17 0.140696 0.120746 0.000000
O O18 0.708699 0.266055 0.500000
#
# Coordination Sequence:
#
# PCOD8226456 Si02
#       7
#     8   8   8   8   8   8   8
#     4  10  23  41  63  92 123 154 201 260 307 352
#     4  11  24  41  60  85 121 164 203 238 294 359
#     4   9  17  34  60  89 115 146 191 239 290 347
#     4  10  20  36  61  90 121 153 189 243 297 348
#     4  10  20  37  62  87 114 154 200 247 298 347
#     4  10  21  36  60  90 118 149 190 241 299 352
#     4  11  24  40  58  85 121 161 201 243 289 348
#
# _framework density 19.745584999999998
#
# number of rings (size 3 to 8) (size 9 to 14) (size 15 to 20)
#    0.000    1.857    1.429    2.143    2.000    6.000 
#    0.000    1.429    0.000    1.714    0.000    0.000 
#    0.000    0.000    0.000    0.000    0.000    0.000 
#
# Total GULP energy -694653.451894 kJ/mol
# GULP energy per Si atom -12404.525927 kJ/mol
# Density = 1.970064 g / cm^3
# Si number density = 19.745585 Si / 1000 Ang^3
#
#
#
# Elastic Constant Matrix: (Units=GPa)
#
#
# Indices 1 2 3 4 5 6 
#
# 1 60.5068 12.9228 28.5415 0.0000 0.0000 0.0000
# 2 12.9228 103.3964 37.2811 0.0000 0.0000 0.0000
# 3 28.5415 37.2811 53.5034 0.0000 0.0000 0.0000
# 4 0.0000 0.0000 0.0000 5.5348 0.0000 0.0000
# 5 0.0000 0.0000 0.0000 0.0000 20.7487 0.0000
# 6 0.0000 0.0000 0.0000 0.0000 0.0000 36.1227
#
#
#
# Elastic Compliance Matrix: (Units=1/GPa)
#
#
# Indices 1 2 3 4 5 6 
#
# 1 0.022394 0.002015 -0.013350 0.000000 0.000000 0.000000
# 2 0.002015 0.013098 -0.010201 0.000000 0.000000 0.000000
# 3 -0.013350 -0.010201 0.032920 0.000000 0.000000 0.000000
# 4 0.000000 0.000000 0.000000 0.180675 0.000000 0.000000
# 5 0.000000 0.000000 0.000000 0.000000 0.048196 0.000000
# 6 0.000000 0.000000 0.000000 0.000000 0.000000 0.027683
#
#
# Mechanical properties :
#
#
# Convention : Reuss Voigt Hill
#
# Bulk Modulus (GPa) = 39.46495 41.65526 40.56011
# Shear Modulus (GPa) = 13.28068 21.72531 17.50299
#
# Velocity S-wave (km/s) = 2.59625 3.32062 2.98052
# Velocity P-wave (km/s) = 5.38678 5.98697 5.69479
#
# Compressibility (1/GPa) = 0.02533894
#
# Stress axis : x y z
#
# Youngs Moduli (GPa) = 44.65461 76.34757 30.37637
#
# Poissons Ratio (x) = -0.15382 0.40552
# Poissons Ratio (y) = -0.08996 0.30988
# Poissons Ratio (z) = 0.59614 0.77885
#
# Static dielectric constant tensor:
#      x y z
#    x 3.663960 0.000000 0.000000 
#    y 0.000000 3.645920 0.000000 
#    z 0.000000 0.000000 3.326730 
# 
# 
# High freq. dielectric constant tensor:
#      x y z
#    x 1.778100 0.000000 0.000000 
#    y 0.000000 1.783600 0.000000 
#    z 0.000000 0.000000 1.742840 
# 
# From -- ./inp_files/8765.got.cif
#   From: 2010.03.12/outbox.cif.g09.slc.cpg/sg55_5_cif.got.tgz:8765.got - 2010.04.16 15:19:21.
