data_PCOD8226085
_publ_section_title
;
Structure prediction by ZEFSAII (Michael W. Deem and Ramdas Pophale) SiO2 
 PCOD8226085
Probable space group: P B A M
;
_chemical_formula_sum "Si O2"
_cell_formula_units_Z 56
_cell_length_a 21.776471
_cell_length_b 14.508466
_cell_length_c 8.625213
_cell_angle_alpha 90.000000
_cell_angle_beta 90.000000
_cell_angle_gamma 90.000000
_cell_volume 2725.077302
_symmetry_space_group_name_H-M "P B A M"
_symmetry_group_IT_number 55
_symmetry_cell_setting 'orthorhombic'
loop_
_space_group_symop_operation_xyz
x,y,z
-x,-y,z
1/2+x,1/2-y,-z
1/2-x,1/2+y,-z
-x,-y,-z
x,y,-z
1/2-x,1/2+y,z
1/2+x,1/2-y,z
loop_
_atom_site_type_symbol
_atom_site_label
_atom_site_fract_x
_atom_site_fract_y
_atom_site_fract_z
Si Si1 0.070984 0.507324 0.181892
Si Si2 0.120482 0.692442 0.677844
Si Si3 0.715839 0.678489 0.180192
Si Si4 0.527046 0.642085 0.324211
Si Si5 0.376966 0.476420 0.177708
Si Si6 0.847185 0.652799 0.678439
Si Si7 0.402276 0.676091 0.824381
O O1 0.100190 0.606051 0.219391
O O2 0.110669 0.431136 0.268991
O O3 0.000000 0.500000 0.237935
O O4 0.075217 0.488588 0.000000
O O5 0.126162 0.661027 0.500000
O O6 0.186094 0.734074 0.731369
O O7 0.069336 0.769402 0.702181
O O8 0.682010 0.583438 0.225572
O O9 0.785898 0.661878 0.222546
O O10 0.710567 0.701108 0.000000
O O11 0.502771 0.636353 0.500000
O O12 0.565787 0.550425 0.286435
O O13 0.472458 0.648692 0.202368
O O14 0.361174 0.584228 0.201830
O O15 0.395421 0.456542 0.000000
O O16 0.829929 0.639758 0.500000
O O17 0.884482 0.746921 0.701047
O O18 0.394356 0.713137 0.000000
#
# Coordination Sequence:
#
# PCOD8226085 Si02
#       7
#     8   8   8   8   8   8   8
#     4  11  24  42  65  92 121 159 207 255 307 368
#     4  10  21  38  61  89 121 157 197 244 300 357
#     4  10  21  41  64  86 116 154 200 246 293 354
#     4  10  20  34  56  88 123 154 187 232 286 344
#     4   9  20  37  59  85 114 152 193 235 282 339
#     4  12  26  42  60  85 119 155 196 250 306 358
#     4  11  22  37  57  83 116 153 194 237 286 345
#
# _framework density 20.549875
#
# number of rings (size 3 to 8) (size 9 to 14) (size 15 to 20)
#    0.000    1.571    0.000    4.714    0.000    9.714 
#    0.000    4.286    0.000    0.000    0.000    0.000 
#    0.000    0.000    0.000    0.000    0.000    0.000 
#
# Total GULP energy -694602.139074 kJ/mol
# GULP energy per Si atom -12403.609626 kJ/mol
# Density = 2.050310 g / cm^3
# Si number density = 20.549875 Si / 1000 Ang^3
#
#
#
# Elastic Constant Matrix: (Units=GPa)
#
#
# Indices 1 2 3 4 5 6 
#
# 1 77.1261 17.8679 4.1492 0.0000 0.0000 0.0000
# 2 17.8679 93.0645 18.5671 0.0000 0.0000 0.0000
# 3 4.1492 18.5671 55.7961 0.0000 0.0000 0.0000
# 4 0.0000 0.0000 0.0000 32.1348 0.0000 0.0000
# 5 0.0000 0.0000 0.0000 0.0000 32.4444 0.0000
# 6 0.0000 0.0000 0.0000 0.0000 0.0000 20.8373
#
#
#
# Elastic Compliance Matrix: (Units=1/GPa)
#
#
# Indices 1 2 3 4 5 6 
#
# 1 0.013571 -0.002575 -0.000152 0.000000 0.000000 0.000000
# 2 -0.002575 0.011998 -0.003801 0.000000 0.000000 0.000000
# 3 -0.000152 -0.003801 0.019199 0.000000 0.000000 0.000000
# 4 0.000000 0.000000 0.000000 0.031119 0.000000 0.000000
# 5 0.000000 0.000000 0.000000 0.000000 0.030822 0.000000
# 6 0.000000 0.000000 0.000000 0.000000 0.000000 0.047991
#
#
# Mechanical properties :
#
#
# Convention : Reuss Voigt Hill
#
# Bulk Modulus (GPa) = 31.53547 34.12835 32.83191
# Shear Modulus (GPa) = 28.03859 29.44347 28.74103
#
# Velocity S-wave (km/s) = 3.69781 3.78932 3.74384
# Velocity P-wave (km/s) = 5.79749 5.98238 5.89066
#
# Compressibility (1/GPa) = 0.03171032
#
# Stress axis : x y z
#
# Youngs Moduli (GPa) = 73.68904 83.34745 52.08721
#
# Poissons Ratio (x) = 0.21463 0.00793
# Poissons Ratio (y) = 0.18976 0.19798
# Poissons Ratio (z) = 0.01122 0.31681
#
# Static dielectric constant tensor:
#      x y z
#    x 2.599620 0.000000 0.000000 
#    y 0.000000 3.865510 0.000000 
#    z 0.000000 0.000000 3.715790 
# 
# 
# High freq. dielectric constant tensor:
#      x y z
#    x 1.799100 0.000000 0.000000 
#    y 0.000000 1.812480 0.000000 
#    z 0.000000 0.000000 1.810340 
# 
# From -- ./inp_files/8772.got.cif
#   From: 2010.03.12/outbox.cif.g09.slc.cpg/sg55_5_cif.got.tgz:8772.got - 2010.04.16 15:19:21.
