data_PCOD8226089
_publ_section_title
;
Structure prediction by ZEFSAII (Michael W. Deem and Ramdas Pophale) SiO2 
 PCOD8226089
Probable space group: P B A M
;
_chemical_formula_sum "Si O2"
_cell_formula_units_Z 48
_cell_length_a 12.011758
_cell_length_b 23.278635
_cell_length_c 8.901519
_cell_angle_alpha 90.000000
_cell_angle_beta 90.000000
_cell_angle_gamma 90.000000
_cell_volume 2489.018977
_symmetry_space_group_name_H-M "P B A M"
_symmetry_group_IT_number 55
_symmetry_cell_setting 'orthorhombic'
loop_
_space_group_symop_operation_xyz
x,y,z
-x,-y,z
1/2+x,1/2-y,-z
1/2-x,1/2+y,-z
-x,-y,-z
x,y,-z
1/2-x,1/2+y,z
1/2+x,1/2-y,z
loop_
_atom_site_type_symbol
_atom_site_label
_atom_site_fract_x
_atom_site_fract_y
_atom_site_fract_z
Si Si1 0.663072 0.276880 0.678658
Si Si2 0.898849 0.651610 0.320928
Si Si3 0.286002 0.420485 0.176138
Si Si4 0.148918 0.641458 0.321764
Si Si5 0.193508 0.040302 0.672254
Si Si6 0.996056 0.127265 0.672502
O O1 0.665116 0.277958 0.500000
O O2 0.649661 0.212285 0.738808
O O3 0.777656 0.304977 0.740920
O O4 0.558180 0.315470 0.730455
O O5 0.896450 0.648302 0.500000
O O6 0.827296 0.600030 0.254297
O O7 0.024302 0.644823 0.258000
O O8 0.309180 0.485761 0.220942
O O9 0.387469 0.380261 0.226761
O O10 0.271140 0.415779 0.000000
O O11 0.148149 0.645507 0.500000
O O12 0.205949 0.581526 0.274106
O O13 0.210717 0.020622 0.500000
O O14 0.076486 0.072651 0.689072
O O15 0.957524 0.134027 0.500000
#
# Coordination Sequence:
#
# PCOD8226089 Si02
#       6
#     8   8   8   8   8   8
#     4   8  16  31  57  88 110 131 171 225 274 326
#     4  10  20  34  57  83 109 142 178 222 271 321
#     4  12  25  36  49  77 115 149 187 224 263 318
#     4   8  16  32  55  85 110 133 173 224 276 323
#     4   9  18  36  59  81 109 140 179 228 275 322
#     4   9  18  35  60  87 109 137 177 227 280 323
#
# _framework density 19.284707000000001
#
# number of rings (size 3 to 8) (size 9 to 14) (size 15 to 20)
#    0.000    2.667    0.000    4.000    2.333    3.333 
#    0.000    5.000    0.000    2.000    0.000    0.000 
#    0.000    0.000    0.000    0.000    0.000    0.000 
#
# Total GULP energy -595156.478466 kJ/mol
# GULP energy per Si atom -12399.093301 kJ/mol
# Density = 1.924081 g / cm^3
# Si number density = 19.284707 Si / 1000 Ang^3
#
#
#
# Elastic Constant Matrix: (Units=GPa)
#
#
# Indices 1 2 3 4 5 6 
#
# 1 109.3203 10.3769 25.0711 0.0000 0.0000 0.0000
# 2 10.3769 45.8564 16.9757 0.0000 0.0000 0.0000
# 3 25.0711 16.9757 43.3357 0.0000 0.0000 0.0000
# 4 0.0000 0.0000 0.0000 0.6956 0.0000 0.0000
# 5 0.0000 0.0000 0.0000 0.0000 4.0508 0.0000
# 6 0.0000 0.0000 0.0000 0.0000 0.0000 21.5092
#
#
#
# Elastic Compliance Matrix: (Units=1/GPa)
#
#
# Indices 1 2 3 4 5 6 
#
# 1 0.010548 -0.000150 -0.006044 0.000000 0.000000 0.000000
# 2 -0.000150 0.025508 -0.009906 0.000000 0.000000 0.000000
# 3 -0.006044 -0.009906 0.030452 0.000000 0.000000 0.000000
# 4 0.000000 0.000000 0.000000 1.437539 0.000000 0.000000
# 5 0.000000 0.000000 0.000000 0.000000 0.246867 0.000000
# 6 0.000000 0.000000 0.000000 0.000000 0.000000 0.046492
#
#
# Mechanical properties :
#
#
# Convention : Reuss Voigt Hill
#
# Bulk Modulus (GPa) = 29.14557 33.70663 31.42610
# Shear Modulus (GPa) = 2.71586 14.99038 8.85312
#
# Velocity S-wave (km/s) = 1.18800 2.79107 2.14493
# Velocity P-wave (km/s) = 4.12649 5.28234 4.73978
#
# Compressibility (1/GPa) = 0.03431054
#
# Stress axis : x y z
#
# Youngs Moduli (GPa) = 94.80804 39.20334 32.83817
#
# Poissons Ratio (x) = 0.00586 0.19846
# Poissons Ratio (y) = 0.01418 0.32528
# Poissons Ratio (z) = 0.57298 0.38833
#
# Static dielectric constant tensor:
#      x y z
#    x 3.838000 0.000000 0.000000 
#    y 0.000000 3.626960 0.000000 
#    z 0.000000 0.000000 2.981900 
# 
# 
# High freq. dielectric constant tensor:
#      x y z
#    x 1.760640 0.000000 0.000000 
#    y 0.000000 1.756800 0.000000 
#    z 0.000000 0.000000 1.694450 
# 
# From -- ./inp_files/4053.got.cif
#   From: 2010.03.12/outbox.cif.g09.slc.cpg/sg55_3_cif.got.tgz:4053.got - 2010.04.16 15:19:21.
