data_PCOD8226594
_publ_section_title
;
Structure prediction by ZEFSAII (Michael W. Deem and Ramdas Pophale) SiO2 
 PCOD8226594
Probable space group: P B A M
;
_chemical_formula_sum "Si O2"
_cell_formula_units_Z 56
_cell_length_a 21.859176
_cell_length_b 14.604857
_cell_length_c 9.079473
_cell_angle_alpha 90.000000
_cell_angle_beta 90.000000
_cell_angle_gamma 90.000000
_cell_volume 2898.623023
_symmetry_space_group_name_H-M "P B A M"
_symmetry_group_IT_number 55
_symmetry_cell_setting 'orthorhombic'
loop_
_space_group_symop_operation_xyz
x,y,z
-x,-y,z
1/2+x,1/2-y,-z
1/2-x,1/2+y,-z
-x,-y,-z
x,y,-z
1/2-x,1/2+y,z
1/2+x,1/2-y,z
loop_
_atom_site_type_symbol
_atom_site_label
_atom_site_fract_x
_atom_site_fract_y
_atom_site_fract_z
Si Si1 0.248602 0.114276 0.326029
Si Si2 0.480012 0.717554 0.171727
Si Si3 0.277148 0.299833 0.829991
Si Si4 0.401307 0.397074 0.170791
Si Si5 0.543667 0.078618 0.825430
Si Si6 0.319403 0.954423 0.828945
Si Si7 0.889916 0.917506 0.325769
O O1 0.252863 0.113798 0.500000
O O2 0.272207 0.210869 0.268802
O O3 0.179625 0.095968 0.272145
O O4 0.291939 0.036275 0.264048
O O5 0.546691 0.677131 0.204425
O O6 0.480918 0.822562 0.225699
O O7 0.428657 0.666097 0.263781
O O8 0.462765 0.709662 0.000000
O O9 0.336822 0.355471 0.778456
O O10 0.217896 0.361582 0.802485
O O11 0.283334 0.270385 0.000000
O O12 0.416169 0.487750 0.262731
O O13 0.399926 0.425014 0.000000
O O14 0.612517 0.063302 0.769072
O O15 0.500000 0.000000 0.757453
O O16 0.542677 0.072731 0.000000
O O17 0.318146 0.982714 0.000000
O O18 0.895708 0.919317 0.500000
#
# Coordination Sequence:
#
# PCOD8226594 Si02
#       7
#     8   8   8   8   8   8   8
#     4  11  24  38  57  85 118 157 194 236 292 348
#     4  10  21  37  60  88 118 153 193 242 294 342
#     4  10  21  37  60  90 117 149 197 246 294 346
#     4  10  21  37  60  90 118 148 191 245 296 345
#     4   9  19  35  59  88 116 147 190 241 292 343
#     4  10  20  37  62  87 113 150 192 241 291 340
#     4  11  23  39  58  84 119 160 196 234 289 350
#
# _framework density 19.319517999999999
#
# number of rings (size 3 to 8) (size 9 to 14) (size 15 to 20)
#    0.000    1.857    1.429    2.143    2.000    6.286 
#    0.000    0.714    0.000    0.857    0.000    0.000 
#    0.000    0.000    0.000    0.000    0.000    0.000 
#
# Total GULP energy -694692.730649 kJ/mol
# GULP energy per Si atom -12405.227333 kJ/mol
# Density = 1.927555 g / cm^3
# Si number density = 19.319518 Si / 1000 Ang^3
#
#
#
# Elastic Constant Matrix: (Units=GPa)
#
#
# Indices 1 2 3 4 5 6 
#
# 1 111.4399 42.6028 25.4570 0.0000 0.0000 0.0000
# 2 42.6028 116.8561 40.9455 0.0000 0.0000 0.0000
# 3 25.4570 40.9455 45.1945 0.0000 0.0000 0.0000
# 4 0.0000 0.0000 0.0000 -22.2190 0.0000 0.0000
# 5 0.0000 0.0000 0.0000 0.0000 21.2803 0.0000
# 6 0.0000 0.0000 0.0000 0.0000 0.0000 48.2295
#
#
#
# Elastic Compliance Matrix: (Units=1/GPa)
#
#
# Indices 1 2 3 4 5 6 
#
# 1 0.010833 -0.002654 -0.003698 0.000000 0.000000 0.000000
# 2 -0.002654 0.013188 -0.010453 0.000000 0.000000 0.000000
# 3 -0.003698 -0.010453 0.033680 0.000000 0.000000 0.000000
# 4 0.000000 0.000000 0.000000 -0.045006 0.000000 0.000000
# 5 0.000000 0.000000 0.000000 0.000000 0.046992 0.000000
# 6 0.000000 0.000000 0.000000 0.000000 0.000000 0.020734
#
#
# Mechanical properties :
#
#
# Convention : Reuss Voigt Hill
#
# Bulk Modulus (GPa) = 41.50872 54.61122 48.05997
# Shear Modulus (GPa) = 40.96396 20.42383 30.69389
#
# Velocity S-wave (km/s) = 4.60971 3.25493 3.99024
# Velocity P-wave (km/s) = 7.06149 6.51574 6.79409
#
# Compressibility (1/GPa) = 0.02409132
#
# Stress axis : x y z
#
# Youngs Moduli (GPa) = 92.31399 75.82843 29.69156
#
# Poissons Ratio (x) = 0.20123 0.10979
# Poissons Ratio (y) = 0.24497 0.31037
# Poissons Ratio (z) = 0.34133 0.79264
#
# Static dielectric constant tensor:
#      x y z
#    x 3.785540 0.000000 0.000000 
#    y 0.000000 3.684880 0.000000 
#    z 0.000000 0.000000 4.316130 
# 
# 
# High freq. dielectric constant tensor:
#      x y z
#    x 1.766430 0.000000 0.000000 
#    y 0.000000 1.764570 0.000000 
#    z 0.000000 0.000000 1.726790 
# 
# From -- ./inp_files/6055.got.cif
#   From: 2010.03.12/outbox.cif.g09.slc.cpg/sg55_4_cif.got.tgz:6055.got - 2010.04.16 15:19:21.
