data_PCOD8226647
_publ_section_title
;
Structure prediction by ZEFSAII (Michael W. Deem and Ramdas Pophale) SiO2 
 PCOD8226647
Probable space group: P B A M
;
_chemical_formula_sum "Si O2"
_cell_formula_units_Z 64
_cell_length_a 14.593358
_cell_length_b 24.291180
_cell_length_c 8.839902
_cell_angle_alpha 90.000000
_cell_angle_beta 90.000000
_cell_angle_gamma 90.000000
_cell_volume 3133.655852
_symmetry_space_group_name_H-M "P B A M"
_symmetry_group_IT_number 55
_symmetry_cell_setting 'orthorhombic'
loop_
_space_group_symop_operation_xyz
x,y,z
-x,-y,z
1/2+x,1/2-y,-z
1/2-x,1/2+y,-z
-x,-y,-z
x,y,-z
1/2-x,1/2+y,z
1/2+x,1/2-y,z
loop_
_atom_site_type_symbol
_atom_site_label
_atom_site_fract_x
_atom_site_fract_y
_atom_site_fract_z
Si Si1 0.240916 0.062689 0.326313
Si Si2 0.372578 0.258714 0.676693
Si Si3 0.004450 0.330487 0.178946
Si Si4 0.162711 0.265687 0.678027
Si Si5 0.859587 0.844745 0.830030
Si Si6 0.451951 0.056005 0.675081
Si Si7 0.439450 0.363441 0.832051
Si Si8 0.399463 0.484031 0.175292
O O1 0.219921 0.075513 0.500000
O O2 0.222439 0.118594 0.234446
O O3 0.344903 0.045908 0.298497
O O4 0.178277 0.012750 0.272743
O O5 0.377851 0.245463 0.500000
O O6 0.423715 0.208905 0.759922
O O7 0.267962 0.264523 0.732695
O O8 0.418674 0.317288 0.708855
O O9 0.104386 0.313544 0.241943
O O10 0.987109 0.393167 0.226170
O O11 0.005916 0.325459 0.000000
O O12 0.153850 0.274307 0.500000
O O13 0.119631 0.207804 0.726496
O O14 0.953033 0.880208 0.826743
O O15 0.834008 0.826155 0.000000
O O16 0.474322 0.068511 0.500000
O O17 0.500000 0.000000 0.730355
O O18 0.383031 0.418866 0.800144
O O19 0.416280 0.340281 0.000000
O O20 0.500000 0.500000 0.235397
O O21 0.388671 0.501097 0.000000
#
# Coordination Sequence:
#
# PCOD8226647 Si02
#       8
#     8   8   8   8   8   8   8   8
#     4  11  23  38  62  94 123 161 212 262 312 370
#     4  11  24  41  63  92 128 167 208 256 310 371
#     4  12  25  42  67  97 128 164 209 261 315 375
#     4  11  24  41  63  92 126 167 210 255 312 372
#     4  11  21  37  61  90 124 163 205 253 311 369
#     4  10  24  47  69  89 122 165 210 263 317 368
#     4  10  21  37  59  87 122 163 203 250 310 368
#     4  10  20  38  59  83 122 164 200 244 305 371
#
# _framework density 20.42343
#
# number of rings (size 3 to 8) (size 9 to 14) (size 15 to 20)
#    0.000    1.250    2.500    3.375    0.000    8.500 
#    0.000    3.750    0.000    0.000    0.000    0.000 
#    0.000    0.000    0.000    0.000    0.000    0.000 
#
# Total GULP energy -793837.198450 kJ/mol
# GULP energy per Si atom -12403.706226 kJ/mol
# Density = 2.037695 g / cm^3
# Si number density = 20.423430 Si / 1000 Ang^3
#
#
#
# Elastic Constant Matrix: (Units=GPa)
#
#
# Indices 1 2 3 4 5 6 
#
# 1 119.4550 54.7382 59.1603 0.0000 0.0000 0.0000
# 2 54.7382 119.2614 48.1652 0.0000 0.0000 0.0000
# 3 59.1603 48.1652 100.6495 0.0000 0.0000 0.0000
# 4 0.0000 0.0000 0.0000 37.3559 0.0000 0.0000
# 5 0.0000 0.0000 0.0000 0.0000 9.7001 0.0000
# 6 0.0000 0.0000 0.0000 0.0000 0.0000 34.1086
#
#
#
# Elastic Compliance Matrix: (Units=1/GPa)
#
#
# Indices 1 2 3 4 5 6 
#
# 1 0.012916 -0.003548 -0.005894 0.000000 0.000000 0.000000
# 2 -0.003548 0.011368 -0.003355 0.000000 0.000000 0.000000
# 3 -0.005894 -0.003355 0.015005 0.000000 0.000000 0.000000
# 4 0.000000 0.000000 0.000000 0.026770 0.000000 0.000000
# 5 0.000000 0.000000 0.000000 0.000000 0.103092 0.000000
# 6 0.000000 0.000000 0.000000 0.000000 0.000000 0.029318
#
#
# Mechanical properties :
#
#
# Convention : Reuss Voigt Hill
#
# Bulk Modulus (GPa) = 73.01304 73.72148 73.36726
# Shear Modulus (GPa) = 21.86953 28.05306 24.96130
#
# Velocity S-wave (km/s) = 3.27587 3.71019 3.49978
# Velocity P-wave (km/s) = 7.08065 7.38437 7.23411
#
# Compressibility (1/GPa) = 0.01369618
#
# Stress axis : x y z
#
# Youngs Moduli (GPa) = 77.42244 87.96474 66.64271
#
# Poissons Ratio (x) = 0.31208 0.39280
# Poissons Ratio (y) = 0.27468 0.22358
# Poissons Ratio (z) = 0.45634 0.29511
#
# Static dielectric constant tensor:
#      x y z
#    x 3.801380 0.000000 0.000000 
#    y 0.000000 3.645290 0.000000 
#    z 0.000000 0.000000 3.674000 
# 
# 
# High freq. dielectric constant tensor:
#      x y z
#    x 1.801340 0.000000 0.000000 
#    y 0.000000 1.802010 0.000000 
#    z 0.000000 0.000000 1.798720 
# 
# From -- ./inp_files/6582.got.cif
#   From: 2010.03.12/outbox.cif.g09.slc.cpg/sg55_4_cif.got.tgz:6582.got - 2010.04.16 15:19:21.
