data_PCOD8226590
_publ_section_title
;
Structure prediction by ZEFSAII (Michael W. Deem and Ramdas Pophale) SiO2 
 PCOD8226590
Probable space group: P B A M
;
_chemical_formula_sum "Si O2"
_cell_formula_units_Z 56
_cell_length_a 13.565108
_cell_length_b 14.736443
_cell_length_c 13.788260
_cell_angle_alpha 90.000000
_cell_angle_beta 90.000000
_cell_angle_gamma 90.000000
_cell_volume 2756.293041
_symmetry_space_group_name_H-M "P B A M"
_symmetry_group_IT_number 55
_symmetry_cell_setting 'orthorhombic'
loop_
_space_group_symop_operation_xyz
x,y,z
-x,-y,z
1/2+x,1/2-y,-z
1/2-x,1/2+y,-z
-x,-y,-z
x,y,-z
1/2-x,1/2+y,z
1/2+x,1/2-y,z
loop_
_atom_site_type_symbol
_atom_site_label
_atom_site_fract_x
_atom_site_fract_y
_atom_site_fract_z
Si Si1 0.254731 0.133516 0.387297
Si Si2 0.425141 0.918593 0.891942
Si Si3 0.644896 0.694511 0.290284
Si Si4 0.755711 0.518739 0.247051
Si Si5 0.092819 0.061120 0.110236
Si Si6 0.971463 0.235736 0.111329
Si Si7 0.024577 0.100192 0.611097
O O1 0.284860 0.126404 0.500000
O O2 0.295170 0.226900 0.343760
O O3 0.137551 0.126831 0.373538
O O4 0.301326 0.048679 0.328248
O O5 0.339223 0.937620 0.817793
O O6 0.484665 0.831289 0.856054
O O7 0.500000 0.000000 0.893482
O O8 0.381603 0.902142 0.000000
O O9 0.703924 0.601179 0.302650
O O10 0.625320 0.716545 0.176723
O O11 0.537826 0.679308 0.337757
O O12 0.682774 0.460345 0.180132
O O13 0.059587 0.164209 0.126582
O O14 0.126836 0.042863 0.000000
O O15 0.000000 0.000000 0.138046
O O16 0.934232 0.234974 0.000000
O O17 0.992760 0.099675 0.500000
O O18 0.000000 0.000000 0.655294
#
# Coordination Sequence:
#
# PCOD8226590 Si02
#       7
#     8   8   8   8   8   8   8
#     4  11  26  44  64  97 128 161 216 274 330 386
#     4  10  23  44  63  88 131 176 215 254 309 384
#     4  12  24  39  69  95 130 166 213 264 325 387
#     4  12  24  38  67  95 123 172 214 263 317 389
#     4  10  20  37  61  97 136 161 202 264 316 371
#     4  10  22  40  65  95 133 173 213 263 314 380
#     4  10  21  42  69  93 123 163 212 269 327 381
#
# _framework density 20.317143999999999
#
# number of rings (size 3 to 8) (size 9 to 14) (size 15 to 20)
#    0.000    1.286    2.857    2.571    4.000    1.143 
#    0.000    0.714    0.000    1.286    0.000    0.000 
#    0.000    0.000    0.000    0.000    0.000    0.000 
#
# Total GULP energy -694546.825777 kJ/mol
# GULP energy per Si atom -12402.621889 kJ/mol
# Density = 2.027090 g / cm^3
# Si number density = 20.317144 Si / 1000 Ang^3
#
#
#
# Elastic Constant Matrix: (Units=GPa)
#
#
# Indices 1 2 3 4 5 6 
#
# 1 44.0801 26.6384 26.9946 0.0000 0.0000 0.0000
# 2 26.6384 133.4246 39.6848 0.0000 0.0000 0.0000
# 3 26.9946 39.6848 109.7176 0.0000 0.0000 0.0000
# 4 0.0000 0.0000 0.0000 38.2938 0.0000 0.0000
# 5 0.0000 0.0000 0.0000 0.0000 31.3541 0.0000
# 6 0.0000 0.0000 0.0000 0.0000 0.0000 31.7035
#
#
#
# Elastic Compliance Matrix: (Units=1/GPa)
#
#
# Indices 1 2 3 4 5 6 
#
# 1 0.028533 -0.004044 -0.005558 0.000000 0.000000 0.000000
# 2 -0.004044 0.008971 -0.002250 0.000000 0.000000 0.000000
# 3 -0.005558 -0.002250 0.011296 0.000000 0.000000 0.000000
# 4 0.000000 0.000000 0.000000 0.026114 0.000000 0.000000
# 5 0.000000 0.000000 0.000000 0.000000 0.031894 0.000000
# 6 0.000000 0.000000 0.000000 0.000000 0.000000 0.031542
#
#
# Mechanical properties :
#
#
# Convention : Reuss Voigt Hill
#
# Bulk Modulus (GPa) = 39.84480 52.65088 46.24784
# Shear Modulus (GPa) = 29.33955 33.19725 31.26840
#
# Velocity S-wave (km/s) = 3.80423 4.04660 3.92728
# Velocity P-wave (km/s) = 6.24101 6.91405 6.58613
#
# Compressibility (1/GPa) = 0.02509738
#
# Stress axis : x y z
#
# Youngs Moduli (GPa) = 35.04702 111.46479 88.53056
#
# Poissons Ratio (x) = 0.45073 0.49202
# Poissons Ratio (y) = 0.14172 0.19920
# Poissons Ratio (z) = 0.19478 0.25080
#
# Static dielectric constant tensor:
#      x y z
#    x 3.568980 0.000000 0.000000 
#    y 0.000000 3.897280 0.000000 
#    z 0.000000 0.000000 4.032510 
# 
# 
# High freq. dielectric constant tensor:
#      x y z
#    x 1.772150 0.000000 0.000000 
#    y 0.000000 1.805210 0.000000 
#    z 0.000000 0.000000 1.809090 
# 
# From -- ./inp_files/18417.got.cif
#   From: 2010.03.12/outbox.cif.g09.slc.cpg/sg55_10_cif.got.tgz:18417.got - 2010.04.16 15:19:21.
