data_PCOD8226410
_publ_section_title
;
Structure prediction by ZEFSAII (Michael W. Deem and Ramdas Pophale) SiO2 
 PCOD8226410
Probable space group: P B A M
;
_chemical_formula_sum "Si O2"
_cell_formula_units_Z 56
_cell_length_a 16.091748
_cell_length_b 20.090883
_cell_length_c 8.989452
_cell_angle_alpha 90.000000
_cell_angle_beta 90.000000
_cell_angle_gamma 90.000000
_cell_volume 2906.266696
_symmetry_space_group_name_H-M "P B A M"
_symmetry_group_IT_number 55
_symmetry_cell_setting 'orthorhombic'
loop_
_space_group_symop_operation_xyz
x,y,z
-x,-y,z
1/2+x,1/2-y,-z
1/2-x,1/2+y,-z
-x,-y,-z
x,y,-z
1/2-x,1/2+y,z
1/2+x,1/2-y,z
loop_
_atom_site_type_symbol
_atom_site_label
_atom_site_fract_x
_atom_site_fract_y
_atom_site_fract_z
Si Si1 0.747071 0.532038 0.175847
Si Si2 0.818068 0.392006 0.824771
Si Si3 0.490424 0.684025 0.327698
Si Si4 0.677411 0.291647 0.176498
Si Si5 0.029488 0.669291 0.670253
Si Si6 0.923697 0.047455 0.328220
Si Si7 0.660948 0.153445 0.326458
O O1 0.792788 0.465219 0.230288
O O2 0.651214 0.527088 0.222041
O O3 0.790230 0.592451 0.258310
O O4 0.753209 0.542149 0.000000
O O5 0.751374 0.338729 0.765801
O O6 0.909406 0.374821 0.767752
O O7 0.820047 0.390160 0.000000
O O8 0.462189 0.686289 0.500000
O O9 0.408366 0.675068 0.229275
O O10 0.536592 0.752804 0.285493
O O11 0.552704 0.623877 0.295211
O O12 0.693003 0.220172 0.248844
O O13 0.675775 0.284368 0.000000
O O14 0.054437 0.658797 0.500000
O O15 0.936746 0.643433 0.702231
O O16 0.897765 0.038108 0.500000
O O17 0.000000 0.000000 0.287095
O O18 0.681386 0.158988 0.500000
#
# Coordination Sequence:
#
# PCOD8226410 Si02
#       7
#     8   8   8   8   8   8   8
#     4  11  24  40  58  85 119 156 196 241 295 353
#     4  10  23  39  56  83 119 152 191 238 289 351
#     4   9  19  36  56  84 116 149 192 239 288 341
#     4  10  20  36  59  87 117 153 194 237 289 348
#     4   9  20  37  58  83 110 147 195 242 289 342
#     4  10  21  37  59  87 121 158 198 241 288 349
#     4  10  22  41  61  85 116 151 194 246 296 349
#
# _framework density 19.268706999999999
#
# number of rings (size 3 to 8) (size 9 to 14) (size 15 to 20)
#    0.000    2.143    0.000    3.000    2.000    6.571 
#    0.000    2.857    0.000    0.000    0.000    0.000 
#    0.000    0.000    0.000    0.000    0.000    0.000 
#
# Total GULP energy -694622.329624 kJ/mol
# GULP energy per Si atom -12403.970172 kJ/mol
# Density = 1.922485 g / cm^3
# Si number density = 19.268707 Si / 1000 Ang^3
#
#
#
# Elastic Constant Matrix: (Units=GPa)
#
#
# Indices 1 2 3 4 5 6 
#
# 1 55.2855 22.7169 20.3840 0.0000 0.0000 0.0000
# 2 22.7169 76.2495 26.6886 0.0000 0.0000 0.0000
# 3 20.3840 26.6886 54.5107 0.0000 0.0000 0.0000
# 4 0.0000 0.0000 0.0000 21.5770 0.0000 0.0000
# 5 0.0000 0.0000 0.0000 0.0000 38.4567 0.0000
# 6 0.0000 0.0000 0.0000 0.0000 0.0000 33.6667
#
#
#
# Elastic Compliance Matrix: (Units=1/GPa)
#
#
# Indices 1 2 3 4 5 6 
#
# 1 0.022175 -0.004470 -0.006104 0.000000 0.000000 0.000000
# 2 -0.004470 0.016728 -0.006519 0.000000 0.000000 0.000000
# 3 -0.006104 -0.006519 0.023819 0.000000 0.000000 0.000000
# 4 0.000000 0.000000 0.000000 0.046346 0.000000 0.000000
# 5 0.000000 0.000000 0.000000 0.000000 0.026003 0.000000
# 6 0.000000 0.000000 0.000000 0.000000 0.000000 0.029703
#
#
# Mechanical properties :
#
#
# Convention : Reuss Voigt Hill
#
# Bulk Modulus (GPa) = 35.04165 36.18051 35.61108
# Shear Modulus (GPa) = 23.98406 26.49049 25.23728
#
# Velocity S-wave (km/s) = 3.53188 3.71184 3.62298
# Velocity P-wave (km/s) = 5.90402 6.09819 6.00189
#
# Compressibility (1/GPa) = 0.02853747
#
# Stress axis : x y z
#
# Youngs Moduli (GPa) = 45.09538 59.77905 41.98334
#
# Poissons Ratio (x) = 0.26723 0.25625
# Poissons Ratio (y) = 0.20159 0.27367
# Poissons Ratio (z) = 0.27525 0.38967
#
# Static dielectric constant tensor:
#      x y z
#    x 3.491050 0.000000 0.000000 
#    y 0.000000 3.743360 0.000000 
#    z 0.000000 0.000000 3.459310 
# 
# 
# High freq. dielectric constant tensor:
#      x y z
#    x 1.750870 0.000000 0.000000 
#    y 0.000000 1.761590 0.000000 
#    z 0.000000 0.000000 1.748530 
# 
# From -- ./inp_files/6025.got.cif
#   From: 2010.03.12/outbox.cif.g09.slc.cpg/sg55_4_cif.got.tgz:6025.got - 2010.04.16 15:19:21.
