data_PCOD8226081
_publ_section_title
;
Structure prediction by ZEFSAII (Michael W. Deem and Ramdas Pophale) SiO2 
 PCOD8226081
Probable space group: P B A M
;
_chemical_formula_sum "Si O2"
_cell_formula_units_Z 64
_cell_length_a 12.774690
_cell_length_b 28.812184
_cell_length_c 8.800129
_cell_angle_alpha 90.000000
_cell_angle_beta 90.000000
_cell_angle_gamma 90.000000
_cell_volume 3239.034606
_symmetry_space_group_name_H-M "P B A M"
_symmetry_group_IT_number 55
_symmetry_cell_setting 'orthorhombic'
loop_
_space_group_symop_operation_xyz
x,y,z
-x,-y,z
1/2+x,1/2-y,-z
1/2-x,1/2+y,-z
-x,-y,-z
x,y,-z
1/2-x,1/2+y,z
1/2+x,1/2-y,z
loop_
_atom_site_type_symbol
_atom_site_label
_atom_site_fract_x
_atom_site_fract_y
_atom_site_fract_z
Si Si1 0.440261 0.803434 0.819639
Si Si2 0.881465 0.798756 0.180877
Si Si3 0.874503 0.601822 0.676973
Si Si4 0.668771 0.562047 0.178363
Si Si5 0.836674 0.328657 0.175921
Si Si6 0.893564 0.418409 0.328312
Si Si7 0.187599 0.032971 0.673656
Si Si8 0.026259 0.112740 0.678610
O O1 0.399971 0.753736 0.765659
O O2 0.381356 0.845093 0.734193
O O3 0.560763 0.802303 0.765585
O O4 0.428399 0.811708 0.000000
O O5 0.767683 0.809190 0.252898
O O6 0.961086 0.836085 0.250479
O O7 0.890081 0.802872 0.000000
O O8 0.845836 0.601928 0.500000
O O9 0.784258 0.576059 0.768042
O O10 0.983253 0.572967 0.706425
O O11 0.649087 0.508331 0.219137
O O12 0.582115 0.593029 0.259142
O O13 0.658961 0.569191 0.000000
O O14 0.848315 0.382673 0.207938
O O15 0.822585 0.320220 0.000000
O O16 0.884166 0.398414 0.500000
O O17 0.814742 0.462010 0.310730
O O18 0.159292 0.020231 0.500000
O O19 0.124469 0.079456 0.722526
O O20 0.016754 0.118110 0.500000
#
# Coordination Sequence:
#
# PCOD8226081 Si02
#       8
#     8   8   8   8   8   8   8   8
#     4   9  19  35  55  83 119 158 198 239 291 347
#     4  10  20  34  56  86 118 155 199 242 291 348
#     4  10  21  39  61  85 117 155 199 246 296 351
#     4  12  26  41  59  84 120 159 196 241 300 364
#     4   9  17  31  52  78 111 149 189 237 285 335
#     4   9  18  35  60  86 112 148 190 237 288 342
#     4  10  21  39  62  88 117 152 194 243 298 352
#     4  11  23  40  62  86 117 153 198 249 296 350
#
# _framework density 19.758973999999998
#
# number of rings (size 3 to 8) (size 9 to 14) (size 15 to 20)
#    0.000    2.000    1.250    2.250    0.000    5.500 
#    0.000    5.000    0.000    0.000    0.000    0.000 
#    0.000    0.000    0.000    0.000    0.000    0.000 
#
# Total GULP energy -793335.310342 kJ/mol
# GULP energy per Si atom -12395.864224 kJ/mol
# Density = 1.971400 g / cm^3
# Si number density = 19.758974 Si / 1000 Ang^3
#
#
#
# Elastic Constant Matrix: (Units=GPa)
#
#
# Indices 1 2 3 4 5 6 
#
# 1 80.2354 4.3779 13.9010 0.0000 0.0000 0.0000
# 2 4.3779 48.5892 18.4327 0.0000 0.0000 0.0000
# 3 13.9010 18.4327 41.8857 0.0000 0.0000 0.0000
# 4 0.0000 0.0000 0.0000 22.8259 0.0000 0.0000
# 5 0.0000 0.0000 0.0000 0.0000 27.0695 0.0000
# 6 0.0000 0.0000 0.0000 0.0000 0.0000 24.0941
#
#
#
# Elastic Compliance Matrix: (Units=1/GPa)
#
#
# Indices 1 2 3 4 5 6 
#
# 1 0.013237 0.000569 -0.004643 0.000000 0.000000 0.000000
# 2 0.000569 0.024730 -0.011072 0.000000 0.000000 0.000000
# 3 -0.004643 -0.011072 0.030288 0.000000 0.000000 0.000000
# 4 0.000000 0.000000 0.000000 0.043810 0.000000 0.000000
# 5 0.000000 0.000000 0.000000 0.000000 0.036942 0.000000
# 6 0.000000 0.000000 0.000000 0.000000 0.000000 0.041504
#
#
# Mechanical properties :
#
#
# Convention : Reuss Voigt Hill
#
# Bulk Modulus (GPa) = 26.34211 27.12592 26.73402
# Shear Modulus (GPa) = 21.41734 23.73116 22.57425
#
# Velocity S-wave (km/s) = 3.29588 3.46935 3.38373
# Velocity P-wave (km/s) = 5.27678 5.45955 5.36895
#
# Compressibility (1/GPa) = 0.03796203
#
# Stress axis : x y z
#
# Youngs Moduli (GPa) = 75.54716 40.43753 33.01667
#
# Poissons Ratio (x) = -0.02300 0.15331
# Poissons Ratio (y) = -0.04298 0.36554
# Poissons Ratio (z) = 0.35079 0.44770
#
# Static dielectric constant tensor:
#      x y z
#    x 3.963210 0.000000 0.000000 
#    y 0.000000 3.531960 0.000000 
#    z 0.000000 0.000000 3.514480 
# 
# 
# High freq. dielectric constant tensor:
#      x y z
#    x 1.783900 0.000000 0.000000 
#    y 0.000000 1.759660 0.000000 
#    z 0.000000 0.000000 1.762040 
# 
# From -- ./inp_files/4513.got.cif
#   From: 2010.03.12/outbox.cif.g09.slc.cpg/sg55_3_cif.got.tgz:4513.got - 2010.04.16 15:19:21.
