data_PCOD8226673
_publ_section_title
;
Structure prediction by ZEFSAII (Michael W. Deem and Ramdas Pophale) SiO2 
 PCOD8226673
Probable space group: P B A M
;
_chemical_formula_sum "Si O2"
_cell_formula_units_Z 40
_cell_length_a 8.290397
_cell_length_b 16.156870
_cell_length_c 14.963412
_cell_angle_alpha 90.000000
_cell_angle_beta 90.000000
_cell_angle_gamma 90.000000
_cell_volume 2004.302151
_symmetry_space_group_name_H-M "P B A M"
_symmetry_group_IT_number 55
_symmetry_cell_setting 'orthorhombic'
loop_
_space_group_symop_operation_xyz
x,y,z
-x,-y,z
1/2+x,1/2-y,-z
1/2-x,1/2+y,-z
-x,-y,-z
x,y,-z
1/2-x,1/2+y,z
1/2+x,1/2-y,z
loop_
_atom_site_type_symbol
_atom_site_label
_atom_site_fract_x
_atom_site_fract_y
_atom_site_fract_z
Si Si1 0.418353 0.411491 0.598509
Si Si2 0.376864 0.867878 0.899953
Si Si3 0.349559 0.653637 0.728690
Si Si4 0.322467 0.980993 0.265801
Si Si5 0.883557 0.243452 0.827188
O O1 0.500000 0.500000 0.590458
O O2 0.360580 0.382009 0.500000
O O3 0.555669 0.347228 0.633918
O O4 0.266237 0.417268 0.666388
O O5 0.340526 0.941485 0.831712
O O6 0.238018 0.798763 0.895917
O O7 0.545476 0.824616 0.874937
O O8 0.385789 0.904296 0.000000
O O9 0.281754 0.562896 0.748225
O O10 0.209605 0.723280 0.736792
O O11 0.482848 0.675564 0.803228
O O12 0.500000 0.000000 0.306059
#
# Coordination Sequence:
#
# PCOD8226673 Si02
#       5
#     8   8   8   8   8
#     4   9  19  37  63  87 114 152 196 243 293 355
#     4  11  22  38  59  88 120 161 207 247 301 359
#     4  10  20  38  62  82 120 155 202 245 304 354
#     4  11  21  38  60  89 122 159 199 253 295 350
#     4  10  21  38  60  83 118 165 195 250 304 360
#
# _framework density 19.957072
#
# number of rings (size 3 to 8) (size 9 to 14) (size 15 to 20)
#    0.000    1.800    4.000    0.600    0.000    0.800 
#    0.000    4.000    0.000    0.000    0.000    0.000 
#    0.000    0.000    0.000    0.000    0.000    0.000 
#
# Total GULP energy -495725.440489 kJ/mol
# GULP energy per Si atom -12393.136012 kJ/mol
# Density = 1.991165 g / cm^3
# Si number density = 19.957072 Si / 1000 Ang^3
#
#
#
# Elastic Constant Matrix: (Units=GPa)
#
#
# Indices 1 2 3 4 5 6 
#
# 1 116.8432 36.5928 49.2830 0.0000 0.0000 0.0000
# 2 36.5928 57.4211 27.3840 0.0000 0.0000 0.0000
# 3 49.2830 27.3840 132.9568 0.0000 0.0000 0.0000
# 4 0.0000 0.0000 0.0000 20.5322 0.0000 0.0000
# 5 0.0000 0.0000 0.0000 0.0000 19.1554 0.0000
# 6 0.0000 0.0000 0.0000 0.0000 0.0000 38.2665
#
#
#
# Elastic Compliance Matrix: (Units=1/GPa)
#
#
# Indices 1 2 3 4 5 6 
#
# 1 0.011755 -0.006003 -0.003121 0.000000 0.000000 0.000000
# 2 -0.006003 0.022377 -0.002384 0.000000 0.000000 0.000000
# 3 -0.003121 -0.002384 0.009169 0.000000 0.000000 0.000000
# 4 0.000000 0.000000 0.000000 0.048704 0.000000 0.000000
# 5 0.000000 0.000000 0.000000 0.000000 0.052205 0.000000
# 6 0.000000 0.000000 0.000000 0.000000 0.000000 0.026133
#
#
# Mechanical properties :
#
#
# Convention : Reuss Voigt Hill
#
# Bulk Modulus (GPa) = 49.29398 59.30452 54.29925
# Shear Modulus (GPa) = 24.98514 28.52157 26.75335
#
# Velocity S-wave (km/s) = 3.54212 3.78451 3.66532
# Velocity P-wave (km/s) = 6.44069 6.99122 6.72159
#
# Compressibility (1/GPa) = 0.02028645
#
# Stress axis : x y z
#
# Youngs Moduli (GPa) = 85.07245 44.68806 109.06298
#
# Poissons Ratio (x) = 0.26825 0.34036
# Poissons Ratio (y) = 0.51066 0.25999
# Poissons Ratio (z) = 0.26549 0.10653
#
# Static dielectric constant tensor:
#      x y z
#    x 4.019620 0.000000 0.000000 
#    y 0.000000 3.555420 0.000000 
#    z 0.000000 0.000000 3.628770 
# 
# 
# High freq. dielectric constant tensor:
#      x y z
#    x 1.794730 0.000000 0.000000 
#    y 0.000000 1.770210 0.000000 
#    z 0.000000 0.000000 1.751320 
# 
# From -- ./inp_files/14653.got.cif
#   From: 2010.03.12/outbox.cif.g09.slc.cpg/sg55_8_cif.got.tgz:14653.got - 2010.04.16 15:19:21.
