data_PCOD8226475
_publ_section_title
;
Structure prediction by ZEFSAII (Michael W. Deem and Ramdas Pophale) SiO2 
 PCOD8226475
Probable space group: P B A M
;
_chemical_formula_sum "Si O2"
_cell_formula_units_Z 40
_cell_length_a 26.994533
_cell_length_b 10.129291
_cell_length_c 7.685265
_cell_angle_alpha 90.000000
_cell_angle_beta 90.000000
_cell_angle_gamma 90.000000
_cell_volume 2101.424125
_symmetry_space_group_name_H-M "P B A M"
_symmetry_group_IT_number 55
_symmetry_cell_setting 'orthorhombic'
loop_
_space_group_symop_operation_xyz
x,y,z
-x,-y,z
1/2+x,1/2-y,-z
1/2-x,1/2+y,-z
-x,-y,-z
x,y,-z
1/2-x,1/2+y,z
1/2+x,1/2-y,z
loop_
_atom_site_type_symbol
_atom_site_label
_atom_site_fract_x
_atom_site_fract_y
_atom_site_fract_z
Si Si1 0.461834 0.618218 0.000000
Si Si2 0.097045 0.718715 0.303845
Si Si3 0.469659 0.132054 0.000000
Si Si4 0.793960 0.290592 0.795206
Si Si5 0.789300 0.991242 0.204818
Si Si6 0.101875 0.023105 0.304136
O O1 0.500000 0.500000 0.000000
O O2 0.428116 0.615388 0.172637
O O3 0.490516 0.753410 0.000000
O O4 0.077686 0.695725 0.500000
O O5 0.064227 0.634313 0.171970
O O6 0.154222 0.674775 0.295503
O O7 0.092602 0.871737 0.248651
O O8 0.500000 0.000000 0.000000
O O9 0.753882 0.395510 0.725607
O O10 0.776216 0.142523 0.745833
O O11 0.801753 0.304056 0.000000
O O12 0.839865 0.945683 0.295993
O O13 0.796748 0.975249 0.000000
O O14 0.082962 0.050313 0.500000
#
# Coordination Sequence:
#
# PCOD8226475 Si02
#       6
#     4   8   4   8   8   8
#     4  12  22  40  67  84 110 148 195 244 288 340
#     4  10  20  38  63  87 116 154 194 233 287 352
#     4  12  26  44  61  84 116 152 191 246 298 346
#     4   9  17  32  56  83 114 153 190 227 277 337
#     4   9  17  32  54  82 117 152 188 229 276 337
#     4  10  20  36  62  92 116 145 194 245 286 337
#
# _framework density 19.034711000000001
#
# number of rings (size 3 to 8) (size 9 to 14) (size 15 to 20)
#    0.000    2.000    4.000    0.000    0.000    2.400 
#    3.600    0.000    0.000    0.000    0.000    0.000 
#    0.000    0.000    0.000    0.000    0.000    0.000 
#
# Total GULP energy -496089.871293 kJ/mol
# GULP energy per Si atom -12402.246782 kJ/mol
# Density = 1.899139 g / cm^3
# Si number density = 19.034711 Si / 1000 Ang^3
#
#
#
# Elastic Constant Matrix: (Units=GPa)
#
#
# Indices 1 2 3 4 5 6 
#
# 1 106.7627 69.1421 56.8295 0.0000 0.0000 0.0000
# 2 69.1421 101.9212 35.7648 0.0000 0.0000 0.0000
# 3 56.8295 35.7648 99.0685 0.0000 0.0000 0.0000
# 4 0.0000 0.0000 0.0000 7.5953 0.0000 0.0000
# 5 0.0000 0.0000 0.0000 0.0000 5.1844 0.0000
# 6 0.0000 0.0000 0.0000 0.0000 0.0000 41.6138
#
#
#
# Elastic Compliance Matrix: (Units=1/GPa)
#
#
# Indices 1 2 3 4 5 6 
#
# 1 0.021009 -0.011477 -0.007908 0.000000 0.000000 0.000000
# 2 -0.011477 0.017505 0.000264 0.000000 0.000000 0.000000
# 3 -0.007908 0.000264 0.014535 0.000000 0.000000 0.000000
# 4 0.000000 0.000000 0.000000 0.131660 0.000000 0.000000
# 5 0.000000 0.000000 0.000000 0.000000 0.192885 0.000000
# 6 0.000000 0.000000 0.000000 0.000000 0.000000 0.024030
#
#
# Mechanical properties :
#
#
# Convention : Reuss Voigt Hill
#
# Bulk Modulus (GPa) = 67.53690 70.13614 68.83652
# Shear Modulus (GPa) = 11.24096 20.61312 15.92704
#
# Velocity S-wave (km/s) = 2.43276 3.29435 2.89578
# Velocity P-wave (km/s) = 6.59159 7.16915 6.88643
#
# Compressibility (1/GPa) = 0.01480672
#
# Stress axis : x y z
#
# Youngs Moduli (GPa) = 47.59865 57.12738 68.79938
#
# Poissons Ratio (x) = 0.65566 0.54408
# Poissons Ratio (y) = 0.54630 -0.01819
# Poissons Ratio (z) = 0.37642 -0.01510
#
# Static dielectric constant tensor:
#      x y z
#    x 3.524910 0.000000 0.000000 
#    y 0.000000 3.254680 0.000000 
#    z 0.000000 0.000000 3.567880 
# 
# 
# High freq. dielectric constant tensor:
#      x y z
#    x 1.742810 0.000000 0.000000 
#    y 0.000000 1.708690 0.000000 
#    z 0.000000 0.000000 1.747280 
# 
# From -- ./inp_files/10027.got.cif
#   From: 2010.03.12/outbox.cif.g09.slc.cpg/sg55_6_cif.got.tgz:10027.got - 2010.04.16 15:19:21.
