data_PCOD8226801
_publ_section_title
;
Structure prediction by ZEFSAII (Michael W. Deem and Ramdas Pophale) SiO2 
 PCOD8226801
Probable space group: P B A M
;
_chemical_formula_sum "Si O2"
_cell_formula_units_Z 64
_cell_length_a 18.957896
_cell_length_b 23.042146
_cell_length_c 9.088315
_cell_angle_alpha 90.000000
_cell_angle_beta 90.000000
_cell_angle_gamma 90.000000
_cell_volume 3970.054162
_symmetry_space_group_name_H-M "P B A M"
_symmetry_group_IT_number 55
_symmetry_cell_setting 'orthorhombic'
loop_
_space_group_symop_operation_xyz
x,y,z
-x,-y,z
1/2+x,1/2-y,-z
1/2-x,1/2+y,-z
-x,-y,-z
x,y,-z
1/2-x,1/2+y,z
1/2+x,1/2-y,z
loop_
_atom_site_type_symbol
_atom_site_label
_atom_site_fract_x
_atom_site_fract_y
_atom_site_fract_z
Si Si1 0.276717 0.165940 0.673291
Si Si2 0.000375 0.248894 0.826655
Si Si3 0.133425 0.558442 0.325923
Si Si4 0.646389 0.061959 0.171507
Si Si5 0.003897 0.617403 0.828435
Si Si6 0.136567 0.773669 0.671112
Si Si7 0.272880 0.843179 0.667764
Si Si8 0.858860 0.772862 0.329147
O O1 0.277171 0.176366 0.500000
O O2 0.303600 0.102506 0.718911
O O3 0.330030 0.214336 0.737367
O O4 0.196358 0.177445 0.725837
O O5 0.071140 0.219799 0.765756
O O6 0.995759 0.315988 0.776522
O O7 0.934516 0.213447 0.760982
O O8 0.000848 0.242832 0.000000
O O9 0.125866 0.553057 0.500000
O O10 0.154555 0.497534 0.258319
O O11 0.059620 0.580727 0.263523
O O12 0.571849 0.090917 0.208589
O O13 0.708439 0.104535 0.223529
O O14 0.655063 0.049364 0.000000
O O15 0.022367 0.611425 0.000000
O O16 0.117209 0.767068 0.500000
O O17 0.191576 0.825987 0.695803
O O18 0.283471 0.863700 0.500000
O O19 0.323465 0.789132 0.701571
O O20 0.878253 0.780163 0.500000
#
# Coordination Sequence:
#
# PCOD8226801 Si02
#       8
#     8   8   8   8   8   8   8   8
#     4   8  16  31  49  70  93 120 157 203 244 279
#     4  11  20  30  46  73 102 130 161 193 235 290
#     4  11  21  33  51  71  93 125 171 210 237 278
#     4  11  22  35  48  65  99 136 166 199 241 286
#     4  10  21  34  44  63  99 137 166 195 233 279
#     4   9  17  32  51  71  95 124 159 201 245 285
#     4   9  18  32  51  72  93 121 164 207 240 281
#     4   9  17  31  51  70  93 124 157 197 244 286
#
# _framework density 16.120685999999999
#
# number of rings (size 3 to 8) (size 9 to 14) (size 15 to 20)
#    0.000    2.250    2.500    3.000    0.000    3.500 
#    0.000    3.125    0.000    0.000    0.000    0.875 
#    0.000    7.000    0.000    0.000    0.000    0.000 
#
# Total GULP energy -793615.139989 kJ/mol
# GULP energy per Si atom -12400.236562 kJ/mol
# Density = 1.608399 g / cm^3
# Si number density = 16.120686 Si / 1000 Ang^3
#
#
#
# Elastic Constant Matrix: (Units=GPa)
#
#
# Indices 1 2 3 4 5 6 
#
# 1 119.2318 45.8987 45.6416 0.0000 0.0000 0.0000
# 2 45.8987 74.7697 36.9824 0.0000 0.0000 0.0000
# 3 45.6416 36.9824 57.6604 0.0000 0.0000 0.0000
# 4 0.0000 0.0000 0.0000 22.9635 0.0000 0.0000
# 5 0.0000 0.0000 0.0000 0.0000 18.1562 0.0000
# 6 0.0000 0.0000 0.0000 0.0000 0.0000 20.9303
#
#
#
# Elastic Compliance Matrix: (Units=1/GPa)
#
#
# Indices 1 2 3 4 5 6 
#
# 1 0.012872 -0.004192 -0.007500 0.000000 0.000000 0.000000
# 2 -0.004192 0.020954 -0.010121 0.000000 0.000000 0.000000
# 3 -0.007500 -0.010121 0.029771 0.000000 0.000000 0.000000
# 4 0.000000 0.000000 0.000000 0.043547 0.000000 0.000000
# 5 0.000000 0.000000 0.000000 0.000000 0.055078 0.000000
# 6 0.000000 0.000000 0.000000 0.000000 0.000000 0.047778
#
#
# Mechanical properties :
#
#
# Convention : Reuss Voigt Hill
#
# Bulk Modulus (GPa) = 50.07440 56.52305 53.29872
# Shear Modulus (GPa) = 19.20986 20.61928 19.91457
#
# Velocity S-wave (km/s) = 3.45574 3.58027 3.51856
# Velocity P-wave (km/s) = 6.85948 7.22701 7.04564
#
# Compressibility (1/GPa) = 0.01997028
#
# Stress axis : x y z
#
# Youngs Moduli (GPa) = 77.68957 47.72400 33.58922
#
# Poissons Ratio (x) = 0.20005 0.25193
# Poissons Ratio (y) = 0.32566 0.33997
# Poissons Ratio (z) = 0.58269 0.48303
#
# Static dielectric constant tensor:
#      x y z
#    x 3.085010 0.000000 0.000000 
#    y 0.000000 2.957080 0.000000 
#    z 0.000000 0.000000 2.944090 
# 
# 
# High freq. dielectric constant tensor:
#      x y z
#    x 1.618120 0.000000 0.000000 
#    y 0.000000 1.593970 0.000000 
#    z 0.000000 0.000000 1.615660 
# 
# From -- ./inp_files/8137.got.cif
#   From: 2010.03.12/outbox.cif.g09.slc.cpg/sg55_5_cif.got.tgz:8137.got - 2010.04.16 15:19:21.
