data_PCOD8226489
_publ_section_title
;
Structure prediction by ZEFSAII (Michael W. Deem and Ramdas Pophale) SiO2 
 PCOD8226489
Probable space group: P B A M
;
_chemical_formula_sum "Si O2"
_cell_formula_units_Z 56
_cell_length_a 9.798295
_cell_length_b 22.665677
_cell_length_c 14.204433
_cell_angle_alpha 90.000000
_cell_angle_beta 90.000000
_cell_angle_gamma 90.000000
_cell_volume 3154.591355
_symmetry_space_group_name_H-M "P B A M"
_symmetry_group_IT_number 55
_symmetry_cell_setting 'orthorhombic'
loop_
_space_group_symop_operation_xyz
x,y,z
-x,-y,z
1/2+x,1/2-y,-z
1/2-x,1/2+y,-z
-x,-y,-z
x,y,-z
1/2-x,1/2+y,z
1/2+x,1/2-y,z
loop_
_atom_site_type_symbol
_atom_site_label
_atom_site_fract_x
_atom_site_fract_y
_atom_site_fract_z
Si Si1 0.840052 0.503630 0.389694
Si Si2 0.785780 0.176859 0.104943
Si Si3 0.461804 0.311261 0.608724
Si Si4 0.270209 0.621500 0.607877
Si Si5 0.276367 0.878696 0.296566
Si Si6 0.995500 0.730485 0.896156
Si Si7 0.542403 0.811051 0.704017
O O1 0.816629 0.516907 0.500000
O O2 0.764358 0.444046 0.356532
O O3 0.765639 0.553621 0.327913
O O4 0.000000 0.500000 0.365998
O O5 0.759690 0.127682 0.185252
O O6 0.670210 0.228941 0.114994
O O7 0.937100 0.204659 0.118117
O O8 0.774623 0.148154 0.000000
O O9 0.452240 0.292405 0.500000
O O10 0.571993 0.363250 0.623986
O O11 0.319296 0.336947 0.642168
O O12 0.501500 0.253777 0.668772
O O13 0.225989 0.626469 0.500000
O O14 0.186303 0.671105 0.662139
O O15 0.428103 0.858200 0.323974
O O16 0.058588 0.688089 0.817116
O O17 0.036741 0.706934 0.000000
#
# Coordination Sequence:
#
# PCOD8226489 Si02
#       7
#     8   8   8   8   8   8   8
#     4  10  20  37  57  75  99 141 192 225 254 309
#     4   9  18  33  53  79 108 138 174 216 265 318
#     4  11  23  34  49  79 112 137 168 217 275 316
#     4  10  22  37  53  76 108 143 180 222 260 310
#     4  11  21  34  56  79 103 140 183 218 262 314
#     4   9  18  31  49  75 107 138 169 208 256 317
#     4  11  20  33  54  78 109 140 173 213 263 325
#
# _framework density 17.751902999999999
#
# number of rings (size 3 to 8) (size 9 to 14) (size 15 to 20)
#    0.000    1.857    2.857    1.714    2.000    3.429 
#    0.000    2.143    0.000    1.286    0.000    1.000 
#    0.000    0.000    0.000    0.000    0.000    0.000 
#
# Total GULP energy -694193.829670 kJ/mol
# GULP energy per Si atom -12396.318387 kJ/mol
# Density = 1.771150 g / cm^3
# Si number density = 17.751903 Si / 1000 Ang^3
#
#
#
# Elastic Constant Matrix: (Units=GPa)
#
#
# Indices 1 2 3 4 5 6 
#
# 1 41.9946 15.2199 32.6172 0.0000 0.0000 0.0000
# 2 15.2199 91.1495 42.6730 0.0000 0.0000 0.0000
# 3 32.6172 42.6730 90.1953 0.0000 0.0000 0.0000
# 4 0.0000 0.0000 0.0000 22.0020 0.0000 0.0000
# 5 0.0000 0.0000 0.0000 0.0000 20.0722 0.0000
# 6 0.0000 0.0000 0.0000 0.0000 0.0000 26.7888
#
#
#
# Elastic Compliance Matrix: (Units=1/GPa)
#
#
# Indices 1 2 3 4 5 6 
#
# 1 0.033114 0.000099 -0.012022 0.000000 0.000000 0.000000
# 2 0.000099 0.014093 -0.006703 0.000000 0.000000 0.000000
# 3 -0.012022 -0.006703 0.018606 0.000000 0.000000 0.000000
# 4 0.000000 0.000000 0.000000 0.045450 0.000000 0.000000
# 5 0.000000 0.000000 0.000000 0.000000 0.049820 0.000000
# 6 0.000000 0.000000 0.000000 0.000000 0.000000 0.037329
#
#
# Mechanical properties :
#
#
# Convention : Reuss Voigt Hill
#
# Bulk Modulus (GPa) = 35.01356 44.92884 39.97120
# Shear Modulus (GPa) = 20.39277 22.62786 21.51032
#
# Velocity S-wave (km/s) = 3.39302 3.57413 3.48475
# Velocity P-wave (km/s) = 5.92594 6.51128 6.22549
#
# Compressibility (1/GPa) = 0.02856037
#
# Stress axis : x y z
#
# Youngs Moduli (GPa) = 30.19866 70.95860 53.74637
#
# Poissons Ratio (x) = -0.00702 0.64613
# Poissons Ratio (y) = -0.00299 0.36028
# Poissons Ratio (z) = 0.36304 0.47566
#
# Static dielectric constant tensor:
#      x y z
#    x 3.329280 0.000000 0.000000 
#    y 0.000000 3.089090 0.000000 
#    z 0.000000 0.000000 3.485550 
# 
# 
# High freq. dielectric constant tensor:
#      x y z
#    x 1.692650 0.000000 0.000000 
#    y 0.000000 1.653280 0.000000 
#    z 0.000000 0.000000 1.693220 
# 
# From -- ./inp_files/17636.got.cif
#   From: 2010.03.12/outbox.cif.g09.slc.cpg/sg55_9_cif.got.tgz:17636.got - 2010.04.16 15:19:21.
