data_PCOD8226078
_publ_section_title
;
Structure prediction by ZEFSAII (Michael W. Deem and Ramdas Pophale) SiO2 
 PCOD8226078
Probable space group: P B A M
;
_chemical_formula_sum "Si O2"
_cell_formula_units_Z 64
_cell_length_a 35.963869
_cell_length_b 9.991129
_cell_length_c 8.918154
_cell_angle_alpha 90.000000
_cell_angle_beta 90.000000
_cell_angle_gamma 90.000000
_cell_volume 3204.468014
_symmetry_space_group_name_H-M "P B A M"
_symmetry_group_IT_number 55
_symmetry_cell_setting 'orthorhombic'
loop_
_space_group_symop_operation_xyz
x,y,z
-x,-y,z
1/2+x,1/2-y,-z
1/2-x,1/2+y,-z
-x,-y,-z
x,y,-z
1/2-x,1/2+y,z
1/2+x,1/2-y,z
loop_
_atom_site_type_symbol
_atom_site_label
_atom_site_fract_x
_atom_site_fract_y
_atom_site_fract_z
Si Si1 0.135957 0.883438 0.674853
Si Si2 0.485641 0.639455 0.823013
Si Si3 0.710735 0.541526 0.827627
Si Si4 0.849448 0.636225 0.676530
Si Si5 0.908283 0.855036 0.674442
Si Si6 0.223099 0.261964 0.172235
Si Si7 0.887178 0.389690 0.177949
Si Si8 0.029380 0.605247 0.177626
O O1 0.136473 0.846208 0.500000
O O2 0.126210 0.755607 0.772766
O O3 0.175788 0.942581 0.719279
O O4 0.105060 0.995198 0.710824
O O5 0.500000 0.500000 0.754744
O O6 0.445796 0.679149 0.760199
O O7 0.516064 0.747963 0.773603
O O8 0.481430 0.631278 0.000000
O O9 0.729343 0.396182 0.798395
O O10 0.739366 0.659349 0.787192
O O11 0.697669 0.553622 0.000000
O O12 0.851387 0.615114 0.500000
O O13 0.877613 0.750547 0.732584
O O14 0.808421 0.680344 0.720790
O O15 0.859105 0.497275 0.755532
O O16 0.915564 0.835373 0.500000
O O17 0.211728 0.288725 0.000000
O O18 0.928987 0.418020 0.239574
O O19 0.885916 0.396314 0.000000
O O20 0.000000 0.500000 0.247577
O O21 0.029805 0.589981 0.000000
#
# Coordination Sequence:
#
# PCOD8226078 Si02
#       8
#     8   8   8   8   8   8   8   8
#     4  11  23  41  61  87 124 164 204 248 300 359
#     4  10  20  34  56  85 114 148 197 250 299 352
#     4  10  22  40  63  92 124 158 199 246 296 353
#     4  11  23  41  61  88 123 161 204 247 295 359
#     4  10  22  39  59  84 120 160 200 244 295 359
#     4  10  22  40  63  92 124 158 198 246 296 352
#     4  11  23  39  62  90 120 159 204 254 309 360
#     4   9  18  34  55  82 115 149 192 249 304 355
#
# _framework density 19.972114000000001
#
# number of rings (size 3 to 8) (size 9 to 14) (size 15 to 20)
#    0.000    1.750    1.250    2.625    1.750    4.750 
#    0.000    1.250    0.000    3.375    0.000    0.000 
#    0.000    0.000    0.000    0.000    0.000    0.000 
#
# Total GULP energy -793858.721451 kJ/mol
# GULP energy per Si atom -12404.042523 kJ/mol
# Density = 1.992666 g / cm^3
# Si number density = 19.972114 Si / 1000 Ang^3
#
#
#
# Elastic Constant Matrix: (Units=GPa)
#
#
# Indices 1 2 3 4 5 6 
#
# 1 75.9126 9.6884 18.7327 0.0000 0.0000 0.0000
# 2 9.6884 92.1304 18.5963 0.0000 0.0000 0.0000
# 3 18.7327 18.5963 46.6479 0.0000 0.0000 0.0000
# 4 0.0000 0.0000 0.0000 19.6066 0.0000 0.0000
# 5 0.0000 0.0000 0.0000 0.0000 20.4948 0.0000
# 6 0.0000 0.0000 0.0000 0.0000 0.0000 39.2112
#
#
#
# Elastic Compliance Matrix: (Units=1/GPa)
#
#
# Indices 1 2 3 4 5 6 
#
# 1 0.014634 -0.000384 -0.005724 0.000000 0.000000 0.000000
# 2 -0.000384 0.011814 -0.004556 0.000000 0.000000 0.000000
# 3 -0.005724 -0.004556 0.025552 0.000000 0.000000 0.000000
# 4 0.000000 0.000000 0.000000 0.051003 0.000000 0.000000
# 5 0.000000 0.000000 0.000000 0.000000 0.048793 0.000000
# 6 0.000000 0.000000 0.000000 0.000000 0.000000 0.025503
#
#
# Mechanical properties :
#
#
# Convention : Reuss Voigt Hill
#
# Bulk Modulus (GPa) = 32.60083 34.30285 33.45184
# Shear Modulus (GPa) = 23.94053 27.04074 25.49063
#
# Velocity S-wave (km/s) = 3.46598 3.68356 3.57643
# Velocity P-wave (km/s) = 5.68999 5.94173 5.81722
#
# Compressibility (1/GPa) = 0.03067406
#
# Stress axis : x y z
#
# Youngs Moduli (GPa) = 68.33175 84.64477 39.13599
#
# Poissons Ratio (x) = 0.03247 0.22401
# Poissons Ratio (y) = 0.02621 0.17829
# Poissons Ratio (z) = 0.39113 0.38561
#
# Static dielectric constant tensor:
#      x y z
#    x 3.655800 0.000000 0.000000 
#    y 0.000000 3.906910 0.000000 
#    z 0.000000 0.000000 3.411410 
# 
# 
# High freq. dielectric constant tensor:
#      x y z
#    x 1.784710 0.000000 0.000000 
#    y 0.000000 1.796860 0.000000 
#    z 0.000000 0.000000 1.761500 
# 
# From -- ./inp_files/10851.got.cif
#   From: 2010.03.12/outbox.cif.g09.slc.cpg/sg55_6_cif.got.tgz:10851.got - 2010.04.16 15:19:21.
