data_PCOD8226438
_publ_section_title
;
Structure prediction by ZEFSAII (Michael W. Deem and Ramdas Pophale) SiO2 
 PCOD8226438
Probable space group: P B A M
;
_chemical_formula_sum "Si O2"
_cell_formula_units_Z 64
_cell_length_a 23.544312
_cell_length_b 15.119495
_cell_length_c 9.042215
_cell_angle_alpha 90.000000
_cell_angle_beta 90.000000
_cell_angle_gamma 90.000000
_cell_volume 3218.830584
_symmetry_space_group_name_H-M "P B A M"
_symmetry_group_IT_number 55
_symmetry_cell_setting 'orthorhombic'
loop_
_space_group_symop_operation_xyz
x,y,z
-x,-y,z
1/2+x,1/2-y,-z
1/2-x,1/2+y,-z
-x,-y,-z
x,y,-z
1/2-x,1/2+y,z
1/2+x,1/2-y,z
loop_
_atom_site_type_symbol
_atom_site_label
_atom_site_fract_x
_atom_site_fract_y
_atom_site_fract_z
Si Si1 0.252116 0.856476 0.170221
Si Si2 0.628486 0.586327 0.826099
Si Si3 0.859024 0.582641 0.669122
Si Si4 0.126657 0.617027 0.671476
Si Si5 0.851176 0.914270 0.328257
Si Si6 0.069466 0.252093 0.672004
Si Si7 0.548257 0.747307 0.174317
Si Si8 0.755391 0.345875 0.172337
O O1 0.189480 0.878654 0.229653
O O2 0.298649 0.916255 0.249978
O O3 0.265444 0.753907 0.198378
O O4 0.255727 0.881326 0.000000
O O5 0.613706 0.496357 0.739215
O O6 0.582399 0.659329 0.781761
O O7 0.627394 0.567305 0.000000
O O8 0.845611 0.604522 0.500000
O O9 0.887033 0.486789 0.690641
O O10 0.902498 0.656525 0.729143
O O11 0.132900 0.642641 0.500000
O O12 0.074107 0.668334 0.742633
O O13 0.183860 0.642503 0.754350
O O14 0.839673 0.930164 0.500000
O O15 0.886217 0.825874 0.299357
O O16 0.790466 0.910345 0.246326
O O17 0.051540 0.257645 0.500000
O O18 0.015619 0.233009 0.773265
O O19 0.550988 0.764831 0.000000
O O20 0.760721 0.368993 0.000000
#
# Coordination Sequence:
#
# PCOD8226438 Si02
#       8
#     8   8   8   8   8   8   8   8
#     4  10  20  36  60  88 120 158 196 239 297 355
#     4  10  22  41  61  87 122 158 196 244 302 360
#     4  10  22  40  61  88 122 157 197 244 296 356
#     4  11  23  39  63  92 121 159 201 246 302 357
#     4  11  23  39  62  92 122 158 202 247 299 357
#     4  10  23  43  62  84 119 158 201 251 300 355
#     4  11  24  43  64  87 118 157 204 252 302 359
#     4  11  21  37  61  90 126 161 197 245 299 358
#
# _framework density 19.882995999999999
#
# number of rings (size 3 to 8) (size 9 to 14) (size 15 to 20)
#    0.000    1.500    2.500    2.250    0.000    7.500 
#    0.000    5.000    0.000    0.000    0.000    0.000 
#    0.000    0.000    0.000    0.000    0.000    0.000 
#
# Total GULP energy -793970.555656 kJ/mol
# GULP energy per Si atom -12405.789932 kJ/mol
# Density = 1.983774 g / cm^3
# Si number density = 19.882996 Si / 1000 Ang^3
#
#
#
# Elastic Constant Matrix: (Units=GPa)
#
#
# Indices 1 2 3 4 5 6 
#
# 1 80.4840 15.0908 37.6625 0.0000 0.0000 0.0000
# 2 15.0908 83.4403 45.8528 0.0000 0.0000 0.0000
# 3 37.6625 45.8528 85.8424 0.0000 0.0000 0.0000
# 4 0.0000 0.0000 0.0000 33.1064 0.0000 0.0000
# 5 0.0000 0.0000 0.0000 0.0000 37.6229 0.0000
# 6 0.0000 0.0000 0.0000 0.0000 0.0000 13.6881
#
#
#
# Elastic Compliance Matrix: (Units=1/GPa)
#
#
# Indices 1 2 3 4 5 6 
#
# 1 0.015740 0.001342 -0.007623 0.000000 0.000000 0.000000
# 2 0.001342 0.017079 -0.009711 0.000000 0.000000 0.000000
# 3 -0.007623 -0.009711 0.020181 0.000000 0.000000 0.000000
# 4 0.000000 0.000000 0.000000 0.030206 0.000000 0.000000
# 5 0.000000 0.000000 0.000000 0.000000 0.026580 0.000000
# 6 0.000000 0.000000 0.000000 0.000000 0.000000 0.073056
#
#
# Mechanical properties :
#
#
# Convention : Reuss Voigt Hill
#
# Bulk Modulus (GPa) = 47.58321 49.66434 48.62378
# Shear Modulus (GPa) = 22.53972 26.96085 24.75029
#
# Velocity S-wave (km/s) = 3.37058 3.68635 3.53200
# Velocity P-wave (km/s) = 6.25550 6.56898 6.41415
#
# Compressibility (1/GPa) = 0.02101582
#
# Stress axis : x y z
#
# Youngs Moduli (GPa) = 63.53132 58.55290 49.55135
#
# Poissons Ratio (x) = -0.07859 0.37772
# Poissons Ratio (y) = -0.08527 0.48121
# Poissons Ratio (z) = 0.48429 0.56863
#
# Static dielectric constant tensor:
#      x y z
#    x 3.458910 0.000000 0.000000 
#    y 0.000000 3.806950 0.000000 
#    z 0.000000 0.000000 3.606450 
# 
# 
# High freq. dielectric constant tensor:
#      x y z
#    x 1.768960 0.000000 0.000000 
#    y 0.000000 1.790520 0.000000 
#    z 0.000000 0.000000 1.776640 
# 
# From -- ./inp_files/9768.got.cif
#   From: 2010.03.12/outbox.cif.g09.slc.cpg/sg55_5_cif.got.tgz:9768.got - 2010.04.16 15:19:21.
