data_PCOD8226343
_publ_section_title
;
Structure prediction by ZEFSAII (Michael W. Deem and Ramdas Pophale) SiO2 
 PCOD8226343
Probable space group: P B A M
;
_chemical_formula_sum "Si O2"
_cell_formula_units_Z 40
_cell_length_a 13.458983
_cell_length_b 18.083340
_cell_length_c 8.502450
_cell_angle_alpha 90.000000
_cell_angle_beta 90.000000
_cell_angle_gamma 90.000000
_cell_volume 2069.354897
_symmetry_space_group_name_H-M "P B A M"
_symmetry_group_IT_number 55
_symmetry_cell_setting 'orthorhombic'
loop_
_space_group_symop_operation_xyz
x,y,z
-x,-y,z
1/2+x,1/2-y,-z
1/2-x,1/2+y,-z
-x,-y,-z
x,y,-z
1/2-x,1/2+y,z
1/2+x,1/2-y,z
loop_
_atom_site_type_symbol
_atom_site_label
_atom_site_fract_x
_atom_site_fract_y
_atom_site_fract_z
Si Si1 0.122059 0.620387 0.817838
Si Si2 0.582206 0.165623 0.684726
Si Si3 0.315099 0.682974 0.683687
Si Si4 0.205230 0.476821 0.316706
Si Si5 0.399377 0.538713 0.816082
O O1 0.212400 0.675292 0.777811
O O2 0.131068 0.544659 0.719143
O O3 0.020599 0.661331 0.777110
O O4 0.125831 0.599539 0.000000
O O5 0.559733 0.163265 0.500000
O O6 0.634008 0.241272 0.737081
O O7 0.653393 0.098740 0.736355
O O8 0.290273 0.683250 0.500000
O O9 0.388680 0.615377 0.722427
O O10 0.231418 0.476453 0.500000
O O11 0.307051 0.484816 0.219896
O O12 0.500000 0.500000 0.757939
O O13 0.402930 0.556551 0.000000
#
# Coordination Sequence:
#
# PCOD8226343 Si02
#       5
#     8   8   8   8   8
#     4  11  22  36  56  81 111 144 177 219 272 325
#     4  10  22  38  57  82 109 141 182 225 269 318
#     4  10  21  38  58  80 109 143 182 226 268 317
#     4  10  20  36  58  81 107 141 183 226 266 317
#     4  10  21  37  56  80 112 146 181 223 271 323
#
# _framework density 19.329696999999999
#
# number of rings (size 3 to 8) (size 9 to 14) (size 15 to 20)
#    0.000    1.800    0.000    6.600    0.000    8.800 
#    0.000    6.000    0.000    0.000    0.000    0.000 
#    0.000    0.000    0.000    0.000    0.000    0.000 
#
# Total GULP energy -496210.259990 kJ/mol
# GULP energy per Si atom -12405.256500 kJ/mol
# Density = 1.928570 g / cm^3
# Si number density = 19.329697 Si / 1000 Ang^3
#
#
#
# Elastic Constant Matrix: (Units=GPa)
#
#
# Indices 1 2 3 4 5 6 
#
# 1 123.6122 86.8320 23.6126 0.0000 0.0000 0.0000
# 2 86.8320 135.4905 17.3580 0.0000 0.0000 0.0000
# 3 23.6126 17.3580 43.3622 0.0000 0.0000 0.0000
# 4 0.0000 0.0000 0.0000 9.1251 0.0000 0.0000
# 5 0.0000 0.0000 0.0000 0.0000 32.8254 0.0000
# 6 0.0000 0.0000 0.0000 0.0000 0.0000 25.0360
#
#
#
# Elastic Compliance Matrix: (Units=1/GPa)
#
#
# Indices 1 2 3 4 5 6 
#
# 1 0.015583 -0.009381 -0.004731 0.000000 0.000000 0.000000
# 2 -0.009381 0.013426 -0.000266 0.000000 0.000000 0.000000
# 3 -0.004731 -0.000266 0.025744 0.000000 0.000000 0.000000
# 4 0.000000 0.000000 0.000000 0.109588 0.000000 0.000000
# 5 0.000000 0.000000 0.000000 0.000000 0.030464 0.000000
# 6 0.000000 0.000000 0.000000 0.000000 0.000000 0.039943
#
#
# Mechanical properties :
#
#
# Convention : Reuss Voigt Hill
#
# Bulk Modulus (GPa) = 38.46390 62.00778 50.23584
# Shear Modulus (GPa) = 18.37090 25.04145 21.70618
#
# Velocity S-wave (km/s) = 3.08620 3.60320 3.35467
# Velocity P-wave (km/s) = 5.71328 7.03274 6.40706
#
# Compressibility (1/GPa) = 0.02599840
#
# Stress axis : x y z
#
# Youngs Moduli (GPa) = 64.17297 74.47966 38.84367
#
# Poissons Ratio (x) = 0.69866 0.18375
# Poissons Ratio (y) = 0.60198 0.01035
# Poissons Ratio (z) = 0.30357 0.01985
#
# Static dielectric constant tensor:
#      x y z
#    x 3.553800 0.000000 0.000000 
#    y 0.000000 3.566130 0.000000 
#    z 0.000000 0.000000 3.501850 
# 
# 
# High freq. dielectric constant tensor:
#      x y z
#    x 1.757510 0.000000 0.000000 
#    y 0.000000 1.750680 0.000000 
#    z 0.000000 0.000000 1.758370 
# 
# From -- ./inp_files/5363.got.cif
#   From: 2010.03.12/outbox.cif.g09.slc.cpg/sg55_3_cif.got.tgz:5363.got - 2010.04.16 15:19:21.
