data_PCOD8226980
_publ_section_title
;
Structure prediction by ZEFSAII (Michael W. Deem and Ramdas Pophale) SiO2 
 PCOD8226980
Probable space group: P B A M
;
_chemical_formula_sum "Si O2"
_cell_formula_units_Z 40
_cell_length_a 19.390353
_cell_length_b 5.156101
_cell_length_c 18.110341
_cell_angle_alpha 90.000000
_cell_angle_beta 90.000000
_cell_angle_gamma 90.000000
_cell_volume 1810.646874
_symmetry_space_group_name_H-M "P B A M"
_symmetry_group_IT_number 55
_symmetry_cell_setting 'orthorhombic'
loop_
_space_group_symop_operation_xyz
x,y,z
-x,-y,z
1/2+x,1/2-y,-z
1/2-x,1/2+y,-z
-x,-y,-z
x,y,-z
1/2-x,1/2+y,z
1/2+x,1/2-y,z
loop_
_atom_site_type_symbol
_atom_site_label
_atom_site_fract_x
_atom_site_fract_y
_atom_site_fract_z
Si Si1 0.425964 0.973006 0.583752
Si Si2 0.418660 0.494209 0.173292
Si Si3 0.789065 0.965166 0.732454
Si Si4 0.080955 0.494029 0.918505
Si Si5 0.343384 0.458115 0.584055
O O1 0.435610 0.068952 0.500000
O O2 0.401977 0.677927 0.588235
O O3 0.500000 0.000000 0.624835
O O4 0.372342 0.183727 0.615763
O O5 0.500000 0.500000 0.195855
O O6 0.370020 0.524458 0.245048
O O7 0.398010 0.723180 0.117812
O O8 0.396268 0.229687 0.133474
O O9 0.746789 0.208454 0.764475
O O10 0.784430 0.962803 0.642456
O O11 0.000000 0.500000 0.928712
O O12 0.115417 0.516609 0.000000
O O13 0.313237 0.439920 0.500000
#
# Coordination Sequence:
#
# PCOD8226980 Si02
#       5
#     8   8   8   8   8
#     4   9  17  31  53  82 114 143 177 236 309 364
#     4  10  21  38  62  92 123 159 202 242 288 354
#     4  12  26  43  61  84 121 164 200 248 311 361
#     4   9  17  33  62  97 126 153 194 247 291 334
#     4  10  21  37  57  82 110 150 207 257 299 355
#
# _framework density 22.091553999999999
#
# number of rings (size 3 to 8) (size 9 to 14) (size 15 to 20)
#    0.000    2.000    0.000    3.600    0.000    7.200 
#    0.000    2.000    0.000   12.000    0.000    0.000 
#    0.000    0.000    0.000    0.000    0.000    0.000 
#
# Total GULP energy -495814.641911 kJ/mol
# GULP energy per Si atom -12395.366048 kJ/mol
# Density = 2.204127 g / cm^3
# Si number density = 22.091554 Si / 1000 Ang^3
#
#
#
# Elastic Constant Matrix: (Units=GPa)
#
#
# Indices 1 2 3 4 5 6 
#
# 1 79.2257 23.0396 28.1791 0.0000 0.0000 0.0000
# 2 23.0396 127.3448 15.6152 0.0000 0.0000 0.0000
# 3 28.1791 15.6152 78.8208 0.0000 0.0000 0.0000
# 4 0.0000 0.0000 0.0000 26.9952 0.0000 0.0000
# 5 0.0000 0.0000 0.0000 0.0000 21.2402 0.0000
# 6 0.0000 0.0000 0.0000 0.0000 0.0000 26.5552
#
#
#
# Elastic Compliance Matrix: (Units=1/GPa)
#
#
# Indices 1 2 3 4 5 6 
#
# 1 0.014993 -0.002106 -0.004943 0.000000 0.000000 0.000000
# 2 -0.002106 0.008344 -0.000900 0.000000 0.000000 0.000000
# 3 -0.004943 -0.000900 0.014632 0.000000 0.000000 0.000000
# 4 0.000000 0.000000 0.000000 0.037044 0.000000 0.000000
# 5 0.000000 0.000000 0.000000 0.000000 0.047081 0.000000
# 6 0.000000 0.000000 0.000000 0.000000 0.000000 0.037657
#
#
# Mechanical properties :
#
#
# Convention : Reuss Voigt Hill
#
# Bulk Modulus (GPa) = 45.30841 46.56212 45.93526
# Shear Modulus (GPa) = 27.32147 29.52861 28.42504
#
# Velocity S-wave (km/s) = 3.52054 3.65998 3.59094
# Velocity P-wave (km/s) = 6.08930 6.24366 6.16696
#
# Compressibility (1/GPa) = 0.02207096
#
# Stress axis : x y z
#
# Youngs Moduli (GPa) = 66.69873 119.84430 68.34165
#
# Poissons Ratio (x) = 0.25245 0.33779
# Poissons Ratio (y) = 0.14050 0.06151
# Poissons Ratio (z) = 0.32967 0.10786
#
# Static dielectric constant tensor:
#      x y z
#    x 3.749030 0.000000 0.000000 
#    y 0.000000 4.401640 0.000000 
#    z 0.000000 0.000000 3.918990 
# 
# 
# High freq. dielectric constant tensor:
#      x y z
#    x 1.840020 0.000000 0.000000 
#    y 0.000000 1.893000 0.000000 
#    z 0.000000 0.000000 1.845840 
# 
# From -- ./inp_files/21702.got.cif
#   From: 2010.03.12/outbox.cif.g09.slc.cpg/sg55_11_cif.got.tgz:21702.got - 2010.04.16 15:19:21.
