data_PCOD8226619
_publ_section_title
;
Structure prediction by ZEFSAII (Michael W. Deem and Ramdas Pophale) SiO2 
 PCOD8226619
Probable space group: P B A M
;
_chemical_formula_sum "Si O2"
_cell_formula_units_Z 64
_cell_length_a 19.545684
_cell_length_b 18.359016
_cell_length_c 8.789642
_cell_angle_alpha 90.000000
_cell_angle_beta 90.000000
_cell_angle_gamma 90.000000
_cell_volume 3154.070963
_symmetry_space_group_name_H-M "P B A M"
_symmetry_group_IT_number 55
_symmetry_cell_setting 'orthorhombic'
loop_
_space_group_symop_operation_xyz
x,y,z
-x,-y,z
1/2+x,1/2-y,-z
1/2-x,1/2+y,-z
-x,-y,-z
x,y,-z
1/2-x,1/2+y,z
1/2+x,1/2-y,z
loop_
_atom_site_type_symbol
_atom_site_label
_atom_site_fract_x
_atom_site_fract_y
_atom_site_fract_z
Si Si1 0.304259 0.480348 0.178872
Si Si2 0.823471 0.588122 0.321441
Si Si3 0.127238 0.680121 0.824768
Si Si4 0.020245 0.777760 0.324726
Si Si5 0.424404 0.020804 0.174603
Si Si6 0.556798 0.558352 0.674708
Si Si7 0.118945 0.265785 0.179760
Si Si8 0.721912 0.357035 0.819253
O O1 0.252638 0.425308 0.260589
O O2 0.379970 0.453109 0.213806
O O3 0.294127 0.562271 0.243500
O O4 0.290197 0.477445 0.000000
O O5 0.821151 0.598748 0.500000
O O6 0.870103 0.519318 0.279953
O O7 0.853324 0.660175 0.247829
O O8 0.091931 0.742648 0.725897
O O9 0.083912 0.606675 0.805461
O O10 0.203874 0.668913 0.760851
O O11 0.129088 0.705069 0.000000
O O12 0.006343 0.759447 0.500000
O O13 0.023772 0.863427 0.295388
O O14 0.959393 0.744635 0.225623
O O15 0.500000 0.000000 0.229199
O O16 0.411671 0.996998 0.000000
O O17 0.500000 0.500000 0.719663
O O18 0.580697 0.549533 0.500000
O O19 0.164449 0.198517 0.242209
O O20 0.123834 0.271158 0.000000
O O21 0.721968 0.359751 0.000000
#
# Coordination Sequence:
#
# PCOD8226619 Si02
#       8
#     8   8   8   8   8   8   8   8
#     4  11  22  41  67  94 124 160 211 265 308 365
#     4  12  25  40  60  92 129 164 205 254 313 376
#     4  10  20  38  61  88 124 162 204 254 308 364
#     4  11  24  41  61  92 129 164 207 257 312 376
#     4  10  20  37  63  90 119 159 202 245 299 363
#     4  10  23  43  65  92 131 172 209 257 319 378
#     4  11  23  41  65  91 121 162 211 260 313 371
#     4   9  20  39  64  92 120 156 207 261 311 364
#
# _framework density 20.291236000000001
#
# number of rings (size 3 to 8) (size 9 to 14) (size 15 to 20)
#    0.000    1.500    1.250    3.750    1.750    3.000 
#    0.000    2.500    0.000    0.000    0.000    0.000 
#    0.000    0.000    0.000    0.000    0.000    0.000 
#
# Total GULP energy -794019.621363 kJ/mol
# GULP energy per Si atom -12406.556584 kJ/mol
# Density = 2.024505 g / cm^3
# Si number density = 20.291236 Si / 1000 Ang^3
#
#
#
# Elastic Constant Matrix: (Units=GPa)
#
#
# Indices 1 2 3 4 5 6 
#
# 1 110.4302 31.6415 31.8309 0.0000 0.0000 0.0000
# 2 31.6415 94.0230 39.9320 0.0000 0.0000 0.0000
# 3 31.8309 39.9320 78.3622 0.0000 0.0000 0.0000
# 4 0.0000 0.0000 0.0000 19.6052 0.0000 0.0000
# 5 0.0000 0.0000 0.0000 0.0000 28.8423 0.0000
# 6 0.0000 0.0000 0.0000 0.0000 0.0000 39.5836
#
#
#
# Elastic Compliance Matrix: (Units=1/GPa)
#
#
# Indices 1 2 3 4 5 6 
#
# 1 0.010608 -0.002220 -0.003177 0.000000 0.000000 0.000000
# 2 -0.002220 0.014038 -0.006252 0.000000 0.000000 0.000000
# 3 -0.003177 -0.006252 0.017238 0.000000 0.000000 0.000000
# 4 0.000000 0.000000 0.000000 0.051007 0.000000 0.000000
# 5 0.000000 0.000000 0.000000 0.000000 0.034671 0.000000
# 6 0.000000 0.000000 0.000000 0.000000 0.000000 0.025263
#
#
# Mechanical properties :
#
#
# Convention : Reuss Voigt Hill
#
# Bulk Modulus (GPa) = 53.80813 54.40269 54.10541
# Shear Modulus (GPa) = 27.42463 29.56694 28.49579
#
# Velocity S-wave (km/s) = 3.68033 3.82138 3.75152
# Velocity P-wave (km/s) = 6.68096 6.80733 6.74444
#
# Compressibility (1/GPa) = 0.01858455
#
# Stress axis : x y z
#
# Youngs Moduli (GPa) = 94.27260 71.23526 58.01260
#
# Poissons Ratio (x) = 0.15816 0.18433
# Poissons Ratio (y) = 0.20931 0.36267
# Poissons Ratio (z) = 0.29954 0.44534
#
# Static dielectric constant tensor:
#      x y z
#    x 3.794050 0.000000 0.000000 
#    y 0.000000 3.819080 0.000000 
#    z 0.000000 0.000000 3.522580 
# 
# 
# High freq. dielectric constant tensor:
#      x y z
#    x 1.806150 0.000000 0.000000 
#    y 0.000000 1.804600 0.000000 
#    z 0.000000 0.000000 1.777160 
# 
# From -- ./inp_files/8964.got.cif
#   From: 2010.03.12/outbox.cif.g09.slc.cpg/sg55_5_cif.got.tgz:8964.got - 2010.04.16 15:19:21.
