data_PCOD8226789
_publ_section_title
;
Structure prediction by ZEFSAII (Michael W. Deem and Ramdas Pophale) SiO2 
 PCOD8226789
Probable space group: P B A M
;
_chemical_formula_sum "Si O2"
_cell_formula_units_Z 32
_cell_length_a 12.036443
_cell_length_b 11.214083
_cell_length_c 11.021439
_cell_angle_alpha 90.000000
_cell_angle_beta 90.000000
_cell_angle_gamma 90.000000
_cell_volume 1487.648165
_symmetry_space_group_name_H-M "P B A M"
_symmetry_group_IT_number 55
_symmetry_cell_setting 'orthorhombic'
loop_
_space_group_symop_operation_xyz
x,y,z
-x,-y,z
1/2+x,1/2-y,-z
1/2-x,1/2+y,-z
-x,-y,-z
x,y,-z
1/2-x,1/2+y,z
1/2+x,1/2-y,z
loop_
_atom_site_type_symbol
_atom_site_label
_atom_site_fract_x
_atom_site_fract_y
_atom_site_fract_z
Si Si1 0.659163 0.947667 0.361729
Si Si2 0.349489 0.859676 0.000000
Si Si3 0.185727 0.087651 0.000000
Si Si4 0.960335 0.662469 0.255572
Si Si5 0.601936 0.422880 0.260363
O O1 0.653647 0.904017 0.500000
O O2 0.593793 0.853571 0.274437
O O3 0.784921 0.964962 0.320845
O O4 0.601148 0.075077 0.348296
O O5 0.429327 0.863719 0.116487
O O6 0.280086 0.983874 0.000000
O O7 0.278934 0.731915 0.000000
O O8 0.109095 0.064986 0.115665
O O9 0.922733 0.789869 0.300861
O O10 0.500000 0.500000 0.309710
#
# Coordination Sequence:
#
# PCOD8226789 Si02
#       5
#     8   4   4   8   8
#     4  11  25  44  67  93 133 180 227 279 329 389
#     4  10  20  40  72 102 136 181 215 278 347 409
#     4  10  21  41  67 103 141 172 218 280 340 409
#     4  10  23  43  67 100 132 171 223 279 337 400
#     4  11  25  43  69 100 134 174 221 274 341 405
#
# _framework density 21.510463000000001
#
# number of rings (size 3 to 8) (size 9 to 14) (size 15 to 20)
#    0.000    1.500    2.500    1.875    3.500    5.500 
#    0.000    0.000    0.000    0.000    0.000    0.000 
#    0.000    0.000    0.000    0.000    0.000    0.000 
#
# Total GULP energy -396617.916305 kJ/mol
# GULP energy per Si atom -12394.309885 kJ/mol
# Density = 2.146150 g / cm^3
# Si number density = 21.510463 Si / 1000 Ang^3
#
#
#
# Elastic Constant Matrix: (Units=GPa)
#
#
# Indices 1 2 3 4 5 6 
#
# 1 153.0328 44.4219 42.0092 0.0000 0.0000 0.0000
# 2 44.4219 95.9517 29.4455 0.0000 0.0000 0.0000
# 3 42.0092 29.4455 96.9411 0.0000 0.0000 0.0000
# 4 0.0000 0.0000 0.0000 -7.7000 0.0000 0.0000
# 5 0.0000 0.0000 0.0000 0.0000 -9.2787 0.0000
# 6 0.0000 0.0000 0.0000 0.0000 0.0000 30.1405
#
#
#
# Elastic Compliance Matrix: (Units=1/GPa)
#
#
# Indices 1 2 3 4 5 6 
#
# 1 0.008110 -0.002951 -0.002618 0.000000 0.000000 0.000000
# 2 -0.002951 0.012567 -0.002538 0.000000 0.000000 0.000000
# 3 -0.002618 -0.002538 0.012221 0.000000 0.000000 0.000000
# 4 0.000000 0.000000 0.000000 -0.129870 0.000000 0.000000
# 5 0.000000 0.000000 0.000000 0.000000 -0.107773 0.000000
# 6 0.000000 0.000000 0.000000 0.000000 0.000000 0.033178
#
#
# Mechanical properties :
#
#
# Convention : Reuss Voigt Hill
#
# Bulk Modulus (GPa) = 59.94094 64.18654 62.06374
# Shear Modulus (GPa) = -33.37978 17.96896 -7.70541
#
# Velocity S-wave (km/s) = -3.94355 2.89339 -1.89471
# Velocity P-wave (km/s) = 2.68160 6.40834 4.91211
#
# Compressibility (1/GPa) = 0.01668309
#
# Stress axis : x y z
#
# Youngs Moduli (GPa) = 123.30663 79.57262 81.82604
#
# Poissons Ratio (x) = 0.23483 0.21422
# Poissons Ratio (y) = 0.36390 0.20770
# Poissons Ratio (z) = 0.32282 0.20198
#
# Static dielectric constant tensor:
#      x y z
#    x 3.945470 0.000000 0.000000 
#    y 0.000000 4.213180 0.000000 
#    z 0.000000 0.000000 3.808030 
# 
# 
# High freq. dielectric constant tensor:
#      x y z
#    x 1.838710 0.000000 0.000000 
#    y 0.000000 1.850520 0.000000 
#    z 0.000000 0.000000 1.845140 
# 
# From -- ./inp_files/12785.got.cif
#   From: 2010.03.12/outbox.cif.g09.slc.cpg/sg55_7_cif.got.tgz:12785.got - 2010.04.16 15:19:21.
