data_PCOD8226657
_publ_section_title
;
Structure prediction by ZEFSAII (Michael W. Deem and Ramdas Pophale) SiO2 
 PCOD8226657
Probable space group: P B A M
;
_chemical_formula_sum "Si O2"
_cell_formula_units_Z 64
_cell_length_a 14.951742
_cell_length_b 23.651602
_cell_length_c 8.777263
_cell_angle_alpha 90.000000
_cell_angle_beta 90.000000
_cell_angle_gamma 90.000000
_cell_volume 3103.926783
_symmetry_space_group_name_H-M "P B A M"
_symmetry_group_IT_number 55
_symmetry_cell_setting 'orthorhombic'
loop_
_space_group_symop_operation_xyz
x,y,z
-x,-y,z
1/2+x,1/2-y,-z
1/2-x,1/2+y,-z
-x,-y,-z
x,y,-z
1/2-x,1/2+y,z
1/2+x,1/2-y,z
loop_
_atom_site_type_symbol
_atom_site_label
_atom_site_fract_x
_atom_site_fract_y
_atom_site_fract_z
Si Si1 0.769055 0.744238 0.821379
Si Si2 0.002620 0.859704 0.675973
Si Si3 0.074978 0.330790 0.318873
Si Si4 0.578684 0.540218 0.826080
Si Si5 0.565281 0.750387 0.820841
Si Si6 0.075746 0.459219 0.321994
Si Si7 0.175203 0.129640 0.176111
Si Si8 0.233572 0.518869 0.171574
O O1 0.835357 0.700772 0.738558
O O2 0.666556 0.738473 0.763884
O O3 0.793997 0.808041 0.780278
O O4 0.776513 0.731795 0.000000
O O5 0.010563 0.843301 0.500000
O O6 0.907419 0.887825 0.716506
O O7 0.080341 0.903566 0.722001
O O8 0.007098 0.803896 0.778665
O O9 0.076160 0.328184 0.500000
O O10 0.075070 0.395357 0.255825
O O11 0.982633 0.303499 0.259181
O O12 0.500000 0.500000 0.767063
O O13 0.670665 0.508666 0.806384
O O14 0.561362 0.558734 0.000000
O O15 0.563399 0.761903 0.000000
O O16 0.059308 0.454610 0.500000
O O17 0.169489 0.489142 0.290875
O O18 0.000000 0.500000 0.247938
O O19 0.256438 0.085821 0.207214
O O20 0.145399 0.124342 0.000000
O O21 0.197519 0.509368 0.000000
#
# Coordination Sequence:
#
# PCOD8226657 Si02
#       8
#     8   8   8   8   8   8   8   8
#     4  10  23  41  66  94 123 163 206 257 321 380
#     4  12  24  37  58  91 126 165 206 250 308 373
#     4  11  24  43  66  95 129 166 213 265 317 378
#     4  10  20  38  60  86 124 166 201 246 308 369
#     4  11  24  42  65  92 123 164 209 256 316 380
#     4  10  25  47  65  87 127 173 212 261 324 373
#     4  10  20  40  64  90 124 160 202 259 316 372
#     4  10  22  39  65  94 120 160 214 261 306 363
#
# _framework density 20.619043999999999
#
# number of rings (size 3 to 8) (size 9 to 14) (size 15 to 20)
#    0.000    1.500    2.500    1.875    3.500    3.500 
#    0.000    0.000    0.000    0.000    0.000    0.000 
#    0.000    0.000    0.000    0.000    0.000    0.000 
#
# Total GULP energy -793648.044316 kJ/mol
# GULP energy per Si atom -12400.750692 kJ/mol
# Density = 2.057211 g / cm^3
# Si number density = 20.619044 Si / 1000 Ang^3
#
#
#
# Elastic Constant Matrix: (Units=GPa)
#
#
# Indices 1 2 3 4 5 6 
#
# 1 109.5545 56.7029 34.4529 0.0000 0.0000 0.0000
# 2 56.7029 159.9404 38.9276 0.0000 0.0000 0.0000
# 3 34.4529 38.9276 54.0872 0.0000 0.0000 0.0000
# 4 0.0000 0.0000 0.0000 27.1840 0.0000 0.0000
# 5 0.0000 0.0000 0.0000 0.0000 27.3534 0.0000
# 6 0.0000 0.0000 0.0000 0.0000 0.0000 29.3107
#
#
#
# Elastic Compliance Matrix: (Units=1/GPa)
#
#
# Indices 1 2 3 4 5 6 
#
# 1 0.012517 -0.003027 -0.005794 0.000000 0.000000 0.000000
# 2 -0.003027 0.008312 -0.004054 0.000000 0.000000 0.000000
# 3 -0.005794 -0.004054 0.025097 0.000000 0.000000 0.000000
# 4 0.000000 0.000000 0.000000 0.036786 0.000000 0.000000
# 5 0.000000 0.000000 0.000000 0.000000 0.036559 0.000000
# 6 0.000000 0.000000 0.000000 0.000000 0.000000 0.034117
#
#
# Mechanical properties :
#
#
# Convention : Reuss Voigt Hill
#
# Bulk Modulus (GPa) = 49.56610 64.86098 57.21354
# Shear Modulus (GPa) = 26.90117 29.66953 28.28535
#
# Velocity S-wave (km/s) = 3.61595 3.79745 3.70781
# Velocity P-wave (km/s) = 6.44396 7.12409 6.79254
#
# Compressibility (1/GPa) = 0.02017508
#
# Stress axis : x y z
#
# Youngs Moduli (GPa) = 79.89161 120.30332 39.84469
#
# Poissons Ratio (x) = 0.36419 0.23087
# Poissons Ratio (y) = 0.24186 0.16154
# Poissons Ratio (z) = 0.46292 0.48773
#
# Static dielectric constant tensor:
#      x y z
#    x 3.872900 0.000000 0.000000 
#    y 0.000000 4.057730 0.000000 
#    z 0.000000 0.000000 3.532900 
# 
# 
# High freq. dielectric constant tensor:
#      x y z
#    x 1.806920 0.000000 0.000000 
#    y 0.000000 1.821930 0.000000 
#    z 0.000000 0.000000 1.788750 
# 
# From -- ./inp_files/6519.got.cif
#   From: 2010.03.12/outbox.cif.g09.slc.cpg/sg55_4_cif.got.tgz:6519.got - 2010.04.16 15:19:21.
