data_PCOD8226863
_publ_section_title
;
Structure prediction by ZEFSAII (Michael W. Deem and Ramdas Pophale) SiO2 
 PCOD8226863
Probable space group: P B A M
;
_chemical_formula_sum "Si O2"
_cell_formula_units_Z 64
_cell_length_a 11.423175
_cell_length_b 33.170225
_cell_length_c 9.439878
_cell_angle_alpha 90.000000
_cell_angle_beta 90.000000
_cell_angle_gamma 90.000000
_cell_volume 3576.857423
_symmetry_space_group_name_H-M "P B A M"
_symmetry_group_IT_number 55
_symmetry_cell_setting 'orthorhombic'
loop_
_space_group_symop_operation_xyz
x,y,z
-x,-y,z
1/2+x,1/2-y,-z
1/2-x,1/2+y,-z
-x,-y,-z
x,y,-z
1/2-x,1/2+y,z
1/2+x,1/2-y,z
loop_
_atom_site_type_symbol
_atom_site_label
_atom_site_fract_x
_atom_site_fract_y
_atom_site_fract_z
Si Si1 0.662068 0.827346 0.838358
Si Si2 0.302869 0.593111 0.836865
Si Si3 0.838056 0.467012 0.667122
Si Si4 0.468421 0.359780 0.836452
Si Si5 0.056363 0.299439 0.334069
Si Si6 0.093273 0.445486 0.332662
Si Si7 0.734031 0.130890 0.334188
Si Si8 0.393048 0.720419 0.161605
O O1 0.716938 0.870229 0.798967
O O2 0.557567 0.819883 0.731172
O O3 0.758961 0.792679 0.818449
O O4 0.616333 0.826930 0.000000
O O5 0.270590 0.554571 0.742719
O O6 0.435617 0.605979 0.803260
O O7 0.289743 0.581107 0.000000
O O8 0.824324 0.461286 0.500000
O O9 0.835676 0.514198 0.709382
O O10 0.959973 0.447741 0.723922
O O11 0.358087 0.368459 0.740284
O O12 0.520924 0.316141 0.799668
O O13 0.430882 0.361288 0.000000
O O14 0.034439 0.294144 0.500000
O O15 0.167327 0.327621 0.302445
O O16 0.079573 0.256237 0.267439
O O17 0.084685 0.442465 0.500000
O O18 0.158602 0.406334 0.270592
O O19 0.755425 0.124628 0.500000
O O20 0.414636 0.734470 0.000000
#
# Coordination Sequence:
#
# PCOD8226863 Si02
#       8
#     8   8   8   8   8   8   8   8
#     4   9  19  36  55  74  99 134 173 209 252 312
#     4   9  18  34  54  77 104 132 170 221 264 299
#     4   9  16  30  56  81 103 137 177 212 255 313
#     4   9  20  38  56  73  99 139 180 215 255 309
#     4  11  23  34  51  80 108 131 164 217 270 309
#     4   8  16  32  52  77 109 141 172 210 256 312
#     4  10  21  36  52  75 108 140 170 212 263 311
#     4   9  20  38  56  73  97 134 178 215 251 306
#
# _framework density 17.892800999999999
#
# number of rings (size 3 to 8) (size 9 to 14) (size 15 to 20)
#    0.000    2.750    0.000    3.375    1.750    4.000 
#    0.000    5.625    0.000    3.750    0.000    0.000 
#    0.000    0.000    0.000    0.000    0.000    0.000 
#
# Total GULP energy -793580.149545 kJ/mol
# GULP energy per Si atom -12399.689837 kJ/mol
# Density = 1.785208 g / cm^3
# Si number density = 17.892801 Si / 1000 Ang^3
#
#
#
# Elastic Constant Matrix: (Units=GPa)
#
#
# Indices 1 2 3 4 5 6 
#
# 1 87.5251 33.4431 42.3323 0.0000 0.0000 0.0000
# 2 33.4431 77.8154 35.5812 0.0000 0.0000 0.0000
# 3 42.3323 35.5812 60.1545 0.0000 0.0000 0.0000
# 4 0.0000 0.0000 0.0000 26.5399 0.0000 0.0000
# 5 0.0000 0.0000 0.0000 0.0000 36.1102 0.0000
# 6 0.0000 0.0000 0.0000 0.0000 0.0000 20.8075
#
#
#
# Elastic Compliance Matrix: (Units=1/GPa)
#
#
# Indices 1 2 3 4 5 6 
#
# 1 0.017702 -0.002620 -0.010907 0.000000 0.000000 0.000000
# 2 -0.002620 0.018003 -0.008805 0.000000 0.000000 0.000000
# 3 -0.010907 -0.008805 0.029508 0.000000 0.000000 0.000000
# 4 0.000000 0.000000 0.000000 0.037679 0.000000 0.000000
# 5 0.000000 0.000000 0.000000 0.000000 0.027693 0.000000
# 6 0.000000 0.000000 0.000000 0.000000 0.000000 0.048060
#
#
# Mechanical properties :
#
#
# Convention : Reuss Voigt Hill
#
# Bulk Modulus (GPa) = 48.66730 49.80089 49.23410
# Shear Modulus (GPa) = 21.72415 24.30076 23.01246
#
# Velocity S-wave (km/s) = 3.48821 3.68928 3.59016
# Velocity P-wave (km/s) = 6.59408 6.78536 6.69040
#
# Compressibility (1/GPa) = 0.02054768
#
# Stress axis : x y z
#
# Youngs Moduli (GPa) = 56.49073 55.54609 33.88955
#
# Poissons Ratio (x) = 0.14556 0.36965
# Poissons Ratio (y) = 0.14803 0.29839
# Poissons Ratio (z) = 0.61617 0.48906
#
# Static dielectric constant tensor:
#      x y z
#    x 3.271850 0.000000 0.000000 
#    y 0.000000 3.428070 0.000000 
#    z 0.000000 0.000000 3.102370 
# 
# 
# High freq. dielectric constant tensor:
#      x y z
#    x 1.689910 0.000000 0.000000 
#    y 0.000000 1.696600 0.000000 
#    z 0.000000 0.000000 1.677890 
# 
# From -- ./inp_files/4609.got.cif
#   From: 2010.03.12/outbox.cif.g09.slc.cpg/sg55_3_cif.got.tgz:4609.got - 2010.04.16 15:19:21.
