data_PCOD8226196
_publ_section_title
;
Structure prediction by ZEFSAII (Michael W. Deem and Ramdas Pophale) SiO2 
 PCOD8226196
Probable space group: P B A M
;
_chemical_formula_sum "Si O2"
_cell_formula_units_Z 64
_cell_length_a 8.477326
_cell_length_b 17.466372
_cell_length_c 21.045549
_cell_angle_alpha 90.000000
_cell_angle_beta 90.000000
_cell_angle_gamma 90.000000
_cell_volume 3116.175074
_symmetry_space_group_name_H-M "P B A M"
_symmetry_group_IT_number 55
_symmetry_cell_setting 'orthorhombic'
loop_
_space_group_symop_operation_xyz
x,y,z
-x,-y,z
1/2+x,1/2-y,-z
1/2-x,1/2+y,-z
-x,-y,-z
x,y,-z
1/2-x,1/2+y,z
1/2+x,1/2-y,z
loop_
_atom_site_type_symbol
_atom_site_label
_atom_site_fract_x
_atom_site_fract_y
_atom_site_fract_z
Si Si1 0.315834 0.514113 0.426755
Si Si2 0.761818 0.356945 0.814325
Si Si3 0.439818 0.789347 0.850815
Si Si4 0.195131 0.348693 0.571813
Si Si5 0.559853 0.746684 0.635673
Si Si6 0.195304 0.139355 0.320597
Si Si7 0.106497 0.069223 0.929065
Si Si8 0.342763 0.305849 0.930361
O O1 0.500000 0.500000 0.419573
O O2 0.276130 0.537938 0.500000
O O3 0.225739 0.436425 0.406950
O O4 0.265010 0.581019 0.378080
O O5 0.644821 0.282876 0.817892
O O6 0.709243 0.400000 0.749051
O O7 0.737327 0.412154 0.875623
O O8 0.951369 0.340326 0.803957
O O9 0.583680 0.769829 0.899560
O O10 0.304527 0.836910 0.888208
O O11 0.138873 0.348282 0.500000
O O12 0.350689 0.295755 0.577709
O O13 0.056615 0.312783 0.612816
O O14 0.476972 0.677069 0.672954
O O15 0.684446 0.789022 0.680516
O O16 0.986638 0.137898 0.935019
O O17 0.180695 0.053582 0.000000
O O18 0.000000 0.000000 0.904815
O O19 0.275051 0.285691 0.000000
#
# Coordination Sequence:
#
# PCOD8226196 Si02
#       8
#     8   8   8   8   8   8   8   8
#     4  10  21  38  59  85 117 149 187 239 287 337
#     4  10  20  35  57  79 110 145 181 224 276 329
#     4   9  18  31  51  81 110 136 178 223 277 325
#     4  10  20  37  60  87 117 149 188 234 289 342
#     4  10  22  36  57  87 115 149 192 236 282 337
#     4  11  22  38  59  82 116 153 194 235 283 343
#     4   9  19  36  55  78 107 142 186 229 271 326
#     4   9  16  28  51  80 110 139 171 221 275 329
#
# _framework density 20.538
#
# number of rings (size 3 to 8) (size 9 to 14) (size 15 to 20)
#    0.000    2.250    1.250    1.500    0.000    7.000 
#    0.000    1.875    2.750    2.250    0.000    0.000 
#    0.000    0.000    0.000    0.000    0.000    0.000 
#
# Total GULP energy -792835.718191 kJ/mol
# GULP energy per Si atom -12388.058097 kJ/mol
# Density = 2.049125 g / cm^3
# Si number density = 20.538000 Si / 1000 Ang^3
#
#
#
# Elastic Constant Matrix: (Units=GPa)
#
#
# Indices 1 2 3 4 5 6 
#
# 1 68.0499 -4.5482 16.1399 0.0000 0.0000 0.0000
# 2 -4.5482 44.1723 15.8911 0.0000 0.0000 0.0000
# 3 16.1399 15.8911 105.7693 0.0000 0.0000 0.0000
# 4 0.0000 0.0000 0.0000 19.9754 0.0000 0.0000
# 5 0.0000 0.0000 0.0000 0.0000 18.9188 0.0000
# 6 0.0000 0.0000 0.0000 0.0000 0.0000 20.0874
#
#
#
# Elastic Compliance Matrix: (Units=1/GPa)
#
#
# Indices 1 2 3 4 5 6 
#
# 1 0.015522 0.002590 -0.002758 0.000000 0.000000 0.000000
# 2 0.002590 0.024364 -0.004056 0.000000 0.000000 0.000000
# 3 -0.002758 -0.004056 0.010485 0.000000 0.000000 0.000000
# 4 0.000000 0.000000 0.000000 0.050061 0.000000 0.000000
# 5 0.000000 0.000000 0.000000 0.000000 0.052857 0.000000
# 6 0.000000 0.000000 0.000000 0.000000 0.000000 0.049782
#
#
# Mechanical properties :
#
#
# Convention : Reuss Voigt Hill
#
# Bulk Modulus (GPa) = 23.85221 30.32860 27.09040
# Shear Modulus (GPa) = 22.17351 24.49692 23.33522
#
# Velocity S-wave (km/s) = 3.28934 3.45738 3.37441
# Velocity P-wave (km/s) = 5.10542 5.54411 5.32928
#
# Compressibility (1/GPa) = 0.04192484
#
# Stress axis : x y z
#
# Youngs Moduli (GPa) = 64.42338 41.04344 95.37676
#
# Poissons Ratio (x) = -0.10632 0.26303
# Poissons Ratio (y) = -0.16688 0.38684
# Poissons Ratio (z) = 0.17767 0.16647
#
# Static dielectric constant tensor:
#      x y z
#    x 3.709380 0.000000 0.000000 
#    y 0.000000 3.355790 0.000000 
#    z 0.000000 0.000000 3.988410 
# 
# 
# High freq. dielectric constant tensor:
#      x y z
#    x 1.805000 0.000000 0.000000 
#    y 0.000000 1.774960 0.000000 
#    z 0.000000 0.000000 1.801160 
# 
# From -- ./inp_files/22727.got.cif
#   From: 2010.03.12/outbox.cif.g09.slc.cpg/sg55_12_cif.got.tgz:22727.got - 2010.04.16 15:19:21.
