data_PCOD8226235
_publ_section_title
;
Structure prediction by ZEFSAII (Michael W. Deem and Ramdas Pophale) SiO2 
 PCOD8226235
Probable space group: P B A M
;
_chemical_formula_sum "Si O2"
_cell_formula_units_Z 32
_cell_length_a 12.568270
_cell_length_b 14.036738
_cell_length_c 9.136583
_cell_angle_alpha 90.000000
_cell_angle_beta 90.000000
_cell_angle_gamma 90.000000
_cell_volume 1611.853251
_symmetry_space_group_name_H-M "P B A M"
_symmetry_group_IT_number 55
_symmetry_cell_setting 'orthorhombic'
loop_
_space_group_symop_operation_xyz
x,y,z
-x,-y,z
1/2+x,1/2-y,-z
1/2-x,1/2+y,-z
-x,-y,-z
x,y,-z
1/2-x,1/2+y,z
1/2+x,1/2-y,z
loop_
_atom_site_type_symbol
_atom_site_label
_atom_site_fract_x
_atom_site_fract_y
_atom_site_fract_z
Si Si1 0.944673 0.096180 0.832297
Si Si2 0.543036 0.205719 0.167511
Si Si3 0.227814 0.400330 0.326850
Si Si4 0.403901 0.073093 0.660752
O O1 0.844117 0.120710 0.732950
O O2 0.029751 0.181081 0.816767
O O3 0.906782 0.084840 0.000000
O O4 0.000000 0.000000 0.775312
O O5 0.646202 0.175513 0.258230
O O6 0.434241 0.155989 0.225934
O O7 0.558643 0.174552 0.000000
O O8 0.224369 0.385410 0.500000
O O9 0.196489 0.509741 0.285231
O O10 0.381434 0.118115 0.500000
O O11 0.500000 0.000000 0.647475
#
# Coordination Sequence:
#
# PCOD8226235 Si02
#       4
#     8   8   8   8
#     4  10  23  41  57  78 112 149 185 227 273 324
#     4  10  20  35  58  85 110 143 187 229 272 325
#     4  10  21  37  58  83 112 146 182 225 277 329
#     4   8  16  32  53  80 111 140 176 222 270 321
#
# _framework density 19.852924000000002
#
# number of rings (size 3 to 8) (size 9 to 14) (size 15 to 20)
#    0.000    2.500    0.000    3.000    0.000   10.000 
#    0.000    7.500    0.000    0.000    0.000    0.000 
#    0.000    0.000    0.000    0.000    0.000    0.000 
#
# Total GULP energy -396762.532941 kJ/mol
# GULP energy per Si atom -12398.829154 kJ/mol
# Density = 1.980774 g / cm^3
# Si number density = 19.852924 Si / 1000 Ang^3
#
#
#
# Elastic Constant Matrix: (Units=GPa)
#
#
# Indices 1 2 3 4 5 6 
#
# 1 95.3260 38.3048 53.0597 0.0000 0.0000 0.0000
# 2 38.3048 108.4191 53.7718 0.0000 0.0000 0.0000
# 3 53.0597 53.7718 112.2478 0.0000 0.0000 0.0000
# 4 0.0000 0.0000 0.0000 19.9536 0.0000 0.0000
# 5 0.0000 0.0000 0.0000 0.0000 26.1319 0.0000
# 6 0.0000 0.0000 0.0000 0.0000 0.0000 24.8474
#
#
#
# Elastic Compliance Matrix: (Units=1/GPa)
#
#
# Indices 1 2 3 4 5 6 
#
# 1 0.014655 -0.002285 -0.005833 0.000000 0.000000 0.000000
# 2 -0.002285 0.012454 -0.004886 0.000000 0.000000 0.000000
# 3 -0.005833 -0.004886 0.014007 0.000000 0.000000 0.000000
# 4 0.000000 0.000000 0.000000 0.050116 0.000000 0.000000
# 5 0.000000 0.000000 0.000000 0.000000 0.038267 0.000000
# 6 0.000000 0.000000 0.000000 0.000000 0.000000 0.040246
#
#
# Mechanical properties :
#
#
# Convention : Reuss Voigt Hill
#
# Bulk Modulus (GPa) = 66.18872 67.36282 66.77577
# Shear Modulus (GPa) = 24.90182 25.57704 25.23943
#
# Velocity S-wave (km/s) = 3.54547 3.59322 3.56943
# Velocity P-wave (km/s) = 7.08325 7.15678 7.12011
#
# Compressibility (1/GPa) = 0.01510832
#
# Stress axis : x y z
#
# Youngs Moduli (GPa) = 68.23552 80.29578 71.39413
#
# Poissons Ratio (x) = 0.18346 0.41644
# Poissons Ratio (y) = 0.15590 0.34883
# Poissons Ratio (z) = 0.39802 0.39233
#
# Static dielectric constant tensor:
#      x y z
#    x 3.497200 0.000000 0.000000 
#    y 0.000000 3.742670 0.000000 
#    z 0.000000 0.000000 3.675530 
# 
# 
# High freq. dielectric constant tensor:
#      x y z
#    x 1.757240 0.000000 0.000000 
#    y 0.000000 1.770460 0.000000 
#    z 0.000000 0.000000 1.778170 
# 
# From -- ./inp_files/3312.got.cif
#   From: 2010.03.12/outbox.cif.g09.slc.cpg/sg55_2_cif.got.tgz:3312.got - 2010.04.16 15:19:21.
