data_PCOD8226152
_publ_section_title
;
Structure prediction by ZEFSAII (Michael W. Deem and Ramdas Pophale) SiO2 
 PCOD8226152
Probable space group: P B A M
;
_chemical_formula_sum "Si O2"
_cell_formula_units_Z 64
_cell_length_a 21.920848
_cell_length_b 17.149397
_cell_length_c 8.871831
_cell_angle_alpha 90.000000
_cell_angle_beta 90.000000
_cell_angle_gamma 90.000000
_cell_volume 3335.181439
_symmetry_space_group_name_H-M "P B A M"
_symmetry_group_IT_number 55
_symmetry_cell_setting 'orthorhombic'
loop_
_space_group_symop_operation_xyz
x,y,z
-x,-y,z
1/2+x,1/2-y,-z
1/2-x,1/2+y,-z
-x,-y,-z
x,y,-z
1/2-x,1/2+y,z
1/2+x,1/2-y,z
loop_
_atom_site_type_symbol
_atom_site_label
_atom_site_fract_x
_atom_site_fract_y
_atom_site_fract_z
Si Si1 0.110349 0.728962 0.828712
Si Si2 0.564646 0.090145 0.321751
Si Si3 0.573309 0.917815 0.321872
Si Si4 0.528673 0.645407 0.321822
Si Si5 0.103173 0.138481 0.175996
Si Si6 0.623670 0.537840 0.174868
Si Si7 0.159216 0.283621 0.321970
Si Si8 0.221579 0.839164 0.170802
O O1 0.117387 0.641606 0.764817
O O2 0.061824 0.775802 0.728876
O O3 0.176839 0.765892 0.817039
O O4 0.086917 0.728652 0.000000
O O5 0.566786 0.089776 0.500000
O O6 0.495450 0.103030 0.269557
O O7 0.606587 0.159143 0.258060
O O8 0.589158 0.005504 0.267648
O O9 0.581711 0.908340 0.500000
O O10 0.524760 0.643828 0.500000
O O11 0.460896 0.645491 0.258382
O O12 0.565318 0.569479 0.265711
O O13 0.151403 0.200591 0.240803
O O14 0.132105 0.053425 0.206566
O O15 0.093269 0.153050 0.000000
O O16 0.685548 0.582714 0.223321
O O17 0.610279 0.556458 0.000000
O O18 0.154472 0.271447 0.500000
O O19 0.223212 0.323735 0.283488
O O20 0.245961 0.848477 0.000000
#
# Coordination Sequence:
#
# PCOD8226152 Si02
#       8
#     8   8   8   8   8   8   8   8
#     4  10  20  35  55  80 110 145 188 231 273 328
#     4   8  17  33  53  78 110 144 173 216 278 338
#     4   9  16  32  57  81 108 141 178 219 277 337
#     4  11  21  33  55  87 120 149 181 226 280 332
#     4  11  22  37  58  84 115 150 185 225 277 334
#     4   9  20  39  60  81 110 149 189 228 275 333
#     4  11  22  37  56  81 112 145 187 234 279 328
#     4   9  20  40  58  73 103 146 189 228 273 329
#
# _framework density 19.189361000000002
#
# number of rings (size 3 to 8) (size 9 to 14) (size 15 to 20)
#    0.000    2.250    0.000    4.875    0.000    6.000 
#    2.250    3.125    0.000    0.000    0.000    0.000 
#    0.000    0.000    0.000    0.000    0.000    0.000 
#
# Total GULP energy -793656.311008 kJ/mol
# GULP energy per Si atom -12400.879859 kJ/mol
# Density = 1.914569 g / cm^3
# Si number density = 19.189361 Si / 1000 Ang^3
#
#
#
# Elastic Constant Matrix: (Units=GPa)
#
#
# Indices 1 2 3 4 5 6 
#
# 1 70.6803 32.4624 33.3749 0.0000 0.0000 0.0000
# 2 32.4624 114.8370 37.5213 0.0000 0.0000 0.0000
# 3 33.3749 37.5213 87.8522 0.0000 0.0000 0.0000
# 4 0.0000 0.0000 0.0000 30.2010 0.0000 0.0000
# 5 0.0000 0.0000 0.0000 0.0000 29.1914 0.0000
# 6 0.0000 0.0000 0.0000 0.0000 0.0000 16.0096
#
#
#
# Elastic Compliance Matrix: (Units=1/GPa)
#
#
# Indices 1 2 3 4 5 6 
#
# 1 0.018300 -0.003372 -0.005512 0.000000 0.000000 0.000000
# 2 -0.003372 0.010742 -0.003307 0.000000 0.000000 0.000000
# 3 -0.005512 -0.003307 0.014889 0.000000 0.000000 0.000000
# 4 0.000000 0.000000 0.000000 0.033111 0.000000 0.000000
# 5 0.000000 0.000000 0.000000 0.000000 0.034257 0.000000
# 6 0.000000 0.000000 0.000000 0.000000 0.000000 0.062462
#
#
# Mechanical properties :
#
#
# Convention : Reuss Voigt Hill
#
# Bulk Modulus (GPa) = 51.15320 53.34295 52.24807
# Shear Modulus (GPa) = 24.43100 26.41448 25.42274
#
# Velocity S-wave (km/s) = 3.57200 3.71417 3.64378
# Velocity P-wave (km/s) = 6.61265 6.80088 6.70742
#
# Compressibility (1/GPa) = 0.01954912
#
# Stress axis : x y z
#
# Youngs Moduli (GPa) = 54.64599 93.09586 67.16401
#
# Poissons Ratio (x) = 0.31393 0.37019
# Poissons Ratio (y) = 0.18427 0.22209
# Poissons Ratio (z) = 0.30120 0.30784
#
# Static dielectric constant tensor:
#      x y z
#    x 3.392480 0.000000 0.000000 
#    y 0.000000 3.805760 0.000000 
#    z 0.000000 0.000000 3.384210 
# 
# 
# High freq. dielectric constant tensor:
#      x y z
#    x 1.728180 0.000000 0.000000 
#    y 0.000000 1.760010 0.000000 
#    z 0.000000 0.000000 1.737930 
# 
# From -- ./inp_files/9065.got.cif
#   From: 2010.03.12/outbox.cif.g09.slc.cpg/sg55_5_cif.got.tgz:9065.got - 2010.04.16 15:19:21.
