data_PCOD8226393
_publ_section_title
;
Structure prediction by ZEFSAII (Michael W. Deem and Ramdas Pophale) SiO2 
 PCOD8226393
Probable space group: P B A M
;
_chemical_formula_sum "Si O2"
_cell_formula_units_Z 64
_cell_length_a 26.027591
_cell_length_b 14.756746
_cell_length_c 8.735624
_cell_angle_alpha 90.000000
_cell_angle_beta 90.000000
_cell_angle_gamma 90.000000
_cell_volume 3355.200736
_symmetry_space_group_name_H-M "P B A M"
_symmetry_group_IT_number 55
_symmetry_cell_setting 'orthorhombic'
loop_
_space_group_symop_operation_xyz
x,y,z
-x,-y,z
1/2+x,1/2-y,-z
1/2-x,1/2+y,-z
-x,-y,-z
x,y,-z
1/2-x,1/2+y,z
1/2+x,1/2-y,z
loop_
_atom_site_type_symbol
_atom_site_label
_atom_site_fract_x
_atom_site_fract_y
_atom_site_fract_z
Si Si1 0.999598 0.397246 0.819816
Si Si2 0.611420 0.165179 0.820779
Si Si3 0.213742 0.000175 0.680147
Si Si4 0.368758 0.644942 0.320603
Si Si5 0.828014 0.502372 0.681796
Si Si6 0.370404 0.362393 0.319964
Si Si7 0.059897 0.003475 0.823189
Si Si8 0.603748 0.838049 0.320274
O O1 0.953020 0.340707 0.749272
O O2 0.000000 0.500000 0.755601
O O3 0.052225 0.348062 0.771105
O O4 0.991940 0.398220 0.000000
O O5 0.630355 0.264493 0.777871
O O6 0.646647 0.095727 0.730125
O O7 0.618097 0.147744 0.000000
O O8 0.219619 0.997405 0.500000
O O9 0.270556 0.002249 0.753453
O O10 0.182879 0.909948 0.733097
O O11 0.182520 0.090187 0.727918
O O12 0.369519 0.668258 0.500000
O O13 0.417867 0.584087 0.280249
O O14 0.825902 0.496779 0.500000
O O15 0.861012 0.418372 0.748236
O O16 0.379678 0.378619 0.500000
O O17 0.417173 0.407205 0.227962
O O18 0.368687 0.256489 0.278101
O O19 0.073036 0.022530 0.000000
O O20 0.000000 0.000000 0.793080
O O21 0.597744 0.849319 0.500000
#
# Coordination Sequence:
#
# PCOD8226393 Si02
#       8
#     8   8   8   8   8   8   8   8
#     4  10  21  38  56  74 107 153 186 220 277 338
#     4  11  23  38  56  82 115 149 188 231 278 338
#     4   8  17  36  60  82 109 144 182 226 277 329
#     4  10  21  38  60  84 111 146 187 233 283 332
#     4  10  20  36  59  85 111 146 189 232 277 329
#     4   9  19  36  55  80 112 146 184 232 280 327
#     4  10  21  36  54  79 111 147 186 229 277 335
#     4  10  21  34  54  85 113 139 183 236 277 320
#
# _framework density 19.074866
#
# number of rings (size 3 to 8) (size 9 to 14) (size 15 to 20)
#    0.000    2.250    1.250    1.875    1.750    3.750 
#    0.000    6.875    0.000    1.500    0.000    0.000 
#    0.000    0.000    0.000    0.000    0.000    0.000 
#
# Total GULP energy -793674.031170 kJ/mol
# GULP energy per Si atom -12401.156737 kJ/mol
# Density = 1.903145 g / cm^3
# Si number density = 19.074866 Si / 1000 Ang^3
#
#
#
# Elastic Constant Matrix: (Units=GPa)
#
#
# Indices 1 2 3 4 5 6 
#
# 1 148.4770 55.3528 24.0392 0.0000 0.0000 0.0000
# 2 55.3528 114.7320 6.6020 0.0000 0.0000 0.0000
# 3 24.0392 6.6020 18.6162 0.0000 0.0000 0.0000
# 4 0.0000 0.0000 0.0000 20.9073 0.0000 0.0000
# 5 0.0000 0.0000 0.0000 0.0000 7.6856 0.0000
# 6 0.0000 0.0000 0.0000 0.0000 0.0000 14.6412
#
#
#
# Elastic Compliance Matrix: (Units=1/GPa)
#
#
# Indices 1 2 3 4 5 6 
#
# 1 0.010212 -0.004255 -0.011678 0.000000 0.000000 0.000000
# 2 -0.004255 0.010670 0.001710 0.000000 0.000000 0.000000
# 3 -0.011678 0.001710 0.068190 0.000000 0.000000 0.000000
# 4 0.000000 0.000000 0.000000 0.047830 0.000000 0.000000
# 5 0.000000 0.000000 0.000000 0.000000 0.130114 0.000000
# 6 0.000000 0.000000 0.000000 0.000000 0.000000 0.068301
#
#
# Mechanical properties :
#
#
# Convention : Reuss Voigt Hill
#
# Bulk Modulus (GPa) = 16.49424 50.42369 33.45896
# Shear Modulus (GPa) = 13.02183 21.70222 17.36202
#
# Velocity S-wave (km/s) = 2.61563 3.37670 3.02023
# Velocity P-wave (km/s) = 4.21757 6.45715 5.45356
#
# Compressibility (1/GPa) = 0.06062724
#
# Stress axis : x y z
#
# Youngs Moduli (GPa) = 97.92414 93.71801 14.66491
#
# Poissons Ratio (x) = 0.39875 0.17126
# Poissons Ratio (y) = 0.41665 -0.02508
# Poissons Ratio (z) = 1.14355 -0.16028
#
# Static dielectric constant tensor:
#      x y z
#    x 3.748290 0.000000 0.000000 
#    y 0.000000 3.597190 0.000000 
#    z 0.000000 0.000000 3.304420 
# 
# 
# High freq. dielectric constant tensor:
#      x y z
#    x 1.746710 0.000000 0.000000 
#    y 0.000000 1.748130 0.000000 
#    z 0.000000 0.000000 1.723880 
# 
# From -- ./inp_files/9830.got.cif
#   From: 2010.03.12/outbox.cif.g09.slc.cpg/sg55_5_cif.got.tgz:9830.got - 2010.04.16 15:19:21.
