data_PCOD8226287
_publ_section_title
;
Structure prediction by ZEFSAII (Michael W. Deem and Ramdas Pophale) SiO2 
 PCOD8226287
Probable space group: P B A M
;
_chemical_formula_sum "Si O2"
_cell_formula_units_Z 56
_cell_length_a 15.029519
_cell_length_b 14.840641
_cell_length_c 13.615774
_cell_angle_alpha 90.000000
_cell_angle_beta 90.000000
_cell_angle_gamma 90.000000
_cell_volume 3036.967018
_symmetry_space_group_name_H-M "P B A M"
_symmetry_group_IT_number 55
_symmetry_cell_setting 'orthorhombic'
loop_
_space_group_symop_operation_xyz
x,y,z
-x,-y,z
1/2+x,1/2-y,-z
1/2-x,1/2+y,-z
-x,-y,-z
x,y,-z
1/2-x,1/2+y,z
1/2+x,1/2-y,z
loop_
_atom_site_type_symbol
_atom_site_label
_atom_site_fract_x
_atom_site_fract_y
_atom_site_fract_z
Si Si1 0.126576 0.566794 0.892182
Si Si2 0.271751 0.811887 0.614214
Si Si3 0.953559 0.730749 0.702806
Si Si4 0.254872 0.510072 0.613465
Si Si5 0.924810 0.627718 0.108283
Si Si6 0.148732 0.659073 0.300526
Si Si7 0.439867 0.585944 0.614588
O O1 0.134794 0.460332 0.864392
O O2 0.173822 0.629227 0.810833
O O3 0.024798 0.594399 0.896020
O O4 0.169853 0.583677 0.000000
O O5 0.246253 0.802330 0.500000
O O6 0.376649 0.792029 0.624488
O O7 0.209519 0.744097 0.674411
O O8 0.254171 0.910794 0.660058
O O9 0.915057 0.707236 0.811242
O O10 0.976129 0.835885 0.686486
O O11 0.044229 0.676437 0.682790
O O12 0.267132 0.491513 0.500000
O O13 0.169430 0.572613 0.631767
O O14 0.341128 0.562794 0.652474
O O15 0.897016 0.664729 0.000000
O O16 0.500000 0.500000 0.632119
O O17 0.442101 0.615895 0.500000
#
# Coordination Sequence:
#
# PCOD8226287 Si02
#       7
#     8   8   8   8   8   8   8
#     4   8  15  30  53  80 111 145 178 221 277 341
#     4  11  23  37  53  79 113 149 189 232 281 337
#     4  11  21  34  57  84 108 145 189 235 288 343
#     4  10  21  36  53  75 109 147 182 229 281 328
#     4   8  15  30  53  82 112 140 177 224 282 345
#     4  11  21  35  56  81 112 144 183 238 285 330
#     4  10  20  36  55  75 105 152 201 230 262 333
#
# _framework density 18.439449
#
# number of rings (size 3 to 8) (size 9 to 14) (size 15 to 20)
#    0.000    2.143    1.429    3.429    0.000    5.143 
#    0.000    2.143    0.000    1.286    0.000    0.000 
#    0.000    0.000    0.000    0.000    0.000    0.000 
#
# Total GULP energy -694019.971768 kJ/mol
# GULP energy per Si atom -12393.213782 kJ/mol
# Density = 1.839748 g / cm^3
# Si number density = 18.439449 Si / 1000 Ang^3
#
#
#
# Elastic Constant Matrix: (Units=GPa)
#
#
# Indices 1 2 3 4 5 6 
#
# 1 75.1279 33.5337 31.6473 0.0000 0.0000 0.0000
# 2 33.5337 135.3438 60.9799 0.0000 0.0000 0.0000
# 3 31.6473 60.9799 76.1336 0.0000 0.0000 0.0000
# 4 0.0000 0.0000 0.0000 33.5557 0.0000 0.0000
# 5 0.0000 0.0000 0.0000 0.0000 19.4285 0.0000
# 6 0.0000 0.0000 0.0000 0.0000 0.0000 27.6867
#
#
#
# Elastic Compliance Matrix: (Units=1/GPa)
#
#
# Indices 1 2 3 4 5 6 
#
# 1 0.016340 -0.001546 -0.005554 0.000000 0.000000 0.000000
# 2 -0.001546 0.011707 -0.008734 0.000000 0.000000 0.000000
# 3 -0.005554 -0.008734 0.022439 0.000000 0.000000 0.000000
# 4 0.000000 0.000000 0.000000 0.029801 0.000000 0.000000
# 5 0.000000 0.000000 0.000000 0.000000 0.051471 0.000000
# 6 0.000000 0.000000 0.000000 0.000000 0.000000 0.036118
#
#
# Mechanical properties :
#
#
# Convention : Reuss Voigt Hill
#
# Bulk Modulus (GPa) = 53.14064 59.88079 56.51072
# Shear Modulus (GPa) = 24.29336 26.83047 25.56192
#
# Velocity S-wave (km/s) = 3.63363 3.81866 3.72729
# Velocity P-wave (km/s) = 6.81806 7.21025 7.01689
#
# Compressibility (1/GPa) = 0.01881799
#
# Stress axis : x y z
#
# Youngs Moduli (GPa) = 61.19814 85.42022 44.56528
#
# Poissons Ratio (x) = 0.13208 0.24751
# Poissons Ratio (y) = 0.09463 0.38923
# Poissons Ratio (z) = 0.33989 0.74606
#
# Static dielectric constant tensor:
#      x y z
#    x 3.379090 0.000000 0.000000 
#    y 0.000000 3.580220 0.000000 
#    z 0.000000 0.000000 3.614440 
# 
# 
# High freq. dielectric constant tensor:
#      x y z
#    x 1.695330 0.000000 0.000000 
#    y 0.000000 1.721610 0.000000 
#    z 0.000000 0.000000 1.701020 
# 
# From -- ./inp_files/19043.got.cif
#   From: 2010.03.12/outbox.cif.g09.slc.cpg/sg55_10_cif.got.tgz:19043.got - 2010.04.16 15:19:21.
