data_PCOD8226202
_publ_section_title
;
Structure prediction by ZEFSAII (Michael W. Deem and Ramdas Pophale) SiO2 
 PCOD8226202
Probable space group: P B A M
;
_chemical_formula_sum "Si O2"
_cell_formula_units_Z 56
_cell_length_a 10.040962
_cell_length_b 20.872752
_cell_length_c 14.039458
_cell_angle_alpha 90.000000
_cell_angle_beta 90.000000
_cell_angle_gamma 90.000000
_cell_volume 2942.424842
_symmetry_space_group_name_H-M "P B A M"
_symmetry_group_IT_number 55
_symmetry_cell_setting 'orthorhombic'
loop_
_space_group_symop_operation_xyz
x,y,z
-x,-y,z
1/2+x,1/2-y,-z
1/2-x,1/2+y,-z
-x,-y,-z
x,y,-z
1/2-x,1/2+y,z
1/2+x,1/2-y,z
loop_
_atom_site_type_symbol
_atom_site_label
_atom_site_fract_x
_atom_site_fract_y
_atom_site_fract_z
Si Si1 0.959084 0.567158 0.389725
Si Si2 0.718303 0.752909 0.219121
Si Si3 0.021575 0.073952 0.390294
Si Si4 0.469070 0.703396 0.109693
Si Si5 0.282519 0.386456 0.273735
Si Si6 0.417762 0.436709 0.107113
Si Si7 0.786341 0.349970 0.390267
O O1 0.930339 0.558153 0.500000
O O2 0.071610 0.618949 0.369586
O O3 0.000000 0.500000 0.343300
O O4 0.819585 0.584343 0.345928
O O5 0.572343 0.746508 0.171081
O O6 0.770441 0.682612 0.243821
O O7 0.721072 0.790889 0.318548
O O8 0.819094 0.784593 0.144407
O O9 0.982768 0.083779 0.500000
O O10 0.926086 0.117984 0.325887
O O11 0.172345 0.096994 0.370806
O O12 0.000000 0.000000 0.360299
O O13 0.494178 0.627420 0.120796
O O14 0.481907 0.724569 0.000000
O O15 0.293865 0.431148 0.179444
O O16 0.500000 0.500000 0.133612
O O17 0.361776 0.441735 0.000000
O O18 0.776413 0.325390 0.500000
#
# Coordination Sequence:
#
# PCOD8226202 Si02
#       7
#     8   8   8   8   8   8   8
#     4  10  21  36  53  76 108 144 179 214 261 318
#     4  11  22  37  54  81 111 142 184 218 261 326
#     4  10  20  35  57  83 107 137 184 232 270 312
#     4  10  21  38  60  81 107 141 178 225 272 318
#     4  11  21  34  55  80 107 141 177 221 266 313
#     4   9  19  36  58  84 108 133 173 226 280 326
#     4  10  21  36  53  76 111 149 179 218 267 317
#
# _framework density 19.031922000000002
#
# number of rings (size 3 to 8) (size 9 to 14) (size 15 to 20)
#    0.000    1.857    0.000    4.714    0.000    5.143 
#    0.000    3.571    0.000    0.429    0.000    0.000 
#    0.000    0.000    0.000    0.000    0.000    0.000 
#
# Total GULP energy -694344.133459 kJ/mol
# GULP energy per Si atom -12399.002383 kJ/mol
# Density = 1.898860 g / cm^3
# Si number density = 19.031922 Si / 1000 Ang^3
#
#
#
# Elastic Constant Matrix: (Units=GPa)
#
#
# Indices 1 2 3 4 5 6 
#
# 1 91.5153 32.0093 45.4458 0.0000 0.0000 0.0000
# 2 32.0093 81.7571 40.2636 0.0000 0.0000 0.0000
# 3 45.4458 40.2636 90.1125 0.0000 0.0000 0.0000
# 4 0.0000 0.0000 0.0000 27.4044 0.0000 0.0000
# 5 0.0000 0.0000 0.0000 0.0000 9.8934 0.0000
# 6 0.0000 0.0000 0.0000 0.0000 0.0000 22.4391
#
#
#
# Elastic Compliance Matrix: (Units=1/GPa)
#
#
# Indices 1 2 3 4 5 6 
#
# 1 0.015049 -0.002762 -0.006356 0.000000 0.000000 0.000000
# 2 -0.002762 0.016189 -0.005841 0.000000 0.000000 0.000000
# 3 -0.006356 -0.005841 0.016912 0.000000 0.000000 0.000000
# 4 0.000000 0.000000 0.000000 0.036491 0.000000 0.000000
# 5 0.000000 0.000000 0.000000 0.000000 0.101077 0.000000
# 6 0.000000 0.000000 0.000000 0.000000 0.000000 0.044565
#
#
# Mechanical properties :
#
#
# Convention : Reuss Voigt Hill
#
# Bulk Modulus (GPa) = 54.84213 55.42471 55.13342
# Shear Modulus (GPa) = 18.77735 21.65845 20.21790
#
# Velocity S-wave (km/s) = 3.14446 3.37709 3.26285
# Velocity P-wave (km/s) = 6.48552 6.66270 6.57471
#
# Compressibility (1/GPa) = 0.01823416
#
# Stress axis : x y z
#
# Youngs Moduli (GPa) = 66.44796 61.76990 59.12903
#
# Poissons Ratio (x) = 0.17061 0.37580
# Poissons Ratio (y) = 0.18354 0.34535
# Poissons Ratio (z) = 0.42232 0.36077
#
# Static dielectric constant tensor:
#      x y z
#    x 3.380270 0.000000 0.000000 
#    y 0.000000 3.513140 0.000000 
#    z 0.000000 0.000000 3.714870 
# 
# 
# High freq. dielectric constant tensor:
#      x y z
#    x 1.731270 0.000000 0.000000 
#    y 0.000000 1.738790 0.000000 
#    z 0.000000 0.000000 1.754590 
# 
# From -- ./inp_files/17612.got.cif
#   From: 2010.03.12/outbox.cif.g09.slc.cpg/sg55_9_cif.got.tgz:17612.got - 2010.04.16 15:19:21.
