data_PCOD8226753
_publ_section_title
;
Structure prediction by ZEFSAII (Michael W. Deem and Ramdas Pophale) SiO2 
 PCOD8226753
Probable space group: P B A M
;
_chemical_formula_sum "Si O2"
_cell_formula_units_Z 40
_cell_length_a 20.080514
_cell_length_b 11.542638
_cell_length_c 8.617267
_cell_angle_alpha 90.000000
_cell_angle_beta 90.000000
_cell_angle_gamma 90.000000
_cell_volume 1997.328276
_symmetry_space_group_name_H-M "P B A M"
_symmetry_group_IT_number 55
_symmetry_cell_setting 'orthorhombic'
loop_
_space_group_symop_operation_xyz
x,y,z
-x,-y,z
1/2+x,1/2-y,-z
1/2-x,1/2+y,-z
-x,-y,-z
x,y,-z
1/2-x,1/2+y,z
1/2+x,1/2-y,z
loop_
_atom_site_type_symbol
_atom_site_label
_atom_site_fract_x
_atom_site_fract_y
_atom_site_fract_z
Si Si1 0.480837 0.628751 0.819345
Si Si2 0.085482 0.700187 0.682254
Si Si3 0.718120 0.819582 0.175035
Si Si4 0.143444 0.234223 0.320024
Si Si5 0.626042 0.020434 0.175449
O O1 0.500000 0.500000 0.767351
O O2 0.523932 0.718863 0.721673
O O3 0.403718 0.649911 0.779592
O O4 0.494620 0.648425 0.000000
O O5 0.094315 0.690133 0.500000
O O6 0.154317 0.751076 0.756351
O O7 0.072585 0.571274 0.753612
O O8 0.781080 0.797870 0.282260
O O9 0.698634 0.956603 0.176715
O O10 0.733025 0.776436 0.000000
O O11 0.129703 0.212996 0.500000
O O12 0.128371 0.367081 0.281123
O O13 0.605456 0.054148 0.000000
#
# Coordination Sequence:
#
# PCOD8226753 Si02
#       5
#     8   8   8   8   8
#     4  11  25  44  64  88 123 168 213 254 311 380
#     4  10  20  39  64  92 124 157 203 257 313 364
#     4   9  20  39  62  88 122 165 206 249 306 370
#     4  12  24  38  63  96 128 160 207 264 315 365
#     4   9  20  39  63  89 121 161 207 249 304 373
#
# _framework density 20.026752999999999
#
# number of rings (size 3 to 8) (size 9 to 14) (size 15 to 20)
#    1.200    0.600    0.000    4.800    0.000    4.000 
#    0.000    6.000    0.000    0.000    0.000    0.000 
#    0.000    0.000    0.000    0.000    0.000    0.000 
#
# Total GULP energy -495877.798201 kJ/mol
# GULP energy per Si atom -12396.944955 kJ/mol
# Density = 1.998117 g / cm^3
# Si number density = 20.026753 Si / 1000 Ang^3
#
#
#
# Elastic Constant Matrix: (Units=GPa)
#
#
# Indices 1 2 3 4 5 6 
#
# 1 61.3323 0.4790 11.1857 0.0000 0.0000 0.0000
# 2 0.4790 61.5214 24.5498 0.0000 0.0000 0.0000
# 3 11.1857 24.5498 101.3066 0.0000 0.0000 0.0000
# 4 0.0000 0.0000 0.0000 29.5938 0.0000 0.0000
# 5 0.0000 0.0000 0.0000 0.0000 36.4919 0.0000
# 6 0.0000 0.0000 0.0000 0.0000 0.0000 30.4361
#
#
#
# Elastic Compliance Matrix: (Units=1/GPa)
#
#
# Indices 1 2 3 4 5 6 
#
# 1 0.016665 0.000669 -0.002002 0.000000 0.000000 0.000000
# 2 0.000669 0.018021 -0.004441 0.000000 0.000000 0.000000
# 3 -0.002002 -0.004441 0.011168 0.000000 0.000000 0.000000
# 4 0.000000 0.000000 0.000000 0.033791 0.000000 0.000000
# 5 0.000000 0.000000 0.000000 0.000000 0.027403 0.000000
# 6 0.000000 0.000000 0.000000 0.000000 0.000000 0.032856
#
#
# Mechanical properties :
#
#
# Convention : Reuss Voigt Hill
#
# Bulk Modulus (GPa) = 29.14920 32.95437 31.05178
# Shear Modulus (GPa) = 30.69597 31.83406 31.26501
#
# Velocity S-wave (km/s) = 3.91928 3.99127 3.95544
# Velocity P-wave (km/s) = 5.92180 6.14258 6.03320
#
# Compressibility (1/GPa) = 0.03430626
#
# Stress axis : x y z
#
# Youngs Moduli (GPa) = 60.00763 55.48932 89.53908
#
# Poissons Ratio (x) = -0.03713 0.17927
# Poissons Ratio (y) = -0.04016 0.39765
# Poissons Ratio (z) = 0.12015 0.24643
#
# Static dielectric constant tensor:
#      x y z
#    x 3.500830 0.000000 0.000000 
#    y 0.000000 3.464850 0.000000 
#    z 0.000000 0.000000 3.603830 
# 
# 
# High freq. dielectric constant tensor:
#      x y z
#    x 1.775410 0.000000 0.000000 
#    y 0.000000 1.766050 0.000000 
#    z 0.000000 0.000000 1.796480 
# 
# From -- ./inp_files/8477.got.cif
#   From: 2010.03.12/outbox.cif.g09.slc.cpg/sg55_5_cif.got.tgz:8477.got - 2010.04.16 15:19:21.
