data_PCOD8226905
_publ_section_title
;
Structure prediction by ZEFSAII (Michael W. Deem and Ramdas Pophale) SiO2 
 PCOD8226905
Probable space group: P B A M
;
_chemical_formula_sum "Si O2"
_cell_formula_units_Z 48
_cell_length_a 30.267760
_cell_length_b 9.377253
_cell_length_c 8.610018
_cell_angle_alpha 90.000000
_cell_angle_beta 90.000000
_cell_angle_gamma 90.000000
_cell_volume 2443.768005
_symmetry_space_group_name_H-M "P B A M"
_symmetry_group_IT_number 55
_symmetry_cell_setting 'orthorhombic'
loop_
_space_group_symop_operation_xyz
x,y,z
-x,-y,z
1/2+x,1/2-y,-z
1/2-x,1/2+y,-z
-x,-y,-z
x,y,-z
1/2-x,1/2+y,z
1/2+x,1/2-y,z
loop_
_atom_site_type_symbol
_atom_site_label
_atom_site_fract_x
_atom_site_fract_y
_atom_site_fract_z
Si Si1 0.713084 0.613276 0.679258
Si Si2 0.455950 0.585827 0.682383
Si Si3 0.040095 0.408039 0.317762
Si Si4 0.377710 0.408049 0.182039
Si Si5 0.717337 0.914599 0.177562
Si Si6 0.116260 0.584350 0.821717
O O1 0.712172 0.658595 0.500000
O O2 0.666258 0.543632 0.726734
O O3 0.751808 0.500514 0.705871
O O4 0.722562 0.748305 0.787093
O O5 0.500000 0.500000 0.722379
O O6 0.445112 0.580761 0.500000
O O7 0.461397 0.746710 0.746284
O O8 0.416170 0.516278 0.776186
O O9 0.033353 0.400951 0.500000
O O10 0.086656 0.480661 0.281172
O O11 0.000000 0.500000 0.242833
O O12 0.391054 0.247564 0.232779
O O13 0.367316 0.412364 0.000000
O O14 0.666825 0.962199 0.204688
O O15 0.731715 0.941266 0.000000
O O16 0.102246 0.566369 0.000000
#
# Coordination Sequence:
#
# PCOD8226905 Si02
#       6
#     8   8   8   8   8   8
#     4  11  22  37  59  87 115 148 192 238 284 336
#     4  10  21  37  57  82 112 146 186 232 281 335
#     4  10  21  36  56  82 110 143 182 225 276 330
#     4  10  21  38  58  81 111 148 188 230 282 340
#     4  10  21  39  59  82 115 153 190 231 285 343
#     4   9  20  37  57  80 107 143 184 225 272 328
#
# _framework density 19.6418
#
# number of rings (size 3 to 8) (size 9 to 14) (size 15 to 20)
#    0.000    2.000    0.000    4.500    0.000    8.000 
#    0.000    3.333    0.000    0.000    0.000    0.000 
#    0.000    0.000    0.000    0.000    0.000    0.000 
#
# Total GULP energy -595408.340856 kJ/mol
# GULP energy per Si atom -12404.340435 kJ/mol
# Density = 1.959709 g / cm^3
# Si number density = 19.641800 Si / 1000 Ang^3
#
#
#
# Elastic Constant Matrix: (Units=GPa)
#
#
# Indices 1 2 3 4 5 6 
#
# 1 113.1230 67.5645 28.4261 0.0000 0.0000 0.0000
# 2 67.5645 116.4856 23.8267 0.0000 0.0000 0.0000
# 3 28.4261 23.8267 52.9427 0.0000 0.0000 0.0000
# 4 0.0000 0.0000 0.0000 30.5851 0.0000 0.0000
# 5 0.0000 0.0000 0.0000 0.0000 33.6410 0.0000
# 6 0.0000 0.0000 0.0000 0.0000 0.0000 38.4504
#
#
#
# Elastic Compliance Matrix: (Units=1/GPa)
#
#
# Indices 1 2 3 4 5 6 
#
# 1 0.014389 -0.007452 -0.004372 0.000000 0.000000 0.000000
# 2 -0.007452 0.013314 -0.001991 0.000000 0.000000 0.000000
# 3 -0.004372 -0.001991 0.022132 0.000000 0.000000 0.000000
# 4 0.000000 0.000000 0.000000 0.032696 0.000000 0.000000
# 5 0.000000 0.000000 0.000000 0.000000 0.029726 0.000000
# 6 0.000000 0.000000 0.000000 0.000000 0.000000 0.026008
#
#
# Mechanical properties :
#
#
# Convention : Reuss Voigt Hill
#
# Bulk Modulus (GPa) = 45.03422 58.02067 51.52745
# Shear Modulus (GPa) = 28.85231 31.38424 30.11827
#
# Velocity S-wave (km/s) = 3.83681 4.00162 3.92008
# Velocity P-wave (km/s) = 6.52730 7.13822 6.83958
#
# Compressibility (1/GPa) = 0.02220533
#
# Stress axis : x y z
#
# Youngs Moduli (GPa) = 69.49581 75.10752 45.18357
#
# Poissons Ratio (x) = 0.55969 0.19756
# Poissons Ratio (y) = 0.51787 0.08996
# Poissons Ratio (z) = 0.30386 0.14954
#
# Static dielectric constant tensor:
#      x y z
#    x 3.628340 0.000000 0.000000 
#    y 0.000000 3.681210 0.000000 
#    z 0.000000 0.000000 3.405370 
# 
# 
# High freq. dielectric constant tensor:
#      x y z
#    x 1.773280 0.000000 0.000000 
#    y 0.000000 1.763890 0.000000 
#    z 0.000000 0.000000 1.760530 
# 
# From -- ./inp_files/2772.got.cif
#   From: 2010.03.12/outbox.cif.g09.slc.cpg/sg55_2_cif.got.tgz:2772.got - 2010.04.16 15:19:21.
