data_PCOD8226972
_publ_section_title
;
Structure prediction by ZEFSAII (Michael W. Deem and Ramdas Pophale) SiO2 
 PCOD8226972
Probable space group: P B A M
;
_chemical_formula_sum "Si O2"
_cell_formula_units_Z 64
_cell_length_a 28.361960
_cell_length_b 12.459452
_cell_length_c 8.869581
_cell_angle_alpha 90.000000
_cell_angle_beta 90.000000
_cell_angle_gamma 90.000000
_cell_volume 3134.283567
_symmetry_space_group_name_H-M "P B A M"
_symmetry_group_IT_number 55
_symmetry_cell_setting 'orthorhombic'
loop_
_space_group_symop_operation_xyz
x,y,z
-x,-y,z
1/2+x,1/2-y,-z
1/2-x,1/2+y,-z
-x,-y,-z
x,y,-z
1/2-x,1/2+y,z
1/2+x,1/2-y,z
loop_
_atom_site_type_symbol
_atom_site_label
_atom_site_fract_x
_atom_site_fract_y
_atom_site_fract_z
Si Si1 0.982732 0.886236 0.178845
Si Si2 0.878778 0.831900 0.177607
Si Si3 0.299934 0.069961 0.825059
Si Si4 0.069664 0.746977 0.177110
Si Si5 0.639309 0.111292 0.673716
Si Si6 0.803044 0.008807 0.826994
Si Si7 0.448215 0.029915 0.327108
Si Si8 0.163949 0.786349 0.322543
O O1 0.931188 0.855685 0.241239
O O2 0.019938 0.796078 0.231146
O O3 0.979867 0.894208 0.000000
O O4 0.000000 0.000000 0.245701
O O5 0.856724 0.730206 0.261268
O O6 0.846800 0.933795 0.217712
O O7 0.879059 0.807886 0.000000
O O8 0.316080 0.174712 0.737147
O O9 0.325837 0.964718 0.765081
O O10 0.244425 0.057152 0.797688
O O11 0.312329 0.085011 0.000000
O O12 0.072512 0.623103 0.223109
O O13 0.112153 0.810430 0.255937
O O14 0.076270 0.759777 0.000000
O O15 0.654927 0.110888 0.500000
O O16 0.585332 0.072490 0.692057
O O17 0.802588 0.115511 0.725403
O O18 0.806620 0.045827 0.000000
O O19 0.449740 0.070051 0.500000
O O20 0.500000 0.000000 0.268389
O O21 0.160862 0.778118 0.500000
#
# Coordination Sequence:
#
# PCOD8226972 Si02
#       8
#     8   8   8   8   8   8   8   8
#     4   9  18  34  59  90 124 161 208 261 313 365
#     4  10  21  40  65  94 128 167 210 262 316 373
#     4  11  24  43  67  93 122 162 211 263 316 376
#     4  11  21  35  60  90 120 162 211 260 308 371
#     4  11  23  39  60  89 127 167 206 255 317 380
#     4  10  24  44  68  94 122 162 211 260 314 375
#     4  10  21  37  56  82 121 166 207 256 317 375
#     4  12  25  42  65  94 129 165 205 259 320 379
#
# _framework density 20.419339000000001
#
# number of rings (size 3 to 8) (size 9 to 14) (size 15 to 20)
#    0.000    1.500    1.250    3.750    1.750    4.250 
#    0.000    0.625    0.000    2.625    0.000    0.000 
#    0.000    0.000    0.000    0.000    0.000    0.000 
#
# Total GULP energy -793968.047305 kJ/mol
# GULP energy per Si atom -12405.750739 kJ/mol
# Density = 2.037286 g / cm^3
# Si number density = 20.419339 Si / 1000 Ang^3
#
#
#
# Elastic Constant Matrix: (Units=GPa)
#
#
# Indices 1 2 3 4 5 6 
#
# 1 112.2188 34.3938 44.2026 0.0000 0.0000 0.0000
# 2 34.3938 106.5240 40.9465 0.0000 0.0000 0.0000
# 3 44.2026 40.9465 95.8092 0.0000 0.0000 0.0000
# 4 0.0000 0.0000 0.0000 12.9525 0.0000 0.0000
# 5 0.0000 0.0000 0.0000 0.0000 17.1984 0.0000
# 6 0.0000 0.0000 0.0000 0.0000 0.0000 29.8560
#
#
#
# Elastic Compliance Matrix: (Units=1/GPa)
#
#
# Indices 1 2 3 4 5 6 
#
# 1 0.011220 -0.001954 -0.004341 0.000000 0.000000 0.000000
# 2 -0.001954 0.011573 -0.004045 0.000000 0.000000 0.000000
# 3 -0.004341 -0.004045 0.014169 0.000000 0.000000 0.000000
# 4 0.000000 0.000000 0.000000 0.077205 0.000000 0.000000
# 5 0.000000 0.000000 0.000000 0.000000 0.058145 0.000000
# 6 0.000000 0.000000 0.000000 0.000000 0.000000 0.033494
#
#
# Mechanical properties :
#
#
# Convention : Reuss Voigt Hill
#
# Bulk Modulus (GPa) = 61.41660 61.51530 61.46595
# Shear Modulus (GPa) = 21.55973 25.00198 23.28085
#
# Velocity S-wave (km/s) = 3.25291 3.50298 3.38026
# Velocity P-wave (km/s) = 6.65218 6.82294 6.73810
#
# Compressibility (1/GPa) = 0.01628224
#
# Stress axis : x y z
#
# Youngs Moduli (GPa) = 89.12575 86.40716 70.57673
#
# Poissons Ratio (x) = 0.16883 0.30641
# Poissons Ratio (y) = 0.17414 0.28546
# Poissons Ratio (z) = 0.38694 0.34948
#
# Static dielectric constant tensor:
#      x y z
#    x 3.963050 0.000000 0.000000 
#    y 0.000000 3.661870 0.000000 
#    z 0.000000 0.000000 3.550030 
# 
# 
# High freq. dielectric constant tensor:
#      x y z
#    x 1.812100 0.000000 0.000000 
#    y 0.000000 1.803970 0.000000 
#    z 0.000000 0.000000 1.783550 
# 
# From -- ./inp_files/10750.got.cif
#   From: 2010.03.12/outbox.cif.g09.slc.cpg/sg55_6_cif.got.tgz:10750.got - 2010.04.16 15:19:21.
