data_PCOD8226706
_publ_section_title
;
Structure prediction by ZEFSAII (Michael W. Deem and Ramdas Pophale) SiO2 
 PCOD8226706
Probable space group: P B A M
;
_chemical_formula_sum "Si O2"
_cell_formula_units_Z 28
_cell_length_a 33.396009
_cell_length_b 5.124443
_cell_length_c 8.747429
_cell_angle_alpha 90.000000
_cell_angle_beta 90.000000
_cell_angle_gamma 90.000000
_cell_volume 1496.999524
_symmetry_space_group_name_H-M "P B A M"
_symmetry_group_IT_number 55
_symmetry_cell_setting 'orthorhombic'
loop_
_space_group_symop_operation_xyz
x,y,z
-x,-y,z
1/2+x,1/2-y,-z
1/2-x,1/2+y,-z
-x,-y,-z
x,y,-z
1/2-x,1/2+y,z
1/2+x,1/2-y,z
loop_
_atom_site_type_symbol
_atom_site_label
_atom_site_fract_x
_atom_site_fract_y
_atom_site_fract_z
Si Si1 0.114066 0.781863 0.679988
Si Si2 0.976844 0.249530 0.317969
Si Si3 0.223753 0.200371 0.000000
Si Si4 0.647966 0.216386 0.830890
O O1 0.117036 0.739913 0.500000
O O2 0.068749 0.747606 0.739558
O O3 0.141741 0.570529 0.762657
O O4 0.128801 0.071324 0.719243
O O5 0.977685 0.245356 0.500000
O O6 0.000000 0.500000 0.253026
O O7 0.000000 0.000000 0.251279
O O8 0.195924 0.238428 0.151133
O O9 0.240566 0.908011 0.000000
O O10 0.627872 0.234768 0.000000
#
# Coordination Sequence:
#
# PCOD8226706 Si02
#       4
#     8   8   4   8
#     4  11  20  35  58  85 115 144 186 236 278 317
#     4   9  17  29  48  75 106 145 189 227 262 311
#     4  10  20  38  64  84 102 142 192 220 254 336
#     4  10  22  36  59  85 108 148 180 232 267 339
#
# _framework density 18.704083000000001
#
# number of rings (size 3 to 8) (size 9 to 14) (size 15 to 20)
#    0.857    1.143    0.000    5.143    0.000    4.571 
#    0.000    0.000    0.000   34.286    0.000    0.000 
#    0.000    0.000    0.000    0.000    0.000    0.000 
#
# Total GULP energy -347157.778578 kJ/mol
# GULP energy per Si atom -12398.492092 kJ/mol
# Density = 1.866151 g / cm^3
# Si number density = 18.704083 Si / 1000 Ang^3
#
#
#
# Elastic Constant Matrix: (Units=GPa)
#
#
# Indices 1 2 3 4 5 6 
#
# 1 86.3219 15.3954 25.8677 0.0000 0.0000 0.0000
# 2 15.3954 102.4556 13.5307 0.0000 0.0000 0.0000
# 3 25.8677 13.5307 48.1992 0.0000 0.0000 0.0000
# 4 0.0000 0.0000 0.0000 11.4493 0.0000 0.0000
# 5 0.0000 0.0000 0.0000 0.0000 16.5975 0.0000
# 6 0.0000 0.0000 0.0000 0.0000 0.0000 42.1317
#
#
#
# Elastic Compliance Matrix: (Units=1/GPa)
#
#
# Indices 1 2 3 4 5 6 
#
# 1 0.013934 -0.001149 -0.007155 0.000000 0.000000 0.000000
# 2 -0.001149 0.010231 -0.002256 0.000000 0.000000 0.000000
# 3 -0.007155 -0.002256 0.025221 0.000000 0.000000 0.000000
# 4 0.000000 0.000000 0.000000 0.087342 0.000000 0.000000
# 5 0.000000 0.000000 0.000000 0.000000 0.060250 0.000000
# 6 0.000000 0.000000 0.000000 0.000000 0.000000 0.023735
#
#
# Mechanical properties :
#
#
# Convention : Reuss Voigt Hill
#
# Bulk Modulus (GPa) = 35.37870 38.50715 36.94293
# Shear Modulus (GPa) = 19.90022 26.18122 23.04072
#
# Velocity S-wave (km/s) = 3.26536 3.74540 3.51359
# Velocity P-wave (km/s) = 5.75959 6.27186 6.02117
#
# Compressibility (1/GPa) = 0.02826559
#
# Stress axis : x y z
#
# Youngs Moduli (GPa) = 71.76860 97.74389 39.65011
#
# Poissons Ratio (x) = 0.11228 0.28372
# Poissons Ratio (y) = 0.08244 0.08943
# Poissons Ratio (z) = 0.51354 0.22047
#
# Static dielectric constant tensor:
#      x y z
#    x 3.428640 0.000000 0.000000 
#    y 0.000000 3.450800 0.000000 
#    z 0.000000 0.000000 3.066280 
# 
# 
# High freq. dielectric constant tensor:
#      x y z
#    x 1.725140 0.000000 0.000000 
#    y 0.000000 1.745560 0.000000 
#    z 0.000000 0.000000 1.691810 
# 
# From -- ./inp_files/1311.got.cif
#   From: 2010.03.12/outbox.cif.g09.slc.cpg/sg55_1_cif.got.tgz:1311.got - 2010.04.16 15:19:21.
