data_PCOD8226930
_publ_section_title
;
Structure prediction by ZEFSAII (Michael W. Deem and Ramdas Pophale) SiO2 
 PCOD8226930
Probable space group: P B A M
;
_chemical_formula_sum "Si O2"
_cell_formula_units_Z 48
_cell_length_a 14.968947
_cell_length_b 9.351355
_cell_length_c 16.935763
_cell_angle_alpha 90.000000
_cell_angle_beta 90.000000
_cell_angle_gamma 90.000000
_cell_volume 2370.667044
_symmetry_space_group_name_H-M "P B A M"
_symmetry_group_IT_number 55
_symmetry_cell_setting 'orthorhombic'
loop_
_space_group_symop_operation_xyz
x,y,z
-x,-y,z
1/2+x,1/2-y,-z
1/2-x,1/2+y,-z
-x,-y,-z
x,y,-z
1/2-x,1/2+y,z
1/2+x,1/2-y,z
loop_
_atom_site_type_symbol
_atom_site_label
_atom_site_fract_x
_atom_site_fract_y
_atom_site_fract_z
Si Si1 0.804904 0.439442 0.819465
Si Si2 0.092535 0.584328 0.500000
Si Si3 0.982593 0.834121 0.500000
Si Si4 0.139048 0.205680 0.353584
Si Si5 0.532381 0.838190 0.089009
Si Si6 0.865456 0.757271 0.175932
Si Si7 0.212987 0.500914 0.356342
O O1 0.876718 0.333627 0.860161
O O2 0.705757 0.383069 0.843828
O O3 0.816399 0.605995 0.842507
O O4 0.820133 0.429366 0.725713
O O5 0.146259 0.551649 0.422292
O O6 0.000000 0.500000 0.500000
O O7 0.076909 0.754599 0.500000
O O8 0.934146 0.777549 0.421042
O O9 0.000000 0.000000 0.500000
O O10 0.098492 0.221167 0.265694
O O11 0.214710 0.329209 0.358067
O O12 0.186166 0.053982 0.370824
O O13 0.455162 0.733568 0.123220
O O14 0.500000 0.000000 0.091637
O O15 0.553360 0.788410 0.000000
#
# Coordination Sequence:
#
# PCOD8226930 Si02
#       7
#     8   4   4   8   8   8   8
#     4   9  19  35  57  83 111 148 190 234 281 337
#     4  12  23  36  54  80 107 146 188 231 281 329
#     4  12  27  38  52  82 115 144 188 238 287 331
#     4  10  21  39  56  79 108 147 187 231 280 337
#     4   9  18  33  57  85 115 151 187 229 283 346
#     4   9  19  36  58  83 112 147 191 233 280 339
#     4  10  21  36  58  77 107 146 188 230 282 335
#
# _framework density 20.247464000000001
#
# number of rings (size 3 to 8) (size 9 to 14) (size 15 to 20)
#    0.000    2.167    1.667    0.500    4.667    1.333 
#    0.000    0.833    0.000    1.000    0.000    0.000 
#    0.000    0.000    0.000    0.000    0.000    0.000 
#
# Total GULP energy -594894.048764 kJ/mol
# GULP energy per Si atom -12393.626016 kJ/mol
# Density = 2.020138 g / cm^3
# Si number density = 20.247464 Si / 1000 Ang^3
#
#
#
# Elastic Constant Matrix: (Units=GPa)
#
#
# Indices 1 2 3 4 5 6 
#
# 1 51.4358 1.0190 32.3597 0.0000 0.0000 0.0000
# 2 1.0190 56.9364 8.1166 0.0000 0.0000 0.0000
# 3 32.3597 8.1166 98.2840 0.0000 0.0000 0.0000
# 4 0.0000 0.0000 0.0000 19.9065 0.0000 0.0000
# 5 0.0000 0.0000 0.0000 0.0000 32.3550 0.0000
# 6 0.0000 0.0000 0.0000 0.0000 0.0000 34.6048
#
#
#
# Elastic Compliance Matrix: (Units=1/GPa)
#
#
# Indices 1 2 3 4 5 6 
#
# 1 0.024550 0.000721 -0.008143 0.000000 0.000000 0.000000
# 2 0.000721 0.017794 -0.001707 0.000000 0.000000 0.000000
# 3 -0.008143 -0.001707 0.012997 0.000000 0.000000 0.000000
# 4 0.000000 0.000000 0.000000 0.050235 0.000000 0.000000
# 5 0.000000 0.000000 0.000000 0.000000 0.030907 0.000000
# 6 0.000000 0.000000 0.000000 0.000000 0.000000 0.028898
#
#
# Mechanical properties :
#
#
# Convention : Reuss Voigt Hill
#
# Bulk Modulus (GPa) = 26.96575 32.18300 29.57438
# Shear Modulus (GPa) = 25.51043 28.38397 26.94720
#
# Velocity S-wave (km/s) = 3.55340 3.74819 3.65210
# Velocity P-wave (km/s) = 5.49387 5.88738 5.69403
#
# Compressibility (1/GPa) = 0.03708407
#
# Stress axis : x y z
#
# Youngs Moduli (GPa) = 40.73285 56.19909 76.94375
#
# Poissons Ratio (x) = -0.04054 0.62653
# Poissons Ratio (y) = -0.02938 0.13134
# Poissons Ratio (z) = 0.33167 0.09593
#
# Static dielectric constant tensor:
#      x y z
#    x 3.613710 0.000000 0.000000 
#    y 0.000000 3.752570 0.000000 
#    z 0.000000 0.000000 3.799280 
# 
# 
# High freq. dielectric constant tensor:
#      x y z
#    x 1.775740 0.000000 0.000000 
#    y 0.000000 1.779820 0.000000 
#    z 0.000000 0.000000 1.794740 
# 
# From -- ./inp_files/19367.got.cif
#   From: 2010.03.12/outbox.cif.g09.slc.cpg/sg55_10_cif.got.tgz:19367.got - 2010.04.16 15:19:21.
