data_PCOD8226404
_publ_section_title
;
Structure prediction by ZEFSAII (Michael W. Deem and Ramdas Pophale) SiO2 
 PCOD8226404
Probable space group: P B A M
;
_chemical_formula_sum "Si O2"
_cell_formula_units_Z 64
_cell_length_a 23.065427
_cell_length_b 15.552619
_cell_length_c 8.793932
_cell_angle_alpha 90.000000
_cell_angle_beta 90.000000
_cell_angle_gamma 90.000000
_cell_volume 3154.627864
_symmetry_space_group_name_H-M "P B A M"
_symmetry_group_IT_number 55
_symmetry_cell_setting 'orthorhombic'
loop_
_space_group_symop_operation_xyz
x,y,z
-x,-y,z
1/2+x,1/2-y,-z
1/2-x,1/2+y,-z
-x,-y,-z
x,y,-z
1/2-x,1/2+y,z
1/2+x,1/2-y,z
loop_
_atom_site_type_symbol
_atom_site_label
_atom_site_fract_x
_atom_site_fract_y
_atom_site_fract_z
Si Si1 0.072739 0.746017 0.822241
Si Si2 0.552768 0.561136 0.821616
Si Si3 0.669446 0.490307 0.318818
Si Si4 0.000567 0.403120 0.327647
Si Si5 0.687557 0.302034 0.325139
Si Si6 0.133045 0.366423 0.673423
Si Si7 0.788928 0.499103 0.822295
Si Si8 0.816694 0.320558 0.324297
O O1 0.041196 0.837525 0.784066
O O2 0.036909 0.663156 0.769472
O O3 0.135277 0.744031 0.741451
O O4 0.083130 0.738084 0.000000
O O5 0.500000 0.500000 0.761618
O O6 0.612608 0.537269 0.740758
O O7 0.560780 0.546378 0.000000
O O8 0.670267 0.494838 0.500000
O O9 0.670578 0.393137 0.250502
O O10 0.729596 0.531159 0.258679
O O11 0.975754 0.405276 0.500000
O O12 0.000000 0.500000 0.259280
O O13 0.064803 0.368783 0.323500
O O14 0.671869 0.312920 0.500000
O O15 0.649455 0.226055 0.255560
O O16 0.754569 0.275672 0.302475
O O17 0.156339 0.378396 0.500000
O O18 0.160175 0.435062 0.785656
O O19 0.814936 0.409961 0.763700
O O20 0.777205 0.493641 0.000000
O O21 0.830042 0.340162 0.500000
#
# Coordination Sequence:
#
# PCOD8226404 Si02
#       8
#     8   8   8   8   8   8   8   8
#     4  11  24  40  62  91 125 163 207 256 307 368
#     4  10  24  44  62  86 125 168 207 255 315 374
#     4  10  21  39  63  89 118 156 207 258 304 357
#     4  10  22  39  61  89 122 162 204 249 306 366
#     4   8  18  35  57  86 115 148 192 249 304 355
#     4  10  20  36  59  86 120 156 199 251 300 359
#     4  11  22  37  59  91 126 161 196 241 305 373
#     4  10  20  38  61  86 118 155 200 250 306 363
#
# _framework density 20.287654
#
# number of rings (size 3 to 8) (size 9 to 14) (size 15 to 20)
#    0.000    2.000    0.000    3.750    3.500    3.000 
#    0.000    3.125    0.000    0.000    0.000    0.000 
#    0.000    0.000    0.000    0.000    0.000    0.000 
#
# Total GULP energy -793430.506710 kJ/mol
# GULP energy per Si atom -12397.351667 kJ/mol
# Density = 2.024148 g / cm^3
# Si number density = 20.287654 Si / 1000 Ang^3
#
#
#
# Elastic Constant Matrix: (Units=GPa)
#
#
# Indices 1 2 3 4 5 6 
#
# 1 78.9990 31.7810 29.5963 0.0000 0.0000 0.0000
# 2 31.7810 88.9362 32.5816 0.0000 0.0000 0.0000
# 3 29.5963 32.5816 76.5016 0.0000 0.0000 0.0000
# 4 0.0000 0.0000 0.0000 20.8521 0.0000 0.0000
# 5 0.0000 0.0000 0.0000 0.0000 21.4900 0.0000
# 6 0.0000 0.0000 0.0000 0.0000 0.0000 38.6227
#
#
#
# Elastic Compliance Matrix: (Units=1/GPa)
#
#
# Indices 1 2 3 4 5 6 
#
# 1 0.015962 -0.004078 -0.004438 0.000000 0.000000 0.000000
# 2 -0.004078 0.014365 -0.004540 0.000000 0.000000 0.000000
# 3 -0.004438 -0.004540 0.016722 0.000000 0.000000 0.000000
# 4 0.000000 0.000000 0.000000 0.047957 0.000000 0.000000
# 5 0.000000 0.000000 0.000000 0.000000 0.046533 0.000000
# 6 0.000000 0.000000 0.000000 0.000000 0.000000 0.025892
#
#
# Mechanical properties :
#
#
# Convention : Reuss Voigt Hill
#
# Bulk Modulus (GPa) = 47.76524 48.03941 47.90232
# Shear Modulus (GPa) = 24.93499 26.22482 25.57991
#
# Velocity S-wave (km/s) = 3.50962 3.59924 3.55471
# Velocity P-wave (km/s) = 6.32600 6.40338 6.36481
#
# Compressibility (1/GPa) = 0.02093573
#
# Stress axis : x y z
#
# Youngs Moduli (GPa) = 62.64990 69.61606 59.80025
#
# Poissons Ratio (x) = 0.28388 0.26542
# Poissons Ratio (y) = 0.25548 0.27150
# Poissons Ratio (z) = 0.27807 0.31607
#
# Static dielectric constant tensor:
#      x y z
#    x 3.737730 0.000000 0.000000 
#    y 0.000000 4.578980 0.000000 
#    z 0.000000 0.000000 3.551440 
# 
# 
# High freq. dielectric constant tensor:
#      x y z
#    x 1.796890 0.000000 0.000000 
#    y 0.000000 1.800700 0.000000 
#    z 0.000000 0.000000 1.776270 
# 
# From -- ./inp_files/9823.got.cif
#   From: 2010.03.12/outbox.cif.g09.slc.cpg/sg55_5_cif.got.tgz:9823.got - 2010.04.16 15:19:21.
