data_PCOD8226790
_publ_section_title
;
Structure prediction by ZEFSAII (Michael W. Deem and Ramdas Pophale) SiO2 
 PCOD8226790
Probable space group: P B A M
;
_chemical_formula_sum "Si O2"
_cell_formula_units_Z 40
_cell_length_a 17.688870
_cell_length_b 9.286361
_cell_length_c 12.566247
_cell_angle_alpha 90.000000
_cell_angle_beta 90.000000
_cell_angle_gamma 90.000000
_cell_volume 2064.197485
_symmetry_space_group_name_H-M "P B A M"
_symmetry_group_IT_number 55
_symmetry_cell_setting 'orthorhombic'
loop_
_space_group_symop_operation_xyz
x,y,z
-x,-y,z
1/2+x,1/2-y,-z
1/2-x,1/2+y,-z
-x,-y,-z
x,y,-z
1/2-x,1/2+y,z
1/2+x,1/2-y,z
loop_
_atom_site_type_symbol
_atom_site_label
_atom_site_fract_x
_atom_site_fract_y
_atom_site_fract_z
Si Si1 0.030062 0.650705 0.249339
Si Si2 0.177869 0.657251 0.375690
Si Si3 0.422963 0.411677 0.121356
Si Si4 0.687996 0.520338 0.305618
Si Si5 0.551451 0.368533 0.618512
O O1 0.092586 0.625379 0.340170
O O2 0.063166 0.745090 0.152819
O O3 0.000000 0.500000 0.203042
O O4 0.960063 0.733031 0.304634
O O5 0.187096 0.618887 0.500000
O O6 0.230727 0.556143 0.301788
O O7 0.198253 0.823068 0.355905
O O8 0.500000 0.500000 0.137760
O O9 0.353977 0.476199 0.191067
O O10 0.395617 0.417810 0.000000
O O11 0.637767 0.420170 0.383037
O O12 0.500000 0.500000 0.662351
O O13 0.525761 0.325970 0.500000
#
# Coordination Sequence:
#
# PCOD8226790 Si02
#       5
#     8   8   8   8   8
#     4  11  23  38  58  90 126 155 203 257 302 355
#     4  11  23  37  56  85 125 164 198 238 298 368
#     4  10  20  41  68  87 109 153 206 254 305 356
#     4  11  22  39  56  87 120 158 201 249 300 359
#     4  11  19  35  59  81 116 162 204 239 293 364
#
# _framework density 19.377991000000002
#
# number of rings (size 3 to 8) (size 9 to 14) (size 15 to 20)
#    0.000    1.200    6.000    2.400    2.800    2.000 
#    0.000    4.000    0.000    0.000    0.000    0.000 
#    0.000    0.000    0.000    0.000    0.000    0.000 
#
# Total GULP energy -496023.025950 kJ/mol
# GULP energy per Si atom -12400.575649 kJ/mol
# Density = 1.933389 g / cm^3
# Si number density = 19.377991 Si / 1000 Ang^3
#
#
#
# Elastic Constant Matrix: (Units=GPa)
#
#
# Indices 1 2 3 4 5 6 
#
# 1 64.4617 43.0563 26.9287 0.0000 0.0000 0.0000
# 2 43.0563 100.0836 31.0307 0.0000 0.0000 0.0000
# 3 26.9287 31.0307 126.6180 0.0000 0.0000 0.0000
# 4 0.0000 0.0000 0.0000 15.8664 0.0000 0.0000
# 5 0.0000 0.0000 0.0000 0.0000 26.2503 0.0000
# 6 0.0000 0.0000 0.0000 0.0000 0.0000 43.0269
#
#
#
# Elastic Compliance Matrix: (Units=1/GPa)
#
#
# Indices 1 2 3 4 5 6 
#
# 1 0.022541 -0.008886 -0.002616 0.000000 0.000000 0.000000
# 2 -0.008886 0.014316 -0.001619 0.000000 0.000000 0.000000
# 3 -0.002616 -0.001619 0.008851 0.000000 0.000000 0.000000
# 4 0.000000 0.000000 0.000000 0.063026 0.000000 0.000000
# 5 0.000000 0.000000 0.000000 0.000000 0.038095 0.000000
# 6 0.000000 0.000000 0.000000 0.000000 0.000000 0.023241
#
#
# Mechanical properties :
#
#
# Convention : Reuss Voigt Hill
#
# Bulk Modulus (GPa) = 51.37061 54.79943 53.08502
# Shear Modulus (GPa) = 24.65454 29.70521 27.17988
#
# Velocity S-wave (km/s) = 3.57080 3.91952 3.74921
# Velocity P-wave (km/s) = 6.60061 6.98743 6.79677
#
# Compressibility (1/GPa) = 0.01946638
#
# Stress axis : x y z
#
# Youngs Moduli (GPa) = 44.36269 69.84995 112.98310
#
# Poissons Ratio (x) = 0.62070 0.29559
# Poissons Ratio (y) = 0.39422 0.18288
# Poissons Ratio (z) = 0.11606 0.11306
#
# Static dielectric constant tensor:
#      x y z
#    x 3.503380 0.000000 0.000000 
#    y 0.000000 3.568330 0.000000 
#    z 0.000000 0.000000 3.383050 
# 
# 
# High freq. dielectric constant tensor:
#      x y z
#    x 1.746420 0.000000 0.000000 
#    y 0.000000 1.753660 0.000000 
#    z 0.000000 0.000000 1.739960 
# 
# From -- ./inp_files/14647.got.cif
#   From: 2010.03.12/outbox.cif.g09.slc.cpg/sg55_8_cif.got.tgz:14647.got - 2010.04.16 15:19:21.
