data_PCOD8226107
_publ_section_title
;
Structure prediction by ZEFSAII (Michael W. Deem and Ramdas Pophale) SiO2 
 PCOD8226107
Probable space group: P B A M
;
_chemical_formula_sum "Si O2"
_cell_formula_units_Z 64
_cell_length_a 24.172095
_cell_length_b 14.071426
_cell_length_c 9.475777
_cell_angle_alpha 90.000000
_cell_angle_beta 90.000000
_cell_angle_gamma 90.000000
_cell_volume 3223.051427
_symmetry_space_group_name_H-M "P B A M"
_symmetry_group_IT_number 55
_symmetry_cell_setting 'orthorhombic'
loop_
_space_group_symop_operation_xyz
x,y,z
-x,-y,z
1/2+x,1/2-y,-z
1/2-x,1/2+y,-z
-x,-y,-z
x,y,-z
1/2-x,1/2+y,z
1/2+x,1/2-y,z
loop_
_atom_site_type_symbol
_atom_site_label
_atom_site_fract_x
_atom_site_fract_y
_atom_site_fract_z
Si Si1 0.676320 0.996952 0.660595
Si Si2 0.300310 0.823658 0.832785
Si Si3 0.088086 0.219058 0.160115
Si Si4 0.792203 0.280307 0.334867
Si Si5 0.967929 0.275642 0.160925
Si Si6 0.055337 0.551713 0.339426
Si Si7 0.941278 0.960390 0.659673
Si Si8 0.602910 0.656348 0.658466
O O1 0.695034 0.018283 0.500000
O O2 0.706437 0.071621 0.763819
O O3 0.691864 0.888878 0.701549
O O4 0.610066 0.012329 0.674938
O O5 0.360883 0.784411 0.795212
O O6 0.258776 0.748796 0.762890
O O7 0.289699 0.831508 0.000000
O O8 0.083796 0.125492 0.252947
O O9 0.033824 0.284502 0.177431
O O10 0.094485 0.183657 0.000000
O O11 0.777096 0.269924 0.500000
O O12 0.840961 0.207379 0.292728
O O13 0.935767 0.359610 0.238291
O O14 0.947591 0.180210 0.236850
O O15 0.948788 0.274823 0.000000
O O16 0.048288 0.587561 0.500000
O O17 0.000000 0.500000 0.287576
O O18 0.950857 0.924483 0.500000
O O19 0.893786 0.041999 0.664659
O O20 0.000000 0.000000 0.718695
O O21 0.588230 0.690568 0.500000
#
# Coordination Sequence:
#
# PCOD8226107 Si02
#       8
#     8   8   8   8   8   8   8   8
#     4  10  21  40  65  91 119 156 199 246 303 357
#     4  11  25  43  62  88 124 161 203 251 298 353
#     4  10  23  40  56  82 124 166 198 242 302 360
#     4  10  22  42  66  88 118 157 202 253 301 355
#     4  11  21  33  55  85 118 156 195 237 296 361
#     4  10  20  35  58  88 120 156 197 243 297 357
#     4  10  20  34  59  90 118 155 202 250 298 354
#     4  10  20  38  60  86 119 151 194 249 300 353
#
# _framework density 19.856959
#
# number of rings (size 3 to 8) (size 9 to 14) (size 15 to 20)
#    0.000    1.750    2.500    1.500    0.000    5.000 
#    0.000    3.750    0.000    0.000    0.000    0.000 
#    0.000    0.000    0.000    0.000    0.000    0.000 
#
# Total GULP energy -793563.535460 kJ/mol
# GULP energy per Si atom -12399.430242 kJ/mol
# Density = 1.981176 g / cm^3
# Si number density = 19.856959 Si / 1000 Ang^3
#
#
#
# Elastic Constant Matrix: (Units=GPa)
#
#
# Indices 1 2 3 4 5 6 
#
# 1 76.3923 25.2227 40.3253 0.0000 0.0000 0.0000
# 2 25.2227 96.3068 49.0768 0.0000 0.0000 0.0000
# 3 40.3253 49.0768 90.8743 0.0000 0.0000 0.0000
# 4 0.0000 0.0000 0.0000 10.2893 0.0000 0.0000
# 5 0.0000 0.0000 0.0000 0.0000 27.2090 0.0000
# 6 0.0000 0.0000 0.0000 0.0000 0.0000 29.0660
#
#
#
# Elastic Compliance Matrix: (Units=1/GPa)
#
#
# Indices 1 2 3 4 5 6 
#
# 1 0.017144 -0.000846 -0.007151 0.000000 0.000000 0.000000
# 2 -0.000846 0.014368 -0.007384 0.000000 0.000000 0.000000
# 3 -0.007151 -0.007384 0.018165 0.000000 0.000000 0.000000
# 4 0.000000 0.000000 0.000000 0.097188 0.000000 0.000000
# 5 0.000000 0.000000 0.000000 0.000000 0.036753 0.000000
# 6 0.000000 0.000000 0.000000 0.000000 0.000000 0.034404
#
#
# Mechanical properties :
#
#
# Convention : Reuss Voigt Hill
#
# Bulk Modulus (GPa) = 52.86650 54.75810 53.81230
# Shear Modulus (GPa) = 19.60095 23.24278 21.42187
#
# Velocity S-wave (km/s) = 3.14524 3.42498 3.28809
# Velocity P-wave (km/s) = 6.31439 6.57851 6.44780
#
# Compressibility (1/GPa) = 0.01891557
#
# Stress axis : x y z
#
# Youngs Moduli (GPa) = 58.32805 69.59991 55.05071
#
# Poissons Ratio (x) = 0.05889 0.39366
# Poissons Ratio (y) = 0.04935 0.40649
# Poissons Ratio (z) = 0.41709 0.51392
#
# Static dielectric constant tensor:
#      x y z
#    x 3.575710 0.000000 0.000000 
#    y 0.000000 3.525810 0.000000 
#    z 0.000000 0.000000 3.565900 
# 
# 
# High freq. dielectric constant tensor:
#      x y z
#    x 1.767860 0.000000 0.000000 
#    y 0.000000 1.773970 0.000000 
#    z 0.000000 0.000000 1.770400 
# 
# From -- ./inp_files/9809.got.cif
#   From: 2010.03.12/outbox.cif.g09.slc.cpg/sg55_5_cif.got.tgz:9809.got - 2010.04.16 15:19:21.
