data_PCOD8226776
_publ_section_title
;
Structure prediction by ZEFSAII (Michael W. Deem and Ramdas Pophale) SiO2 
 PCOD8226776
Probable space group: P B A M
;
_chemical_formula_sum "Si O2"
_cell_formula_units_Z 40
_cell_length_a 12.126102
_cell_length_b 18.245144
_cell_length_c 9.062276
_cell_angle_alpha 90.000000
_cell_angle_beta 90.000000
_cell_angle_gamma 90.000000
_cell_volume 2004.960391
_symmetry_space_group_name_H-M "P B A M"
_symmetry_group_IT_number 55
_symmetry_cell_setting 'orthorhombic'
loop_
_space_group_symop_operation_xyz
x,y,z
-x,-y,z
1/2+x,1/2-y,-z
1/2-x,1/2+y,-z
-x,-y,-z
x,y,-z
1/2-x,1/2+y,z
1/2+x,1/2-y,z
loop_
_atom_site_type_symbol
_atom_site_label
_atom_site_fract_x
_atom_site_fract_y
_atom_site_fract_z
Si Si1 0.687431 0.050332 0.169279
Si Si2 0.398695 0.676533 0.329019
Si Si3 0.182300 0.620178 0.828491
Si Si4 0.559224 0.574881 0.171861
Si Si5 0.032227 0.338777 0.670469
O O1 0.812575 0.068962 0.209929
O O2 0.607734 0.095462 0.273835
O O3 0.663092 0.965531 0.198485
O O4 0.661787 0.070802 0.000000
O O5 0.386645 0.656603 0.500000
O O6 0.296316 0.644183 0.242093
O O7 0.510820 0.641160 0.267209
O O8 0.403101 0.763352 0.303524
O O9 0.082721 0.665028 0.756993
O O10 0.188265 0.639325 0.000000
O O11 0.500000 0.500000 0.219367
O O12 0.538248 0.590779 0.000000
O O13 0.004833 0.351704 0.500000
#
# Coordination Sequence:
#
# PCOD8226776 Si02
#       5
#     8   8   8   8   8
#     4  10  22  41  66  95 124 159 209 261 307 365
#     4  11  25  42  61  91 130 166 205 254 312 371
#     4  11  23  43  68  92 122 161 210 260 307 366
#     4  10  20  40  65  92 124 160 207 258 306 361
#     4  11  26  43  61  91 131 167 204 254 311 372
#
# _framework density 19.950519
#
# number of rings (size 3 to 8) (size 9 to 14) (size 15 to 20)
#    0.000    1.400    2.000    2.400    2.800    8.400 
#    0.000    0.000    0.000    0.000    0.000    0.000 
#    0.000    0.000    0.000    0.000    0.000    0.000 
#
# Total GULP energy -496286.384640 kJ/mol
# GULP energy per Si atom -12407.159616 kJ/mol
# Density = 1.990511 g / cm^3
# Si number density = 19.950519 Si / 1000 Ang^3
#
#
#
# Elastic Constant Matrix: (Units=GPa)
#
#
# Indices 1 2 3 4 5 6 
#
# 1 66.6134 6.7168 34.6237 0.0000 0.0000 0.0000
# 2 6.7168 48.6074 42.5792 0.0000 0.0000 0.0000
# 3 34.6237 42.5792 110.0754 0.0000 0.0000 0.0000
# 4 0.0000 0.0000 0.0000 31.8954 0.0000 0.0000
# 5 0.0000 0.0000 0.0000 0.0000 22.3203 0.0000
# 6 0.0000 0.0000 0.0000 0.0000 0.0000 22.6203
#
#
#
# Elastic Compliance Matrix: (Units=1/GPa)
#
#
# Indices 1 2 3 4 5 6 
#
# 1 0.018404 0.003823 -0.007268 0.000000 0.000000 0.000000
# 2 0.003823 0.031911 -0.013546 0.000000 0.000000 0.000000
# 3 -0.007268 -0.013546 0.016611 0.000000 0.000000 0.000000
# 4 0.000000 0.000000 0.000000 0.031353 0.000000 0.000000
# 5 0.000000 0.000000 0.000000 0.000000 0.044802 0.000000
# 6 0.000000 0.000000 0.000000 0.000000 0.000000 0.044208
#
#
# Mechanical properties :
#
#
# Convention : Reuss Voigt Hill
#
# Bulk Modulus (GPa) = 30.35448 43.68173 37.01810
# Shear Modulus (GPa) = 21.52834 24.79229 23.16032
#
# Velocity S-wave (km/s) = 3.28851 3.52900 3.41088
# Velocity P-wave (km/s) = 5.44674 6.20868 5.84015
#
# Compressibility (1/GPa) = 0.03294407
#
# Stress axis : x y z
#
# Youngs Moduli (GPa) = 54.33570 31.33710 60.20198
#
# Poissons Ratio (x) = -0.11981 0.43754
# Poissons Ratio (y) = -0.20774 0.81552
# Poissons Ratio (z) = 0.39490 0.42450
#
# Static dielectric constant tensor:
#      x y z
#    x 3.903820 0.000000 0.000000 
#    y 0.000000 3.018940 0.000000 
#    z 0.000000 0.000000 3.680840 
# 
# 
# High freq. dielectric constant tensor:
#      x y z
#    x 1.793010 0.000000 0.000000 
#    y 0.000000 1.783170 0.000000 
#    z 0.000000 0.000000 1.783510 
# 
# From -- ./inp_files/3589.got.cif
#   From: 2010.03.12/outbox.cif.g09.slc.cpg/sg55_2_cif.got.tgz:3589.got - 2010.04.16 15:19:21.
