data_PCOD8226759
_publ_section_title
;
Structure prediction by ZEFSAII (Michael W. Deem and Ramdas Pophale) SiO2 
 PCOD8226759
Probable space group: P B A M
;
_chemical_formula_sum "Si O2"
_cell_formula_units_Z 48
_cell_length_a 26.913196
_cell_length_b 9.947244
_cell_length_c 8.552234
_cell_angle_alpha 90.000000
_cell_angle_beta 90.000000
_cell_angle_gamma 90.000000
_cell_volume 2289.536758
_symmetry_space_group_name_H-M "P B A M"
_symmetry_group_IT_number 55
_symmetry_cell_setting 'orthorhombic'
loop_
_space_group_symop_operation_xyz
x,y,z
-x,-y,z
1/2+x,1/2-y,-z
1/2-x,1/2+y,-z
-x,-y,-z
x,y,-z
1/2-x,1/2+y,z
1/2+x,1/2-y,z
loop_
_atom_site_type_symbol
_atom_site_label
_atom_site_fract_x
_atom_site_fract_y
_atom_site_fract_z
Si Si1 0.218334 0.107716 0.180049
Si Si2 0.385343 0.538070 0.681010
Si Si3 0.459754 0.774858 0.318545
Si Si4 0.073417 0.748000 0.317070
Si Si5 0.111102 0.481592 0.180594
Si Si6 0.212216 0.388353 0.319426
O O1 0.231022 0.261626 0.219768
O O2 0.160866 0.078421 0.212915
O O3 0.253174 0.014528 0.284349
O O4 0.230520 0.080597 0.000000
O O5 0.369476 0.546342 0.500000
O O6 0.430294 0.638543 0.717797
O O7 0.402878 0.390083 0.727478
O O8 0.456381 0.814300 0.500000
O O9 0.516093 0.750724 0.265980
O O10 0.438715 0.899106 0.219251
O O11 0.078856 0.716969 0.500000
O O12 0.103377 0.637264 0.220414
O O13 0.155234 0.420905 0.283117
O O14 0.125332 0.467024 0.000000
O O15 0.216275 0.349437 0.500000
#
# Coordination Sequence:
#
# PCOD8226759 Si02
#       6
#     8   8   8   8   8   8
#     4  12  26  45  69 100 134 166 207 268 330 382
#     4  10  21  40  66  95 129 170 217 263 316 384
#     4  10  20  39  66  93 126 170 220 269 318 380
#     4  10  22  39  63  95 129 171 222 268 313 379
#     4  12  25  41  62  93 132 171 213 268 327 381
#     4  12  26  47  72  96 126 171 219 262 316 392
#
# _framework density 20.964939999999999
#
# number of rings (size 3 to 8) (size 9 to 14) (size 15 to 20)
#    0.000    1.000    1.667    5.500    2.333    5.333 
#    0.000    0.000    0.000    3.000    0.000    0.000 
#    0.000    0.000    0.000    0.000    0.000    0.000 
#
# Total GULP energy -595626.436790 kJ/mol
# GULP energy per Si atom -12408.884100 kJ/mol
# Density = 2.091722 g / cm^3
# Si number density = 20.964940 Si / 1000 Ang^3
#
#
#
# Elastic Constant Matrix: (Units=GPa)
#
#
# Indices 1 2 3 4 5 6 
#
# 1 68.6943 20.2172 17.6688 0.0000 0.0000 0.0000
# 2 20.2172 129.6424 22.7291 0.0000 0.0000 0.0000
# 3 17.6688 22.7291 75.1918 0.0000 0.0000 0.0000
# 4 0.0000 0.0000 0.0000 24.3466 0.0000 0.0000
# 5 0.0000 0.0000 0.0000 0.0000 8.8016 0.0000
# 6 0.0000 0.0000 0.0000 0.0000 0.0000 42.1011
#
#
#
# Elastic Compliance Matrix: (Units=1/GPa)
#
#
# Indices 1 2 3 4 5 6 
#
# 1 0.015939 -0.001931 -0.003162 0.000000 0.000000 0.000000
# 2 -0.001931 0.008379 -0.002079 0.000000 0.000000 0.000000
# 3 -0.003162 -0.002079 0.014671 0.000000 0.000000 0.000000
# 4 0.000000 0.000000 0.000000 0.041073 0.000000 0.000000
# 5 0.000000 0.000000 0.000000 0.000000 0.113615 0.000000
# 6 0.000000 0.000000 0.000000 0.000000 0.000000 0.023752
#
#
# Mechanical properties :
#
#
# Convention : Reuss Voigt Hill
#
# Bulk Modulus (GPa) = 40.57635 43.86207 42.21921
# Shear Modulus (GPa) = 20.83433 29.24410 25.03922
#
# Velocity S-wave (km/s) = 3.15583 3.73889 3.45967
# Velocity P-wave (km/s) = 5.71624 6.29334 6.01172
#
# Compressibility (1/GPa) = 0.02464490
#
# Stress axis : x y z
#
# Youngs Moduli (GPa) = 62.73988 119.34303 68.16305
#
# Poissons Ratio (x) = 0.23049 0.21550
# Poissons Ratio (y) = 0.12117 0.14171
# Poissons Ratio (z) = 0.19836 0.24812
#
# Static dielectric constant tensor:
#      x y z
#    x 3.810280 0.000000 0.000000 
#    y 0.000000 3.973810 0.000000 
#    z 0.000000 0.000000 3.647770 
# 
# 
# High freq. dielectric constant tensor:
#      x y z
#    x 1.827390 0.000000 0.000000 
#    y 0.000000 1.839060 0.000000 
#    z 0.000000 0.000000 1.812600 
# 
# From -- ./inp_files/10505.got.cif
#   From: 2010.03.12/outbox.cif.g09.slc.cpg/sg55_6_cif.got.tgz:10505.got - 2010.04.16 15:19:21.
