data_PCOD8226166
_publ_section_title
;
Structure prediction by ZEFSAII (Michael W. Deem and Ramdas Pophale) SiO2 
 PCOD8226166
Probable space group: P B A M
;
_chemical_formula_sum "Si O2"
_cell_formula_units_Z 48
_cell_length_a 18.790582
_cell_length_b 15.077498
_cell_length_c 8.920242
_cell_angle_alpha 90.000000
_cell_angle_beta 90.000000
_cell_angle_gamma 90.000000
_cell_volume 2527.238028
_symmetry_space_group_name_H-M "P B A M"
_symmetry_group_IT_number 55
_symmetry_cell_setting 'orthorhombic'
loop_
_space_group_symop_operation_xyz
x,y,z
-x,-y,z
1/2+x,1/2-y,-z
1/2-x,1/2+y,-z
-x,-y,-z
x,y,-z
1/2-x,1/2+y,z
1/2+x,1/2-y,z
loop_
_atom_site_type_symbol
_atom_site_label
_atom_site_fract_x
_atom_site_fract_y
_atom_site_fract_z
Si Si1 0.069788 0.149963 0.675932
Si Si2 0.429867 0.143191 0.173708
Si Si3 0.172096 0.988416 0.324250
Si Si4 0.086362 0.329933 0.824288
Si Si5 0.321955 0.998488 0.176370
Si Si6 0.080240 0.844702 0.174910
O O1 0.058626 0.160046 0.500000
O O2 0.121294 0.069682 0.717675
O O3 0.105725 0.239168 0.739976
O O4 0.993889 0.128923 0.748979
O O5 0.510244 0.133960 0.237210
O O6 0.376631 0.071177 0.245123
O O7 0.400942 0.241912 0.204469
O O8 0.433066 0.119902 0.000000
O O9 0.174563 0.970706 0.500000
O O10 0.249761 0.011571 0.265339
O O11 0.144561 0.900023 0.244034
O O12 0.147305 0.400894 0.791023
O O13 0.079252 0.307945 0.000000
O O14 0.308216 0.012468 0.000000
O O15 0.073414 0.865166 0.000000
#
# Coordination Sequence:
#
# PCOD8226166 Si02
#       6
#     8   8   8   8   8   8
#     4  10  21  37  56  78 107 144 180 218 268 321
#     4   8  16  33  57  83 107 132 170 221 270 314
#     4  11  24  38  51  74 111 148 179 215 265 322
#     4   9  18  34  58  84 106 135 179 226 267 312
#     4  10  20  35  56  80 108 142 178 218 266 318
#     4  10  20  36  60  85 105 133 178 227 270 314
#
# _framework density 18.993065999999999
#
# number of rings (size 3 to 8) (size 9 to 14) (size 15 to 20)
#    0.000    2.333    0.000    3.500    0.000    8.667 
#    0.000    9.167    0.000    5.000    0.000    0.000 
#    0.000    0.000    0.000    0.000    0.000    0.000 
#
# Total GULP energy -595269.998899 kJ/mol
# GULP energy per Si atom -12401.458310 kJ/mol
# Density = 1.894984 g / cm^3
# Si number density = 18.993066 Si / 1000 Ang^3
#
#
#
# Elastic Constant Matrix: (Units=GPa)
#
#
# Indices 1 2 3 4 5 6 
#
# 1 72.5506 30.6810 29.9016 0.0000 0.0000 0.0000
# 2 30.6810 74.6655 38.0947 0.0000 0.0000 0.0000
# 3 29.9016 38.0947 60.6193 0.0000 0.0000 0.0000
# 4 0.0000 0.0000 0.0000 16.0138 0.0000 0.0000
# 5 0.0000 0.0000 0.0000 0.0000 18.2084 0.0000
# 6 0.0000 0.0000 0.0000 0.0000 0.0000 21.0374
#
#
#
# Elastic Compliance Matrix: (Units=1/GPa)
#
#
# Indices 1 2 3 4 5 6 
#
# 1 0.018177 -0.004261 -0.006289 0.000000 0.000000 0.000000
# 2 -0.004261 0.020713 -0.010915 0.000000 0.000000 0.000000
# 3 -0.006289 -0.010915 0.026457 0.000000 0.000000 0.000000
# 4 0.000000 0.000000 0.000000 0.062446 0.000000 0.000000
# 5 0.000000 0.000000 0.000000 0.000000 0.054920 0.000000
# 6 0.000000 0.000000 0.000000 0.000000 0.000000 0.047534
#
#
# Mechanical properties :
#
#
# Convention : Reuss Voigt Hill
#
# Bulk Modulus (GPa) = 44.60480 45.02111 44.81296
# Shear Modulus (GPa) = 17.81591 18.32915 18.07253
#
# Velocity S-wave (km/s) = 3.06604 3.10989 3.08804
# Velocity P-wave (km/s) = 6.00582 6.05398 6.02995
#
# Compressibility (1/GPa) = 0.02241911
#
# Stress axis : x y z
#
# Youngs Moduli (GPa) = 55.01409 48.28000 37.79662
#
# Poissons Ratio (x) = 0.20571 0.23769
# Poissons Ratio (y) = 0.23440 0.41253
# Poissons Ratio (z) = 0.34597 0.52696
#
# Static dielectric constant tensor:
#      x y z
#    x 3.472960 0.000000 0.000000 
#    y 0.000000 3.612680 0.000000 
#    z 0.000000 0.000000 3.324980 
# 
# 
# High freq. dielectric constant tensor:
#      x y z
#    x 1.736460 0.000000 0.000000 
#    y 0.000000 1.749710 0.000000 
#    z 0.000000 0.000000 1.722240 
# 
# From -- ./inp_files/5561.got.cif
#   From: 2010.03.12/outbox.cif.g09.slc.cpg/sg55_3_cif.got.tgz:5561.got - 2010.04.16 15:19:21.
