data_PCOD8226824
_publ_section_title
;
Structure prediction by ZEFSAII (Michael W. Deem and Ramdas Pophale) SiO2 
 PCOD8226824
Probable space group: P B A M
;
_chemical_formula_sum "Si O2"
_cell_formula_units_Z 56
_cell_length_a 18.833129
_cell_length_b 19.167495
_cell_length_c 8.407172
_cell_angle_alpha 90.000000
_cell_angle_beta 90.000000
_cell_angle_gamma 90.000000
_cell_volume 3034.853786
_symmetry_space_group_name_H-M "P B A M"
_symmetry_group_IT_number 55
_symmetry_cell_setting 'orthorhombic'
loop_
_space_group_symop_operation_xyz
x,y,z
-x,-y,z
1/2+x,1/2-y,-z
1/2-x,1/2+y,-z
-x,-y,-z
x,y,-z
1/2-x,1/2+y,z
1/2+x,1/2-y,z
loop_
_atom_site_type_symbol
_atom_site_label
_atom_site_fract_x
_atom_site_fract_y
_atom_site_fract_z
Si Si1 0.747313 0.375692 0.185632
Si Si2 0.944023 0.059127 0.314783
Si Si3 0.756526 0.665855 0.185551
Si Si4 0.855556 0.271645 0.685934
Si Si5 0.360438 0.729816 0.316686
Si Si6 0.716348 0.522612 0.313915
Si Si7 0.011026 0.795417 0.817575
O O1 0.819682 0.342868 0.254256
O O2 0.678944 0.341639 0.269316
O O3 0.747705 0.457484 0.218679
O O4 0.743202 0.359357 0.000000
O O5 0.950040 0.078632 0.500000
O O6 0.866208 0.031573 0.270628
O O7 0.959214 0.127591 0.213518
O O8 0.000000 0.000000 0.266208
O O9 0.694873 0.705989 0.279427
O O10 0.831074 0.705153 0.214217
O O11 0.761778 0.588456 0.255365
O O12 0.737965 0.664420 0.000000
O O13 0.870896 0.275676 0.500000
O O14 0.929618 0.261901 0.776831
O O15 0.344794 0.745508 0.500000
O O16 0.443492 0.720135 0.291045
O O17 0.727521 0.510492 0.500000
O O18 0.988451 0.788662 0.000000
#
# Coordination Sequence:
#
# PCOD8226824 Si02
#       7
#     8   8   8   8   8   8   8
#     4  11  22  37  57  84 115 147 189 239 285 331
#     4  10  21  35  53  79 115 154 190 225 275 341
#     4  11  21  36  57  83 112 145 190 239 283 331
#     4  11  21  37  58  81 110 149 193 233 281 341
#     4  11  22  38  58  81 112 150 191 233 283 342
#     4  11  21  35  56  82 115 153 191 230 281 339
#     4  12  23  36  56  83 114 147 188 236 286 334
#
# _framework density 18.452289
#
# number of rings (size 3 to 8) (size 9 to 14) (size 15 to 20)
#    0.000    1.000    1.429    9.429    0.000    2.000 
#    0.000    0.000    0.000    0.857    0.000    6.000 
#    0.000    0.000    0.000    0.000    0.000    0.000 
#
# Total GULP energy -694807.398544 kJ/mol
# GULP energy per Si atom -12407.274974 kJ/mol
# Density = 1.841029 g / cm^3
# Si number density = 18.452289 Si / 1000 Ang^3
#
#
#
# Elastic Constant Matrix: (Units=GPa)
#
#
# Indices 1 2 3 4 5 6 
#
# 1 46.1861 37.0723 12.9585 0.0000 0.0000 0.0000
# 2 37.0723 105.7256 10.1256 0.0000 0.0000 0.0000
# 3 12.9585 10.1256 84.4991 0.0000 0.0000 0.0000
# 4 0.0000 0.0000 0.0000 31.2276 0.0000 0.0000
# 5 0.0000 0.0000 0.0000 0.0000 26.9032 0.0000
# 6 0.0000 0.0000 0.0000 0.0000 0.0000 23.9404
#
#
#
# Elastic Compliance Matrix: (Units=1/GPa)
#
#
# Indices 1 2 3 4 5 6 
#
# 1 0.031126 -0.010579 -0.003506 0.000000 0.000000 0.000000
# 2 -0.010579 0.013163 0.000045 0.000000 0.000000 0.000000
# 3 -0.003506 0.000045 0.012367 0.000000 0.000000 0.000000
# 4 0.000000 0.000000 0.000000 0.032023 0.000000 0.000000
# 5 0.000000 0.000000 0.000000 0.000000 0.037170 0.000000
# 6 0.000000 0.000000 0.000000 0.000000 0.000000 0.041770
#
#
# Mechanical properties :
#
#
# Convention : Reuss Voigt Hill
#
# Bulk Modulus (GPa) = 34.99247 39.63596 37.31421
# Shear Modulus (GPa) = 24.36350 28.16451 26.26400
#
# Velocity S-wave (km/s) = 3.63761 3.91108 3.77682
# Velocity P-wave (km/s) = 6.05374 6.47474 6.26778
#
# Compressibility (1/GPa) = 0.02857758
#
# Stress axis : x y z
#
# Youngs Moduli (GPa) = 32.12716 75.96776 80.86229
#
# Poissons Ratio (x) = 0.80363 0.28349
# Poissons Ratio (y) = 0.33986 -0.00363
# Poissons Ratio (z) = 0.11263 -0.00341
#
# Static dielectric constant tensor:
#      x y z
#    x 3.390680 0.000000 0.000000 
#    y 0.000000 3.393730 0.000000 
#    z 0.000000 0.000000 3.494770 
# 
# 
# High freq. dielectric constant tensor:
#      x y z
#    x 1.704090 0.000000 0.000000 
#    y 0.000000 1.708710 0.000000 
#    z 0.000000 0.000000 1.733580 
# 
# From -- ./inp_files/7820.got.cif
#   From: 2010.03.12/outbox.cif.g09.slc.cpg/sg55_4_cif.got.tgz:7820.got - 2010.04.16 15:19:21.
