data_PCOD8226623
_publ_section_title
;
Structure prediction by ZEFSAII (Michael W. Deem and Ramdas Pophale) SiO2 
 PCOD8226623
Probable space group: P B A M
;
_chemical_formula_sum "Si O2"
_cell_formula_units_Z 64
_cell_length_a 24.829645
_cell_length_b 14.322699
_cell_length_c 8.866625
_cell_angle_alpha 90.000000
_cell_angle_beta 90.000000
_cell_angle_gamma 90.000000
_cell_volume 3153.215962
_symmetry_space_group_name_H-M "P B A M"
_symmetry_group_IT_number 55
_symmetry_cell_setting 'orthorhombic'
loop_
_space_group_symop_operation_xyz
x,y,z
-x,-y,z
1/2+x,1/2-y,-z
1/2-x,1/2+y,-z
-x,-y,-z
x,y,-z
1/2-x,1/2+y,z
1/2+x,1/2-y,z
loop_
_atom_site_type_symbol
_atom_site_label
_atom_site_fract_x
_atom_site_fract_y
_atom_site_fract_z
Si Si1 0.192135 0.204623 0.823131
Si Si2 0.861500 0.405077 0.825214
Si Si3 0.393007 0.279043 0.324905
Si Si4 0.418550 0.753565 0.322350
Si Si5 0.750822 0.451991 0.323403
Si Si6 0.226574 0.838660 0.326526
Si Si7 0.005369 0.895555 0.321075
Si Si8 0.551287 0.059144 0.174345
O O1 0.139071 0.250343 0.755529
O O2 0.201665 0.101255 0.757648
O O3 0.243836 0.266231 0.781023
O O4 0.185545 0.199495 0.000000
O O5 0.895764 0.316289 0.770075
O O6 0.807543 0.410236 0.728059
O O7 0.895220 0.498768 0.798212
O O8 0.846421 0.392838 0.000000
O O9 0.402210 0.253969 0.500000
O O10 0.337044 0.332623 0.299522
O O11 0.439702 0.347319 0.263305
O O12 0.410254 0.752530 0.500000
O O13 0.454533 0.666130 0.267985
O O14 0.447699 0.848940 0.275854
O O15 0.744450 0.435679 0.500000
O O16 0.746701 0.559524 0.278751
O O17 0.241308 0.816498 0.500000
O O18 0.007059 0.901624 0.500000
O O19 0.000000 0.000000 0.252293
O O20 0.500000 0.000000 0.226980
O O21 0.545849 0.088483 0.000000
#
# Coordination Sequence:
#
# PCOD8226623 Si02
#       8
#     8   8   8   8   8   8   8   8
#     4  12  25  41  62  89 126 165 204 251 307 371
#     4  11  22  37  59  89 122 163 203 245 304 365
#     4  10  20  37  63  91 120 157 200 252 305 357
#     4  11  23  39  63  92 123 161 209 260 310 365
#     4  11  23  39  61  89 120 157 202 252 307 365
#     4  10  22  39  63  93 123 160 204 253 308 365
#     4   9  20  38  63  92 121 157 202 253 305 358
#     4  10  22  40  62  89 126 167 203 247 309 372
#
# _framework density 20.296737
#
# number of rings (size 3 to 8) (size 9 to 14) (size 15 to 20)
#    0.000    1.500    1.250    3.750    1.750    4.250 
#    0.000    0.625    0.000    1.875    0.000    0.000 
#    0.000    0.000    0.000    0.000    0.000    0.000 
#
# Total GULP energy -793972.140999 kJ/mol
# GULP energy per Si atom -12405.814703 kJ/mol
# Density = 2.025054 g / cm^3
# Si number density = 20.296737 Si / 1000 Ang^3
#
#
#
# Elastic Constant Matrix: (Units=GPa)
#
#
# Indices 1 2 3 4 5 6 
#
# 1 80.5699 26.0328 31.3315 0.0000 0.0000 0.0000
# 2 26.0328 125.2994 42.9554 0.0000 0.0000 0.0000
# 3 31.3315 42.9554 83.5497 0.0000 0.0000 0.0000
# 4 0.0000 0.0000 0.0000 23.5828 0.0000 0.0000
# 5 0.0000 0.0000 0.0000 0.0000 19.4068 0.0000
# 6 0.0000 0.0000 0.0000 0.0000 0.0000 34.9537
#
#
#
# Elastic Compliance Matrix: (Units=1/GPa)
#
#
# Indices 1 2 3 4 5 6 
#
# 1 0.014735 -0.001417 -0.004797 0.000000 0.000000 0.000000
# 2 -0.001417 0.009825 -0.004520 0.000000 0.000000 0.000000
# 3 -0.004797 -0.004520 0.016092 0.000000 0.000000 0.000000
# 4 0.000000 0.000000 0.000000 0.042404 0.000000 0.000000
# 5 0.000000 0.000000 0.000000 0.000000 0.051528 0.000000
# 6 0.000000 0.000000 0.000000 0.000000 0.000000 0.028609
#
#
# Mechanical properties :
#
#
# Convention : Reuss Voigt Hill
#
# Bulk Modulus (GPa) = 52.12806 54.45092 53.28949
# Shear Modulus (GPa) = 26.17048 28.19529 27.18288
#
# Velocity S-wave (km/s) = 3.59471 3.73118 3.66358
# Velocity P-wave (km/s) = 6.55500 6.74151 6.64891
#
# Compressibility (1/GPa) = 0.01918353
#
# Stress axis : x y z
#
# Youngs Moduli (GPa) = 67.86620 101.78365 62.14375
#
# Poissons Ratio (x) = 0.14421 0.29812
# Poissons Ratio (y) = 0.09615 0.28088
# Poissons Ratio (z) = 0.32557 0.46005
#
# Static dielectric constant tensor:
#      x y z
#    x 3.768600 0.000000 0.000000 
#    y 0.000000 3.909780 0.000000 
#    z 0.000000 0.000000 3.536950 
# 
# 
# High freq. dielectric constant tensor:
#      x y z
#    x 1.802350 0.000000 0.000000 
#    y 0.000000 1.805660 0.000000 
#    z 0.000000 0.000000 1.777380 
# 
# From -- ./inp_files/9688.got.cif
#   From: 2010.03.12/outbox.cif.g09.slc.cpg/sg55_5_cif.got.tgz:9688.got - 2010.04.16 15:19:21.
