data_PCOD8226976
_publ_section_title
;
Structure prediction by ZEFSAII (Michael W. Deem and Ramdas Pophale) SiO2 
 PCOD8226976
Probable space group: P B A M
;
_chemical_formula_sum "Si O2"
_cell_formula_units_Z 64
_cell_length_a 32.862930
_cell_length_b 11.509407
_cell_length_c 9.072027
_cell_angle_alpha 90.000000
_cell_angle_beta 90.000000
_cell_angle_gamma 90.000000
_cell_volume 3431.338506
_symmetry_space_group_name_H-M "P B A M"
_symmetry_group_IT_number 55
_symmetry_cell_setting 'orthorhombic'
loop_
_space_group_symop_operation_xyz
x,y,z
-x,-y,z
1/2+x,1/2-y,-z
1/2-x,1/2+y,-z
-x,-y,-z
x,y,-z
1/2-x,1/2+y,z
1/2+x,1/2-y,z
loop_
_atom_site_type_symbol
_atom_site_label
_atom_site_fract_x
_atom_site_fract_y
_atom_site_fract_z
Si Si1 0.304862 0.552141 0.328339
Si Si2 0.133333 0.206612 0.827835
Si Si3 0.325373 0.316352 0.170836
Si Si4 0.857285 0.527019 0.828297
Si Si5 0.557787 0.408974 0.672988
Si Si6 0.288502 0.103077 0.671556
Si Si7 0.969056 0.161932 0.328689
Si Si8 0.908351 0.313457 0.832523
O O1 0.315781 0.546548 0.500000
O O2 0.326709 0.663267 0.256980
O O3 0.321899 0.438327 0.250771
O O4 0.257132 0.561825 0.301167
O O5 0.128515 0.343046 0.796424
O O6 0.093617 0.142820 0.769297
O O7 0.138402 0.180018 0.000000
O O8 0.294983 0.224284 0.244798
O O9 0.371610 0.276195 0.191383
O O10 0.313430 0.328505 0.000000
O O11 0.817041 0.498393 0.735237
O O12 0.893829 0.441050 0.779096
O O13 0.846838 0.504747 0.000000
O O14 0.568581 0.402699 0.500000
O O15 0.516975 0.336037 0.707641
O O16 0.550946 0.541331 0.725436
O O17 0.298033 0.122048 0.500000
O O18 0.961763 0.172450 0.500000
O O19 0.947797 0.272880 0.256090
O O20 0.922397 0.318421 0.000000
#
# Coordination Sequence:
#
# PCOD8226976 Si02
#       8
#     8   8   8   8   8   8   8   8
#     4  11  24  38  55  81 112 144 181 229 281 334
#     4  11  23  38  57  82 110 147 190 229 279 339
#     4  10  21  37  57  81 110 142 182 228 273 327
#     4   9  21  40  57  77 110 149 188 230 276 333
#     4   9  19  36  55  80 115 149 179 226 282 333
#     4  10  22  38  57  81 109 142 183 229 279 330
#     4   9  18  33  56  83 111 144 183 224 277 336
#     4   9  18  34  55  79 106 139 180 227 274 320
#
# _framework density 18.651613000000001
#
# number of rings (size 3 to 8) (size 9 to 14) (size 15 to 20)
#    0.000    2.250    0.000    3.750    1.750    8.500 
#    0.000    1.875    0.000    3.750    0.000    0.000 
#    0.000    0.000    0.000    0.000    0.000    0.000 
#
# Total GULP energy -793748.990091 kJ/mol
# GULP energy per Si atom -12402.327970 kJ/mol
# Density = 1.860916 g / cm^3
# Si number density = 18.651613 Si / 1000 Ang^3
#
#
#
# Elastic Constant Matrix: (Units=GPa)
#
#
# Indices 1 2 3 4 5 6 
#
# 1 69.0206 19.8712 36.0325 0.0000 0.0000 0.0000
# 2 19.8712 71.1039 29.3968 0.0000 0.0000 0.0000
# 3 36.0325 29.3968 80.8864 0.0000 0.0000 0.0000
# 4 0.0000 0.0000 0.0000 24.7816 0.0000 0.0000
# 5 0.0000 0.0000 0.0000 0.0000 17.0793 0.0000
# 6 0.0000 0.0000 0.0000 0.0000 0.0000 18.0025
#
#
#
# Elastic Compliance Matrix: (Units=1/GPa)
#
#
# Indices 1 2 3 4 5 6 
#
# 1 0.019154 -0.002148 -0.007752 0.000000 0.000000 0.000000
# 2 -0.002148 0.016792 -0.005146 0.000000 0.000000 0.000000
# 3 -0.007752 -0.005146 0.017686 0.000000 0.000000 0.000000
# 4 0.000000 0.000000 0.000000 0.040352 0.000000 0.000000
# 5 0.000000 0.000000 0.000000 0.000000 0.058550 0.000000
# 6 0.000000 0.000000 0.000000 0.000000 0.000000 0.055548
#
#
# Mechanical properties :
#
#
# Convention : Reuss Voigt Hill
#
# Bulk Modulus (GPa) = 42.47974 43.51246 42.99610
# Shear Modulus (GPa) = 20.32355 21.02006 20.67180
#
# Velocity S-wave (km/s) = 3.30455 3.36070 3.33274
# Velocity P-wave (km/s) = 6.11432 6.19990 6.15726
#
# Compressibility (1/GPa) = 0.02354063
#
# Stress axis : x y z
#
# Youngs Moduli (GPa) = 52.20928 59.55339 56.54074
#
# Poissons Ratio (x) = 0.12792 0.43829
# Poissons Ratio (y) = 0.11214 0.29095
# Poissons Ratio (z) = 0.40471 0.30645
#
# Static dielectric constant tensor:
#      x y z
#    x 3.387730 0.000000 0.000000 
#    y 0.000000 3.512930 0.000000 
#    z 0.000000 0.000000 3.473580 
# 
# 
# High freq. dielectric constant tensor:
#      x y z
#    x 1.721970 0.000000 0.000000 
#    y 0.000000 1.724010 0.000000 
#    z 0.000000 0.000000 1.729340 
# 
# From -- ./inp_files/4606.got.cif
#   From: 2010.03.12/outbox.cif.g09.slc.cpg/sg55_3_cif.got.tgz:4606.got - 2010.04.16 15:19:21.
