data_PCOD8226100
_publ_section_title
;
Structure prediction by ZEFSAII (Michael W. Deem and Ramdas Pophale) SiO2 
 PCOD8226100
Probable space group: P B A M
;
_chemical_formula_sum "Si O2"
_cell_formula_units_Z 64
_cell_length_a 14.384754
_cell_length_b 24.910920
_cell_length_c 9.071193
_cell_angle_alpha 90.000000
_cell_angle_beta 90.000000
_cell_angle_gamma 90.000000
_cell_volume 3250.548224
_symmetry_space_group_name_H-M "P B A M"
_symmetry_group_IT_number 55
_symmetry_cell_setting 'orthorhombic'
loop_
_space_group_symop_operation_xyz
x,y,z
-x,-y,z
1/2+x,1/2-y,-z
1/2-x,1/2+y,-z
-x,-y,-z
x,y,-z
1/2-x,1/2+y,z
1/2+x,1/2-y,z
loop_
_atom_site_type_symbol
_atom_site_label
_atom_site_fract_x
_atom_site_fract_y
_atom_site_fract_z
Si Si1 0.252750 0.070248 0.827219
Si Si2 0.631533 0.720470 0.669497
Si Si3 0.085966 0.367234 0.675247
Si Si4 0.607874 0.502256 0.674714
Si Si5 0.289180 0.391414 0.674952
Si Si6 0.435988 0.051525 0.331819
Si Si7 0.254112 0.694423 0.827663
Si Si8 0.421387 0.745985 0.330639
O O1 0.344437 0.041245 0.764441
O O2 0.262947 0.132677 0.788118
O O3 0.160557 0.047204 0.750405
O O4 0.245101 0.059523 0.000000
O O5 0.662270 0.726973 0.500000
O O6 0.668161 0.664275 0.735851
O O7 0.672745 0.770583 0.756644
O O8 0.521594 0.719922 0.686639
O O9 0.082096 0.369234 0.500000
O O10 0.182169 0.394775 0.728987
O O11 0.080257 0.306426 0.732597
O O12 0.996764 0.399462 0.735875
O O13 0.500000 0.500000 0.720831
O O14 0.619674 0.496781 0.500000
O O15 0.652801 0.557817 0.735015
O O16 0.295966 0.390961 0.500000
O O17 0.404968 0.062933 0.500000
O O18 0.500000 0.000000 0.324113
O O19 0.353918 0.709939 0.765033
O O20 0.253649 0.704939 0.000000
O O21 0.388021 0.746010 0.500000
#
# Coordination Sequence:
#
# PCOD8226100 Si02
#       8
#     8   8   8   8   8   8   8   8
#     4  11  25  42  58  82 122 166 200 240 292 351
#     4  10  20  36  62  90 117 150 193 249 303 352
#     4   9  16  30  54  85 118 146 181 235 295 352
#     4  10  22  39  63  91 116 150 201 256 301 346
#     4   9  17  33  57  87 119 145 182 244 302 348
#     4  10  20  36  63  93 117 148 192 244 300 354
#     4  11  24  40  57  83 123 164 200 239 287 351
#     4  10  20  34  58  87 113 150 197 245 299 351
#
# _framework density 19.688987000000001
#
# number of rings (size 3 to 8) (size 9 to 14) (size 15 to 20)
#    0.000    2.000    1.250    2.250    1.750    6.000 
#    0.000    1.250    0.000    0.000    0.000    0.000 
#    0.000    0.000    0.000    0.000    0.000    0.000 
#
# Total GULP energy -793727.578027 kJ/mol
# GULP energy per Si atom -12401.993407 kJ/mol
# Density = 1.964417 g / cm^3
# Si number density = 19.688987 Si / 1000 Ang^3
#
#
#
# Elastic Constant Matrix: (Units=GPa)
#
#
# Indices 1 2 3 4 5 6 
#
# 1 110.5446 28.9871 30.0432 0.0000 0.0000 0.0000
# 2 28.9871 80.0772 35.8734 0.0000 0.0000 0.0000
# 3 30.0432 35.8734 52.3688 0.0000 0.0000 0.0000
# 4 0.0000 0.0000 0.0000 23.5318 0.0000 0.0000
# 5 0.0000 0.0000 0.0000 0.0000 11.8851 0.0000
# 6 0.0000 0.0000 0.0000 0.0000 0.0000 39.6389
#
#
#
# Elastic Compliance Matrix: (Units=1/GPa)
#
#
# Indices 1 2 3 4 5 6 
#
# 1 0.010865 -0.001646 -0.005106 0.000000 0.000000 0.000000
# 2 -0.001646 0.018266 -0.011568 0.000000 0.000000 0.000000
# 3 -0.005106 -0.011568 0.029949 0.000000 0.000000 0.000000
# 4 0.000000 0.000000 0.000000 0.042496 0.000000 0.000000
# 5 0.000000 0.000000 0.000000 0.000000 0.084139 0.000000
# 6 0.000000 0.000000 0.000000 0.000000 0.000000 0.025228
#
#
# Mechanical properties :
#
#
# Convention : Reuss Voigt Hill
#
# Bulk Modulus (GPa) = 44.56256 48.08865 46.32561
# Shear Modulus (GPa) = 19.60300 24.88365 22.24332
#
# Velocity S-wave (km/s) = 3.15879 3.55890 3.36480
# Velocity P-wave (km/s) = 5.99886 6.43155 6.21897
#
# Compressibility (1/GPa) = 0.02244036
#
# Stress axis : x y z
#
# Youngs Moduli (GPa) = 92.03591 54.74597 33.39000
#
# Poissons Ratio (x) = 0.09010 0.17049
# Poissons Ratio (y) = 0.15147 0.38627
# Poissons Ratio (z) = 0.46993 0.63333
#
# Static dielectric constant tensor:
#      x y z
#    x 3.711730 0.000000 0.000000 
#    y 0.000000 3.792850 0.000000 
#    z 0.000000 0.000000 3.241470 
# 
# 
# High freq. dielectric constant tensor:
#      x y z
#    x 1.783010 0.000000 0.000000 
#    y 0.000000 1.779430 0.000000 
#    z 0.000000 0.000000 1.725530 
# 
# From -- ./inp_files/6730.got.cif
#   From: 2010.03.12/outbox.cif.g09.slc.cpg/sg55_4_cif.got.tgz:6730.got - 2010.04.16 15:19:21.
