data_PCOD8226460
_publ_section_title
;
Structure prediction by ZEFSAII (Michael W. Deem and Ramdas Pophale) SiO2 
 PCOD8226460
Probable space group: P B A M
;
_chemical_formula_sum "Si O2"
_cell_formula_units_Z 64
_cell_length_a 28.488185
_cell_length_b 12.580145
_cell_length_c 8.788157
_cell_angle_alpha 90.000000
_cell_angle_beta 90.000000
_cell_angle_gamma 90.000000
_cell_volume 3149.548024
_symmetry_space_group_name_H-M "P B A M"
_symmetry_group_IT_number 55
_symmetry_cell_setting 'orthorhombic'
loop_
_space_group_symop_operation_xyz
x,y,z
-x,-y,z
1/2+x,1/2-y,-z
1/2-x,1/2+y,-z
-x,-y,-z
x,y,-z
1/2-x,1/2+y,z
1/2+x,1/2-y,z
loop_
_atom_site_type_symbol
_atom_site_label
_atom_site_fract_x
_atom_site_fract_y
_atom_site_fract_z
Si Si1 0.299141 0.442149 0.175748
Si Si2 0.804272 0.487234 0.825066
Si Si3 0.480192 0.883189 0.323329
Si Si4 0.433861 0.250628 0.320623
Si Si5 0.169160 0.722607 0.678446
Si Si6 0.879843 0.658027 0.820246
Si Si7 0.551421 0.516768 0.680816
Si Si8 0.362684 0.619402 0.680454
O O1 0.243420 0.447983 0.199066
O O2 0.314918 0.329226 0.239377
O O3 0.322227 0.540969 0.262772
O O4 0.313435 0.450024 0.000000
O O5 0.800722 0.378516 0.729505
O O6 0.847045 0.560559 0.766836
O O7 0.811597 0.455220 0.000000
O O8 0.469835 0.858683 0.500000
O O9 0.520504 0.807361 0.251644
O O10 0.432501 0.864365 0.233244
O O11 0.500000 0.000000 0.300017
O O12 0.441124 0.249054 0.500000
O O13 0.384883 0.194632 0.277348
O O14 0.429962 0.370503 0.258620
O O15 0.174973 0.742580 0.500000
O O16 0.857371 0.763880 0.749132
O O17 0.878831 0.671072 0.000000
O O18 0.500000 0.500000 0.751789
O O19 0.548836 0.516549 0.500000
O O20 0.586748 0.425321 0.735665
O O21 0.359441 0.626110 0.500000
#
# Coordination Sequence:
#
# PCOD8226460 Si02
#       8
#     8   8   8   8   8   8   8   8
#     4  11  24  43  65  89 124 168 206 249 319 393
#     4  10  25  45  64  86 121 170 210 246 310 387
#     4  10  20  36  61  91 123 165 213 257 311 374
#     4   9  17  32  55  86 123 157 195 249 313 369
#     4  11  22  40  67  97 125 154 205 269 312 359
#     4  11  24  42  62  90 129 171 212 257 314 381
#     4   9  16  29  53  82 114 154 195 239 300 364
#     4  11  22  39  63  91 123 159 209 266 313 365
#
# _framework density 20.320374999999999
#
# number of rings (size 3 to 8) (size 9 to 14) (size 15 to 20)
#    0.000    1.750    1.250    3.000    1.750    5.250 
#    0.000    1.250    0.000    1.500    0.000    0.000 
#    0.000    0.000    0.000    0.000    0.000    0.000 
#
# Total GULP energy -793632.955418 kJ/mol
# GULP energy per Si atom -12400.514928 kJ/mol
# Density = 2.027413 g / cm^3
# Si number density = 20.320375 Si / 1000 Ang^3
#
#
#
# Elastic Constant Matrix: (Units=GPa)
#
#
# Indices 1 2 3 4 5 6 
#
# 1 103.3942 42.6799 34.4347 0.0000 0.0000 0.0000
# 2 42.6799 120.7785 42.9552 0.0000 0.0000 0.0000
# 3 34.4347 42.9552 65.5845 0.0000 0.0000 0.0000
# 4 0.0000 0.0000 0.0000 30.9683 0.0000 0.0000
# 5 0.0000 0.0000 0.0000 0.0000 31.1803 0.0000
# 6 0.0000 0.0000 0.0000 0.0000 0.0000 36.1168
#
#
#
# Elastic Compliance Matrix: (Units=1/GPa)
#
#
# Indices 1 2 3 4 5 6 
#
# 1 0.012355 -0.002684 -0.004729 0.000000 0.000000 0.000000
# 2 -0.002684 0.011377 -0.006042 0.000000 0.000000 0.000000
# 3 -0.004729 -0.006042 0.021688 0.000000 0.000000 0.000000
# 4 0.000000 0.000000 0.000000 0.032291 0.000000 0.000000
# 5 0.000000 0.000000 0.000000 0.000000 0.032072 0.000000
# 6 0.000000 0.000000 0.000000 0.000000 0.000000 0.027688
#
#
# Mechanical properties :
#
#
# Convention : Reuss Voigt Hill
#
# Bulk Modulus (GPa) = 54.02699 58.87740 56.45219
# Shear Modulus (GPa) = 29.31698 30.96558 30.14128
#
# Velocity S-wave (km/s) = 3.80246 3.90791 3.85555
# Velocity P-wave (km/s) = 6.77669 7.02850 6.90375
#
# Compressibility (1/GPa) = 0.01850927
#
# Stress axis : x y z
#
# Youngs Moduli (GPa) = 80.94213 87.89653 46.10892
#
# Poissons Ratio (x) = 0.23591 0.21804
# Poissons Ratio (y) = 0.21724 0.27860
# Poissons Ratio (z) = 0.38276 0.53110
#
# Static dielectric constant tensor:
#      x y z
#    x 3.920850 0.000000 0.000000 
#    y 0.000000 3.807070 0.000000 
#    z 0.000000 0.000000 3.455990 
# 
# 
# High freq. dielectric constant tensor:
#      x y z
#    x 1.808050 0.000000 0.000000 
#    y 0.000000 1.806920 0.000000 
#    z 0.000000 0.000000 1.767860 
# 
# From -- ./inp_files/10837.got.cif
#   From: 2010.03.12/outbox.cif.g09.slc.cpg/sg55_6_cif.got.tgz:10837.got - 2010.04.16 15:19:21.
