data_PCOD8226587
_publ_section_title
;
Structure prediction by ZEFSAII (Michael W. Deem and Ramdas Pophale) SiO2 
 PCOD8226587
Probable space group: P B A M
;
_chemical_formula_sum "Si O2"
_cell_formula_units_Z 48
_cell_length_a 7.407452
_cell_length_b 18.138685
_cell_length_c 16.407853
_cell_angle_alpha 90.000000
_cell_angle_beta 90.000000
_cell_angle_gamma 90.000000
_cell_volume 2204.582731
_symmetry_space_group_name_H-M "P B A M"
_symmetry_group_IT_number 55
_symmetry_cell_setting 'orthorhombic'
loop_
_space_group_symop_operation_xyz
x,y,z
-x,-y,z
1/2+x,1/2-y,-z
1/2-x,1/2+y,-z
-x,-y,-z
x,y,-z
1/2-x,1/2+y,z
1/2+x,1/2-y,z
loop_
_atom_site_type_symbol
_atom_site_label
_atom_site_fract_x
_atom_site_fract_y
_atom_site_fract_z
Si Si1 0.739298 0.686945 0.092292
Si Si2 0.548216 0.913527 0.500000
Si Si3 0.606238 0.834582 0.832950
Si Si4 0.003570 0.158704 0.343590
Si Si5 0.470266 0.583908 0.500000
Si Si6 0.078109 0.673883 0.653374
Si Si7 0.474526 0.586976 0.824019
O O1 0.701455 0.754907 0.153853
O O2 0.594750 0.621538 0.104015
O O3 0.942385 0.655278 0.103903
O O4 0.721418 0.715860 0.000000
O O5 0.759911 0.896836 0.500000
O O6 0.474021 0.873526 0.417007
O O7 0.500000 0.000000 0.500000
O O8 0.506239 0.841374 0.744753
O O9 0.763064 0.895901 0.841230
O O10 0.926879 0.113302 0.420041
O O11 0.216279 0.151209 0.344221
O O12 0.942423 0.123652 0.258137
O O13 0.935168 0.239883 0.362327
O O14 0.500000 0.500000 0.500000
O O15 0.500000 0.500000 0.820436
#
# Coordination Sequence:
#
# PCOD8226587 Si02
#       7
#     8   4   8   8   4   8   8
#     4  12  24  42  73 102 131 177 230 286 347 420
#     4  10  23  40  56  94 136 170 217 272 332 384
#     4  11  22  43  68 103 134 177 235 280 338 420
#     4  10  20  37  61  90 124 164 223 266 326 399
#     4  10  21  36  54  84 124 168 209 258 318 389
#     4  10  20  38  62  89 124 168 217 272 323 393
#     4  11  25  44  67  99 140 179 219 287 354 408
#
# _framework density 21.772825999999998
#
# number of rings (size 3 to 8) (size 9 to 14) (size 15 to 20)
#    0.000    1.333    3.333    2.500    0.000    3.000 
#    9.000    0.833    0.000    0.000    0.000    0.000 
#    0.000    0.000    0.000    0.000    0.000    0.000 
#
# Total GULP energy -594937.377283 kJ/mol
# GULP energy per Si atom -12394.528693 kJ/mol
# Density = 2.172327 g / cm^3
# Si number density = 21.772826 Si / 1000 Ang^3
#
#
#
# Elastic Constant Matrix: (Units=GPa)
#
#
# Indices 1 2 3 4 5 6 
#
# 1 72.3101 19.2319 27.6572 0.0000 0.0000 0.0000
# 2 19.2319 148.3602 44.3816 0.0000 0.0000 0.0000
# 3 27.6572 44.3816 136.9865 0.0000 0.0000 0.0000
# 4 0.0000 0.0000 0.0000 23.3202 0.0000 0.0000
# 5 0.0000 0.0000 0.0000 0.0000 9.3738 0.0000
# 6 0.0000 0.0000 0.0000 0.0000 0.0000 33.5365
#
#
#
# Elastic Compliance Matrix: (Units=1/GPa)
#
#
# Indices 1 2 3 4 5 6 
#
# 1 0.015166 -0.001163 -0.002685 0.000000 0.000000 0.000000
# 2 -0.001163 0.007553 -0.002212 0.000000 0.000000 0.000000
# 3 -0.002685 -0.002212 0.008559 0.000000 0.000000 0.000000
# 4 0.000000 0.000000 0.000000 0.042881 0.000000 0.000000
# 5 0.000000 0.000000 0.000000 0.000000 0.106680 0.000000
# 6 0.000000 0.000000 0.000000 0.000000 0.000000 0.029818
#
#
# Mechanical properties :
#
#
# Convention : Reuss Voigt Hill
#
# Bulk Modulus (GPa) = 52.20007 60.02201 56.11104
# Shear Modulus (GPa) = 21.81850 31.00516 26.41183
#
# Velocity S-wave (km/s) = 3.16903 3.77773 3.48669
# Velocity P-wave (km/s) = 6.11696 6.83049 6.48355
#
# Compressibility (1/GPa) = 0.01915706
#
# Stress axis : x y z
#
# Youngs Moduli (GPa) = 65.93880 132.40010 116.83783
#
# Poissons Ratio (x) = 0.15393 0.31373
# Poissons Ratio (y) = 0.07666 0.25848
# Poissons Ratio (z) = 0.17706 0.29291
#
# Static dielectric constant tensor:
#      x y z
#    x 3.794640 0.000000 0.000000 
#    y 0.000000 3.642400 0.000000 
#    z 0.000000 0.000000 4.477610 
# 
# 
# High freq. dielectric constant tensor:
#      x y z
#    x 1.852460 0.000000 0.000000 
#    y 0.000000 1.837160 0.000000 
#    z 0.000000 0.000000 1.868820 
# 
# From -- ./inp_files/17386.got.cif
#   From: 2010.03.12/outbox.cif.g09.slc.cpg/sg55_9_cif.got.tgz:17386.got - 2010.04.16 15:19:21.
