data_PCOD8226963
_publ_section_title
;
Structure prediction by ZEFSAII (Michael W. Deem and Ramdas Pophale) SiO2 
 PCOD8226963
Probable space group: P B A M
;
_chemical_formula_sum "Si O2"
_cell_formula_units_Z 40
_cell_length_a 21.679114
_cell_length_b 13.340288
_cell_length_c 7.688031
_cell_angle_alpha 90.000000
_cell_angle_beta 90.000000
_cell_angle_gamma 90.000000
_cell_volume 2223.421805
_symmetry_space_group_name_H-M "P B A M"
_symmetry_group_IT_number 55
_symmetry_cell_setting 'orthorhombic'
loop_
_space_group_symop_operation_xyz
x,y,z
-x,-y,z
1/2+x,1/2-y,-z
1/2-x,1/2+y,-z
-x,-y,-z
x,y,-z
1/2-x,1/2+y,z
1/2+x,1/2-y,z
loop_
_atom_site_type_symbol
_atom_site_label
_atom_site_fract_x
_atom_site_fract_y
_atom_site_fract_z
Si Si1 0.278694 0.617709 0.303052
Si Si2 0.071257 0.381555 0.500000
Si Si3 0.652025 0.197580 0.198378
Si Si4 0.846922 0.299197 0.197597
Si Si5 0.779927 0.099868 0.797218
Si Si6 0.573461 0.885775 0.500000
O O1 0.270902 0.654747 0.500000
O O2 0.331297 0.684505 0.211386
O O3 0.213462 0.630456 0.205914
O O4 0.298792 0.501678 0.300274
O O5 0.096305 0.329268 0.674243
O O6 0.090211 0.497443 0.500000
O O7 0.998659 0.366013 0.500000
O O8 0.711624 0.134321 0.258731
O O9 0.632547 0.173123 0.000000
O O10 0.828611 0.186182 0.252673
O O11 0.899610 0.336867 0.325857
O O12 0.872203 0.303200 0.000000
O O13 0.781456 0.078671 0.000000
#
# Coordination Sequence:
#
# PCOD8226963 Si02
#       6
#     8   4   8   8   8   4
#     4  11  19  30  56  87 114 141 172 215 270 327
#     4  11  24  39  55  81 103 141 189 222 268 309
#     4  10  21  37  55  79 115 145 175 220 266 320
#     4  10  21  37  55  80 113 145 176 217 269 320
#     4   9  19  32  53  85 113 140 174 211 267 332
#     4  11  24  39  57  77 107 139 185 232 258 313
#
# _framework density 17.990286999999999
#
# number of rings (size 3 to 8) (size 9 to 14) (size 15 to 20)
#    0.000    1.800    2.000    4.200    2.800    3.200 
#    0.000    2.000    0.000    2.400    0.000    4.200 
#    0.000    0.000    0.000    0.000    0.000    0.000 
#
# Total GULP energy -496098.529501 kJ/mol
# GULP energy per Si atom -12402.463238 kJ/mol
# Density = 1.794934 g / cm^3
# Si number density = 17.990287 Si / 1000 Ang^3
#
#
#
# Elastic Constant Matrix: (Units=GPa)
#
#
# Indices 1 2 3 4 5 6 
#
# 1 80.5083 47.7914 51.5679 0.0000 0.0000 0.0000
# 2 47.7914 124.5673 40.9696 0.0000 0.0000 0.0000
# 3 51.5679 40.9696 114.1990 0.0000 0.0000 0.0000
# 4 0.0000 0.0000 0.0000 28.0458 0.0000 0.0000
# 5 0.0000 0.0000 0.0000 0.0000 16.0391 0.0000
# 6 0.0000 0.0000 0.0000 0.0000 0.0000 20.8662
#
#
#
# Elastic Compliance Matrix: (Units=1/GPa)
#
#
# Indices 1 2 3 4 5 6 
#
# 1 0.020237 -0.005395 -0.007203 0.000000 0.000000 0.000000
# 2 -0.005395 0.010540 -0.001345 0.000000 0.000000 0.000000
# 3 -0.007203 -0.001345 0.012492 0.000000 0.000000 0.000000
# 4 0.000000 0.000000 0.000000 0.035656 0.000000 0.000000
# 5 0.000000 0.000000 0.000000 0.000000 0.062348 0.000000
# 6 0.000000 0.000000 0.000000 0.000000 0.000000 0.047924
#
#
# Mechanical properties :
#
#
# Convention : Reuss Voigt Hill
#
# Bulk Modulus (GPa) = 65.00713 66.65915 65.83314
# Shear Modulus (GPa) = 22.50110 24.91994 23.71052
#
# Velocity S-wave (km/s) = 3.54041 3.72585 3.63431
# Velocity P-wave (km/s) = 7.27501 7.45939 7.36778
#
# Compressibility (1/GPa) = 0.01538293
#
# Stress axis : x y z
#
# Youngs Moduli (GPa) = 49.41330 94.87566 80.05311
#
# Poissons Ratio (x) = 0.51188 0.57661
# Poissons Ratio (y) = 0.26660 0.10767
# Poissons Ratio (z) = 0.35592 0.12761
#
# Static dielectric constant tensor:
#      x y z
#    x 2.922380 0.000000 0.000000 
#    y 0.000000 3.449880 0.000000 
#    z 0.000000 0.000000 3.385230 
# 
# 
# High freq. dielectric constant tensor:
#      x y z
#    x 1.648650 0.000000 0.000000 
#    y 0.000000 1.705890 0.000000 
#    z 0.000000 0.000000 1.714950 
# 
# From -- ./inp_files/3663.got.cif
#   From: 2010.03.12/outbox.cif.g09.slc.cpg/sg55_2_cif.got.tgz:3663.got - 2010.04.16 15:19:21.
