data_PCOD8226015
_publ_section_title
;
Structure prediction by ZEFSAII (Michael W. Deem and Ramdas Pophale) SiO2 
 PCOD8226015
Probable space group: P B A M
;
_chemical_formula_sum "Si O2"
_cell_formula_units_Z 64
_cell_length_a 15.509017
_cell_length_b 17.198563
_cell_length_c 13.047504
_cell_angle_alpha 90.000000
_cell_angle_beta 90.000000
_cell_angle_gamma 90.000000
_cell_volume 3480.197352
_symmetry_space_group_name_H-M "P B A M"
_symmetry_group_IT_number 55
_symmetry_cell_setting 'orthorhombic'
loop_
_space_group_symop_operation_xyz
x,y,z
-x,-y,z
1/2+x,1/2-y,-z
1/2-x,1/2+y,-z
-x,-y,-z
x,y,-z
1/2-x,1/2+y,z
1/2+x,1/2-y,z
loop_
_atom_site_type_symbol
_atom_site_label
_atom_site_fract_x
_atom_site_fract_y
_atom_site_fract_z
Si Si1 0.193517 0.208299 0.620983
Si Si2 0.024910 0.374253 0.884788
Si Si3 0.134060 0.522586 0.116327
Si Si4 0.478938 0.730827 0.745894
Si Si5 0.632450 0.713751 0.614186
Si Si6 0.591483 0.534151 0.614737
Si Si7 0.794489 0.937144 0.755726
Si Si8 0.042662 0.084017 0.880324
O O1 0.184122 0.192231 0.500000
O O2 0.098299 0.225837 0.663609
O O3 0.266012 0.275299 0.643382
O O4 0.228805 0.133707 0.681156
O O5 0.103496 0.433976 0.877626
O O6 0.048904 0.298807 0.821174
O O7 0.938979 0.417491 0.847035
O O8 0.011559 0.345385 0.000000
O O9 0.209307 0.529001 0.196603
O O10 0.162920 0.541777 0.000000
O O11 0.567449 0.757993 0.690591
O O12 0.499279 0.651043 0.808651
O O13 0.620449 0.747921 0.500000
O O14 0.597378 0.626275 0.617226
O O15 0.500000 0.500000 0.654564
O O16 0.606724 0.502282 0.500000
O O17 0.665640 0.504833 0.688021
O O18 0.856853 0.915306 0.850195
O O19 0.032186 0.105463 0.000000
O O20 0.000000 0.000000 0.857372
#
# Coordination Sequence:
#
# PCOD8226015 Si02
#       8
#     8   8   8   8   8   8   8   8
#     4  10  22  36  52  80 112 142 178 225 277 325
#     4   9  19  36  55  78 106 139 182 227 273 326
#     4   9  19  35  55  78 106 140 179 228 278 322
#     4  11  20  34  59  79 103 148 184 222 269 338
#     4  10  21  36  53  77 109 139 175 224 273 322
#     4  10  20  34  54  79 106 140 182 227 271 325
#     4  11  19  32  56  78 102 141 183 220 263 331
#     4  10  21  35  50  77 112 142 175 220 274 321
#
# _framework density 18.389761
#
# number of rings (size 3 to 8) (size 9 to 14) (size 15 to 20)
#    0.000    2.000    0.000    5.625    1.750    1.000 
#    0.000    0.000    0.000    1.875    0.000    5.250 
#    0.000    0.000    0.000    0.000    0.000    0.000 
#
# Total GULP energy -793302.357093 kJ/mol
# GULP energy per Si atom -12395.349330 kJ/mol
# Density = 1.834791 g / cm^3
# Si number density = 18.389761 Si / 1000 Ang^3
#
#
#
# Elastic Constant Matrix: (Units=GPa)
#
#
# Indices 1 2 3 4 5 6 
#
# 1 101.1811 27.8094 60.1786 0.0000 0.0000 0.0000
# 2 27.8094 77.7023 40.0542 0.0000 0.0000 0.0000
# 3 60.1786 40.0542 106.2660 0.0000 0.0000 0.0000
# 4 0.0000 0.0000 0.0000 24.3521 0.0000 0.0000
# 5 0.0000 0.0000 0.0000 0.0000 35.9996 0.0000
# 6 0.0000 0.0000 0.0000 0.0000 0.0000 24.9040
#
#
#
# Elastic Compliance Matrix: (Units=1/GPa)
#
#
# Indices 1 2 3 4 5 6 
#
# 1 0.014997 -0.001228 -0.008030 0.000000 0.000000 0.000000
# 2 -0.001228 0.016074 -0.005363 0.000000 0.000000 0.000000
# 3 -0.008030 -0.005363 0.015979 0.000000 0.000000 0.000000
# 4 0.000000 0.000000 0.000000 0.041064 0.000000 0.000000
# 5 0.000000 0.000000 0.000000 0.000000 0.027778 0.000000
# 6 0.000000 0.000000 0.000000 0.000000 0.000000 0.040154
#
#
# Mechanical properties :
#
#
# Convention : Reuss Voigt Hill
#
# Bulk Modulus (GPa) = 56.15573 60.13708 58.14641
# Shear Modulus (GPa) = 26.14743 27.52496 26.83619
#
# Velocity S-wave (km/s) = 3.77483 3.87299 3.82422
# Velocity P-wave (km/s) = 7.04286 7.26446 7.15452
#
# Compressibility (1/GPa) = 0.01780762
#
# Stress axis : x y z
#
# Youngs Moduli (GPa) = 66.68210 62.21323 62.58195
#
# Poissons Ratio (x) = 0.07640 0.50251
# Poissons Ratio (y) = 0.08189 0.33563
# Poissons Ratio (z) = 0.53544 0.33366
#
# Static dielectric constant tensor:
#      x y z
#    x 3.320530 0.000000 0.000000 
#    y 0.000000 3.301060 0.000000 
#    z 0.000000 0.000000 3.530830 
# 
# 
# High freq. dielectric constant tensor:
#      x y z
#    x 1.708750 0.000000 0.000000 
#    y 0.000000 1.704970 0.000000 
#    z 0.000000 0.000000 1.727060 
# 
# From -- ./inp_files/14387.got.cif
#   From: 2010.03.12/outbox.cif.g09.slc.cpg/sg55_8_cif.got.tgz:14387.got - 2010.04.16 15:19:21.
