data_PCOD8226359
_publ_section_title
;
Structure prediction by ZEFSAII (Michael W. Deem and Ramdas Pophale) SiO2 
 PCOD8226359
Probable space group: P B A M
;
_chemical_formula_sum "Si O2"
_cell_formula_units_Z 64
_cell_length_a 29.301375
_cell_length_b 12.792695
_cell_length_c 9.064149
_cell_angle_alpha 90.000000
_cell_angle_beta 90.000000
_cell_angle_gamma 90.000000
_cell_volume 3397.637820
_symmetry_space_group_name_H-M "P B A M"
_symmetry_group_IT_number 55
_symmetry_cell_setting 'orthorhombic'
loop_
_space_group_symop_operation_xyz
x,y,z
-x,-y,z
1/2+x,1/2-y,-z
1/2-x,1/2+y,-z
-x,-y,-z
x,y,-z
1/2-x,1/2+y,z
1/2+x,1/2-y,z
loop_
_atom_site_type_symbol
_atom_site_label
_atom_site_fract_x
_atom_site_fract_y
_atom_site_fract_z
Si Si1 0.376150 0.281449 0.827172
Si Si2 0.944432 0.395498 0.174459
Si Si3 0.883998 0.780553 0.325510
Si Si4 0.857456 0.011475 0.673913
Si Si5 0.047864 0.371428 0.174650
Si Si6 0.747666 0.505934 0.670928
Si Si7 0.217756 0.677905 0.839383
Si Si8 0.302012 0.823546 0.161137
O O1 0.409522 0.191216 0.761428
O O2 0.384748 0.393120 0.749494
O O3 0.324770 0.247965 0.789805
O O4 0.384735 0.297248 0.000000
O O5 0.931963 0.514655 0.224602
O O6 0.995285 0.366141 0.225532
O O7 0.941950 0.394087 0.000000
O O8 0.886160 0.769055 0.500000
O O9 0.881840 0.902848 0.279248
O O10 0.927693 0.724694 0.254993
O O11 0.839108 0.723414 0.269625
O O12 0.859718 0.026844 0.500000
O O13 0.804639 0.009955 0.726906
O O14 0.052746 0.356655 0.000000
O O15 0.750602 0.534824 0.500000
O O16 0.769557 0.393692 0.701309
O O17 0.781041 0.575645 0.765437
O O18 0.261479 0.745941 0.867179
O O19 0.206833 0.623047 0.000000
O O20 0.323961 0.850568 0.000000
#
# Coordination Sequence:
#
# PCOD8226359 Si02
#       8
#     8   8   8   8   8   8   8   8
#     4  10  20  36  58  84 111 144 188 236 278 330
#     4   8  17  36  62  88 115 141 176 229 288 342
#     4  11  23  39  56  82 115 150 191 234 281 336
#     4  10  22  38  54  75 112 155 190 229 278 332
#     4   9  18  37  63  88 112 145 181 224 287 346
#     4  11  22  36  53  74 109 153 190 230 278 331
#     4  10  21  34  52  80 111 143 186 234 277 325
#     4  11  22  36  54  79 110 147 190 235 278 327
#
# _framework density 18.836617
#
# number of rings (size 3 to 8) (size 9 to 14) (size 15 to 20)
#    0.000    2.000    2.500    1.875    1.750    2.500 
#    0.000    3.125    0.000    3.750    0.000    0.000 
#    0.000    0.000    0.000    0.000    0.000    0.000 
#
# Total GULP energy -793219.110071 kJ/mol
# GULP energy per Si atom -12394.048595 kJ/mol
# Density = 1.879374 g / cm^3
# Si number density = 18.836617 Si / 1000 Ang^3
#
#
#
# Elastic Constant Matrix: (Units=GPa)
#
#
# Indices 1 2 3 4 5 6 
#
# 1 73.2757 34.6205 14.5086 0.0000 0.0000 0.0000
# 2 34.6205 110.0258 33.6415 0.0000 0.0000 0.0000
# 3 14.5086 33.6415 47.7570 0.0000 0.0000 0.0000
# 4 0.0000 0.0000 0.0000 31.9345 0.0000 0.0000
# 5 0.0000 0.0000 0.0000 0.0000 21.9505 0.0000
# 6 0.0000 0.0000 0.0000 0.0000 0.0000 39.6849
#
#
#
# Elastic Compliance Matrix: (Units=1/GPa)
#
#
# Indices 1 2 3 4 5 6 
#
# 1 0.016136 -0.004561 -0.001689 0.000000 0.000000 0.000000
# 2 -0.004561 0.012873 -0.007682 0.000000 0.000000 0.000000
# 3 -0.001689 -0.007682 0.026864 0.000000 0.000000 0.000000
# 4 0.000000 0.000000 0.000000 0.031314 0.000000 0.000000
# 5 0.000000 0.000000 0.000000 0.000000 0.045557 0.000000
# 6 0.000000 0.000000 0.000000 0.000000 0.000000 0.025199
#
#
# Mechanical properties :
#
#
# Convention : Reuss Voigt Hill
#
# Bulk Modulus (GPa) = 35.70392 44.06664 39.88528
# Shear Modulus (GPa) = 25.62196 28.59983 27.11090
#
# Velocity S-wave (km/s) = 3.69212 3.90078 3.79788
# Velocity P-wave (km/s) = 6.09683 6.61309 6.36020
#
# Compressibility (1/GPa) = 0.02800813
#
# Stress axis : x y z
#
# Youngs Moduli (GPa) = 61.97135 77.68264 37.22406
#
# Poissons Ratio (x) = 0.35430 0.06289
# Poissons Ratio (y) = 0.28265 0.28597
# Poissons Ratio (z) = 0.10470 0.59679
#
# Static dielectric constant tensor:
#      x y z
#    x 3.361190 0.000000 0.000000 
#    y 0.000000 3.619970 0.000000 
#    z 0.000000 0.000000 3.285030 
# 
# 
# High freq. dielectric constant tensor:
#      x y z
#    x 1.720500 0.000000 0.000000 
#    y 0.000000 1.738140 0.000000 
#    z 0.000000 0.000000 1.718120 
# 
# From -- ./inp_files/10754.got.cif
#   From: 2010.03.12/outbox.cif.g09.slc.cpg/sg55_6_cif.got.tgz:10754.got - 2010.04.16 15:19:21.
