data_PCOD8226869
_publ_section_title
;
Structure prediction by ZEFSAII (Michael W. Deem and Ramdas Pophale) SiO2 
 PCOD8226869
Probable space group: P B A M
;
_chemical_formula_sum "Si O2"
_cell_formula_units_Z 64
_cell_length_a 23.835036
_cell_length_b 15.119131
_cell_length_c 9.168803
_cell_angle_alpha 90.000000
_cell_angle_beta 90.000000
_cell_angle_gamma 90.000000
_cell_volume 3304.115984
_symmetry_space_group_name_H-M "P B A M"
_symmetry_group_IT_number 55
_symmetry_cell_setting 'orthorhombic'
loop_
_space_group_symop_operation_xyz
x,y,z
-x,-y,z
1/2+x,1/2-y,-z
1/2-x,1/2+y,-z
-x,-y,-z
x,y,-z
1/2-x,1/2+y,z
1/2+x,1/2-y,z
loop_
_atom_site_type_symbol
_atom_site_label
_atom_site_fract_x
_atom_site_fract_y
_atom_site_fract_z
Si Si1 0.048846 0.701526 0.669773
Si Si2 0.190704 0.113254 0.670892
Si Si3 0.227279 0.480177 0.168633
Si Si4 0.417439 0.563460 0.833477
Si Si5 0.959196 0.126700 0.165979
Si Si6 0.930349 0.622984 0.331855
Si Si7 0.191577 0.313571 0.331236
Si Si8 0.898118 0.456574 0.831791
O O1 0.062152 0.695475 0.500000
O O2 0.064056 0.798628 0.726672
O O3 0.089520 0.634216 0.750967
O O4 0.983667 0.683189 0.705785
O O5 0.194005 0.093442 0.500000
O O6 0.126869 0.104216 0.722460
O O7 0.210745 0.213593 0.704815
O O8 0.228259 0.043402 0.755501
O O9 0.228656 0.381871 0.237473
O O10 0.166917 0.523080 0.192633
O O11 0.243431 0.471271 0.000000
O O12 0.419047 0.457610 0.815180
O O13 0.477436 0.602874 0.790769
O O14 0.401543 0.587794 0.000000
O O15 0.957196 0.161125 0.000000
O O16 0.930489 0.593549 0.500000
O O17 0.874385 0.677350 0.291614
O O18 0.935450 0.534460 0.236713
O O19 0.201403 0.336384 0.500000
O O20 0.914189 0.447926 0.000000
#
# Coordination Sequence:
#
# PCOD8226869 Si02
#       8
#     8   8   8   8   8   8   8   8
#     4  11  21  32  51  81 113 148 185 221 274 337
#     4  11  22  37  61  89 114 145 187 233 283 339
#     4  10  22  40  59  81 110 147 190 237 285 332
#     4   9  19  37  59  82 111 147 184 226 275 325
#     4   9  19  36  56  80 113 149 184 224 271 323
#     4   9  18  33  53  78 110 143 179 224 275 329
#     4   9  19  37  59  83 111 144 182 230 283 334
#     4  10  21  36  53  75 106 144 187 231 278 329
#
# _framework density 19.369779000000001
#
# number of rings (size 3 to 8) (size 9 to 14) (size 15 to 20)
#    0.000    2.250    0.000    3.375    0.000    7.000 
#    2.250    3.750    0.000    0.000    0.000    0.000 
#    0.000    0.000    0.000    0.000    0.000    0.000 
#
# Total GULP energy -793806.524950 kJ/mol
# GULP energy per Si atom -12403.226952 kJ/mol
# Density = 1.932569 g / cm^3
# Si number density = 19.369779 Si / 1000 Ang^3
#
#
#
# Elastic Constant Matrix: (Units=GPa)
#
#
# Indices 1 2 3 4 5 6 
#
# 1 37.2277 26.8341 33.3104 0.0000 0.0000 0.0000
# 2 26.8341 117.0793 59.9373 0.0000 0.0000 0.0000
# 3 33.3104 59.9373 99.8636 0.0000 0.0000 0.0000
# 4 0.0000 0.0000 0.0000 35.7101 0.0000 0.0000
# 5 0.0000 0.0000 0.0000 0.0000 31.3715 0.0000
# 6 0.0000 0.0000 0.0000 0.0000 0.0000 25.1941
#
#
#
# Elastic Compliance Matrix: (Units=1/GPa)
#
#
# Indices 1 2 3 4 5 6 
#
# 1 0.039155 -0.003303 -0.011078 0.000000 0.000000 0.000000
# 2 -0.003303 0.012608 -0.006466 0.000000 0.000000 0.000000
# 3 -0.011078 -0.006466 0.017590 0.000000 0.000000 0.000000
# 4 0.000000 0.000000 0.000000 0.028003 0.000000 0.000000
# 5 0.000000 0.000000 0.000000 0.000000 0.031876 0.000000
# 6 0.000000 0.000000 0.000000 0.000000 0.000000 0.039692
#
#
# Mechanical properties :
#
#
# Convention : Reuss Voigt Hill
#
# Bulk Modulus (GPa) = 36.15411 54.92602 45.54006
# Shear Modulus (GPa) = 22.74416 27.39442 25.06929
#
# Velocity S-wave (km/s) = 3.43039 3.76478 3.60147
# Velocity P-wave (km/s) = 5.86480 6.87868 6.39187
#
# Compressibility (1/GPa) = 0.02765937
#
# Stress axis : x y z
#
# Youngs Moduli (GPa) = 25.53962 79.31321 56.85209
#
# Poissons Ratio (x) = 0.26196 0.62981
# Poissons Ratio (y) = 0.08435 0.36759
# Poissons Ratio (z) = 0.28293 0.51281
#
# Static dielectric constant tensor:
#      x y z
#    x 3.350170 0.000000 0.000000 
#    y 0.000000 3.571080 0.000000 
#    z 0.000000 0.000000 3.548630 
# 
# 
# High freq. dielectric constant tensor:
#      x y z
#    x 1.737070 0.000000 0.000000 
#    y 0.000000 1.760600 0.000000 
#    z 0.000000 0.000000 1.758060 
# 
# From -- ./inp_files/9693.got.cif
#   From: 2010.03.12/outbox.cif.g09.slc.cpg/sg55_5_cif.got.tgz:9693.got - 2010.04.16 15:19:21.
