data_PCOD8226774
_publ_section_title
;
Structure prediction by ZEFSAII (Michael W. Deem and Ramdas Pophale) SiO2 
 PCOD8226774
Probable space group: P B A M
;
_chemical_formula_sum "Si O2"
_cell_formula_units_Z 40
_cell_length_a 22.626916
_cell_length_b 9.954074
_cell_length_c 9.003230
_cell_angle_alpha 90.000000
_cell_angle_beta 90.000000
_cell_angle_gamma 90.000000
_cell_volume 2027.797459
_symmetry_space_group_name_H-M "P B A M"
_symmetry_group_IT_number 55
_symmetry_cell_setting 'orthorhombic'
loop_
_space_group_symop_operation_xyz
x,y,z
-x,-y,z
1/2+x,1/2-y,-z
1/2-x,1/2+y,-z
-x,-y,-z
x,y,-z
1/2-x,1/2+y,z
1/2+x,1/2-y,z
loop_
_atom_site_type_symbol
_atom_site_label
_atom_site_fract_x
_atom_site_fract_y
_atom_site_fract_z
Si Si1 0.618354 0.207428 0.325817
Si Si2 0.193120 0.517407 0.172566
Si Si3 0.317361 0.518289 0.326463
Si Si4 0.876971 0.218549 0.829023
Si Si5 0.998271 0.654564 0.826074
O O1 0.615209 0.182172 0.500000
O O2 0.645422 0.077567 0.248603
O O3 0.657955 0.335813 0.286504
O O4 0.552744 0.231909 0.263219
O O5 0.256929 0.493125 0.240734
O O6 0.173511 0.670442 0.198291
O O7 0.195004 0.480246 0.000000
O O8 0.305200 0.501582 0.500000
O O9 0.364726 0.408234 0.274963
O O10 0.940183 0.277204 0.782846
O O11 0.877101 0.172361 0.000000
O O12 0.000000 0.500000 0.775807
O O13 0.984667 0.665937 0.000000
#
# Coordination Sequence:
#
# PCOD8226774 Si02
#       5
#     8   8   8   8   8
#     4  11  24  40  61  91 124 161 199 241 301 359
#     4  11  22  40  65  90 118 156 205 252 295 352
#     4  11  25  41  57  87 128 161 197 245 298 360
#     4  10  22  40  64  91 118 156 202 249 300 351
#     4  10  20  40  65  90 119 152 202 254 294 350
#
# _framework density 19.725835
#
# number of rings (size 3 to 8) (size 9 to 14) (size 15 to 20)
#    0.000    1.400    2.000    3.000    0.000   10.000 
#    0.000    4.000    0.000    0.000    0.000    0.000 
#    0.000    0.000    0.000    0.000    0.000    0.000 
#
# Total GULP energy -496284.853245 kJ/mol
# GULP energy per Si atom -12407.121331 kJ/mol
# Density = 1.968094 g / cm^3
# Si number density = 19.725835 Si / 1000 Ang^3
#
#
#
# Elastic Constant Matrix: (Units=GPa)
#
#
# Indices 1 2 3 4 5 6 
#
# 1 107.8343 14.9215 42.0171 0.0000 0.0000 0.0000
# 2 14.9215 51.7281 39.0742 0.0000 0.0000 0.0000
# 3 42.0171 39.0742 73.9547 0.0000 0.0000 0.0000
# 4 0.0000 0.0000 0.0000 35.9604 0.0000 0.0000
# 5 0.0000 0.0000 0.0000 0.0000 17.6367 0.0000
# 6 0.0000 0.0000 0.0000 0.0000 0.0000 25.0721
#
#
#
# Elastic Compliance Matrix: (Units=1/GPa)
#
#
# Indices 1 2 3 4 5 6 
#
# 1 0.012157 0.002847 -0.008411 0.000000 0.000000 0.000000
# 2 0.002847 0.032838 -0.018968 0.000000 0.000000 0.000000
# 3 -0.008411 -0.018968 0.028322 0.000000 0.000000 0.000000
# 4 0.000000 0.000000 0.000000 0.027808 0.000000 0.000000
# 5 0.000000 0.000000 0.000000 0.000000 0.056700 0.000000
# 6 0.000000 0.000000 0.000000 0.000000 0.000000 0.039885
#
#
# Mechanical properties :
#
#
# Convention : Reuss Voigt Hill
#
# Bulk Modulus (GPa) = 41.23107 47.28253 44.25680
# Shear Modulus (GPa) = 19.61871 24.90080 22.25975
#
# Velocity S-wave (km/s) = 3.15710 3.55680 3.36290
# Velocity P-wave (km/s) = 5.85125 6.39450 6.12890
#
# Compressibility (1/GPa) = 0.02425356
#
# Stress axis : x y z
#
# Youngs Moduli (GPa) = 82.25806 30.45215 35.30821
#
# Poissons Ratio (x) = -0.08669 0.29697
# Poissons Ratio (y) = -0.23416 0.66971
# Poissons Ratio (z) = 0.69187 0.57760
#
# Static dielectric constant tensor:
#      x y z
#    x 3.703570 0.000000 0.000000 
#    y 0.000000 3.567160 0.000000 
#    z 0.000000 0.000000 3.575690 
# 
# 
# High freq. dielectric constant tensor:
#      x y z
#    x 1.783750 0.000000 0.000000 
#    y 0.000000 1.770160 0.000000 
#    z 0.000000 0.000000 1.772190 
# 
# From -- ./inp_files/2310.got.cif
#   From: 2010.03.12/outbox.cif.g09.slc.cpg/sg55_2_cif.got.tgz:2310.got - 2010.04.16 15:19:21.
