data_PCOD8226549
_publ_section_title
;
Structure prediction by ZEFSAII (Michael W. Deem and Ramdas Pophale) SiO2 
 PCOD8226549
Probable space group: P B A M
;
_chemical_formula_sum "Si O2"
_cell_formula_units_Z 56
_cell_length_a 21.515419
_cell_length_b 14.658806
_cell_length_c 9.057164
_cell_angle_alpha 90.000000
_cell_angle_beta 90.000000
_cell_angle_gamma 90.000000
_cell_volume 2856.542152
_symmetry_space_group_name_H-M "P B A M"
_symmetry_group_IT_number 55
_symmetry_cell_setting 'orthorhombic'
loop_
_space_group_symop_operation_xyz
x,y,z
-x,-y,z
1/2+x,1/2-y,-z
1/2-x,1/2+y,-z
-x,-y,-z
x,y,-z
1/2-x,1/2+y,z
1/2+x,1/2-y,z
loop_
_atom_site_type_symbol
_atom_site_label
_atom_site_fract_x
_atom_site_fract_y
_atom_site_fract_z
Si Si1 0.672594 0.055250 0.669250
Si Si2 0.398368 0.401894 0.827356
Si Si3 0.109659 0.087020 0.324529
Si Si4 0.483405 0.716144 0.829422
Si Si5 0.749408 0.385646 0.675251
Si Si6 0.284358 0.312990 0.669797
Si Si7 0.456223 0.920463 0.827754
O O1 0.654646 0.037760 0.500000
O O2 0.716874 0.142334 0.685384
O O3 0.611101 0.075461 0.757790
O O4 0.707056 0.966372 0.736108
O O5 0.417888 0.494866 0.745897
O O6 0.449913 0.326262 0.790695
O O7 0.332577 0.366633 0.769929
O O8 0.393507 0.422050 0.000000
O O9 0.106784 0.079124 0.500000
O O10 0.069290 0.172630 0.272782
O O11 0.179640 0.101334 0.264537
O O12 0.487833 0.823337 0.793031
O O13 0.465782 0.698856 0.000000
O O14 0.745802 0.389058 0.500000
O O15 0.778458 0.290209 0.728499
O O16 0.307067 0.317604 0.500000
O O17 0.500000 0.000000 0.761146
O O18 0.447035 0.936261 0.000000
#
# Coordination Sequence:
#
# PCOD8226549 Si02
#       7
#     8   8   8   8   8   8   8
#     4  10  20  38  60  86 119 151 191 245 298 345
#     4  11  23  38  58  86 121 157 194 241 298 352
#     4  11  21  39  64  90 118 154 196 240 296 357
#     4  10  23  41  58  82 120 159 196 246 298 345
#     4   9  19  35  58  86 116 149 185 238 297 343
#     4  10  20  37  60  85 117 153 194 243 292 347
#     4  10  23  42  62  84 118 161 204 246 292 348
#
# _framework density 19.604122
#
# number of rings (size 3 to 8) (size 9 to 14) (size 15 to 20)
#    0.000    1.857    1.429    2.143    2.000    5.429 
#    0.000    1.429    0.000    0.000    0.000    0.000 
#    0.000    0.000    0.000    0.000    0.000    0.000 
#
# Total GULP energy -694640.218403 kJ/mol
# GULP energy per Si atom -12404.289614 kJ/mol
# Density = 1.955950 g / cm^3
# Si number density = 19.604122 Si / 1000 Ang^3
#
#
#
# Elastic Constant Matrix: (Units=GPa)
#
#
# Indices 1 2 3 4 5 6 
#
# 1 84.1358 25.8314 33.6822 0.0000 0.0000 0.0000
# 2 25.8314 123.3193 34.2962 0.0000 0.0000 0.0000
# 3 33.6822 34.2962 57.5553 0.0000 0.0000 0.0000
# 4 0.0000 0.0000 0.0000 27.0659 0.0000 0.0000
# 5 0.0000 0.0000 0.0000 0.0000 32.1285 0.0000
# 6 0.0000 0.0000 0.0000 0.0000 0.0000 34.3425
#
#
#
# Elastic Compliance Matrix: (Units=1/GPa)
#
#
# Indices 1 2 3 4 5 6 
#
# 1 0.015600 -0.000874 -0.008609 0.000000 0.000000 0.000000
# 2 -0.000874 0.009769 -0.005310 0.000000 0.000000 0.000000
# 3 -0.008609 -0.005310 0.025577 0.000000 0.000000 0.000000
# 4 0.000000 0.000000 0.000000 0.036947 0.000000 0.000000
# 5 0.000000 0.000000 0.000000 0.000000 0.031125 0.000000
# 6 0.000000 0.000000 0.000000 0.000000 0.000000 0.029118
#
#
# Mechanical properties :
#
#
# Convention : Reuss Voigt Hill
#
# Bulk Modulus (GPa) = 46.81420 50.29225 48.55322
# Shear Modulus (GPa) = 27.05029 30.12073 28.58551
#
# Velocity S-wave (km/s) = 3.71863 3.92401 3.82270
# Velocity P-wave (km/s) = 6.50917 6.80000 6.65617
#
# Compressibility (1/GPa) = 0.02136104
#
# Stress axis : x y z
#
# Youngs Moduli (GPa) = 64.10188 102.36762 39.09806
#
# Poissons Ratio (x) = 0.08942 0.33659
# Poissons Ratio (y) = 0.05599 0.20760
# Poissons Ratio (z) = 0.55185 0.54355
#
# Static dielectric constant tensor:
#      x y z
#    x 3.531450 0.000000 0.000000 
#    y 0.000000 3.987460 0.000000 
#    z 0.000000 0.000000 3.381550 
# 
# 
# High freq. dielectric constant tensor:
#      x y z
#    x 1.767450 0.000000 0.000000 
#    y 0.000000 1.782310 0.000000 
#    z 0.000000 0.000000 1.743700 
# 
# From -- ./inp_files/8699.got.cif
#   From: 2010.03.12/outbox.cif.g09.slc.cpg/sg55_5_cif.got.tgz:8699.got - 2010.04.16 15:19:21.
