data_PCOD8226613
_publ_section_title
;
Structure prediction by ZEFSAII (Michael W. Deem and Ramdas Pophale) SiO2 
 PCOD8226613
Probable space group: P B A M
;
_chemical_formula_sum "Si O2"
_cell_formula_units_Z 48
_cell_length_a 18.837661
_cell_length_b 14.966159
_cell_length_c 8.810050
_cell_angle_alpha 90.000000
_cell_angle_beta 90.000000
_cell_angle_gamma 90.000000
_cell_volume 2483.794752
_symmetry_space_group_name_H-M "P B A M"
_symmetry_group_IT_number 55
_symmetry_cell_setting 'orthorhombic'
loop_
_space_group_symop_operation_xyz
x,y,z
-x,-y,z
1/2+x,1/2-y,-z
1/2-x,1/2+y,-z
-x,-y,-z
x,y,-z
1/2-x,1/2+y,z
1/2+x,1/2-y,z
loop_
_atom_site_type_symbol
_atom_site_label
_atom_site_fract_x
_atom_site_fract_y
_atom_site_fract_z
Si Si1 0.758320 0.703125 0.322004
Si Si2 0.564148 0.442088 0.320212
Si Si3 0.822592 0.360915 0.821341
Si Si4 0.473240 0.097125 0.320132
Si Si5 0.281150 0.498566 0.677126
Si Si6 0.416102 0.756234 0.319426
O O1 0.752465 0.723488 0.500000
O O2 0.701605 0.764301 0.237025
O O3 0.740447 0.601556 0.283868
O O4 0.837122 0.722966 0.259557
O O5 0.500000 0.500000 0.248724
O O6 0.556609 0.439588 0.500000
O O7 0.637701 0.487913 0.272709
O O8 0.560266 0.340812 0.257469
O O9 0.898054 0.384295 0.752453
O O10 0.766603 0.435446 0.773538
O O11 0.829188 0.358429 0.000000
O O12 0.465116 0.103136 0.500000
O O13 0.529465 0.169681 0.257606
O O14 0.500000 0.000000 0.269231
O O15 0.270228 0.521085 0.500000
O O16 0.415084 0.758520 0.500000
#
# Coordination Sequence:
#
# PCOD8226613 Si02
#       6
#     8   8   8   8   8   8
#     4  10  20  37  63  90 113 148 200 252 297 342
#     4   9  17  29  51  86 116 140 180 239 302 345
#     4  12  25  39  57  86 127 165 194 235 297 369
#     4  10  21  38  62  89 115 148 199 254 299 348
#     4  10  20  37  63  87 113 152 203 258 297 339
#     4   9  17  32  56  84 114 143 184 247 300 339
#
# _framework density 19.325268000000001
#
# number of rings (size 3 to 8) (size 9 to 14) (size 15 to 20)
#    0.000    2.000    1.667    2.500    2.333    3.667 
#    0.000    0.833    0.000    0.500    0.000    0.000 
#    0.000    0.000    0.000    0.000    0.000    0.000 
#
# Total GULP energy -595306.810496 kJ/mol
# GULP energy per Si atom -12402.225219 kJ/mol
# Density = 1.928128 g / cm^3
# Si number density = 19.325268 Si / 1000 Ang^3
#
#
#
# Elastic Constant Matrix: (Units=GPa)
#
#
# Indices 1 2 3 4 5 6 
#
# 1 76.2809 19.5911 -3.0504 0.0000 0.0000 0.0000
# 2 19.5911 96.7079 -36.6049 0.0000 0.0000 0.0000
# 3 -3.0504 -36.6049 -73.2598 0.0000 0.0000 0.0000
# 4 0.0000 0.0000 0.0000 26.0889 0.0000 0.0000
# 5 0.0000 0.0000 0.0000 0.0000 1.9405 0.0000
# 6 0.0000 0.0000 0.0000 0.0000 0.0000 42.5050
#
#
#
# Elastic Compliance Matrix: (Units=1/GPa)
#
#
# Indices 1 2 3 4 5 6 
#
# 1 0.013787 -0.002532 0.000691 0.000000 0.000000 0.000000
# 2 -0.002532 0.009161 -0.004472 0.000000 0.000000 0.000000
# 3 0.000691 -0.004472 -0.011444 0.000000 0.000000 0.000000
# 4 0.000000 0.000000 0.000000 0.038331 0.000000 0.000000
# 5 0.000000 0.000000 0.000000 0.000000 0.515329 0.000000
# 6 0.000000 0.000000 0.000000 0.000000 0.000000 0.023527
#
#
# Mechanical properties :
#
#
# Convention : Reuss Voigt Hill
#
# Bulk Modulus (GPa) = -891.61660 6.62230 -442.49715
# Shear Modulus (GPa) = 8.32029 22.09309 15.20669
#
# Velocity S-wave (km/s) = 2.07720 3.38483 2.80818
# Velocity P-wave (km/s) = 21.36872 4.32554 14.79716
#
# Compressibility (1/GPa) = -0.00112156
#
# Stress axis : x y z
#
# Youngs Moduli (GPa) = 72.53086 109.16270 -87.37858
#
# Poissons Ratio (x) = 0.27635 0.06036
# Poissons Ratio (y) = 0.18361 -0.39074
# Poissons Ratio (z) = -0.05011 0.48815
#
# Static dielectric constant tensor:
#      x y z
#    x 3.769610 0.000000 0.000000 
#    y 0.000000 4.233380 0.000000 
#    z 0.000000 0.000000 3.080660 
# 
# 
# High freq. dielectric constant tensor:
#      x y z
#    x 1.768810 0.000000 0.000000 
#    y 0.000000 1.772780 0.000000 
#    z 0.000000 0.000000 1.699790 
# 
# From -- ./inp_files/5568.got.cif
#   From: 2010.03.12/outbox.cif.g09.slc.cpg/sg55_3_cif.got.tgz:5568.got - 2010.04.16 15:19:21.
