data_PCOD8226320
_publ_section_title
;
Structure prediction by ZEFSAII (Michael W. Deem and Ramdas Pophale) SiO2 
 PCOD8226320
Probable space group: P B A M
;
_chemical_formula_sum "Si O2"
_cell_formula_units_Z 64
_cell_length_a 18.609562
_cell_length_b 19.655781
_cell_length_c 9.150863
_cell_angle_alpha 90.000000
_cell_angle_beta 90.000000
_cell_angle_gamma 90.000000
_cell_volume 3347.252771
_symmetry_space_group_name_H-M "P B A M"
_symmetry_group_IT_number 55
_symmetry_cell_setting 'orthorhombic'
loop_
_space_group_symop_operation_xyz
x,y,z
-x,-y,z
1/2+x,1/2-y,-z
1/2-x,1/2+y,-z
-x,-y,-z
x,y,-z
1/2-x,1/2+y,z
1/2+x,1/2-y,z
loop_
_atom_site_type_symbol
_atom_site_label
_atom_site_fract_x
_atom_site_fract_y
_atom_site_fract_z
Si Si1 0.804198 0.419928 0.828502
Si Si2 0.052289 0.562282 0.331188
Si Si3 0.191795 0.738127 0.828988
Si Si4 0.292692 0.840394 0.328316
Si Si5 0.539479 0.706888 0.169175
Si Si6 0.436898 0.448093 0.831825
Si Si7 0.290838 0.475230 0.327064
Si Si8 0.453854 0.813541 0.328758
O O1 0.878408 0.449765 0.767551
O O2 0.798938 0.340627 0.790504
O O3 0.738096 0.457062 0.750344
O O4 0.800382 0.433760 0.000000
O O5 0.076333 0.565744 0.500000
O O6 0.000000 0.500000 0.303674
O O7 0.012118 0.630544 0.281137
O O8 0.254858 0.777600 0.749158
O O9 0.115303 0.765040 0.769678
O O10 0.198263 0.752862 0.000000
O O11 0.283370 0.830541 0.500000
O O12 0.258289 0.911637 0.278018
O O13 0.375698 0.839748 0.279770
O O14 0.532999 0.626980 0.198998
O O15 0.473475 0.742791 0.251339
O O16 0.532201 0.725203 0.000000
O O17 0.500000 0.500000 0.794190
O O18 0.371531 0.462898 0.724687
O O19 0.411331 0.455053 0.000000
O O20 0.289595 0.485793 0.500000
O O21 0.455270 0.800819 0.500000
#
# Coordination Sequence:
#
# PCOD8226320 Si02
#       8
#     8   8   8   8   8   8   8   8
#     4  11  23  38  58  86 120 155 198 245 292 354
#     4  10  20  36  57  81 116 156 193 239 294 348
#     4  10  21  38  60  85 115 154 199 244 293 353
#     4  10  22  39  60  88 119 155 200 246 295 355
#     4  10  20  38  61  85 118 154 195 244 297 357
#     4  10  22  41  65  90 119 157 201 250 306 360
#     4  11  23  40  62  88 122 161 203 249 300 358
#     4  10  21  36  57  86 118 151 193 242 293 352
#
# _framework density 19.120156999999999
#
# number of rings (size 3 to 8) (size 9 to 14) (size 15 to 20)
#    0.000    1.750    2.500    1.500    0.000    6.500 
#    0.000    5.000    0.000    0.000    0.000    0.000 
#    0.000    0.000    0.000    0.000    0.000    0.000 
#
# Total GULP energy -793953.180930 kJ/mol
# GULP energy per Si atom -12405.518452 kJ/mol
# Density = 1.907664 g / cm^3
# Si number density = 19.120157 Si / 1000 Ang^3
#
#
#
# Elastic Constant Matrix: (Units=GPa)
#
#
# Indices 1 2 3 4 5 6 
#
# 1 89.1533 47.4306 40.3413 0.0000 0.0000 0.0000
# 2 47.4306 117.2559 45.6947 0.0000 0.0000 0.0000
# 3 40.3413 45.6947 55.4444 0.0000 0.0000 0.0000
# 4 0.0000 0.0000 0.0000 29.0584 0.0000 0.0000
# 5 0.0000 0.0000 0.0000 0.0000 34.7064 0.0000
# 6 0.0000 0.0000 0.0000 0.0000 0.0000 31.8130
#
#
#
# Elastic Compliance Matrix: (Units=1/GPa)
#
#
# Indices 1 2 3 4 5 6 
#
# 1 0.017460 -0.003111 -0.010140 0.000000 0.000000 0.000000
# 2 -0.003111 0.013118 -0.008547 0.000000 0.000000 0.000000
# 3 -0.010140 -0.008547 0.032458 0.000000 0.000000 0.000000
# 4 0.000000 0.000000 0.000000 0.034413 0.000000 0.000000
# 5 0.000000 0.000000 0.000000 0.000000 0.028813 0.000000
# 6 0.000000 0.000000 0.000000 0.000000 0.000000 0.031434
#
#
# Mechanical properties :
#
#
# Convention : Reuss Voigt Hill
#
# Bulk Modulus (GPa) = 51.44235 58.75409 55.09822
# Shear Modulus (GPa) = 24.06477 27.67469 25.86973
#
# Velocity S-wave (km/s) = 3.55153 3.80861 3.68232
# Velocity P-wave (km/s) = 6.61672 7.08070 6.85264
#
# Compressibility (1/GPa) = 0.01943924
#
# Stress axis : x y z
#
# Youngs Moduli (GPa) = 57.27378 76.23246 30.80891
#
# Poissons Ratio (x) = 0.23717 0.31240
# Poissons Ratio (y) = 0.17819 0.26334
# Poissons Ratio (z) = 0.58074 0.65159
#
# Static dielectric constant tensor:
#      x y z
#    x 3.483990 0.000000 0.000000 
#    y 0.000000 3.663250 0.000000 
#    z 0.000000 0.000000 3.412300 
# 
# 
# High freq. dielectric constant tensor:
#      x y z
#    x 1.745820 0.000000 0.000000 
#    y 0.000000 1.755030 0.000000 
#    z 0.000000 0.000000 1.737820 
# 
# From -- ./inp_files/8063.got.cif
#   From: 2010.03.12/outbox.cif.g09.slc.cpg/sg55_5_cif.got.tgz:8063.got - 2010.04.16 15:19:21.
