data_PCOD8226376
_publ_section_title
;
Structure prediction by ZEFSAII (Michael W. Deem and Ramdas Pophale) SiO2 
 PCOD8226376
Probable space group: P B A M
;
_chemical_formula_sum "Si O2"
_cell_formula_units_Z 56
_cell_length_a 21.827238
_cell_length_b 14.457249
_cell_length_c 8.693352
_cell_angle_alpha 90.000000
_cell_angle_beta 90.000000
_cell_angle_gamma 90.000000
_cell_volume 2743.289933
_symmetry_space_group_name_H-M "P B A M"
_symmetry_group_IT_number 55
_symmetry_cell_setting 'orthorhombic'
loop_
_space_group_symop_operation_xyz
x,y,z
-x,-y,z
1/2+x,1/2-y,-z
1/2-x,1/2+y,-z
-x,-y,-z
x,y,-z
1/2-x,1/2+y,z
1/2+x,1/2-y,z
loop_
_atom_site_type_symbol
_atom_site_label
_atom_site_fract_x
_atom_site_fract_y
_atom_site_fract_z
Si Si1 0.428927 0.585948 0.818729
Si Si2 0.804582 0.420056 0.818411
Si Si3 0.084785 0.708189 0.819767
Si Si4 0.662186 0.109941 0.318834
Si Si5 0.522888 0.102802 0.321633
Si Si6 0.559089 0.606163 0.319103
Si Si7 0.810010 0.800077 0.180955
O O1 0.412348 0.481752 0.768388
O O2 0.488408 0.620886 0.728180
O O3 0.373561 0.652381 0.770912
O O4 0.442030 0.588277 0.000000
O O5 0.865021 0.365522 0.762308
O O6 0.802511 0.521291 0.745732
O O7 0.745194 0.364495 0.760775
O O8 0.804415 0.431603 0.000000
O O9 0.097471 0.804063 0.731331
O O10 0.017271 0.671940 0.779887
O O11 0.090176 0.727042 0.000000
O O12 0.664098 0.104172 0.500000
O O13 0.592069 0.111099 0.260376
O O14 0.696671 0.201318 0.262067
O O15 0.516695 0.131005 0.500000
O O16 0.500000 0.000000 0.292191
O O17 0.563971 0.590006 0.500000
O O18 0.805801 0.784359 0.000000
#
# Coordination Sequence:
#
# PCOD8226376 Si02
#       7
#     8   8   8   8   8   8   8
#     4  10  20  38  62  87 114 148 196 244 285 342
#     4  10  23  42  61  83 115 155 197 241 287 340
#     4  11  22  36  58  87 117 153 199 243 286 346
#     4  11  23  39  62  90 120 154 193 242 296 353
#     4  10  20  36  58  86 122 156 186 235 304 359
#     4  11  22  36  58  86 121 155 186 236 298 351
#     4  10  23  42  63  85 115 157 199 242 291 345
#
# _framework density 20.413446
#
# number of rings (size 3 to 8) (size 9 to 14) (size 15 to 20)
#    0.000    1.571    1.429    4.286    0.000    7.143 
#    0.000    5.714    0.000    0.000    0.000    0.000 
#    0.000    0.000    0.000    0.000    0.000    0.000 
#
# Total GULP energy -694727.479843 kJ/mol
# GULP energy per Si atom -12405.847854 kJ/mol
# Density = 2.036698 g / cm^3
# Si number density = 20.413446 Si / 1000 Ang^3
#
#
#
# Elastic Constant Matrix: (Units=GPa)
#
#
# Indices 1 2 3 4 5 6 
#
# 1 79.1515 53.7100 22.0238 0.0000 0.0000 0.0000
# 2 53.7100 150.7175 31.4256 0.0000 0.0000 0.0000
# 3 22.0238 31.4256 49.1343 0.0000 0.0000 0.0000
# 4 0.0000 0.0000 0.0000 31.1957 0.0000 0.0000
# 5 0.0000 0.0000 0.0000 0.0000 20.1248 0.0000
# 6 0.0000 0.0000 0.0000 0.0000 0.0000 28.9146
#
#
#
# Elastic Compliance Matrix: (Units=1/GPa)
#
#
# Indices 1 2 3 4 5 6 
#
# 1 0.017464 -0.005298 -0.004440 0.000000 0.000000 0.000000
# 2 -0.005298 0.009263 -0.003550 0.000000 0.000000 0.000000
# 3 -0.004440 -0.003550 0.024613 0.000000 0.000000 0.000000
# 4 0.000000 0.000000 0.000000 0.032056 0.000000 0.000000
# 5 0.000000 0.000000 0.000000 0.000000 0.049690 0.000000
# 6 0.000000 0.000000 0.000000 0.000000 0.000000 0.034585
#
#
# Mechanical properties :
#
#
# Convention : Reuss Voigt Hill
#
# Bulk Modulus (GPa) = 40.37894 54.81357 47.59625
# Shear Modulus (GPa) = 24.69130 27.50327 26.09728
#
# Velocity S-wave (km/s) = 3.48165 3.67456 3.57940
# Velocity P-wave (km/s) = 5.99883 6.70173 6.36000
#
# Compressibility (1/GPa) = 0.02476539
#
# Stress axis : x y z
#
# Youngs Moduli (GPa) = 57.25945 107.95564 40.62927
#
# Poissons Ratio (x) = 0.57194 0.18038
# Poissons Ratio (y) = 0.30336 0.14423
# Poissons Ratio (z) = 0.25422 0.38322
#
# Static dielectric constant tensor:
#      x y z
#    x 3.749430 0.000000 0.000000 
#    y 0.000000 3.862900 0.000000 
#    z 0.000000 0.000000 3.551840 
# 
# 
# High freq. dielectric constant tensor:
#      x y z
#    x 1.787460 0.000000 0.000000 
#    y 0.000000 1.815430 0.000000 
#    z 0.000000 0.000000 1.794090 
# 
# From -- ./inp_files/8774.got.cif
#   From: 2010.03.12/outbox.cif.g09.slc.cpg/sg55_5_cif.got.tgz:8774.got - 2010.04.16 15:19:21.
