data_PCOD8226832
_publ_section_title
;
Structure prediction by ZEFSAII (Michael W. Deem and Ramdas Pophale) SiO2 
 PCOD8226832
Probable space group: P B A M
;
_chemical_formula_sum "Si O2"
_cell_formula_units_Z 48
_cell_length_a 23.430992
_cell_length_b 11.837197
_cell_length_c 9.237495
_cell_angle_alpha 90.000000
_cell_angle_beta 90.000000
_cell_angle_gamma 90.000000
_cell_volume 2562.086378
_symmetry_space_group_name_H-M "P B A M"
_symmetry_group_IT_number 55
_symmetry_cell_setting 'orthorhombic'
loop_
_space_group_symop_operation_xyz
x,y,z
-x,-y,z
1/2+x,1/2-y,-z
1/2-x,1/2+y,-z
-x,-y,-z
x,y,-z
1/2-x,1/2+y,z
1/2+x,1/2-y,z
loop_
_atom_site_type_symbol
_atom_site_label
_atom_site_fract_x
_atom_site_fract_y
_atom_site_fract_z
Si Si1 0.667835 0.415340 0.831436
Si Si2 0.463986 0.214324 0.331625
Si Si3 0.352747 0.357542 0.331196
Si Si4 0.575897 0.227199 0.167556
Si Si5 0.901761 0.472024 0.833001
Si Si6 0.708522 0.831507 0.832133
O O1 0.646537 0.519597 0.737802
O O2 0.627241 0.310639 0.795695
O O3 0.731286 0.381798 0.782557
O O4 0.666020 0.448515 0.000000
O O5 0.473787 0.193840 0.500000
O O6 0.414539 0.304398 0.300615
O O7 0.521374 0.263435 0.261421
O O8 0.448695 0.094296 0.260009
O O9 0.339208 0.366193 0.500000
O O10 0.303873 0.281215 0.258564
O O11 0.597007 0.102561 0.211105
O O12 0.558533 0.233580 0.000000
O O13 0.838462 0.426978 0.799254
O O14 0.917955 0.453434 0.000000
O O15 0.709543 0.796428 0.000000
#
# Coordination Sequence:
#
# PCOD8226832 Si02
#       6
#     8   8   8   8   8   8
#     4  10  22  37  58  85 112 146 187 232 276 329
#     4  10  21  37  56  79 110 149 188 226 273 329
#     4  10  22  39  57  79 112 149 186 227 275 333
#     4  10  21  35  54  84 115 142 182 232 279 325
#     4   9  18  34  57  84 111 142 179 228 281 325
#     4   9  19  36  61  84 108 143 184 229 277 329
#
# _framework density 18.734729999999999
#
# number of rings (size 3 to 8) (size 9 to 14) (size 15 to 20)
#    0.000    2.333    0.000    1.500    2.333    6.667 
#    0.000    3.333    0.000    0.000    0.000    0.000 
#    0.000    0.000    0.000    0.000    0.000    0.000 
#
# Total GULP energy -595453.353080 kJ/mol
# GULP energy per Si atom -12405.278189 kJ/mol
# Density = 1.869209 g / cm^3
# Si number density = 18.734730 Si / 1000 Ang^3
#
#
#
# Elastic Constant Matrix: (Units=GPa)
#
#
# Indices 1 2 3 4 5 6 
#
# 1 108.4956 42.8859 50.3260 0.0000 0.0000 0.0000
# 2 42.8859 102.9248 49.1578 0.0000 0.0000 0.0000
# 3 50.3260 49.1578 76.4846 0.0000 0.0000 0.0000
# 4 0.0000 0.0000 0.0000 21.3153 0.0000 0.0000
# 5 0.0000 0.0000 0.0000 0.0000 21.6228 0.0000
# 6 0.0000 0.0000 0.0000 0.0000 0.0000 19.4452
#
#
#
# Elastic Compliance Matrix: (Units=1/GPa)
#
#
# Indices 1 2 3 4 5 6 
#
# 1 0.013546 -0.002002 -0.007626 0.000000 0.000000 0.000000
# 2 -0.002002 0.014315 -0.007883 0.000000 0.000000 0.000000
# 3 -0.007626 -0.007883 0.023159 0.000000 0.000000 0.000000
# 4 0.000000 0.000000 0.000000 0.046915 0.000000 0.000000
# 5 0.000000 0.000000 0.000000 0.000000 0.046247 0.000000
# 6 0.000000 0.000000 0.000000 0.000000 0.000000 0.051427
#
#
# Mechanical properties :
#
#
# Convention : Reuss Voigt Hill
#
# Bulk Modulus (GPa) = 62.51111 63.62717 63.06914
# Shear Modulus (GPa) = 21.18963 22.17901 21.68432
#
# Velocity S-wave (km/s) = 3.36673 3.44444 3.40581
# Velocity P-wave (km/s) = 6.96793 7.06079 7.01451
#
# Compressibility (1/GPa) = 0.01599716
#
# Stress axis : x y z
#
# Youngs Moduli (GPa) = 73.82407 69.85636 43.17892
#
# Poissons Ratio (x) = 0.13983 0.32930
# Poissons Ratio (y) = 0.14777 0.34040
# Poissons Ratio (z) = 0.56301 0.55071
#
# Static dielectric constant tensor:
#      x y z
#    x 3.535840 0.000000 0.000000 
#    y 0.000000 3.403390 0.000000 
#    z 0.000000 0.000000 3.414410 
# 
# 
# High freq. dielectric constant tensor:
#      x y z
#    x 1.734620 0.000000 0.000000 
#    y 0.000000 1.727770 0.000000 
#    z 0.000000 0.000000 1.722700 
# 
# From -- ./inp_files/4050.got.cif
#   From: 2010.03.12/outbox.cif.g09.slc.cpg/sg55_3_cif.got.tgz:4050.got - 2010.04.16 15:19:21.
