data_PCOD8226198
_publ_section_title
;
Structure prediction by ZEFSAII (Michael W. Deem and Ramdas Pophale) SiO2 
 PCOD8226198
Probable space group: P B A M
;
_chemical_formula_sum "Si O2"
_cell_formula_units_Z 48
_cell_length_a 5.064811
_cell_length_b 16.224494
_cell_length_c 28.639665
_cell_angle_alpha 90.000000
_cell_angle_beta 90.000000
_cell_angle_gamma 90.000000
_cell_volume 2353.435708
_symmetry_space_group_name_H-M "P B A M"
_symmetry_group_IT_number 55
_symmetry_cell_setting 'orthorhombic'
loop_
_space_group_symop_operation_xyz
x,y,z
-x,-y,z
1/2+x,1/2-y,-z
1/2-x,1/2+y,-z
-x,-y,-z
x,y,-z
1/2-x,1/2+y,z
1/2+x,1/2-y,z
loop_
_atom_site_type_symbol
_atom_site_label
_atom_site_fract_x
_atom_site_fract_y
_atom_site_fract_z
Si Si1 0.110953 0.694708 0.700828
Si Si2 0.784954 0.802458 0.052390
Si Si3 0.259747 0.553333 0.123019
Si Si4 0.986680 0.402255 0.392244
Si Si5 0.009371 0.902261 0.551815
Si Si6 0.757148 0.945364 0.771552
O O1 0.314481 0.770486 0.703023
O O2 0.197349 0.637012 0.743316
O O3 0.116029 0.640745 0.654288
O O4 0.584129 0.726859 0.060016
O O5 0.710987 0.869732 0.090183
O O6 0.748846 0.838457 0.000000
O O7 0.500000 0.500000 0.102522
O O8 0.327248 0.582652 0.175682
O O9 0.000000 0.500000 0.122950
O O10 0.269157 0.370912 0.411470
O O11 0.000000 0.500000 0.383031
O O12 0.777794 0.374052 0.431382
O O13 0.066293 0.866677 0.500000
O O14 0.000000 0.000000 0.549850
O O15 0.500000 0.000000 0.769793
O O16 0.000000 0.000000 0.750858
#
# Coordination Sequence:
#
# PCOD8226198 Si02
#       6
#     8   8   8   8   8   8
#     4  12  25  39  58  85 116 148 187 234 282 337
#     4  10  21  36  55  82 118 158 195 233 281 339
#     4  10  21  37  59  86 113 146 190 242 290 335
#     4  10  20  35  57  81 109 146 182 223 276 327
#     4   9  17  31  55  85 109 135 182 233 268 313
#     4  10  22  41  62  84 113 148 190 236 287 345
#
# _framework density 20.395713000000001
#
# number of rings (size 3 to 8) (size 9 to 14) (size 15 to 20)
#    0.000    1.833    0.000    4.000    0.000    6.000 
#    0.000    0.000    0.000   10.000    0.000    0.000 
#    0.000    0.000    0.000    0.000    0.000    0.000 
#
# Total GULP energy -595161.867715 kJ/mol
# GULP energy per Si atom -12399.205577 kJ/mol
# Density = 2.034929 g / cm^3
# Si number density = 20.395713 Si / 1000 Ang^3
#
#
#
# Elastic Constant Matrix: (Units=GPa)
#
#
# Indices 1 2 3 4 5 6 
#
# 1 113.5319 19.2448 24.6997 0.0000 0.0000 0.0000
# 2 19.2448 65.0469 54.0963 0.0000 0.0000 0.0000
# 3 24.6997 54.0963 113.9725 0.0000 0.0000 0.0000
# 4 0.0000 0.0000 0.0000 411.9299 0.0000 0.0000
# 5 0.0000 0.0000 0.0000 0.0000 33.8961 0.0000
# 6 0.0000 0.0000 0.0000 0.0000 0.0000 32.0943
#
#
#
# Elastic Compliance Matrix: (Units=1/GPa)
#
#
# Indices 1 2 3 4 5 6 
#
# 1 0.009368 -0.001790 -0.001181 0.000000 0.000000 0.000000
# 2 -0.001790 0.025742 -0.011830 0.000000 0.000000 0.000000
# 3 -0.001181 -0.011830 0.014645 0.000000 0.000000 0.000000
# 4 0.000000 0.000000 0.000000 0.002428 0.000000 0.000000
# 5 0.000000 0.000000 0.000000 0.000000 0.029502 0.000000
# 6 0.000000 0.000000 0.000000 0.000000 0.000000 0.031158
#
#
# Mechanical properties :
#
#
# Convention : Reuss Voigt Hill
#
# Bulk Modulus (GPa) = 49.61896 54.29255 51.95576
# Shear Modulus (GPa) = 33.52053 108.55142 71.03597
#
# Velocity S-wave (km/s) = 4.05842 7.30330 5.90800
# Velocity P-wave (km/s) = 6.80749 9.88913 8.48932
#
# Compressibility (1/GPa) = 0.02015359
#
# Stress axis : x y z
#
# Youngs Moduli (GPa) = 106.74224 38.84748 68.28216
#
# Poissons Ratio (x) = 0.06953 0.08063
# Poissons Ratio (y) = 0.19104 0.80780
# Poissons Ratio (z) = 0.12604 0.45958
#
# Static dielectric constant tensor:
#      x y z
#    x 3.987930 0.000000 0.000000 
#    y 0.000000 3.325240 0.000000 
#    z 0.000000 0.000000 3.891850 
# 
# 
# High freq. dielectric constant tensor:
#      x y z
#    x 1.819130 0.000000 0.000000 
#    y 0.000000 1.772590 0.000000 
#    z 0.000000 0.000000 1.802660 
# 
# From -- ./inp_files/23813.got.cif
#   From: 2010.03.12/outbox.cif.g09.slc.cpg/sg55_12_cif.got.tgz:23813.got - 2010.04.16 15:19:21.
