data_PCOD8226131
_publ_section_title
;
Structure prediction by ZEFSAII (Michael W. Deem and Ramdas Pophale) SiO2 
 PCOD8226131
Probable space group: P B A M
;
_chemical_formula_sum "Si O2"
_cell_formula_units_Z 64
_cell_length_a 20.601236
_cell_length_b 19.112087
_cell_length_c 8.940168
_cell_angle_alpha 90.000000
_cell_angle_beta 90.000000
_cell_angle_gamma 90.000000
_cell_volume 3520.035723
_symmetry_space_group_name_H-M "P B A M"
_symmetry_group_IT_number 55
_symmetry_cell_setting 'orthorhombic'
loop_
_space_group_symop_operation_xyz
x,y,z
-x,-y,z
1/2+x,1/2-y,-z
1/2-x,1/2+y,-z
-x,-y,-z
x,y,-z
1/2-x,1/2+y,z
1/2+x,1/2-y,z
loop_
_atom_site_type_symbol
_atom_site_label
_atom_site_fract_x
_atom_site_fract_y
_atom_site_fract_z
Si Si1 0.811693 0.536869 0.177141
Si Si2 0.489934 0.171655 0.671172
Si Si3 0.133904 0.175495 0.675388
Si Si4 0.139778 0.328903 0.675868
Si Si5 0.687256 0.470046 0.324097
Si Si6 0.433940 0.458870 0.826240
Si Si7 0.989434 0.168791 0.674064
Si Si8 0.561398 0.957064 0.823177
O O1 0.815986 0.616037 0.236423
O O2 0.747480 0.500881 0.236913
O O3 0.872982 0.492613 0.237571
O O4 0.809084 0.538781 0.000000
O O5 0.481568 0.149939 0.500000
O O6 0.564562 0.160869 0.719995
O O7 0.467358 0.251179 0.696781
O O8 0.442855 0.122612 0.767792
O O9 0.122032 0.183679 0.500000
O O10 0.161134 0.250742 0.730643
O O11 0.062296 0.159296 0.740350
O O12 0.183057 0.112906 0.715146
O O13 0.151091 0.339317 0.500000
O O14 0.696039 0.481989 0.500000
O O15 0.621893 0.506773 0.271816
O O16 0.500000 0.500000 0.793790
O O17 0.441820 0.379104 0.771846
O O18 0.414493 0.460425 0.000000
O O19 0.985052 0.146920 0.500000
O O20 0.500000 0.000000 0.758965
O O21 0.561068 0.957408 0.000000
#
# Coordination Sequence:
#
# PCOD8226131 Si02
#       8
#     8   8   8   8   8   8   8   8
#     4  11  23  38  54  79 115 149 184 229 274 331
#     4   9  18  31  54  85 112 138 181 237 279 319
#     4   8  16  32  56  82 107 137 181 230 271 321
#     4   9  17  33  56  82 108 139 182 229 275 326
#     4  11  22  38  60  82 108 148 188 227 276 329
#     4  11  22  35  54  84 116 144 179 224 271 324
#     4   9  17  33  55  82 112 143 182 229 278 324
#     4  10  20  35  54  77 109 148 185 220 274 337
#
# _framework density 18.181632
#
# number of rings (size 3 to 8) (size 9 to 14) (size 15 to 20)
#    0.000    2.250    2.500    2.625    0.000    2.250 
#    0.000    4.375    0.000    4.500    0.000    0.000 
#    0.000    0.000    0.000    0.000    0.000    0.000 
#
# Total GULP energy -793566.231725 kJ/mol
# GULP energy per Si atom -12399.472371 kJ/mol
# Density = 1.814025 g / cm^3
# Si number density = 18.181632 Si / 1000 Ang^3
#
#
#
# Elastic Constant Matrix: (Units=GPa)
#
#
# Indices 1 2 3 4 5 6 
#
# 1 78.4199 52.5631 25.8041 0.0000 0.0000 0.0000
# 2 52.5631 135.1716 39.0446 0.0000 0.0000 0.0000
# 3 25.8041 39.0446 44.1559 0.0000 0.0000 0.0000
# 4 0.0000 0.0000 0.0000 20.0227 0.0000 0.0000
# 5 0.0000 0.0000 0.0000 0.0000 21.3869 0.0000
# 6 0.0000 0.0000 0.0000 0.0000 0.0000 29.0055
#
#
#
# Elastic Compliance Matrix: (Units=1/GPa)
#
#
# Indices 1 2 3 4 5 6 
#
# 1 0.018332 -0.005418 -0.005922 0.000000 0.000000 0.000000
# 2 -0.005418 0.011537 -0.007035 0.000000 0.000000 0.000000
# 3 -0.005922 -0.007035 0.032329 0.000000 0.000000 0.000000
# 4 0.000000 0.000000 0.000000 0.049943 0.000000 0.000000
# 5 0.000000 0.000000 0.000000 0.000000 0.046758 0.000000
# 6 0.000000 0.000000 0.000000 0.000000 0.000000 0.034476
#
#
# Mechanical properties :
#
#
# Convention : Reuss Voigt Hill
#
# Bulk Modulus (GPa) = 39.29753 54.73009 47.01381
# Shear Modulus (GPa) = 20.95483 23.43873 22.19678
#
# Velocity S-wave (km/s) = 3.39857 3.59436 3.49784
# Velocity P-wave (km/s) = 6.08779 6.88426 6.49824
#
# Compressibility (1/GPa) = 0.02544689
#
# Stress axis : x y z
#
# Youngs Moduli (GPa) = 54.54897 86.67734 30.93219
#
# Poissons Ratio (x) = 0.46962 0.18319
# Poissons Ratio (y) = 0.29555 0.21762
# Poissons Ratio (z) = 0.32305 0.60980
#
# Static dielectric constant tensor:
#      x y z
#    x 3.169240 0.000000 0.000000 
#    y 0.000000 3.595410 0.000000 
#    z 0.000000 0.000000 3.155620 
# 
# 
# High freq. dielectric constant tensor:
#      x y z
#    x 1.677090 0.000000 0.000000 
#    y 0.000000 1.720300 0.000000 
#    z 0.000000 0.000000 1.692010 
# 
# From -- ./inp_files/8935.got.cif
#   From: 2010.03.12/outbox.cif.g09.slc.cpg/sg55_5_cif.got.tgz:8935.got - 2010.04.16 15:19:21.
