data_PCOD8226329
_publ_section_title
;
Structure prediction by ZEFSAII (Michael W. Deem and Ramdas Pophale) SiO2 
 PCOD8226329
Probable space group: P B A M
;
_chemical_formula_sum "Si O2"
_cell_formula_units_Z 64
_cell_length_a 12.400007
_cell_length_b 28.972094
_cell_length_c 9.101382
_cell_angle_alpha 90.000000
_cell_angle_beta 90.000000
_cell_angle_gamma 90.000000
_cell_volume 3269.709422
_symmetry_space_group_name_H-M "P B A M"
_symmetry_group_IT_number 55
_symmetry_cell_setting 'orthorhombic'
loop_
_space_group_symop_operation_xyz
x,y,z
-x,-y,z
1/2+x,1/2-y,-z
1/2-x,1/2+y,-z
-x,-y,-z
x,y,-z
1/2-x,1/2+y,z
1/2+x,1/2-y,z
loop_
_atom_site_type_symbol
_atom_site_label
_atom_site_fract_x
_atom_site_fract_y
_atom_site_fract_z
Si Si1 0.725792 0.826414 0.334807
Si Si2 0.627772 0.498900 0.325522
Si Si3 0.775537 0.680029 0.836956
Si Si4 0.263965 0.081829 0.175767
Si Si5 0.763480 0.577340 0.828104
Si Si6 0.597244 0.757734 0.836965
Si Si7 0.901641 0.747374 0.337935
Si Si8 0.998773 0.448914 0.826474
O O1 0.697873 0.842827 0.500000
O O2 0.771681 0.868745 0.239288
O O3 0.622481 0.803608 0.257319
O O4 0.812209 0.786105 0.337615
O O5 0.500000 0.500000 0.287082
O O6 0.644888 0.494802 0.500000
O O7 0.684753 0.456099 0.244993
O O8 0.685159 0.545305 0.267443
O O9 0.727774 0.629930 0.795679
O O10 0.683488 0.717747 0.836131
O O11 0.863033 0.697248 0.720021
O O12 0.828084 0.676852 0.000000
O O13 0.388707 0.075516 0.228285
O O14 0.251506 0.080277 0.000000
O O15 0.889312 0.574977 0.777464
O O16 0.751790 0.563480 0.000000
O O17 0.492951 0.733563 0.769168
O O18 0.574967 0.775800 0.000000
O O19 0.948332 0.739494 0.500000
O O20 0.000000 0.500000 0.758235
O O21 0.992810 0.451390 0.000000
#
# Coordination Sequence:
#
# PCOD8226329 Si02
#       8
#     8   8   8   8   8   8   8   8
#     4  10  22  39  57  84 121 156 194 240 294 355
#     4  11  25  43  60  83 119 159 198 244 295 348
#     4   9  20  36  57  85 114 148 190 241 290 341
#     4  11  22  38  63  91 117 154 199 244 298 354
#     4  10  20  38  62  88 118 151 193 242 295 352
#     4  10  20  36  57  83 115 152 199 246 288 339
#     4  10  21  37  57  81 114 156 194 236 294 349
#     4   9  17  33  58  88 119 148 182 234 295 348
#
# _framework density 19.573604
#
# number of rings (size 3 to 8) (size 9 to 14) (size 15 to 20)
#    0.000    2.000    1.250    1.875    1.750    4.500 
#    0.000    4.375    0.000    0.000    0.000    0.000 
#    0.000    0.000    0.000    0.000    0.000    0.000 
#
# Total GULP energy -793270.258437 kJ/mol
# GULP energy per Si atom -12394.847788 kJ/mol
# Density = 1.952905 g / cm^3
# Si number density = 19.573604 Si / 1000 Ang^3
#
#
#
# Elastic Constant Matrix: (Units=GPa)
#
#
# Indices 1 2 3 4 5 6 
#
# 1 87.8202 19.9918 57.2952 0.0000 0.0000 0.0000
# 2 19.9918 116.4205 55.1449 0.0000 0.0000 0.0000
# 3 57.2952 55.1449 124.3356 0.0000 0.0000 0.0000
# 4 0.0000 0.0000 0.0000 26.7955 0.0000 0.0000
# 5 0.0000 0.0000 0.0000 0.0000 31.7071 0.0000
# 6 0.0000 0.0000 0.0000 0.0000 0.0000 -6.8369
#
#
#
# Elastic Compliance Matrix: (Units=1/GPa)
#
#
# Indices 1 2 3 4 5 6 
#
# 1 0.016367 0.000965 -0.007970 0.000000 0.000000 0.000000
# 2 0.000965 0.010931 -0.005292 0.000000 0.000000 0.000000
# 3 -0.007970 -0.005292 0.014063 0.000000 0.000000 0.000000
# 4 0.000000 0.000000 0.000000 0.037320 0.000000 0.000000
# 5 0.000000 0.000000 0.000000 0.000000 0.031539 0.000000
# 6 0.000000 0.000000 0.000000 0.000000 0.000000 -0.146266
#
#
# Mechanical properties :
#
#
# Convention : Reuss Voigt Hill
#
# Bulk Modulus (GPa) = 59.64862 65.93780 62.79321
# Shear Modulus (GPa) = -852.74763 23.40944 -414.66910
#
# Velocity S-wave (km/s) = -20.89516 3.46203 -14.57090
# Velocity P-wave (km/s) = 23.48624 7.05274 15.84081
#
# Compressibility (1/GPa) = 0.01676485
#
# Stress axis : x y z
#
# Youngs Moduli (GPa) = 61.09856 91.48458 71.11029
#
# Poissons Ratio (x) = -0.08824 0.56674
# Poissons Ratio (y) = -0.05893 0.37635
# Poissons Ratio (z) = 0.48695 0.48418
#
# Static dielectric constant tensor:
#      x y z
#    x 3.634160 0.000000 0.000000 
#    y 0.000000 4.142500 0.000000 
#    z 0.000000 0.000000 3.756920 
# 
# 
# High freq. dielectric constant tensor:
#      x y z
#    x 1.759140 0.000000 0.000000 
#    y 0.000000 1.766510 0.000000 
#    z 0.000000 0.000000 1.759400 
# 
# From -- ./inp_files/4711.got.cif
#   From: 2010.03.12/outbox.cif.g09.slc.cpg/sg55_3_cif.got.tgz:4711.got - 2010.04.16 15:19:21.
