data_PCOD8226891
_publ_section_title
;
Structure prediction by ZEFSAII (Michael W. Deem and Ramdas Pophale) SiO2 
 PCOD8226891
Probable space group: P B A M
;
_chemical_formula_sum "Si O2"
_cell_formula_units_Z 56
_cell_length_a 4.991093
_cell_length_b 16.766310
_cell_length_c 33.085057
_cell_angle_alpha 90.000000
_cell_angle_beta 90.000000
_cell_angle_gamma 90.000000
_cell_volume 2768.630770
_symmetry_space_group_name_H-M "P B A M"
_symmetry_group_IT_number 55
_symmetry_cell_setting 'orthorhombic'
loop_
_space_group_symop_operation_xyz
x,y,z
-x,-y,z
1/2+x,1/2-y,-z
1/2-x,1/2+y,-z
-x,-y,-z
x,y,-z
1/2-x,1/2+y,z
1/2+x,1/2-y,z
loop_
_atom_site_type_symbol
_atom_site_label
_atom_site_fract_x
_atom_site_fract_y
_atom_site_fract_z
Si Si1 0.603747 0.200431 0.192488
Si Si2 0.741575 0.553184 0.954893
Si Si3 0.015798 0.407918 0.734684
Si Si4 0.758649 0.553429 0.454618
Si Si5 0.832900 0.194265 0.394042
Si Si6 0.406970 0.801395 0.899542
Si Si7 0.491230 0.592893 0.682685
O O1 0.412585 0.276912 0.199960
O O2 0.486308 0.134630 0.222589
O O3 0.590736 0.168473 0.146732
O O4 0.500000 0.500000 0.936488
O O5 0.808066 0.627387 0.927063
O O6 0.000000 0.500000 0.957518
O O7 0.661530 0.583344 0.000000
O O8 0.799652 0.382702 0.700221
O O9 0.000000 0.500000 0.744598
O O10 0.307509 0.386750 0.718540
O O11 0.500000 0.500000 0.455492
O O12 0.845054 0.578849 0.500000
O O13 0.678318 0.633294 0.431137
O O14 0.000000 0.500000 0.434931
O O15 0.540721 0.233378 0.395873
O O16 0.913366 0.144726 0.354727
O O17 0.708602 0.772854 0.908555
O O18 0.500000 0.500000 0.669747
#
# Coordination Sequence:
#
# PCOD8226891 Si02
#       7
#     8   8   8   8   8   8   8
#     4  10  21  36  55  79 110 145 180 229 286 339
#     4  10  21  37  57  83 114 148 188 237 291 341
#     4  10  21  37  57  81 107 144 193 237 280 336
#     4  10  22  42  66  88 116 160 202 234 284 352
#     4  12  25  38  59  92 122 150 190 242 294 339
#     4  10  21  37  56  82 113 148 190 230 281 347
#     4  10  22  39  57  79 113 153 191 233 282 344
#
# _framework density 20.226607000000001
#
# number of rings (size 3 to 8) (size 9 to 14) (size 15 to 20)
#    0.000    1.714    0.000    3.857    0.000    6.857 
#    0.000    2.143    0.000    0.000    0.000    0.000 
#    0.000    0.000    0.000    0.000    0.000    0.000 
#
# Total GULP energy -694169.992870 kJ/mol
# GULP energy per Si atom -12395.892730 kJ/mol
# Density = 2.018057 g / cm^3
# Si number density = 20.226607 Si / 1000 Ang^3
#
#
#
# Elastic Constant Matrix: (Units=GPa)
#
#
# Indices 1 2 3 4 5 6 
#
# 1 82.6666 20.5032 14.1653 0.0000 0.0000 0.0000
# 2 20.5032 81.7223 70.9197 0.0000 0.0000 0.0000
# 3 14.1653 70.9197 107.2871 0.0000 0.0000 0.0000
# 4 0.0000 0.0000 0.0000-6972.9902 0.0000 0.0000
# 5 0.0000 0.0000 0.0000 0.0000 -75.9933 0.0000
# 6 0.0000 0.0000 0.0000 0.0000 0.0000 31.7162
#
#
#
# Elastic Compliance Matrix: (Units=1/GPa)
#
#
# Indices 1 2 3 4 5 6 
#
# 1 0.012948 -0.004139 0.001027 0.000000 0.000000 0.000000
# 2 -0.004139 0.030024 -0.019300 0.000000 0.000000 0.000000
# 3 0.001027 -0.019300 0.021943 0.000000 0.000000 0.000000
# 4 0.000000 0.000000 0.000000 -0.000143 0.000000 0.000000
# 5 0.000000 0.000000 0.000000 0.000000 -0.013159 0.000000
# 6 0.000000 0.000000 0.000000 0.000000 0.000000 0.031530
#
#
# Mechanical properties :
#
#
# Convention : Reuss Voigt Hill
#
# Bulk Modulus (GPa) = 49.77834 53.65029 51.71432
# Shear Modulus (GPa) = 37.12948 -1392.38095 -677.62573
#
# Velocity S-wave (km/s) = 4.28913 -26.26567 -18.32333
# Velocity P-wave (km/s) = 7.01374 29.88754 20.54352
#
# Compressibility (1/GPa) = 0.02008906
#
# Stress axis : x y z
#
# Youngs Moduli (GPa) = 77.23491 33.30661 45.57231
#
# Poissons Ratio (x) = 0.13787 -0.04679
# Poissons Ratio (y) = 0.31971 0.87955
# Poissons Ratio (z) = -0.07931 0.64282
#
# Static dielectric constant tensor:
#      x y z
#    x 3.707690 0.000000 0.000000 
#    y 0.000000 3.324620 0.000000 
#    z 0.000000 0.000000 3.762830 
# 
# 
# High freq. dielectric constant tensor:
#      x y z
#    x 1.813400 0.000000 0.000000 
#    y 0.000000 1.780730 0.000000 
#    z 0.000000 0.000000 1.789650 
# 
# From -- ./inp_files/24077.got.cif
#   From: 2010.03.12/outbox.cif.g09.slc.cpg/sg55_13_cif.got.tgz:24077.got - 2010.04.16 15:19:21.
