data_PCOD8226766
_publ_section_title
;
Structure prediction by ZEFSAII (Michael W. Deem and Ramdas Pophale) SiO2 
 PCOD8226766
Probable space group: P B A M
;
_chemical_formula_sum "Si O2"
_cell_formula_units_Z 64
_cell_length_a 9.776163
_cell_length_b 12.844518
_cell_length_c 26.088195
_cell_angle_alpha 90.000000
_cell_angle_beta 90.000000
_cell_angle_gamma 90.000000
_cell_volume 3275.897297
_symmetry_space_group_name_H-M "P B A M"
_symmetry_group_IT_number 55
_symmetry_cell_setting 'orthorhombic'
loop_
_space_group_symop_operation_xyz
x,y,z
-x,-y,z
1/2+x,1/2-y,-z
1/2-x,1/2+y,-z
-x,-y,-z
x,y,-z
1/2-x,1/2+y,z
1/2+x,1/2-y,z
loop_
_atom_site_type_symbol
_atom_site_label
_atom_site_fract_x
_atom_site_fract_y
_atom_site_fract_z
Si Si1 0.158415 0.345653 0.693968
Si Si2 0.721145 0.365847 0.940398
Si Si3 0.098248 0.404414 0.805942
Si Si4 0.638490 0.545787 0.864686
Si Si5 0.390037 0.414391 0.440702
Si Si6 0.604126 0.759771 0.640912
Si Si7 0.520018 0.761974 0.104719
Si Si8 0.849418 0.484103 0.614999
O O1 0.125804 0.342872 0.753836
O O2 0.305238 0.293299 0.684979
O O3 0.164404 0.462260 0.671120
O O4 0.043815 0.281281 0.663991
O O5 0.679782 0.472905 0.912509
O O6 0.878318 0.336307 0.927385
O O7 0.614415 0.273233 0.926713
O O8 0.711050 0.389707 0.000000
O O9 0.240209 0.454790 0.824141
O O10 0.000000 0.500000 0.794661
O O11 0.031762 0.323672 0.845528
O O12 0.500000 0.500000 0.838946
O O13 0.612775 0.663437 0.881627
O O14 0.500000 0.500000 0.424964
O O15 0.397400 0.383860 0.500000
O O16 0.417417 0.310988 0.408709
O O17 0.244057 0.462958 0.427552
O O18 0.683346 0.863079 0.622544
O O19 0.000000 0.500000 0.592568
#
# Coordination Sequence:
#
# PCOD8226766 Si02
#       8
#     8   8   8   8   8   8   8   8
#     4  10  23  38  62  88 117 163 202 248 310 358
#     4  11  23  42  67  92 126 167 209 256 311 370
#     4  12  23  42  65  91 128 162 205 261 311 369
#     4  10  24  44  62  91 127 161 203 257 309 369
#     4  10  21  36  58  87 122 160 199 253 308 354
#     4  10  20  40  60  87 121 158 207 252 297 374
#     4  11  23  41  63  95 126 161 207 260 306 372
#     4   9  19  39  57  83 119 152 204 253 296 364
#
# _framework density 19.536632000000001
#
# number of rings (size 3 to 8) (size 9 to 14) (size 15 to 20)
#    0.000    1.625    2.500    2.250    1.750    3.500 
#    4.500   10.625    0.000    0.000    0.000    0.000 
#    0.000    0.000    0.000    0.000    0.000    0.000 
#
# Total GULP energy -793680.067002 kJ/mol
# GULP energy per Si atom -12401.251047 kJ/mol
# Density = 1.949217 g / cm^3
# Si number density = 19.536632 Si / 1000 Ang^3
#
#
#
# Elastic Constant Matrix: (Units=GPa)
#
#
# Indices 1 2 3 4 5 6 
#
# 1 102.8510 41.1253 52.6824 0.0000 0.0000 0.0000
# 2 41.1253 115.1410 61.0828 0.0000 0.0000 0.0000
# 3 52.6824 61.0828 116.0235 0.0000 0.0000 0.0000
# 4 0.0000 0.0000 0.0000 23.5276 0.0000 0.0000
# 5 0.0000 0.0000 0.0000 0.0000 21.8756 0.0000
# 6 0.0000 0.0000 0.0000 0.0000 0.0000 28.8771
#
#
#
# Elastic Compliance Matrix: (Units=1/GPa)
#
#
# Indices 1 2 3 4 5 6 
#
# 1 0.013026 -0.002102 -0.004808 0.000000 0.000000 0.000000
# 2 -0.002102 0.012390 -0.005568 0.000000 0.000000 0.000000
# 3 -0.004808 -0.005568 0.013734 0.000000 0.000000 0.000000
# 4 0.000000 0.000000 0.000000 0.042503 0.000000 0.000000
# 5 0.000000 0.000000 0.000000 0.000000 0.045713 0.000000
# 6 0.000000 0.000000 0.000000 0.000000 0.000000 0.034629
#
#
# Mechanical properties :
#
#
# Convention : Reuss Voigt Hill
#
# Bulk Modulus (GPa) = 70.45849 71.53295 70.99572
# Shear Modulus (GPa) = 26.08468 26.79773 26.44121
#
# Velocity S-wave (km/s) = 3.65796 3.70762 3.68287
# Velocity P-wave (km/s) = 7.34738 7.41774 7.38264
#
# Compressibility (1/GPa) = 0.01419275
#
# Stress axis : x y z
#
# Youngs Moduli (GPa) = 76.76921 80.71133 72.81307
#
# Poissons Ratio (x) = 0.16964 0.35010
# Poissons Ratio (y) = 0.16136 0.40546
# Poissons Ratio (z) = 0.36912 0.44944
#
# Static dielectric constant tensor:
#      x y z
#    x 3.751590 0.000000 0.000000 
#    y 0.000000 3.691230 0.000000 
#    z 0.000000 0.000000 3.314000 
# 
# 
# High freq. dielectric constant tensor:
#      x y z
#    x 1.781180 0.000000 0.000000 
#    y 0.000000 1.771100 0.000000 
#    z 0.000000 0.000000 1.745570 
# 
# From -- ./inp_files/23493.got.cif
#   From: 2010.03.12/outbox.cif.g09.slc.cpg/sg55_12_cif.got.tgz:23493.got - 2010.04.16 15:19:21.
