data_PCOD8226702
_publ_section_title
;
Structure prediction by ZEFSAII (Michael W. Deem and Ramdas Pophale) SiO2 
 PCOD8226702
Probable space group: P B A M
;
_chemical_formula_sum "Si O2"
_cell_formula_units_Z 56
_cell_length_a 21.482039
_cell_length_b 14.628805
_cell_length_c 8.786416
_cell_angle_alpha 90.000000
_cell_angle_beta 90.000000
_cell_angle_gamma 90.000000
_cell_volume 2761.188863
_symmetry_space_group_name_H-M "P B A M"
_symmetry_group_IT_number 55
_symmetry_cell_setting 'orthorhombic'
loop_
_space_group_symop_operation_xyz
x,y,z
-x,-y,z
1/2+x,1/2-y,-z
1/2-x,1/2+y,-z
-x,-y,-z
x,y,-z
1/2-x,1/2+y,z
1/2+x,1/2-y,z
loop_
_atom_site_type_symbol
_atom_site_label
_atom_site_fract_x
_atom_site_fract_y
_atom_site_fract_z
Si Si1 0.170540 0.448309 0.174294
Si Si2 0.755526 0.885874 0.180589
Si Si3 0.101085 0.888415 0.321246
Si Si4 0.606435 0.422012 0.819923
Si Si5 0.041676 0.413397 0.676968
Si Si6 0.779544 0.187891 0.174443
Si Si7 0.004936 0.225027 0.821048
O O1 0.209927 0.534310 0.235688
O O2 0.112340 0.437196 0.283642
O O3 0.212024 0.357790 0.185886
O O4 0.148709 0.463624 0.000000
O O5 0.824723 0.902020 0.246541
O O6 0.727446 0.790334 0.239060
O O7 0.761104 0.884387 0.000000
O O8 0.094910 0.894049 0.500000
O O9 0.171960 0.867509 0.275827
O O10 0.057795 0.807578 0.259764
O O11 0.079677 0.984997 0.251512
O O12 0.562485 0.338529 0.770159
O O13 0.607388 0.434905 0.000000
O O14 0.036265 0.388785 0.500000
O O15 0.018281 0.328446 0.774965
O O16 0.000000 0.500000 0.720846
O O17 0.803199 0.186437 0.000000
O O18 0.994308 0.220240 0.000000
#
# Coordination Sequence:
#
# PCOD8226702 Si02
#       7
#     8   8   8   8   8   8   8
#     4  10  20  38  64  92 122 159 206 258 305 361
#     4   9  18  34  62  93 118 150 199 256 305 354
#     4  12  25  39  59  92 132 167 203 252 318 380
#     4  10  20  41  67  94 123 158 206 257 309 369
#     4  11  26  45  63  89 130 170 206 256 315 376
#     4  10  20  38  63  91 123 161 210 261 308 361
#     4  11  24  42  68  93 118 162 217 264 308 364
#
# _framework density 20.281120999999999
#
# number of rings (size 3 to 8) (size 9 to 14) (size 15 to 20)
#    0.000    1.571    1.429    3.429    2.000    6.857 
#    0.000    0.714    0.000    0.000    0.000    0.000 
#    0.000    0.000    0.000    0.000    0.000    0.000 
#
# Total GULP energy -694724.765764 kJ/mol
# GULP energy per Si atom -12405.799389 kJ/mol
# Density = 2.023496 g / cm^3
# Si number density = 20.281121 Si / 1000 Ang^3
#
#
#
# Elastic Constant Matrix: (Units=GPa)
#
#
# Indices 1 2 3 4 5 6 
#
# 1 95.9179 34.7722 30.2243 0.0000 0.0000 0.0000
# 2 34.7722 126.4112 25.0244 0.0000 0.0000 0.0000
# 3 30.2243 25.0244 49.1662 0.0000 0.0000 0.0000
# 4 0.0000 0.0000 0.0000 21.6720 0.0000 0.0000
# 5 0.0000 0.0000 0.0000 0.0000 19.8978 0.0000
# 6 0.0000 0.0000 0.0000 0.0000 0.0000 31.5568
#
#
#
# Elastic Compliance Matrix: (Units=1/GPa)
#
#
# Indices 1 2 3 4 5 6 
#
# 1 0.013508 -0.002304 -0.007131 0.000000 0.000000 0.000000
# 2 -0.002304 0.009190 -0.003261 0.000000 0.000000 0.000000
# 3 -0.007131 -0.003261 0.026383 0.000000 0.000000 0.000000
# 4 0.000000 0.000000 0.000000 0.046142 0.000000 0.000000
# 5 0.000000 0.000000 0.000000 0.000000 0.050257 0.000000
# 6 0.000000 0.000000 0.000000 0.000000 0.000000 0.031689
#
#
# Mechanical properties :
#
#
# Convention : Reuss Voigt Hill
#
# Bulk Modulus (GPa) = 42.21513 50.17078 46.19295
# Shear Modulus (GPa) = 23.75777 26.72362 25.24070
#
# Velocity S-wave (km/s) = 3.42632 3.63390 3.53163
# Velocity P-wave (km/s) = 6.04260 6.51140 6.28138
#
# Compressibility (1/GPa) = 0.02368819
#
# Stress axis : x y z
#
# Youngs Moduli (GPa) = 74.03095 108.81356 37.90345
#
# Poissons Ratio (x) = 0.25070 0.27029
# Poissons Ratio (y) = 0.17056 0.12361
# Poissons Ratio (z) = 0.52792 0.35486
#
# Static dielectric constant tensor:
#      x y z
#    x 3.734070 0.000000 0.000000 
#    y 0.000000 3.943110 0.000000 
#    z 0.000000 0.000000 3.408500 
# 
# 
# High freq. dielectric constant tensor:
#      x y z
#    x 1.800360 0.000000 0.000000 
#    y 0.000000 1.808740 0.000000 
#    z 0.000000 0.000000 1.766470 
# 
# From -- ./inp_files/8690.got.cif
#   From: 2010.03.12/outbox.cif.g09.slc.cpg/sg55_5_cif.got.tgz:8690.got - 2010.04.16 15:19:21.
