data_PCOD8226053
_publ_section_title
;
Structure prediction by ZEFSAII (Michael W. Deem and Ramdas Pophale) SiO2 
 PCOD8226053
Probable space group: P B A M
;
_chemical_formula_sum "Si O2"
_cell_formula_units_Z 48
_cell_length_a 8.351732
_cell_length_b 17.238797
_cell_length_c 15.559061
_cell_angle_alpha 90.000000
_cell_angle_beta 90.000000
_cell_angle_gamma 90.000000
_cell_volume 2240.097332
_symmetry_space_group_name_H-M "P B A M"
_symmetry_group_IT_number 55
_symmetry_cell_setting 'orthorhombic'
loop_
_space_group_symop_operation_xyz
x,y,z
-x,-y,z
1/2+x,1/2-y,-z
1/2-x,1/2+y,-z
-x,-y,-z
x,y,-z
1/2-x,1/2+y,z
1/2+x,1/2-y,z
loop_
_atom_site_type_symbol
_atom_site_label
_atom_site_fract_x
_atom_site_fract_y
_atom_site_fract_z
Si Si1 0.734611 0.057048 0.000000
Si Si2 0.771764 0.802443 0.500000
Si Si3 0.786143 0.141964 0.167962
Si Si4 0.128444 0.611364 0.339933
Si Si5 0.766346 0.559530 0.339941
Si Si6 0.576661 0.805229 0.168071
Si Si7 0.631361 0.640411 0.500000
Si Si8 0.369085 0.110140 0.000000
O O1 0.822343 0.090413 0.084117
O O2 0.550151 0.080910 0.000000
O O3 0.748959 0.963812 0.000000
O O4 0.685082 0.833831 0.584172
O O5 0.760682 0.709497 0.500000
O O6 0.956429 0.823568 0.500000
O O7 0.809269 0.088121 0.250829
O O8 0.609369 0.176519 0.164323
O O9 0.909988 0.212625 0.172251
O O10 0.232289 0.533299 0.339036
O O11 0.158245 0.655655 0.250738
O O12 0.942868 0.593023 0.354098
O O13 0.652859 0.586960 0.416696
O O14 0.666283 0.838222 0.083933
#
# Coordination Sequence:
#
# PCOD8226053 Si02
#       8
#     4   4   8   8   8   8   4   4
#     4   9  17  32  55  81 108 141 184 228 268 319
#     4  12  25  40  59  83 111 145 185 228 277 330
#     4  10  20  34  55  82 111 145 183 224 271 323
#     4  10  21  38  59  83 112 146 184 227 276 329
#     4  10  21  38  59  83 112 146 184 227 276 329
#     4  10  20  34  55  82 111 145 183 224 271 323
#     4  12  25  40  59  83 111 145 185 228 277 330
#     4   9  17  32  55  81 108 141 184 228 268 319
#
# _framework density 21.427641000000001
#
# number of rings (size 3 to 8) (size 9 to 14) (size 15 to 20)
#    0.000    1.833    0.000    4.500    0.000   10.667 
#    0.000    0.000    0.000    4.000    0.000    0.000 
#    0.000    0.000    0.000    0.000    0.000    0.000 
#
# Total GULP energy -595470.891985 kJ/mol
# GULP energy per Si atom -12405.643583 kJ/mol
# Density = 2.137887 g / cm^3
# Si number density = 21.427641 Si / 1000 Ang^3
#
#
#
# Elastic Constant Matrix: (Units=GPa)
#
#
# Indices 1 2 3 4 5 6 
#
# 1 16.8390 -12.4858 13.6665 0.0000 0.0000 0.0000
# 2 -12.4858 51.5778 14.3822 0.0000 0.0000 0.0000
# 3 13.6665 14.3822 165.3461 0.0000 0.0000 0.0000
# 4 0.0000 0.0000 0.0000 60.8174 0.0000 0.0000
# 5 0.0000 0.0000 0.0000 0.0000 5.4794 0.0000
# 6 0.0000 0.0000 0.0000 0.0000 0.0000 31.6327
#
#
#
# Elastic Compliance Matrix: (Units=1/GPa)
#
#
# Indices 1 2 3 4 5 6 
#
# 1 0.083376 0.022654 -0.008862 0.000000 0.000000 0.000000
# 2 0.022654 0.026026 -0.004136 0.000000 0.000000 0.000000
# 3 -0.008862 -0.004136 0.007140 0.000000 0.000000 0.000000
# 4 0.000000 0.000000 0.000000 0.016443 0.000000 0.000000
# 5 0.000000 0.000000 0.000000 0.000000 0.182501 0.000000
# 6 0.000000 0.000000 0.000000 0.000000 0.000000 0.031613
#
#
# Mechanical properties :
#
#
# Convention : Reuss Voigt Hill
#
# Bulk Modulus (GPa) = 7.36082 29.43208 18.39645
# Shear Modulus (GPa) = 13.40229 34.13256 23.76742
#
# Velocity S-wave (km/s) = 2.50365 3.99547 3.33407
# Velocity P-wave (km/s) = 3.43516 5.92034 4.83998
#
# Compressibility (1/GPa) = 0.13585440
#
# Stress axis : x y z
#
# Youngs Moduli (GPa) = 11.99388 38.42357 140.05268
#
# Poissons Ratio (x) = -0.87046 1.24113
# Poissons Ratio (y) = -0.27171 0.57929
# Poissons Ratio (z) = 0.10629 0.15893
#
# Static dielectric constant tensor:
#      x y z
#    x 3.469610 0.000000 0.000000 
#    y 0.000000 3.970350 0.000000 
#    z 0.000000 0.000000 4.115870 
# 
# 
# High freq. dielectric constant tensor:
#      x y z
#    x 1.813090 0.000000 0.000000 
#    y 0.000000 1.852320 0.000000 
#    z 0.000000 0.000000 1.859520 
# 
# From -- ./inp_files/17431.got.cif
#   From: 2010.03.12/outbox.cif.g09.slc.cpg/sg55_9_cif.got.tgz:17431.got - 2010.04.16 15:19:21.
