data_PCOD8226462
_publ_section_title
;
Structure prediction by ZEFSAII (Michael W. Deem and Ramdas Pophale) SiO2 
 PCOD8226462
Probable space group: P B A M
;
_chemical_formula_sum "Si O2"
_cell_formula_units_Z 64
_cell_length_a 8.842793
_cell_length_b 17.988023
_cell_length_c 19.064372
_cell_angle_alpha 90.000000
_cell_angle_beta 90.000000
_cell_angle_gamma 90.000000
_cell_volume 3032.462205
_symmetry_space_group_name_H-M "P B A M"
_symmetry_group_IT_number 55
_symmetry_cell_setting 'orthorhombic'
loop_
_space_group_symop_operation_xyz
x,y,z
-x,-y,z
1/2+x,1/2-y,-z
1/2-x,1/2+y,-z
-x,-y,-z
x,y,-z
1/2-x,1/2+y,z
1/2+x,1/2-y,z
loop_
_atom_site_type_symbol
_atom_site_label
_atom_site_fract_x
_atom_site_fract_y
_atom_site_fract_z
Si Si1 0.387111 0.162836 0.915810
Si Si2 0.633569 0.549513 0.919594
Si Si3 0.699942 0.144358 0.690834
Si Si4 0.552767 0.307650 0.080175
Si Si5 0.045417 0.755967 0.358007
Si Si6 0.177548 0.488612 0.418895
Si Si7 0.405579 0.936123 0.175344
Si Si8 0.783568 0.852063 0.419742
O O1 0.214270 0.168900 0.886707
O O2 0.483561 0.233104 0.888427
O O3 0.467549 0.097813 0.874779
O O4 0.394928 0.151320 0.000000
O O5 0.500000 0.500000 0.888541
O O6 0.582594 0.634141 0.911358
O O7 0.781034 0.530386 0.876297
O O8 0.666888 0.527468 0.000000
O O9 0.552963 0.195435 0.682200
O O10 0.847509 0.196789 0.693644
O O11 0.682260 0.111956 0.767966
O O12 0.720589 0.081765 0.630213
O O13 0.593024 0.293262 0.000000
O O14 0.149914 0.708021 0.410198
O O15 0.941291 0.816960 0.395655
O O16 0.227248 0.471527 0.500000
O O17 0.252273 0.565175 0.387359
O O18 0.000000 0.500000 0.416423
O O19 0.500000 0.000000 0.216092
O O20 0.796387 0.870145 0.500000
#
# Coordination Sequence:
#
# PCOD8226462 Si02
#       8
#     8   8   8   8   8   8   8   8
#     4  10  20  36  61  92 121 156 205 257 312 372
#     4  10  21  40  63  91 125 159 203 258 315 378
#     4  11  25  45  62  89 128 167 214 259 312 387
#     4   9  18  34  59  90 125 159 196 254 316 370
#     4  10  23  41  63  92 128 169 206 263 318 365
#     4  10  20  38  66  95 127 171 208 255 317 375
#     4  12  26  41  62  88 119 166 209 258 316 376
#     4  10  20  37  67 101 129 162 209 260 320 375
#
# _framework density 21.104960999999999
#
# number of rings (size 3 to 8) (size 9 to 14) (size 15 to 20)
#    0.000    1.750    1.250    2.625    0.000    9.000 
#    2.250    2.500    0.000    0.000    0.000    0.000 
#    0.000    0.000    0.000    0.000    0.000    0.000 
#
# Total GULP energy -793107.318294 kJ/mol
# GULP energy per Si atom -12392.301848 kJ/mol
# Density = 2.105692 g / cm^3
# Si number density = 21.104961 Si / 1000 Ang^3
#
#
#
# Elastic Constant Matrix: (Units=GPa)
#
#
# Indices 1 2 3 4 5 6 
#
# 1 117.8754 42.6556 28.4866 0.0000 0.0000 0.0000
# 2 42.6556 111.2757 32.7248 0.0000 0.0000 0.0000
# 3 28.4866 32.7248 58.7838 0.0000 0.0000 0.0000
# 4 0.0000 0.0000 0.0000 9.5976 0.0000 0.0000
# 5 0.0000 0.0000 0.0000 0.0000 12.9561 0.0000
# 6 0.0000 0.0000 0.0000 0.0000 0.0000 38.0273
#
#
#
# Elastic Compliance Matrix: (Units=1/GPa)
#
#
# Indices 1 2 3 4 5 6 
#
# 1 0.010378 -0.002989 -0.003366 0.000000 0.000000 0.000000
# 2 -0.002989 0.011607 -0.005013 0.000000 0.000000 0.000000
# 3 -0.003366 -0.005013 0.021433 0.000000 0.000000 0.000000
# 4 0.000000 0.000000 0.000000 0.104193 0.000000 0.000000
# 5 0.000000 0.000000 0.000000 0.000000 0.077184 0.000000
# 6 0.000000 0.000000 0.000000 0.000000 0.000000 0.026297
#
#
# Mechanical properties :
#
#
# Convention : Reuss Voigt Hill
#
# Bulk Modulus (GPa) = 48.34745 55.07433 51.71089
# Shear Modulus (GPa) = 17.81128 24.38738 21.09933
#
# Velocity S-wave (km/s) = 2.90821 3.40299 3.16529
# Velocity P-wave (km/s) = 5.85105 6.44923 6.15741
#
# Compressibility (1/GPa) = 0.02068362
#
# Stress axis : x y z
#
# Youngs Moduli (GPa) = 96.35425 86.15783 46.65652
#
# Poissons Ratio (x) = 0.25749 0.15703
# Poissons Ratio (y) = 0.28796 0.23389
# Poissons Ratio (z) = 0.32429 0.43192
#
# Static dielectric constant tensor:
#      x y z
#    x 4.152700 0.000000 0.000000 
#    y 0.000000 4.425550 0.000000 
#    z 0.000000 0.000000 3.426410 
# 
# 
# High freq. dielectric constant tensor:
#      x y z
#    x 1.840700 0.000000 0.000000 
#    y 0.000000 1.846270 0.000000 
#    z 0.000000 0.000000 1.791710 
# 
# From -- ./inp_files/22736.got.cif
#   From: 2010.03.12/outbox.cif.g09.slc.cpg/sg55_12_cif.got.tgz:22736.got - 2010.04.16 15:19:21.
