data_PCOD8226507
_publ_section_title
;
Structure prediction by ZEFSAII (Michael W. Deem and Ramdas Pophale) SiO2 
 PCOD8226507
Probable space group: P B A M
;
_chemical_formula_sum "Si O2"
_cell_formula_units_Z 64
_cell_length_a 15.258765
_cell_length_b 23.768572
_cell_length_c 9.061077
_cell_angle_alpha 90.000000
_cell_angle_beta 90.000000
_cell_angle_gamma 90.000000
_cell_volume 3286.262839
_symmetry_space_group_name_H-M "P B A M"
_symmetry_group_IT_number 55
_symmetry_cell_setting 'orthorhombic'
loop_
_space_group_symop_operation_xyz
x,y,z
-x,-y,z
1/2+x,1/2-y,-z
1/2-x,1/2+y,-z
-x,-y,-z
x,y,-z
1/2-x,1/2+y,z
1/2+x,1/2-y,z
loop_
_atom_site_type_symbol
_atom_site_label
_atom_site_fract_x
_atom_site_fract_y
_atom_site_fract_z
Si Si1 0.750738 0.824499 0.824924
Si Si2 0.145943 0.502467 0.330029
Si Si3 0.240629 0.302719 0.172170
Si Si4 0.911158 0.897198 0.828943
Si Si5 0.096048 0.376632 0.325507
Si Si6 0.652578 0.501950 0.670000
Si Si7 0.107268 0.886115 0.831947
Si Si8 0.419411 0.108362 0.175258
O O1 0.751084 0.760677 0.767575
O O2 0.837219 0.855850 0.762243
O O3 0.664132 0.856221 0.767985
O O4 0.751923 0.824862 0.000000
O O5 0.119147 0.511717 0.500000
O O6 0.126602 0.439025 0.280201
O O7 0.247451 0.516034 0.302874
O O8 0.088509 0.544151 0.230589
O O9 0.166590 0.332833 0.266687
O O10 0.334778 0.331281 0.200051
O O11 0.214381 0.304928 0.000000
O O12 0.909963 0.957902 0.751660
O O13 0.006207 0.869590 0.801459
O O14 0.892413 0.907966 0.000000
O O15 0.086932 0.369833 0.500000
O O16 0.004059 0.362920 0.247749
O O17 0.627233 0.501254 0.500000
O O18 0.638449 0.564509 0.726755
O O19 0.119167 0.906875 0.000000
O O20 0.428557 0.108965 0.000000
#
# Coordination Sequence:
#
# PCOD8226507 Si02
#       8
#     8   8   8   8   8   8   8   8
#     4   9  20  38  60  85 114 147 189 239 286 329
#     4  10  21  37  57  82 116 155 188 231 291 345
#     4  10  21  39  61  85 111 149 196 240 282 335
#     4  10  20  37  58  84 116 151 186 233 289 342
#     4  11  23  40  59  84 119 156 189 233 290 344
#     4  11  21  35  57  84 115 151 187 231 284 341
#     4  10  21  35  57  85 114 147 187 233 285 338
#     4  11  22  37  61  91 117 149 192 239 286 342
#
# _framework density 19.475009
#
# number of rings (size 3 to 8) (size 9 to 14) (size 15 to 20)
#    0.000    1.750    2.500    1.875    0.000    6.000 
#    0.000    5.625    0.000    1.500    0.000    0.000 
#    0.000    0.000    0.000    0.000    0.000    0.000 
#
# Total GULP energy -793875.422804 kJ/mol
# GULP energy per Si atom -12404.303481 kJ/mol
# Density = 1.943068 g / cm^3
# Si number density = 19.475009 Si / 1000 Ang^3
#
#
#
# Elastic Constant Matrix: (Units=GPa)
#
#
# Indices 1 2 3 4 5 6 
#
# 1 112.7237 43.4384 43.8867 0.0000 0.0000 0.0000
# 2 43.4384 120.1594 37.9116 0.0000 0.0000 0.0000
# 3 43.8867 37.9116 67.4232 0.0000 0.0000 0.0000
# 4 0.0000 0.0000 0.0000 12.9235 0.0000 0.0000
# 5 0.0000 0.0000 0.0000 0.0000 25.6780 0.0000
# 6 0.0000 0.0000 0.0000 0.0000 0.0000 17.5868
#
#
#
# Elastic Compliance Matrix: (Units=1/GPa)
#
#
# Indices 1 2 3 4 5 6 
#
# 1 0.012408 -0.002355 -0.006752 0.000000 0.000000 0.000000
# 2 -0.002355 0.010564 -0.004407 0.000000 0.000000 0.000000
# 3 -0.006752 -0.004407 0.021705 0.000000 0.000000 0.000000
# 4 0.000000 0.000000 0.000000 0.077378 0.000000 0.000000
# 5 0.000000 0.000000 0.000000 0.000000 0.038944 0.000000
# 6 0.000000 0.000000 0.000000 0.000000 0.000000 0.056861
#
#
# Mechanical properties :
#
#
# Convention : Reuss Voigt Hill
#
# Bulk Modulus (GPa) = 56.66380 61.19774 58.93077
# Shear Modulus (GPa) = 19.93854 22.90897 21.42375
#
# Velocity S-wave (km/s) = 3.20316 3.43348 3.32032
# Velocity P-wave (km/s) = 6.54516 6.87098 6.71005
#
# Compressibility (1/GPa) = 0.01764795
#
# Stress axis : x y z
#
# Youngs Moduli (GPa) = 80.59619 94.65949 46.07272
#
# Poissons Ratio (x) = 0.22293 0.31108
# Poissons Ratio (y) = 0.18981 0.20305
# Poissons Ratio (z) = 0.54419 0.41719
#
# Static dielectric constant tensor:
#      x y z
#    x 3.769410 0.000000 0.000000 
#    y 0.000000 3.525300 0.000000 
#    z 0.000000 0.000000 3.371540 
# 
# 
# High freq. dielectric constant tensor:
#      x y z
#    x 1.774910 0.000000 0.000000 
#    y 0.000000 1.751510 0.000000 
#    z 0.000000 0.000000 1.742950 
# 
# From -- ./inp_files/6578.got.cif
#   From: 2010.03.12/outbox.cif.g09.slc.cpg/sg55_4_cif.got.tgz:6578.got - 2010.04.16 15:19:21.
