data_PCOD8226938
_publ_section_title
;
Structure prediction by ZEFSAII (Michael W. Deem and Ramdas Pophale) SiO2 
 PCOD8226938
Probable space group: P B A M
;
_chemical_formula_sum "Si O2"
_cell_formula_units_Z 48
_cell_length_a 11.769686
_cell_length_b 23.004749
_cell_length_c 8.975486
_cell_angle_alpha 90.000000
_cell_angle_beta 90.000000
_cell_angle_gamma 90.000000
_cell_volume 2430.190672
_symmetry_space_group_name_H-M "P B A M"
_symmetry_group_IT_number 55
_symmetry_cell_setting 'orthorhombic'
loop_
_space_group_symop_operation_xyz
x,y,z
-x,-y,z
1/2+x,1/2-y,-z
1/2-x,1/2+y,-z
-x,-y,-z
x,y,-z
1/2-x,1/2+y,z
1/2+x,1/2-y,z
loop_
_atom_site_type_symbol
_atom_site_label
_atom_site_fract_x
_atom_site_fract_y
_atom_site_fract_z
Si Si1 0.421095 0.665355 0.826305
Si Si2 0.509886 0.067468 0.325157
Si Si3 0.058019 0.944873 0.825080
Si Si4 0.228848 0.378408 0.177005
Si Si5 0.691812 0.847092 0.333619
Si Si6 0.882529 0.216550 0.331727
O O1 0.484649 0.608438 0.770770
O O2 0.291354 0.656655 0.785311
O O3 0.490771 0.714610 0.738980
O O4 0.431538 0.678294 0.000000
O O5 0.536763 0.069524 0.500000
O O6 0.607798 0.103913 0.242608
O O7 0.393517 0.101166 0.286512
O O8 0.500000 0.000000 0.270879
O O9 0.188896 0.932971 0.781881
O O10 0.048182 0.952553 0.000000
O O11 0.000000 0.000000 0.744103
O O12 0.283725 0.318772 0.242675
O O13 0.219202 0.368977 0.000000
O O14 0.738395 0.859747 0.500000
O O15 0.633971 0.784938 0.329137
O O16 0.882339 0.192384 0.500000
#
# Coordination Sequence:
#
# PCOD8226938 Si02
#       6
#     8   8   8   8   8   8
#     4  10  21  36  58  88 118 146 188 246 296 343
#     4  10  23  42  61  85 122 165 206 246 295 361
#     4   8  16  32  54  80 112 147 180 225 286 345
#     4  10  21  37  60  89 119 152 196 249 301 351
#     4  10  23  40  60  84 115 159 198 237 293 358
#     4  10  21  39  62  85 116 157 197 239 297 363
#
# _framework density 19.751536000000002
#
# number of rings (size 3 to 8) (size 9 to 14) (size 15 to 20)
#    0.000    2.333    0.000    2.500    4.667    2.333 
#    0.000    0.000    0.000    3.000    0.000    0.000 
#    0.000    0.000    0.000    0.000    0.000    0.000 
#
# Total GULP energy -594804.855570 kJ/mol
# GULP energy per Si atom -12391.767824 kJ/mol
# Density = 1.970658 g / cm^3
# Si number density = 19.751536 Si / 1000 Ang^3
#
#
#
# Elastic Constant Matrix: (Units=GPa)
#
#
# Indices 1 2 3 4 5 6 
#
# 1 112.8884 37.7463 51.4186 0.0000 0.0000 0.0000
# 2 37.7463 69.0120 35.0295 0.0000 0.0000 0.0000
# 3 51.4186 35.0295 95.0447 0.0000 0.0000 0.0000
# 4 0.0000 0.0000 0.0000 17.2339 0.0000 0.0000
# 5 0.0000 0.0000 0.0000 0.0000 37.9103 0.0000
# 6 0.0000 0.0000 0.0000 0.0000 0.0000 12.1091
#
#
#
# Elastic Compliance Matrix: (Units=1/GPa)
#
#
# Indices 1 2 3 4 5 6 
#
# 1 0.012695 -0.004253 -0.005300 0.000000 0.000000 0.000000
# 2 -0.004253 0.019250 -0.004794 0.000000 0.000000 0.000000
# 3 -0.005300 -0.004794 0.015156 0.000000 0.000000 0.000000
# 4 0.000000 0.000000 0.000000 0.058025 0.000000 0.000000
# 5 0.000000 0.000000 0.000000 0.000000 0.026378 0.000000
# 6 0.000000 0.000000 0.000000 0.000000 0.000000 0.082583
#
#
# Mechanical properties :
#
#
# Convention : Reuss Voigt Hill
#
# Bulk Modulus (GPa) = 54.33072 58.37043 56.35058
# Shear Modulus (GPa) = 20.08719 23.63403 21.86061
#
# Velocity S-wave (km/s) = 3.19249 3.46289 3.33044
# Velocity P-wave (km/s) = 6.41531 6.75317 6.58641
#
# Compressibility (1/GPa) = 0.01840579
#
# Stress axis : x y z
#
# Youngs Moduli (GPa) = 78.77417 51.94890 65.98256
#
# Poissons Ratio (x) = 0.22094 0.34972
# Poissons Ratio (y) = 0.33503 0.31631
# Poissons Ratio (z) = 0.41752 0.24903
#
# Static dielectric constant tensor:
#      x y z
#    x 5.734870 0.000000 0.000000 
#    y 0.000000 4.284100 0.000000 
#    z 0.000000 0.000000 3.580280 
# 
# 
# High freq. dielectric constant tensor:
#      x y z
#    x 1.774270 0.000000 0.000000 
#    y 0.000000 1.774640 0.000000 
#    z 0.000000 0.000000 1.760670 
# 
# From -- ./inp_files/4083.got.cif
#   From: 2010.03.12/outbox.cif.g09.slc.cpg/sg55_3_cif.got.tgz:4083.got - 2010.04.16 15:19:21.
