data_PCOD8226556
_publ_section_title
;
Structure prediction by ZEFSAII (Michael W. Deem and Ramdas Pophale) SiO2 
 PCOD8226556
Probable space group: P B A M
;
_chemical_formula_sum "Si O2"
_cell_formula_units_Z 56
_cell_length_a 18.821015
_cell_length_b 17.232313
_cell_length_c 8.464748
_cell_angle_alpha 90.000000
_cell_angle_beta 90.000000
_cell_angle_gamma 90.000000
_cell_volume 2745.368515
_symmetry_space_group_name_H-M "P B A M"
_symmetry_group_IT_number 55
_symmetry_cell_setting 'orthorhombic'
loop_
_space_group_symop_operation_xyz
x,y,z
-x,-y,z
1/2+x,1/2-y,-z
1/2-x,1/2+y,-z
-x,-y,-z
x,y,-z
1/2-x,1/2+y,z
1/2+x,1/2-y,z
loop_
_atom_site_type_symbol
_atom_site_label
_atom_site_fract_x
_atom_site_fract_y
_atom_site_fract_z
Si Si1 0.078431 0.516986 0.188045
Si Si2 0.376754 0.187005 0.811952
Si Si3 0.147621 0.963718 0.816266
Si Si4 0.051749 0.832368 0.315227
Si Si5 0.299836 0.905619 0.187634
Si Si6 0.105966 0.123437 0.317463
Si Si7 0.722153 0.265330 0.185066
O O1 0.104248 0.600879 0.245836
O O2 0.132491 0.452100 0.256094
O O3 0.000000 0.500000 0.255821
O O4 0.078164 0.513532 0.000000
O O5 0.432945 0.243531 0.728476
O O6 0.297985 0.206701 0.747895
O O7 0.383080 0.195196 0.000000
O O8 0.104667 0.885227 0.785820
O O9 0.228678 0.950932 0.761979
O O10 0.113988 0.032284 0.713983
O O11 0.143265 0.985679 0.000000
O O12 0.062903 0.848639 0.500000
O O13 0.971804 0.850748 0.262159
O O14 0.299079 0.818304 0.259038
O O15 0.304181 0.901472 0.000000
O O16 0.118128 0.141641 0.500000
O O17 0.163232 0.170876 0.218901
O O18 0.730558 0.255572 0.000000
#
# Coordination Sequence:
#
# PCOD8226556 Si02
#       7
#     8   8   8   8   8   8   8
#     4   9  18  31  53  86 119 149 183 238 296 342
#     4  10  20  37  60  87 116 150 202 248 293 353
#     4  11  21  39  64  88 115 151 197 248 300 353
#     4  11  24  40  58  84 123 159 190 240 301 360
#     4   9  18  34  56  86 119 146 187 244 296 341
#     4  11  25  40  56  85 122 157 195 239 295 362
#     4  10  20  37  61  88 116 152 198 251 294 342
#
# _framework density 20.39799
#
# number of rings (size 3 to 8) (size 9 to 14) (size 15 to 20)
#    0.000    1.857    1.429    2.571    2.000    6.857 
#    0.000    0.000    0.000    1.286    0.000    0.000 
#    0.000    0.000    0.000    0.000    0.000    0.000 
#
# Total GULP energy -694607.243216 kJ/mol
# GULP energy per Si atom -12403.700772 kJ/mol
# Density = 2.035156 g / cm^3
# Si number density = 20.397990 Si / 1000 Ang^3
#
#
#
# Elastic Constant Matrix: (Units=GPa)
#
#
# Indices 1 2 3 4 5 6 
#
# 1 151.6493 72.4865 17.6363 0.0000 0.0000 0.0000
# 2 72.4865 152.6825 7.1998 0.0000 0.0000 0.0000
# 3 17.6363 7.1998 16.7757 0.0000 0.0000 0.0000
# 4 0.0000 0.0000 0.0000 9.9954 0.0000 0.0000
# 5 0.0000 0.0000 0.0000 0.0000 13.9405 0.0000
# 6 0.0000 0.0000 0.0000 0.0000 0.0000 36.8165
#
#
#
# Elastic Compliance Matrix: (Units=1/GPa)
#
#
# Indices 1 2 3 4 5 6 
#
# 1 0.009530 -0.004135 -0.008244 0.000000 0.000000 0.000000
# 2 -0.004135 0.008479 0.000708 0.000000 0.000000 0.000000
# 3 -0.008244 0.000708 0.067972 0.000000 0.000000 0.000000
# 4 0.000000 0.000000 0.000000 0.100046 0.000000 0.000000
# 5 0.000000 0.000000 0.000000 0.000000 0.071734 0.000000
# 6 0.000000 0.000000 0.000000 0.000000 0.000000 0.027162
#
#
# Mechanical properties :
#
#
# Convention : Reuss Voigt Hill
#
# Bulk Modulus (GPa) = 15.96419 57.30585 36.63502
# Shear Modulus (GPa) = 15.19093 27.06948 21.13020
#
# Velocity S-wave (km/s) = 2.73193 3.64684 3.22203
# Velocity P-wave (km/s) = 4.21836 6.77403 5.64279
#
# Compressibility (1/GPa) = 0.06264019
#
# Stress axis : x y z
#
# Youngs Moduli (GPa) = 104.93671 117.93215 14.71184
#
# Poissons Ratio (x) = 0.48770 0.12128
# Poissons Ratio (y) = 0.43396 -0.01042
# Poissons Ratio (z) = 0.86505 -0.08354
#
# Static dielectric constant tensor:
#      x y z
#    x 3.910490 0.000000 0.000000 
#    y 0.000000 3.838480 0.000000 
#    z 0.000000 0.000000 3.224600 
# 
# 
# High freq. dielectric constant tensor:
#      x y z
#    x 1.809860 0.000000 0.000000 
#    y 0.000000 1.812200 0.000000 
#    z 0.000000 0.000000 1.758240 
# 
# From -- ./inp_files/8760.got.cif
#   From: 2010.03.12/outbox.cif.g09.slc.cpg/sg55_5_cif.got.tgz:8760.got - 2010.04.16 15:19:21.
