data_PCOD8226540
_publ_section_title
;
Structure prediction by ZEFSAII (Michael W. Deem and Ramdas Pophale) SiO2 
 PCOD8226540
Probable space group: P B A M
;
_chemical_formula_sum "Si O2"
_cell_formula_units_Z 48
_cell_length_a 18.921702
_cell_length_b 15.079981
_cell_length_c 8.624949
_cell_angle_alpha 90.000000
_cell_angle_beta 90.000000
_cell_angle_gamma 90.000000
_cell_volume 2461.033518
_symmetry_space_group_name_H-M "P B A M"
_symmetry_group_IT_number 55
_symmetry_cell_setting 'orthorhombic'
loop_
_space_group_symop_operation_xyz
x,y,z
-x,-y,z
1/2+x,1/2-y,-z
1/2-x,1/2+y,-z
-x,-y,-z
x,y,-z
1/2-x,1/2+y,z
1/2+x,1/2-y,z
loop_
_atom_site_type_symbol
_atom_site_label
_atom_site_fract_x
_atom_site_fract_y
_atom_site_fract_z
Si Si1 0.917920 0.258241 0.182219
Si Si2 0.166396 0.896189 0.320894
Si Si3 0.676263 0.910618 0.318101
Si Si4 0.423102 0.752472 0.818233
Si Si5 0.818782 0.596142 0.183059
Si Si6 0.163978 0.099902 0.677747
O O1 0.884987 0.162397 0.216074
O O2 0.876185 0.332358 0.276523
O O3 0.997651 0.258996 0.248156
O O4 0.913432 0.278537 0.000000
O O5 0.159167 0.868329 0.500000
O O6 0.246848 0.880923 0.271024
O O7 0.143819 0.997668 0.294654
O O8 0.674558 0.932314 0.500000
O O9 0.755487 0.882806 0.268044
O O10 0.653097 0.998565 0.225839
O O11 0.376398 0.833754 0.754497
O O12 0.388861 0.658505 0.777475
O O13 0.428274 0.759484 0.000000
O O14 0.806346 0.603948 0.000000
O O15 0.154516 0.127150 0.500000
#
# Coordination Sequence:
#
# PCOD8226540 Si02
#       6
#     8   8   8   8   8   8
#     4  11  23  38  55  80 113 150 186 226 276 331
#     4  10  21  38  58  84 113 143 184 234 279 328
#     4  10  21  38  59  85 112 143 184 232 278 328
#     4  10  23  38  54  80 114 147 184 227 274 328
#     4  10  20  37  60  84 110 146 186 229 278 330
#     4   9  20  37  58  81 108 141 180 226 277 327
#
# _framework density 19.504002
#
# number of rings (size 3 to 8) (size 9 to 14) (size 15 to 20)
#    0.000    2.000    0.000    4.000    0.000   10.667 
#    0.000    6.667    0.000    0.000    0.000    0.000 
#    0.000    0.000    0.000    0.000    0.000    0.000 
#
# Total GULP energy -595392.617125 kJ/mol
# GULP energy per Si atom -12404.012857 kJ/mol
# Density = 1.945961 g / cm^3
# Si number density = 19.504002 Si / 1000 Ang^3
#
#
#
# Elastic Constant Matrix: (Units=GPa)
#
#
# Indices 1 2 3 4 5 6 
#
# 1 103.8791 57.6315 9.9741 0.0000 0.0000 0.0000
# 2 57.6315 99.0760 10.8049 0.0000 0.0000 0.0000
# 3 9.9741 10.8049 31.5919 0.0000 0.0000 0.0000
# 4 0.0000 0.0000 0.0000 35.3004 0.0000 0.0000
# 5 0.0000 0.0000 0.0000 0.0000 20.1993 0.0000
# 6 0.0000 0.0000 0.0000 0.0000 0.0000 5.8024
#
#
#
# Elastic Compliance Matrix: (Units=1/GPa)
#
#
# Indices 1 2 3 4 5 6 
#
# 1 0.014305 -0.008132 -0.001735 0.000000 0.000000 0.000000
# 2 -0.008132 0.015107 -0.002599 0.000000 0.000000 0.000000
# 3 -0.001735 -0.002599 0.033091 0.000000 0.000000 0.000000
# 4 0.000000 0.000000 0.000000 0.028328 0.000000 0.000000
# 5 0.000000 0.000000 0.000000 0.000000 0.049507 0.000000
# 6 0.000000 0.000000 0.000000 0.000000 0.000000 0.172343
#
#
# Mechanical properties :
#
#
# Convention : Reuss Voigt Hill
#
# Bulk Modulus (GPa) = 26.61725 43.48534 35.05129
# Shear Modulus (GPa) = 14.28019 22.66953 18.47486
#
# Velocity S-wave (km/s) = 2.70879 3.41295 3.08106
# Velocity P-wave (km/s) = 4.84356 6.15427 5.53783
#
# Compressibility (1/GPa) = 0.03756962
#
# Stress axis : x y z
#
# Youngs Moduli (GPa) = 69.90803 66.19540 30.22012
#
# Poissons Ratio (x) = 0.53827 0.05243
# Poissons Ratio (y) = 0.56846 0.07856
# Poissons Ratio (z) = 0.12130 0.17207
#
# Static dielectric constant tensor:
#      x y z
#    x 3.721610 0.000000 0.000000 
#    y 0.000000 3.658700 0.000000 
#    z 0.000000 0.000000 3.485860 
# 
# 
# High freq. dielectric constant tensor:
#      x y z
#    x 1.756880 0.000000 0.000000 
#    y 0.000000 1.769820 0.000000 
#    z 0.000000 0.000000 1.760460 
# 
# From -- ./inp_files/5617.got.cif
#   From: 2010.03.12/outbox.cif.g09.slc.cpg/sg55_3_cif.got.tgz:5617.got - 2010.04.16 15:19:21.
