data_PCOD8226502
_publ_section_title
;
Structure prediction by ZEFSAII (Michael W. Deem and Ramdas Pophale) SiO2 
 PCOD8226502
Probable space group: P B A M
;
_chemical_formula_sum "Si O2"
_cell_formula_units_Z 64
_cell_length_a 24.327593
_cell_length_b 14.385579
_cell_length_c 9.393215
_cell_angle_alpha 90.000000
_cell_angle_beta 90.000000
_cell_angle_gamma 90.000000
_cell_volume 3287.310680
_symmetry_space_group_name_H-M "P B A M"
_symmetry_group_IT_number 55
_symmetry_cell_setting 'orthorhombic'
loop_
_space_group_symop_operation_xyz
x,y,z
-x,-y,z
1/2+x,1/2-y,-z
1/2-x,1/2+y,-z
-x,-y,-z
x,y,-z
1/2-x,1/2+y,z
1/2+x,1/2-y,z
loop_
_atom_site_type_symbol
_atom_site_label
_atom_site_fract_x
_atom_site_fract_y
_atom_site_fract_z
Si Si1 0.475242 0.400852 0.835274
Si Si2 0.623412 0.555460 0.663123
Si Si3 0.328131 0.021708 0.667206
Si Si4 0.946432 0.554594 0.667194
Si Si5 0.060374 0.260211 0.161438
Si Si6 0.743066 0.638848 0.336376
Si Si7 0.267067 0.174234 0.836545
Si Si8 0.353820 0.615792 0.841361
O O1 0.500000 0.500000 0.788790
O O2 0.420081 0.379785 0.745439
O O3 0.517744 0.320239 0.798174
O O4 0.459123 0.400909 0.000000
O O5 0.606053 0.550711 0.500000
O O6 0.683996 0.593828 0.684738
O O7 0.620167 0.452370 0.726606
O O8 0.321422 0.043103 0.500000
O O9 0.312814 0.115045 0.752904
O O10 0.390859 0.999437 0.709838
O O11 0.289615 0.934889 0.711168
O O12 0.948997 0.569216 0.500000
O O13 0.947942 0.655404 0.734161
O O14 0.000000 0.500000 0.723015
O O15 0.121613 0.218750 0.184166
O O16 0.052055 0.294881 0.000000
O O17 0.752749 0.669181 0.500000
O O18 0.745255 0.727668 0.235912
O O19 0.211430 0.115459 0.828904
O O20 0.285788 0.189615 0.000000
O O21 0.372012 0.582361 0.000000
#
# Coordination Sequence:
#
# PCOD8226502 Si02
#       8
#     8   8   8   8   8   8   8   8
#     4  10  20  37  58  82 120 161 191 231 293 355
#     4  11  22  35  56  86 117 153 196 242 287 342
#     4  10  21  41  64  85 118 159 196 242 299 359
#     4  10  23  42  63  87 115 151 196 249 300 343
#     4  10  21  38  62  87 114 156 200 240 292 351
#     4  10  22  39  58  84 120 160 196 236 295 358
#     4  11  23  36  60  92 119 153 197 248 296 348
#     4  10  20  37  58  84 118 152 191 241 296 348
#
# _framework density 19.468802
#
# number of rings (size 3 to 8) (size 9 to 14) (size 15 to 20)
#    0.000    1.750    2.500    1.500    0.000    5.000 
#    0.000    3.750    0.000    0.000    0.000    0.000 
#    0.000    0.000    0.000    0.000    0.000    0.000 
#
# Total GULP energy -793740.110800 kJ/mol
# GULP energy per Si atom -12402.189231 kJ/mol
# Density = 1.942449 g / cm^3
# Si number density = 19.468802 Si / 1000 Ang^3
#
#
#
# Elastic Constant Matrix: (Units=GPa)
#
#
# Indices 1 2 3 4 5 6 
#
# 1 115.7125 29.3136 43.2402 0.0000 0.0000 0.0000
# 2 29.3136 73.8510 38.4093 0.0000 0.0000 0.0000
# 3 43.2402 38.4093 74.2481 0.0000 0.0000 0.0000
# 4 0.0000 0.0000 0.0000 10.3623 0.0000 0.0000
# 5 0.0000 0.0000 0.0000 0.0000 29.6220 0.0000
# 6 0.0000 0.0000 0.0000 0.0000 0.0000 24.2528
#
#
#
# Elastic Compliance Matrix: (Units=1/GPa)
#
#
# Indices 1 2 3 4 5 6 
#
# 1 0.011156 -0.001435 -0.005755 0.000000 0.000000 0.000000
# 2 -0.001435 0.018710 -0.008843 0.000000 0.000000 0.000000
# 3 -0.005755 -0.008843 0.021394 0.000000 0.000000 0.000000
# 4 0.000000 0.000000 0.000000 0.096503 0.000000 0.000000
# 5 0.000000 0.000000 0.000000 0.000000 0.033759 0.000000
# 6 0.000000 0.000000 0.000000 0.000000 0.000000 0.041232
#
#
# Mechanical properties :
#
#
# Convention : Reuss Voigt Hill
#
# Bulk Modulus (GPa) = 52.09808 53.97086 53.03447
# Shear Modulus (GPa) = 19.14115 23.03734 21.08925
#
# Velocity S-wave (km/s) = 3.13896 3.44364 3.29482
# Velocity P-wave (km/s) = 6.32102 6.60253 6.46331
#
# Compressibility (1/GPa) = 0.01919456
#
# Stress axis : x y z
#
# Youngs Moduli (GPa) = 89.63704 53.44867 46.74181
#
# Poissons Ratio (x) = 0.07671 0.26898
# Poissons Ratio (y) = 0.12866 0.41333
# Poissons Ratio (z) = 0.51582 0.47263
#
# Static dielectric constant tensor:
#      x y z
#    x 3.834910 0.000000 0.000000 
#    y 0.000000 3.347640 0.000000 
#    z 0.000000 0.000000 3.548990 
# 
# 
# High freq. dielectric constant tensor:
#      x y z
#    x 1.770040 0.000000 0.000000 
#    y 0.000000 1.748560 0.000000 
#    z 0.000000 0.000000 1.756580 
# 
# From -- ./inp_files/9759.got.cif
#   From: 2010.03.12/outbox.cif.g09.slc.cpg/sg55_5_cif.got.tgz:9759.got - 2010.04.16 15:19:21.
