data_PCOD8226615
_publ_section_title
;
Structure prediction by ZEFSAII (Michael W. Deem and Ramdas Pophale) SiO2 
 PCOD8226615
Probable space group: P B A M
;
_chemical_formula_sum "Si O2"
_cell_formula_units_Z 56
_cell_length_a 14.736847
_cell_length_b 21.938056
_cell_length_c 8.428016
_cell_angle_alpha 90.000000
_cell_angle_beta 90.000000
_cell_angle_gamma 90.000000
_cell_volume 2724.758818
_symmetry_space_group_name_H-M "P B A M"
_symmetry_group_IT_number 55
_symmetry_cell_setting 'orthorhombic'
loop_
_space_group_symop_operation_xyz
x,y,z
-x,-y,z
1/2+x,1/2-y,-z
1/2-x,1/2+y,-z
-x,-y,-z
x,y,-z
1/2-x,1/2+y,z
1/2+x,1/2-y,z
loop_
_atom_site_type_symbol
_atom_site_label
_atom_site_fract_x
_atom_site_fract_y
_atom_site_fract_z
Si Si1 0.319113 0.777727 0.318091
Si Si2 0.310482 0.373583 0.187578
Si Si3 0.034548 0.361210 0.819044
Si Si4 0.845395 0.851766 0.815196
Si Si5 0.836199 0.533935 0.820265
Si Si6 0.492429 0.429780 0.685361
Si Si7 0.654300 0.901351 0.188477
O O1 0.306549 0.759150 0.500000
O O2 0.224845 0.808754 0.257998
O O3 0.403595 0.823002 0.299161
O O4 0.351489 0.719613 0.217880
O O5 0.244501 0.426048 0.258064
O O6 0.412851 0.391033 0.231376
O O7 0.300812 0.367056 0.000000
O O8 0.068337 0.431132 0.814232
O O9 0.931665 0.361497 0.752824
O O10 0.042447 0.335977 0.000000
O O11 0.745440 0.869241 0.755926
O O12 0.915619 0.893154 0.718521
O O13 0.861053 0.865254 0.000000
O O14 0.846344 0.468912 0.733866
O O15 0.805065 0.521687 0.000000
O O16 0.500000 0.500000 0.749076
O O17 0.471712 0.431053 0.500000
O O18 0.644743 0.905870 0.000000
#
# Coordination Sequence:
#
# PCOD8226615 Si02
#       7
#     8   8   8   8   8   8   8
#     4  11  23  40  58  80 115 153 193 242 299 355
#     4  10  20  37  63  89 114 151 199 244 287 345
#     4   9  17  32  56  84 113 145 183 225 273 338
#     4  11  23  39  59  83 113 151 201 252 292 343
#     4   8  14  27  52  86 116 139 171 220 275 329
#     4  11  24  41  61  89 125 161 197 244 308 371
#     4   9  17  30  53  84 112 139 176 227 280 327
#
# _framework density 20.552277
#
# number of rings (size 3 to 8) (size 9 to 14) (size 15 to 20)
#    0.000    2.143    0.000    4.714    0.000    5.143 
#    0.000    5.714    0.000    8.571    0.000    0.000 
#    0.000    0.000    0.000    0.000    0.000    0.000 
#
# Total GULP energy -694183.370954 kJ/mol
# GULP energy per Si atom -12396.131624 kJ/mol
# Density = 2.050550 g / cm^3
# Si number density = 20.552277 Si / 1000 Ang^3
#
#
#
# Elastic Constant Matrix: (Units=GPa)
#
#
# Indices 1 2 3 4 5 6 
#
# 1 131.2130 35.8857 14.2189 0.0000 0.0000 0.0000
# 2 35.8857 107.1777 9.1833 0.0000 0.0000 0.0000
# 3 14.2189 9.1833 40.3279 0.0000 0.0000 0.0000
# 4 0.0000 0.0000 0.0000 17.7295 0.0000 0.0000
# 5 0.0000 0.0000 0.0000 0.0000 23.4044 0.0000
# 6 0.0000 0.0000 0.0000 0.0000 0.0000 27.8964
#
#
#
# Elastic Compliance Matrix: (Units=1/GPa)
#
#
# Indices 1 2 3 4 5 6 
#
# 1 0.008616 -0.002677 -0.002428 0.000000 0.000000 0.000000
# 2 -0.002677 0.010348 -0.001412 0.000000 0.000000 0.000000
# 3 -0.002428 -0.001412 0.025975 0.000000 0.000000 0.000000
# 4 0.000000 0.000000 0.000000 0.056403 0.000000 0.000000
# 5 0.000000 0.000000 0.000000 0.000000 0.042727 0.000000
# 6 0.000000 0.000000 0.000000 0.000000 0.000000 0.035847
#
#
# Mechanical properties :
#
#
# Convention : Reuss Voigt Hill
#
# Bulk Modulus (GPa) = 31.34503 44.14382 37.74442
# Shear Modulus (GPa) = 24.55967 28.43478 26.49723
#
# Velocity S-wave (km/s) = 3.46061 3.72362 3.59452
# Velocity P-wave (km/s) = 5.59037 6.32555 5.96929
#
# Compressibility (1/GPa) = 0.03190299
#
# Stress axis : x y z
#
# Youngs Moduli (GPa) = 116.05675 96.64056 38.49920
#
# Poissons Ratio (x) = 0.25870 0.09349
# Poissons Ratio (y) = 0.31068 0.05438
# Poissons Ratio (z) = 0.28184 0.13650
#
# Static dielectric constant tensor:
#      x y z
#    x 3.807260 0.000000 0.000000 
#    y 0.000000 3.790040 0.000000 
#    z 0.000000 0.000000 3.325060 
# 
# 
# High freq. dielectric constant tensor:
#      x y z
#    x 1.810720 0.000000 0.000000 
#    y 0.000000 1.805630 0.000000 
#    z 0.000000 0.000000 1.769900 
# 
# From -- ./inp_files/6019.got.cif
#   From: 2010.03.12/outbox.cif.g09.slc.cpg/sg55_4_cif.got.tgz:6019.got - 2010.04.16 15:19:21.
