data_PCOD8226419
_publ_section_title
;
Structure prediction by ZEFSAII (Michael W. Deem and Ramdas Pophale) SiO2 
 PCOD8226419
Probable space group: P B A M
;
_chemical_formula_sum "Si O2"
_cell_formula_units_Z 64
_cell_length_a 15.281957
_cell_length_b 23.772772
_cell_length_c 8.947768
_cell_angle_alpha 90.000000
_cell_angle_beta 90.000000
_cell_angle_gamma 90.000000
_cell_volume 3250.674718
_symmetry_space_group_name_H-M "P B A M"
_symmetry_group_IT_number 55
_symmetry_cell_setting 'orthorhombic'
loop_
_space_group_symop_operation_xyz
x,y,z
-x,-y,z
1/2+x,1/2-y,-z
1/2-x,1/2+y,-z
-x,-y,-z
x,y,-z
1/2-x,1/2+y,z
1/2+x,1/2-y,z
loop_
_atom_site_type_symbol
_atom_site_label
_atom_site_fract_x
_atom_site_fract_y
_atom_site_fract_z
Si Si1 0.595884 0.634081 0.173495
Si Si2 0.748021 0.070610 0.322897
Si Si3 0.750400 0.442364 0.323810
Si Si4 0.910575 0.367417 0.324309
Si Si5 0.397128 0.625770 0.828582
Si Si6 0.910388 0.634911 0.172081
Si Si7 0.833301 0.752622 0.828452
Si Si8 0.848055 0.243677 0.325108
O O1 0.660420 0.594148 0.264073
O O2 0.498349 0.610629 0.197422
O O3 0.598222 0.697582 0.233595
O O4 0.622866 0.634299 0.000000
O O5 0.746027 0.076576 0.500000
O O6 0.668720 0.105276 0.255775
O O7 0.739312 0.006279 0.270246
O O8 0.747050 0.437645 0.500000
O O9 0.832834 0.406928 0.262635
O O10 0.659712 0.417557 0.265271
O O11 0.924368 0.375465 0.500000
O O12 0.887113 0.303840 0.282098
O O13 0.998908 0.385896 0.242330
O O14 0.379878 0.689941 0.777906
O O15 0.370587 0.618341 0.000000
O O16 0.902466 0.702178 0.191685
O O17 0.907653 0.616897 0.000000
O O18 0.753007 0.740806 0.719505
O O19 0.800276 0.755395 0.000000
O O20 0.855948 0.230896 0.500000
#
# Coordination Sequence:
#
# PCOD8226419 Si02
#       8
#     8   8   8   8   8   8   8   8
#     4  11  23  40  61  89 125 159 196 245 301 361
#     4  11  24  42  63  86 116 158 205 252 302 354
#     4  10  23  43  63  85 118 158 202 253 302 350
#     4  10  22  40  61  89 122 157 196 244 298 353
#     4  10  22  39  62  90 120 158 198 241 297 358
#     4  11  23  39  62  91 122 159 198 243 298 356
#     4  10  20  36  59  88 122 156 191 238 296 354
#     4  11  21  35  61  92 121 157 198 241 294 356
#
# _framework density 19.688220999999999
#
# number of rings (size 3 to 8) (size 9 to 14) (size 15 to 20)
#    0.000    1.500    2.500    2.250    0.000    6.000 
#    0.000    5.000    0.000    0.000    0.000    0.000 
#    0.000    0.000    0.000    0.000    0.000    0.000 
#
# Total GULP energy -793925.161252 kJ/mol
# GULP energy per Si atom -12405.080645 kJ/mol
# Density = 1.964341 g / cm^3
# Si number density = 19.688221 Si / 1000 Ang^3
#
#
#
# Elastic Constant Matrix: (Units=GPa)
#
#
# Indices 1 2 3 4 5 6 
#
# 1 110.7496 44.0694 33.1036 0.0000 0.0000 0.0000
# 2 44.0694 106.2666 48.2852 0.0000 0.0000 0.0000
# 3 33.1036 48.2852 54.0290 0.0000 0.0000 0.0000
# 4 0.0000 0.0000 0.0000 23.4054 0.0000 0.0000
# 5 0.0000 0.0000 0.0000 0.0000 38.2451 0.0000
# 6 0.0000 0.0000 0.0000 0.0000 0.0000 8.2366
#
#
#
# Elastic Compliance Matrix: (Units=1/GPa)
#
#
# Indices 1 2 3 4 5 6 
#
# 1 0.011475 -0.002634 -0.004677 0.000000 0.000000 0.000000
# 2 -0.002634 0.016449 -0.013086 0.000000 0.000000 0.000000
# 3 -0.004677 -0.013086 0.033070 0.000000 0.000000 0.000000
# 4 0.000000 0.000000 0.000000 0.042725 0.000000 0.000000
# 5 0.000000 0.000000 0.000000 0.000000 0.026147 0.000000
# 6 0.000000 0.000000 0.000000 0.000000 0.000000 0.121410
#
#
# Mechanical properties :
#
#
# Convention : Reuss Voigt Hill
#
# Bulk Modulus (GPa) = 49.50759 57.99573 53.75166
# Shear Modulus (GPa) = 16.73341 23.68320 20.20830
#
# Velocity S-wave (km/s) = 2.91850 3.47206 3.20725
# Velocity P-wave (km/s) = 6.04626 6.75238 6.40905
#
# Compressibility (1/GPa) = 0.02019892
#
# Stress axis : x y z
#
# Youngs Moduli (GPa) = 87.14262 60.79534 30.23931
#
# Poissons Ratio (x) = 0.16011 0.14144
# Poissons Ratio (y) = 0.22950 0.39572
# Poissons Ratio (z) = 0.40760 0.79559
#
# Static dielectric constant tensor:
#      x y z
#    x 3.568380 0.000000 0.000000 
#    y 0.000000 3.753190 0.000000 
#    z 0.000000 0.000000 3.572630 
# 
# 
# High freq. dielectric constant tensor:
#      x y z
#    x 1.775390 0.000000 0.000000 
#    y 0.000000 1.768630 0.000000 
#    z 0.000000 0.000000 1.768570 
# 
# From -- ./inp_files/6647.got.cif
#   From: 2010.03.12/outbox.cif.g09.slc.cpg/sg55_4_cif.got.tgz:6647.got - 2010.04.16 15:19:21.
