data_PCOD8226537
_publ_section_title
;
Structure prediction by ZEFSAII (Michael W. Deem and Ramdas Pophale) SiO2 
 PCOD8226537
Probable space group: P B A M
;
_chemical_formula_sum "Si O2"
_cell_formula_units_Z 40
_cell_length_a 9.410585
_cell_length_b 25.259129
_cell_length_c 8.405642
_cell_angle_alpha 90.000000
_cell_angle_beta 90.000000
_cell_angle_gamma 90.000000
_cell_volume 1998.047837
_symmetry_space_group_name_H-M "P B A M"
_symmetry_group_IT_number 55
_symmetry_cell_setting 'orthorhombic'
loop_
_space_group_symop_operation_xyz
x,y,z
-x,-y,z
1/2+x,1/2-y,-z
1/2-x,1/2+y,-z
-x,-y,-z
x,y,-z
1/2-x,1/2+y,z
1/2+x,1/2-y,z
loop_
_atom_site_type_symbol
_atom_site_label
_atom_site_fract_x
_atom_site_fract_y
_atom_site_fract_z
Si Si1 0.654289 0.600414 0.814134
Si Si2 0.661601 0.010177 0.687035
Si Si3 0.831150 0.799738 0.183226
Si Si4 0.651058 0.410982 0.686498
Si Si5 0.867026 0.213477 0.315586
O O1 0.785693 0.562138 0.778582
O O2 0.513623 0.578418 0.727168
O O3 0.695177 0.658379 0.750090
O O4 0.622518 0.603852 0.000000
O O5 0.675731 0.020336 0.500000
O O6 0.500000 0.000000 0.737892
O O7 0.756764 0.960826 0.742591
O O8 0.787560 0.859997 0.221936
O O9 0.700060 0.761948 0.220039
O O10 0.964338 0.783462 0.291582
O O11 0.875381 0.795175 0.000000
O O12 0.667247 0.400935 0.500000
O O13 0.829585 0.218759 0.500000
#
# Coordination Sequence:
#
# PCOD8226537 Si02
#       5
#     8   8   8   8   8
#     4  11  22  37  58  84 114 148 189 235 284 336
#     4  10  22  39  58  82 113 148 188 234 283 338
#     4  11  22  38  59  86 118 149 188 239 291 336
#     4  10  20  37  60  83 110 149 194 233 278 340
#     4  11  22  39  61  85 115 153 195 233 280 343
#
# _framework density 20.019542000000001
#
# number of rings (size 3 to 8) (size 9 to 14) (size 15 to 20)
#    0.000    1.400    0.000    9.000    0.000    6.000 
#    0.000    6.000    0.000    0.000    0.000    0.000 
#    0.000    0.000    0.000    0.000    0.000    0.000 
#
# Total GULP energy -496261.576685 kJ/mol
# GULP energy per Si atom -12406.539417 kJ/mol
# Density = 1.997398 g / cm^3
# Si number density = 20.019542 Si / 1000 Ang^3
#
#
#
# Elastic Constant Matrix: (Units=GPa)
#
#
# Indices 1 2 3 4 5 6 
#
# 1 47.0161 21.5262 5.3566 0.0000 0.0000 0.0000
# 2 21.5262 68.0665 24.1574 0.0000 0.0000 0.0000
# 3 5.3566 24.1574 79.8986 0.0000 0.0000 0.0000
# 4 0.0000 0.0000 0.0000 14.1047 0.0000 0.0000
# 5 0.0000 0.0000 0.0000 0.0000 20.0710 0.0000
# 6 0.0000 0.0000 0.0000 0.0000 0.0000 41.9156
#
#
#
# Elastic Compliance Matrix: (Units=1/GPa)
#
#
# Indices 1 2 3 4 5 6 
#
# 1 0.024916 -0.008163 0.000798 0.000000 0.000000 0.000000
# 2 -0.008163 0.019132 -0.005237 0.000000 0.000000 0.000000
# 3 0.000798 -0.005237 0.014046 0.000000 0.000000 0.000000
# 4 0.000000 0.000000 0.000000 0.070899 0.000000 0.000000
# 5 0.000000 0.000000 0.000000 0.000000 0.049823 0.000000
# 6 0.000000 0.000000 0.000000 0.000000 0.000000 0.023857
#
#
# Mechanical properties :
#
#
# Convention : Reuss Voigt Hill
#
# Bulk Modulus (GPa) = 30.40568 33.00682 31.70625
# Shear Modulus (GPa) = 20.93453 24.81434 22.87443
#
# Velocity S-wave (km/s) = 3.23724 3.52448 3.38391
# Velocity P-wave (km/s) = 5.40314 5.75202 5.58031
#
# Compressibility (1/GPa) = 0.03288859
#
# Stress axis : x y z
#
# Youngs Moduli (GPa) = 40.13531 52.26915 71.19525
#
# Poissons Ratio (x) = 0.42666 -0.05678
# Poissons Ratio (y) = 0.32761 0.37287
# Poissons Ratio (z) = -0.03201 0.27375
#
# Static dielectric constant tensor:
#      x y z
#    x 3.478150 0.000000 0.000000 
#    y 0.000000 3.776500 0.000000 
#    z 0.000000 0.000000 3.630050 
# 
# 
# High freq. dielectric constant tensor:
#      x y z
#    x 1.769930 0.000000 0.000000 
#    y 0.000000 1.792080 0.000000 
#    z 0.000000 0.000000 1.791110 
# 
# From -- ./inp_files/2333.got.cif
#   From: 2010.03.12/outbox.cif.g09.slc.cpg/sg55_2_cif.got.tgz:2333.got - 2010.04.16 15:19:21.
