data_PCOD8226046
_publ_section_title
;
Structure prediction by ZEFSAII (Michael W. Deem and Ramdas Pophale) SiO2 
 PCOD8226046
Probable space group: P B A M
;
_chemical_formula_sum "Si O2"
_cell_formula_units_Z 64
_cell_length_a 24.370920
_cell_length_b 15.056324
_cell_length_c 8.915987
_cell_angle_alpha 90.000000
_cell_angle_beta 90.000000
_cell_angle_gamma 90.000000
_cell_volume 3271.600776
_symmetry_space_group_name_H-M "P B A M"
_symmetry_group_IT_number 55
_symmetry_cell_setting 'orthorhombic'
loop_
_space_group_symop_operation_xyz
x,y,z
-x,-y,z
1/2+x,1/2-y,-z
1/2-x,1/2+y,-z
-x,-y,-z
x,y,-z
1/2-x,1/2+y,z
1/2+x,1/2-y,z
loop_
_atom_site_type_symbol
_atom_site_label
_atom_site_fract_x
_atom_site_fract_y
_atom_site_fract_z
Si Si1 0.608574 0.499930 0.325204
Si Si2 0.284598 0.456898 0.826556
Si Si3 0.765655 0.220762 0.670457
Si Si4 0.557034 0.334917 0.176860
Si Si5 0.859245 0.702827 0.326410
Si Si6 0.160005 0.479604 0.174605
Si Si7 0.361665 0.154170 0.327897
Si Si8 0.943720 0.188568 0.325764
O O1 0.607824 0.478622 0.500000
O O2 0.670594 0.487136 0.265878
O O3 0.567801 0.431470 0.246185
O O4 0.588345 0.598520 0.286765
O O5 0.287425 0.353756 0.782787
O O6 0.224247 0.493618 0.788513
O O7 0.299120 0.466823 0.000000
O O8 0.775924 0.186548 0.500000
O O9 0.701864 0.241202 0.697725
O O10 0.800152 0.309594 0.700651
O O11 0.601249 0.264393 0.231743
O O12 0.497384 0.301874 0.225514
O O13 0.560193 0.342219 0.000000
O O14 0.876493 0.704753 0.500000
O O15 0.864021 0.602454 0.267655
O O16 0.128307 0.568322 0.224759
O O17 0.150133 0.460917 0.000000
O O18 0.369122 0.125520 0.500000
O O19 0.405136 0.229220 0.282854
O O20 0.960360 0.190005 0.500000
#
# Coordination Sequence:
#
# PCOD8226046 Si02
#       8
#     8   8   8   8   8   8   8   8
#     4  11  22  39  62  87 119 161 204 248 293 353
#     4  10  20  34  54  86 125 160 193 237 297 357
#     4   9  18  35  58  86 116 154 199 242 292 351
#     4  12  26  41  60  88 122 157 199 251 305 362
#     4  10  21  40  64  88 117 159 206 250 296 353
#     4  10  22  38  57  88 127 163 196 245 306 359
#     4  10  20  37  61  90 119 155 203 250 294 354
#     4  10  22  42  64  87 118 156 203 251 296 351
#
# _framework density 19.562289
#
# number of rings (size 3 to 8) (size 9 to 14) (size 15 to 20)
#    0.000    1.750    1.250    3.000    1.750    5.500 
#    0.000    0.625    0.000    3.750    0.000    0.000 
#    0.000    0.000    0.000    0.000    0.000    0.000 
#
# Total GULP energy -793894.522514 kJ/mol
# GULP energy per Si atom -12404.601914 kJ/mol
# Density = 1.951776 g / cm^3
# Si number density = 19.562289 Si / 1000 Ang^3
#
#
#
# Elastic Constant Matrix: (Units=GPa)
#
#
# Indices 1 2 3 4 5 6 
#
# 1 82.5834 33.0454 48.5581 0.0000 0.0000 0.0000
# 2 33.0454 77.6204 39.3351 0.0000 0.0000 0.0000
# 3 48.5581 39.3351 93.9329 0.0000 0.0000 0.0000
# 4 0.0000 0.0000 0.0000 31.9187 0.0000 0.0000
# 5 0.0000 0.0000 0.0000 0.0000 30.8156 0.0000
# 6 0.0000 0.0000 0.0000 0.0000 0.0000 23.0461
#
#
#
# Elastic Compliance Matrix: (Units=1/GPa)
#
#
# Indices 1 2 3 4 5 6 
#
# 1 0.018235 -0.003791 -0.007839 0.000000 0.000000 0.000000
# 2 -0.003791 0.017142 -0.005219 0.000000 0.000000 0.000000
# 3 -0.007839 -0.005219 0.016884 0.000000 0.000000 0.000000
# 4 0.000000 0.000000 0.000000 0.031330 0.000000 0.000000
# 5 0.000000 0.000000 0.000000 0.000000 0.032451 0.000000
# 6 0.000000 0.000000 0.000000 0.000000 0.000000 0.043391
#
#
# Mechanical properties :
#
#
# Convention : Reuss Voigt Hill
#
# Bulk Modulus (GPa) = 53.86923 55.11267 54.49095
# Shear Modulus (GPa) = 25.08565 26.03595 25.56080
#
# Velocity S-wave (km/s) = 3.58487 3.65214 3.61866
# Velocity P-wave (km/s) = 6.68821 6.78368 6.73611
#
# Compressibility (1/GPa) = 0.01856347
#
# Stress axis : x y z
#
# Youngs Moduli (GPa) = 54.83915 58.33758 59.22880
#
# Poissons Ratio (x) = 0.22114 0.46431
# Poissons Ratio (y) = 0.20788 0.30909
# Poissons Ratio (z) = 0.42990 0.30444
#
# Static dielectric constant tensor:
#      x y z
#    x 3.607360 0.000000 0.000000 
#    y 0.000000 3.442130 0.000000 
#    z 0.000000 0.000000 3.560210 
# 
# 
# High freq. dielectric constant tensor:
#      x y z
#    x 1.756920 0.000000 0.000000 
#    y 0.000000 1.758690 0.000000 
#    z 0.000000 0.000000 1.765510 
# 
# From -- ./inp_files/9665.got.cif
#   From: 2010.03.12/outbox.cif.g09.slc.cpg/sg55_5_cif.got.tgz:9665.got - 2010.04.16 15:19:21.
