data_PCOD8226895
_publ_section_title
;
Structure prediction by ZEFSAII (Michael W. Deem and Ramdas Pophale) SiO2 
 PCOD8226895
Probable space group: P B A M
;
_chemical_formula_sum "Si O2"
_cell_formula_units_Z 56
_cell_length_a 7.597120
_cell_length_b 18.281484
_cell_length_c 19.447931
_cell_angle_alpha 90.000000
_cell_angle_beta 90.000000
_cell_angle_gamma 90.000000
_cell_volume 2701.057553
_symmetry_space_group_name_H-M "P B A M"
_symmetry_group_IT_number 55
_symmetry_cell_setting 'orthorhombic'
loop_
_space_group_symop_operation_xyz
x,y,z
-x,-y,z
1/2+x,1/2-y,-z
1/2-x,1/2+y,-z
-x,-y,-z
x,y,-z
1/2-x,1/2+y,z
1/2+x,1/2-y,z
loop_
_atom_site_type_symbol
_atom_site_label
_atom_site_fract_x
_atom_site_fract_y
_atom_site_fract_z
Si Si1 0.794526 0.830904 0.076639
Si Si2 0.205473 0.830903 0.923361
Si Si3 0.500000 0.584184 0.581223
Si Si4 0.292080 0.835050 0.663824
Si Si5 0.700656 0.079727 0.204905
Si Si6 0.207920 0.664950 0.663824
Si Si7 0.799343 0.420274 0.204905
O O1 0.749997 0.750001 0.103422
O O2 0.712698 0.888792 0.128339
O O3 1.000000 0.843476 0.075179
O O4 0.714463 0.842536 0.000000
O O5 0.287304 0.888790 0.871662
O O6 0.285537 0.842534 0.000000
O O7 0.500000 0.500000 0.605871
O O8 0.500002 0.590258 0.500000
O O9 0.678577 0.623192 0.606660
O O10 0.321422 0.623192 0.606660
O O11 0.222777 0.865240 0.737779
O O12 0.250001 0.750000 0.661097
O O13 0.500000 0.848622 0.650687
O O14 0.500000 0.068057 0.223774
O O15 0.795399 0.000001 0.207858
O O16 0.277224 0.634759 0.737778
#
# Coordination Sequence:
#
# PCOD8226895 Si02
#       7
#     8   8   8   8   8   8   8
#     4  10  21  36  55  81 113 155 205 257 313 372
#     4  10  21  36  55  81 113 155 205 257 313 372
#     4  11  26  46  70 102 136 174 216 261 326 392
#     4  11  23  43  68 100 132 171 220 270 320 382
#     4  10  22  38  59  87 120 160 205 256 316 378
#     4  11  23  43  68 100 132 171 220 270 320 382
#     4  10  22  38  59  87 120 160 205 256 316 378
#
# _framework density 20.732620000000001
#
# number of rings (size 3 to 8) (size 9 to 14) (size 15 to 20)
#    0.000    1.571    1.429    2.571    2.000    8.000 
#    0.000    4.286    0.000    0.000    0.000    0.000 
#    0.000    0.000    0.000    0.000    0.000    0.000 
#
# Total GULP energy -694285.307229 kJ/mol
# GULP energy per Si atom -12397.951915 kJ/mol
# Density = 2.068543 g / cm^3
# Si number density = 20.732620 Si / 1000 Ang^3
#
#
#
# Elastic Constant Matrix: (Units=GPa)
#
#
# Indices 1 2 3 4 5 6 
#
# 1 89.6402 40.5652 33.0449 0.0000 0.0000 0.0000
# 2 40.5652 187.8042 80.0547 0.0000 0.0000 0.0000
# 3 33.0449 80.0547 114.5097 0.0000 0.0000 0.0000
# 4 0.0000 0.0000 0.0000 38.9763 0.0000 0.0000
# 5 0.0000 0.0000 0.0000 0.0000 30.6035 0.0000
# 6 0.0000 0.0000 0.0000 0.0000 0.0000 11.8271
#
#
#
# Elastic Compliance Matrix: (Units=1/GPa)
#
#
# Indices 1 2 3 4 5 6 
#
# 1 0.012855 -0.001703 -0.002519 0.000000 0.000000 0.000000
# 2 -0.001703 0.007811 -0.004969 0.000000 0.000000 0.000000
# 3 -0.002519 -0.004969 0.012934 0.000000 0.000000 0.000000
# 4 0.000000 0.000000 0.000000 0.025657 0.000000 0.000000
# 5 0.000000 0.000000 0.000000 0.000000 0.032676 0.000000
# 6 0.000000 0.000000 0.000000 0.000000 0.000000 0.084552
#
#
# Mechanical properties :
#
#
# Convention : Reuss Voigt Hill
#
# Bulk Modulus (GPa) = 65.71508 77.69820 71.70664
# Shear Modulus (GPa) = 25.00769 32.16733 28.58751
#
# Velocity S-wave (km/s) = 3.47681 3.94322 3.71734
# Velocity P-wave (km/s) = 6.91974 7.63477 7.28603
#
# Compressibility (1/GPa) = 0.01521721
#
# Stress axis : x y z
#
# Youngs Moduli (GPa) = 77.79100 128.03022 77.31667
#
# Poissons Ratio (x) = 0.21801 0.19478
# Poissons Ratio (y) = 0.13246 0.38420
# Poissons Ratio (z) = 0.19597 0.63620
#
# Static dielectric constant tensor:
#      x y z
#    x 3.764220 0.000000 0.000000 
#    y 0.000000 3.973440 0.000000 
#    z 0.000000 0.000000 3.853500 
# 
# 
# High freq. dielectric constant tensor:
#      x y z
#    x 1.812480 0.000000 0.000000 
#    y 0.000000 1.822010 0.000000 
#    z 0.000000 0.000000 1.809470 
# 
# From -- ./inp_files/22690.got.cif
#   From: 2010.03.12/outbox.cif.g09.slc.cpg/sg55_12_cif.got.tgz:22690.got - 2010.04.16 15:19:21.
