data_PCOD8226095
_publ_section_title
;
Structure prediction by ZEFSAII (Michael W. Deem and Ramdas Pophale) SiO2 
 PCOD8226095
Probable space group: P B A M
;
_chemical_formula_sum "Si O2"
_cell_formula_units_Z 36
_cell_length_a 4.902419
_cell_length_b 24.421440
_cell_length_c 13.407119
_cell_angle_alpha 90.000000
_cell_angle_beta 90.000000
_cell_angle_gamma 90.000000
_cell_volume 1605.155678
_symmetry_space_group_name_H-M "P B A M"
_symmetry_group_IT_number 55
_symmetry_cell_setting 'orthorhombic'
loop_
_space_group_symop_operation_xyz
x,y,z
-x,-y,z
1/2+x,1/2-y,-z
1/2-x,1/2+y,-z
-x,-y,-z
x,y,-z
1/2-x,1/2+y,z
1/2+x,1/2-y,z
loop_
_atom_site_type_symbol
_atom_site_label
_atom_site_fract_x
_atom_site_fract_y
_atom_site_fract_z
Si Si1 0.228024 0.643299 0.389383
Si Si2 0.451263 0.392099 0.884987
Si Si3 0.565595 0.937496 0.223697
Si Si4 0.352882 0.786356 0.500000
Si Si5 0.995704 0.212449 0.770508
O O1 0.343865 0.626901 0.500000
O O2 0.160449 0.588797 0.328030
O O3 0.948758 0.679295 0.402165
O O4 0.451434 0.680303 0.332969
O O5 0.694139 0.433937 0.857955
O O6 0.545826 0.329973 0.861476
O O7 0.192457 0.404940 0.816986
O O8 0.374465 0.398923 0.000000
O O9 0.500000 0.000000 0.245574
O O10 0.533889 0.729396 0.500000
O O11 0.691088 0.235109 0.778495
#
# Coordination Sequence:
#
# PCOD8226095 Si02
#       5
#     8   8   8   4   8
#     4   9  22  40  61  96 130 169 214 263 306 384
#     4  11  25  44  66  96 130 165 220 279 330 398
#     4  11  24  44  67  95 129 170 221 276 333 387
#     4  10  20  34  57  86 121 162 202 244 296 362
#     4  11  22  38  62  92 128 168 207 255 318 384
#
# _framework density 22.427731000000001
#
# number of rings (size 3 to 8) (size 9 to 14) (size 15 to 20)
#    0.667    0.889    0.000    5.333    0.000    7.556 
#    0.000    0.000    0.000    6.667    0.000    0.000 
#    0.000    0.000    0.000    0.000    0.000    0.000 
#
# Total GULP energy -446362.259560 kJ/mol
# GULP energy per Si atom -12398.951654 kJ/mol
# Density = 2.237668 g / cm^3
# Si number density = 22.427731 Si / 1000 Ang^3
#
#
#
# Elastic Constant Matrix: (Units=GPa)
#
#
# Indices 1 2 3 4 5 6 
#
# 1 70.7702 2.7008 4.5047 0.0000 0.0000 0.0000
# 2 2.7008 103.8656 56.3630 0.0000 0.0000 0.0000
# 3 4.5047 56.3630 99.7036 0.0000 0.0000 0.0000
# 4 0.0000 0.0000 0.0000 14.4350 0.0000 0.0000
# 5 0.0000 0.0000 0.0000 0.0000 34.5110 0.0000
# 6 0.0000 0.0000 0.0000 0.0000 0.0000 22.0881
#
#
#
# Elastic Compliance Matrix: (Units=1/GPa)
#
#
# Indices 1 2 3 4 5 6 
#
# 1 0.014171 -0.000030 -0.000623 0.000000 0.000000 0.000000
# 2 -0.000030 0.013888 -0.007850 0.000000 0.000000 0.000000
# 3 -0.000623 -0.007850 0.014495 0.000000 0.000000 0.000000
# 4 0.000000 0.000000 0.000000 0.069276 0.000000 0.000000
# 5 0.000000 0.000000 0.000000 0.000000 0.028976 0.000000
# 6 0.000000 0.000000 0.000000 0.000000 0.000000 0.045273
#
#
# Mechanical properties :
#
#
# Convention : Reuss Voigt Hill
#
# Bulk Modulus (GPa) = 39.14153 44.60850 41.87501
# Shear Modulus (GPa) = 23.62918 28.25822 25.94370
#
# Velocity S-wave (km/s) = 3.24940 3.55345 3.40482
# Velocity P-wave (km/s) = 5.61856 6.06375 5.84540
#
# Compressibility (1/GPa) = 0.02554831
#
# Stress axis : x y z
#
# Youngs Moduli (GPa) = 70.56637 72.00287 68.98738
#
# Poissons Ratio (x) = 0.00219 0.04299
# Poissons Ratio (y) = 0.00214 0.54154
# Poissons Ratio (z) = 0.04397 0.56521
#
# Static dielectric constant tensor:
#      x y z
#    x 4.036180 0.000000 0.000000 
#    y 0.000000 3.895430 0.000000 
#    z 0.000000 0.000000 4.058060 
# 
# 
# High freq. dielectric constant tensor:
#      x y z
#    x 1.892840 0.000000 0.000000 
#    y 0.000000 1.873630 0.000000 
#    z 0.000000 0.000000 1.879010 
# 
# From -- ./inp_files/16533.got.cif
#   From: 2010.03.12/outbox.cif.g09.slc.cpg/sg55_9_cif.got.tgz:16533.got - 2010.04.16 15:19:21.
