data_PCOD8226670
_publ_section_title
;
Structure prediction by ZEFSAII (Michael W. Deem and Ramdas Pophale) SiO2 
 PCOD8226670
Probable space group: P B A M
;
_chemical_formula_sum "Si O2"
_cell_formula_units_Z 64
_cell_length_a 30.345780
_cell_length_b 11.694194
_cell_length_c 9.069782
_cell_angle_alpha 90.000000
_cell_angle_beta 90.000000
_cell_angle_gamma 90.000000
_cell_volume 3218.588445
_symmetry_space_group_name_H-M "P B A M"
_symmetry_group_IT_number 55
_symmetry_cell_setting 'orthorhombic'
loop_
_space_group_symop_operation_xyz
x,y,z
-x,-y,z
1/2+x,1/2-y,-z
1/2-x,1/2+y,-z
-x,-y,-z
x,y,-z
1/2-x,1/2+y,z
1/2+x,1/2-y,z
loop_
_atom_site_type_symbol
_atom_site_label
_atom_site_fract_x
_atom_site_fract_y
_atom_site_fract_z
Si Si1 0.706443 0.716404 0.326948
Si Si2 0.950206 0.766676 0.326578
Si Si3 0.670933 0.507918 0.832014
Si Si4 0.619687 0.854424 0.328367
Si Si5 0.462283 0.258198 0.170398
Si Si6 0.929707 0.994623 0.832949
Si Si7 0.295608 0.740570 0.827749
Si Si8 0.633060 0.117767 0.327747
O O1 0.715110 0.718318 0.500000
O O2 0.699869 0.585973 0.275505
O O3 0.664486 0.791753 0.280802
O O4 0.748098 0.770070 0.245868
O O5 0.957160 0.759574 0.500000
O O6 0.943048 0.897668 0.281340
O O7 0.908777 0.691445 0.274675
O O8 0.993538 0.714474 0.249874
O O9 0.619965 0.535720 0.804259
O O10 0.678815 0.376212 0.793207
O O11 0.684711 0.534863 0.000000
O O12 0.609886 0.835026 0.500000
O O13 0.579617 0.803661 0.237698
O O14 0.624036 0.986942 0.288577
O O15 0.460299 0.395275 0.192220
O O16 0.464579 0.225123 0.000000
O O17 0.934870 0.947036 0.000000
O O18 0.323487 0.843975 0.759165
O O19 0.289931 0.763501 0.000000
O O20 0.642220 0.135648 0.500000
#
# Coordination Sequence:
#
# PCOD8226670 Si02
#       8
#     8   8   8   8   8   8   8   8
#     4  11  24  40  63  92 123 158 200 250 300 360
#     4  11  23  38  61  90 122 159 201 249 299 360
#     4  10  21  40  64  91 124 160 200 248 303 359
#     4  10  23  43  63  86 119 158 202 250 300 356
#     4  11  23  39  62  89 121 159 199 248 303 361
#     4  10  20  38  61  88 123 157 195 246 303 357
#     4  11  24  41  64  92 123 159 201 250 299 358
#     4  10  23  43  63  87 121 161 203 249 303 358
#
# _framework density 19.884492000000002
#
# number of rings (size 3 to 8) (size 9 to 14) (size 15 to 20)
#    0.000    1.500    2.500    1.875    1.750    6.000 
#    0.000    2.500    0.000    0.000    0.000    0.000 
#    0.000    0.000    0.000    0.000    0.000    0.000 
#
# Total GULP energy -794023.578006 kJ/mol
# GULP energy per Si atom -12406.618406 kJ/mol
# Density = 1.983923 g / cm^3
# Si number density = 19.884492 Si / 1000 Ang^3
#
#
#
# Elastic Constant Matrix: (Units=GPa)
#
#
# Indices 1 2 3 4 5 6 
#
# 1 118.6637 36.7305 57.9084 0.0000 0.0000 0.0000
# 2 36.7305 79.1018 40.9567 0.0000 0.0000 0.0000
# 3 57.9084 40.9567 81.4578 0.0000 0.0000 0.0000
# 4 0.0000 0.0000 0.0000 29.4720 0.0000 0.0000
# 5 0.0000 0.0000 0.0000 0.0000 38.0785 0.0000
# 6 0.0000 0.0000 0.0000 0.0000 0.0000 23.9613
#
#
#
# Elastic Compliance Matrix: (Units=1/GPa)
#
#
# Indices 1 2 3 4 5 6 
#
# 1 0.013071 -0.001701 -0.008437 0.000000 0.000000 0.000000
# 2 -0.001701 0.017313 -0.007496 0.000000 0.000000 0.000000
# 3 -0.008437 -0.007496 0.022043 0.000000 0.000000 0.000000
# 4 0.000000 0.000000 0.000000 0.033931 0.000000 0.000000
# 5 0.000000 0.000000 0.000000 0.000000 0.026262 0.000000
# 6 0.000000 0.000000 0.000000 0.000000 0.000000 0.041734
#
#
# Mechanical properties :
#
#
# Convention : Reuss Voigt Hill
#
# Bulk Modulus (GPa) = 58.27629 61.15717 59.71673
# Shear Modulus (GPa) = 25.59650 27.87754 26.73702
#
# Velocity S-wave (km/s) = 3.59173 3.74836 3.67088
# Velocity P-wave (km/s) = 6.82435 7.03964 6.93283
#
# Compressibility (1/GPa) = 0.01715964
#
# Stress axis : x y z
#
# Youngs Moduli (GPa) = 76.50574 57.76081 45.36639
#
# Poissons Ratio (x) = 0.09825 0.38275
# Poissons Ratio (y) = 0.13014 0.34004
# Poissons Ratio (z) = 0.64547 0.43295
#
# Static dielectric constant tensor:
#      x y z
#    x 3.736500 0.000000 0.000000 
#    y 0.000000 3.535260 0.000000 
#    z 0.000000 0.000000 3.587350 
# 
# 
# High freq. dielectric constant tensor:
#      x y z
#    x 1.790880 0.000000 0.000000 
#    y 0.000000 1.772780 0.000000 
#    z 0.000000 0.000000 1.777060 
# 
# From -- ./inp_files/4484.got.cif
#   From: 2010.03.12/outbox.cif.g09.slc.cpg/sg55_3_cif.got.tgz:4484.got - 2010.04.16 15:19:21.
