data_PCOD8226996
_publ_section_title
;
Structure prediction by ZEFSAII (Michael W. Deem and Ramdas Pophale) SiO2 
 PCOD8226996
Probable space group: P B A M
;
_chemical_formula_sum "Si O2"
_cell_formula_units_Z 56
_cell_length_a 13.695659
_cell_length_b 23.363113
_cell_length_c 8.629185
_cell_angle_alpha 90.000000
_cell_angle_beta 90.000000
_cell_angle_gamma 90.000000
_cell_volume 2761.108187
_symmetry_space_group_name_H-M "P B A M"
_symmetry_group_IT_number 55
_symmetry_cell_setting 'orthorhombic'
loop_
_space_group_symop_operation_xyz
x,y,z
-x,-y,z
1/2+x,1/2-y,-z
1/2-x,1/2+y,-z
-x,-y,-z
x,y,-z
1/2-x,1/2+y,z
1/2+x,1/2-y,z
loop_
_atom_site_type_symbol
_atom_site_label
_atom_site_fract_x
_atom_site_fract_y
_atom_site_fract_z
Si Si1 0.902294 0.063498 0.181134
Si Si2 0.391886 0.557677 0.318718
Si Si3 0.278105 0.881046 0.680081
Si Si4 0.390172 0.766598 0.320173
Si Si5 0.786124 0.838429 0.180668
Si Si6 0.045326 0.440784 0.820321
Si Si7 0.934597 0.326306 0.178669
O O1 0.820636 0.110045 0.223615
O O2 0.001069 0.079953 0.270767
O O3 0.865506 0.000543 0.229096
O O4 0.924465 0.065305 0.000000
O O5 0.389400 0.544757 0.500000
O O6 0.312293 0.605027 0.276243
O O7 0.253784 0.885780 0.500000
O O8 0.319842 0.819064 0.725920
O O9 0.356989 0.929296 0.723376
O O10 0.381744 0.750957 0.500000
O O11 0.360585 0.712184 0.219535
O O12 0.501684 0.782969 0.281662
O O13 0.677481 0.819243 0.229209
O O14 0.791881 0.853349 0.000000
O O15 0.000000 0.500000 0.760328
O O16 0.965729 0.391641 0.790367
O O17 0.075110 0.444775 0.000000
O O18 0.950699 0.309871 0.000000
#
# Coordination Sequence:
#
# PCOD8226996 Si02
#       7
#     8   8   8   8   8   8   8
#     4  11  22  39  62  87 119 158 200 246 295 355
#     4  11  23  40  60  87 121 154 194 246 301 356
#     4  10  21  37  57  84 116 155 198 245 299 355
#     4  10  22  40  60  84 118 156 199 249 298 350
#     4  11  23  39  62  89 119 158 201 245 297 358
#     4   9  18  33  55  84 115 151 190 236 293 357
#     4   9  20  38  58  84 118 152 193 243 293 350
#
# _framework density 20.281713
#
# number of rings (size 3 to 8) (size 9 to 14) (size 15 to 20)
#    0.000    1.857    0.000    4.714    2.000    4.286 
#    0.000    2.857    0.000    0.000    0.000    0.000 
#    0.000    0.000    0.000    0.000    0.000    0.000 
#
# Total GULP energy -694739.365450 kJ/mol
# GULP energy per Si atom -12406.060097 kJ/mol
# Density = 2.023555 g / cm^3
# Si number density = 20.281713 Si / 1000 Ang^3
#
#
#
# Elastic Constant Matrix: (Units=GPa)
#
#
# Indices 1 2 3 4 5 6 
#
# 1 82.3585 20.1561 17.2849 0.0000 0.0000 0.0000
# 2 20.1561 49.4486 10.6891 0.0000 0.0000 0.0000
# 3 17.2849 10.6891 64.2499 0.0000 0.0000 0.0000
# 4 0.0000 0.0000 0.0000 30.7990 0.0000 0.0000
# 5 0.0000 0.0000 0.0000 0.0000 33.2483 0.0000
# 6 0.0000 0.0000 0.0000 0.0000 0.0000 26.0660
#
#
#
# Elastic Compliance Matrix: (Units=1/GPa)
#
#
# Indices 1 2 3 4 5 6 
#
# 1 0.013997 -0.005074 -0.002921 0.000000 0.000000 0.000000
# 2 -0.005074 0.022817 -0.002431 0.000000 0.000000 0.000000
# 3 -0.002921 -0.002431 0.016755 0.000000 0.000000 0.000000
# 4 0.000000 0.000000 0.000000 0.032469 0.000000 0.000000
# 5 0.000000 0.000000 0.000000 0.000000 0.030077 0.000000
# 6 0.000000 0.000000 0.000000 0.000000 0.000000 0.038364
#
#
# Mechanical properties :
#
#
# Convention : Reuss Voigt Hill
#
# Bulk Modulus (GPa) = 30.56631 32.47969 31.52300
# Shear Modulus (GPa) = 26.84773 27.88445 27.36609
#
# Velocity S-wave (km/s) = 3.64227 3.71193 3.67727
# Velocity P-wave (km/s) = 5.72641 5.86688 5.79707
#
# Compressibility (1/GPa) = 0.03271576
#
# Stress axis : x y z
#
# Youngs Moduli (GPa) = 71.44424 43.82748 59.68509
#
# Poissons Ratio (x) = 0.22238 0.17436
# Poissons Ratio (y) = 0.36250 0.14509
# Poissons Ratio (z) = 0.20872 0.10654
#
# Static dielectric constant tensor:
#      x y z
#    x 3.702960 0.000000 0.000000 
#    y 0.000000 3.602510 0.000000 
#    z 0.000000 0.000000 3.646250 
# 
# 
# High freq. dielectric constant tensor:
#      x y z
#    x 1.795190 0.000000 0.000000 
#    y 0.000000 1.787220 0.000000 
#    z 0.000000 0.000000 1.795590 
# 
# From -- ./inp_files/6183.got.cif
#   From: 2010.03.12/outbox.cif.g09.slc.cpg/sg55_4_cif.got.tgz:6183.got - 2010.04.16 15:19:21.
