data_PCOD8226918
_publ_section_title
;
Structure prediction by ZEFSAII (Michael W. Deem and Ramdas Pophale) SiO2 
 PCOD8226918
Probable space group: P B A M
;
_chemical_formula_sum "Si O2"
_cell_formula_units_Z 64
_cell_length_a 9.573709
_cell_length_b 18.283736
_cell_length_c 19.112252
_cell_angle_alpha 90.000000
_cell_angle_beta 90.000000
_cell_angle_gamma 90.000000
_cell_volume 3345.469136
_symmetry_space_group_name_H-M "P B A M"
_symmetry_group_IT_number 55
_symmetry_cell_setting 'orthorhombic'
loop_
_space_group_symop_operation_xyz
x,y,z
-x,-y,z
1/2+x,1/2-y,-z
1/2-x,1/2+y,-z
-x,-y,-z
x,y,-z
1/2-x,1/2+y,z
1/2+x,1/2-y,z
loop_
_atom_site_type_symbol
_atom_site_label
_atom_site_fract_x
_atom_site_fract_y
_atom_site_fract_z
Si Si1 0.017291 0.581747 0.919870
Si Si2 0.986486 0.085456 0.081644
Si Si3 0.161235 0.582128 0.576301
Si Si4 0.841956 0.323129 0.705612
Si Si5 0.176221 0.322695 0.296671
Si Si6 0.759077 0.837622 0.142740
Si Si7 0.228201 0.335431 0.142003
Si Si8 0.830407 0.580306 0.575977
O O1 0.173504 0.612554 0.911957
O O2 0.000000 0.500000 0.886931
O O3 0.925635 0.643158 0.882314
O O4 0.972978 0.577194 0.000000
O O5 0.831467 0.113287 0.098229
O O6 0.082894 0.135897 0.131151
O O7 0.020338 0.098214 0.000000
O O8 0.000000 0.000000 0.100997
O O9 0.205228 0.615648 0.500000
O O10 0.213997 0.626902 0.642613
O O11 0.227658 0.501703 0.582976
O O12 0.995810 0.578140 0.580138
O O13 0.756271 0.251280 0.690206
O O14 0.794194 0.357366 0.779490
O O15 0.008892 0.310448 0.705505
O O16 0.233571 0.355380 0.223999
O O17 0.228498 0.373527 0.359688
O O18 0.745606 0.750786 0.128292
O O19 0.783976 0.612923 0.500000
#
# Coordination Sequence:
#
# PCOD8226918 Si02
#       8
#     8   8   8   8   8   8   8   8
#     4  11  23  39  59  85 114 145 188 239 287 340
#     4  11  25  43  61  85 118 151 188 239 297 352
#     4   8  15  30  53  82 114 148 190 235 276 327
#     4  10  21  36  57  84 116 149 189 236 283 335
#     4  10  21  36  57  84 116 149 189 236 283 335
#     4  11  23  39  60  85 115 152 193 237 286 344
#     4  11  23  39  60  85 115 152 193 237 286 344
#     4   8  15  30  53  82 114 148 190 235 276 327
#
# _framework density 19.130351000000001
#
# number of rings (size 3 to 8) (size 9 to 14) (size 15 to 20)
#    0.000    2.000    1.250    3.000    5.250    7.500 
#    0.000    0.000    0.000    0.000    0.000    1.750 
#    0.000    0.000    0.000    0.000    0.000    0.000 
#
# Total GULP energy -793281.252323 kJ/mol
# GULP energy per Si atom -12395.019568 kJ/mol
# Density = 1.908681 g / cm^3
# Si number density = 19.130351 Si / 1000 Ang^3
#
#
#
# Elastic Constant Matrix: (Units=GPa)
#
#
# Indices 1 2 3 4 5 6 
#
# 1 46.1350 25.9459 15.5600 0.0000 0.0000 0.0000
# 2 25.9459 90.4086 70.3170 0.0000 0.0000 0.0000
# 3 15.5600 70.3170 115.3451 0.0000 0.0000 0.0000
# 4 0.0000 0.0000 0.0000 35.4393 0.0000 0.0000
# 5 0.0000 0.0000 0.0000 0.0000 20.1084 0.0000
# 6 0.0000 0.0000 0.0000 0.0000 0.0000 26.0127
#
#
#
# Elastic Compliance Matrix: (Units=1/GPa)
#
#
# Indices 1 2 3 4 5 6 
#
# 1 0.026084 -0.009031 0.001987 0.000000 0.000000 0.000000
# 2 -0.009031 0.024161 -0.013511 0.000000 0.000000 0.000000
# 3 0.001987 -0.013511 0.016638 0.000000 0.000000 0.000000
# 4 0.000000 0.000000 0.000000 0.028217 0.000000 0.000000
# 5 0.000000 0.000000 0.000000 0.000000 0.049731 0.000000
# 6 0.000000 0.000000 0.000000 0.000000 0.000000 0.038443
#
#
# Mechanical properties :
#
#
# Convention : Reuss Voigt Hill
#
# Bulk Modulus (GPa) = 38.79982 52.83717 45.81849
# Shear Modulus (GPa) = 21.46148 25.64978 23.55563
#
# Velocity S-wave (km/s) = 3.35304 3.66565 3.51283
# Velocity P-wave (km/s) = 5.94276 6.75245 6.36050
#
# Compressibility (1/GPa) = 0.02577331
#
# Stress axis : x y z
#
# Youngs Moduli (GPa) = 38.33700 41.38902 60.10297
#
# Poissons Ratio (x) = 0.37379 -0.11941
# Poissons Ratio (y) = 0.34623 0.81204
# Poissons Ratio (z) = -0.07617 0.55920
#
# Static dielectric constant tensor:
#      x y z
#    x 3.235130 0.000000 0.000000 
#    y 0.000000 3.642400 0.000000 
#    z 0.000000 0.000000 3.885730 
# 
# 
# High freq. dielectric constant tensor:
#      x y z
#    x 1.723710 0.000000 0.000000 
#    y 0.000000 1.743250 0.000000 
#    z 0.000000 0.000000 1.757340 
# 
# From -- ./inp_files/21111.got.cif
#   From: 2010.03.12/outbox.cif.g09.slc.cpg/sg55_11_cif.got.tgz:21111.got - 2010.04.16 15:19:21.
