data_PCOD8226101
_publ_section_title
;
Structure prediction by ZEFSAII (Michael W. Deem and Ramdas Pophale) SiO2 
 PCOD8226101
Probable space group: P B A M
;
_chemical_formula_sum "Si O2"
_cell_formula_units_Z 64
_cell_length_a 17.325216
_cell_length_b 13.605885
_cell_length_c 13.654050
_cell_angle_alpha 90.000000
_cell_angle_beta 90.000000
_cell_angle_gamma 90.000000
_cell_volume 3218.599523
_symmetry_space_group_name_H-M "P B A M"
_symmetry_group_IT_number 55
_symmetry_cell_setting 'orthorhombic'
loop_
_space_group_symop_operation_xyz
x,y,z
-x,-y,z
1/2+x,1/2-y,-z
1/2-x,1/2+y,-z
-x,-y,-z
x,y,-z
1/2-x,1/2+y,z
1/2+x,1/2-y,z
loop_
_atom_site_type_symbol
_atom_site_label
_atom_site_fract_x
_atom_site_fract_y
_atom_site_fract_z
Si Si1 0.780594 0.112065 0.230468
Si Si2 0.345354 0.916731 0.612491
Si Si3 0.681881 0.395289 0.752708
Si Si4 0.970737 0.609619 0.770216
Si Si5 0.155299 0.283892 0.885845
Si Si6 0.046141 0.098842 0.607831
Si Si7 0.078247 0.767682 0.702846
Si Si8 0.308313 0.139965 0.393590
O O1 0.731608 0.122641 0.332062
O O2 0.735800 0.164800 0.142337
O O3 0.865451 0.159560 0.237879
O O4 0.789286 0.997401 0.200274
O O5 0.344926 0.878041 0.500000
O O6 0.422568 0.880327 0.668090
O O7 0.347048 0.033836 0.616592
O O8 0.647110 0.322394 0.833385
O O9 0.621602 0.424655 0.669448
O O10 0.750626 0.338787 0.696134
O O11 0.914940 0.644245 0.857779
O O12 0.000000 0.500000 0.791156
O O13 0.045999 0.679479 0.770648
O O14 0.153631 0.262853 0.000000
O O15 0.069588 0.137739 0.500000
O O16 0.996261 0.178332 0.663537
O O17 0.000000 0.000000 0.596054
O O18 0.124523 0.720641 0.612330
O O19 0.267618 0.149269 0.500000
#
# Coordination Sequence:
#
# PCOD8226101 Si02
#       8
#     8   8   8   8   8   8   8   8
#     4  10  23  40  64  90 125 163 203 260 309 360
#     4   9  20  37  56  86 128 171 207 240 290 361
#     4  11  21  43  64  86 127 166 204 257 308 369
#     4  11  23  41  64  90 128 166 202 258 316 369
#     4  11  25  46  69  93 115 154 212 265 324 381
#     4  11  23  37  59  94 133 174 209 244 297 370
#     4  12  21  38  58  90 129 164 207 249 302 361
#     4  10  20  34  58  89 123 165 205 244 292 359
#
# _framework density 19.884425
#
# number of rings (size 3 to 8) (size 9 to 14) (size 15 to 20)
#    0.000    1.375    5.000    0.750    0.000    3.500 
#    0.000    0.625    0.000    1.125    0.000    0.000 
#    0.000    0.000    0.000    0.000    0.000    0.000 
#
# Total GULP energy -793618.935371 kJ/mol
# GULP energy per Si atom -12400.295865 kJ/mol
# Density = 1.983917 g / cm^3
# Si number density = 19.884425 Si / 1000 Ang^3
#
#
#
# Elastic Constant Matrix: (Units=GPa)
#
#
# Indices 1 2 3 4 5 6 
#
# 1 70.5371 26.9929 24.7688 0.0000 0.0000 0.0000
# 2 26.9929 94.6301 28.5445 0.0000 0.0000 0.0000
# 3 24.7688 28.5445 101.6711 0.0000 0.0000 0.0000
# 4 0.0000 0.0000 0.0000 23.5598 0.0000 0.0000
# 5 0.0000 0.0000 0.0000 0.0000 17.1589 0.0000
# 6 0.0000 0.0000 0.0000 0.0000 0.0000 42.6513
#
#
#
# Elastic Compliance Matrix: (Units=1/GPa)
#
#
# Indices 1 2 3 4 5 6 
#
# 1 0.016704 -0.003864 -0.002984 0.000000 0.000000 0.000000
# 2 -0.003864 0.012439 -0.002551 0.000000 0.000000 0.000000
# 3 -0.002984 -0.002551 0.011279 0.000000 0.000000 0.000000
# 4 0.000000 0.000000 0.000000 0.042445 0.000000 0.000000
# 5 0.000000 0.000000 0.000000 0.000000 0.058279 0.000000
# 6 0.000000 0.000000 0.000000 0.000000 0.000000 0.023446
#
#
# Mechanical properties :
#
#
# Convention : Reuss Voigt Hill
#
# Bulk Modulus (GPa) = 46.24841 47.49452 46.87147
# Shear Modulus (GPa) = 26.23313 29.10948 27.67131
#
# Velocity S-wave (km/s) = 3.63613 3.83029 3.73447
# Velocity P-wave (km/s) = 6.39826 6.59535 6.49755
#
# Compressibility (1/GPa) = 0.02162237
#
# Stress axis : x y z
#
# Youngs Moduli (GPa) = 59.86693 80.39070 88.66153
#
# Poissons Ratio (x) = 0.31067 0.26460
# Poissons Ratio (y) = 0.23135 0.22617
# Poissons Ratio (z) = 0.17866 0.20507
#
# Static dielectric constant tensor:
#      x y z
#    x 4.152460 0.000000 0.000000 
#    y 0.000000 3.435590 0.000000 
#    z 0.000000 0.000000 3.247110 
# 
# 
# High freq. dielectric constant tensor:
#      x y z
#    x 1.781380 0.000000 0.000000 
#    y 0.000000 1.795180 0.000000 
#    z 0.000000 0.000000 1.733520 
# 
# From -- ./inp_files/14985.got.cif
#   From: 2010.03.12/outbox.cif.g09.slc.cpg/sg55_8_cif.got.tgz:14985.got - 2010.04.16 15:19:21.
