data_PCOD8226138
_publ_section_title
;
Structure prediction by ZEFSAII (Michael W. Deem and Ramdas Pophale) SiO2 
 PCOD8226138
Probable space group: P B A M
;
_chemical_formula_sum "Si O2"
_cell_formula_units_Z 40
_cell_length_a 9.664129
_cell_length_b 25.705434
_cell_length_c 8.611161
_cell_angle_alpha 90.000000
_cell_angle_beta 90.000000
_cell_angle_gamma 90.000000
_cell_volume 2139.190042
_symmetry_space_group_name_H-M "P B A M"
_symmetry_group_IT_number 55
_symmetry_cell_setting 'orthorhombic'
loop_
_space_group_symop_operation_xyz
x,y,z
-x,-y,z
1/2+x,1/2-y,-z
1/2-x,1/2+y,-z
-x,-y,-z
x,y,-z
1/2-x,1/2+y,z
1/2+x,1/2-y,z
loop_
_atom_site_type_symbol
_atom_site_label
_atom_site_fract_x
_atom_site_fract_y
_atom_site_fract_z
Si Si1 0.494657 0.826434 0.178860
Si Si2 0.794579 0.859852 0.179867
Si Si3 0.489988 0.558895 0.682246
Si Si4 0.299461 0.364950 0.180206
Si Si5 0.004623 0.784616 0.319678
O O1 0.630494 0.860990 0.210986
O O2 0.362896 0.862062 0.221002
O O3 0.495820 0.776143 0.286629
O O4 0.486715 0.808046 0.000000
O O5 0.859342 0.914358 0.234273
O O6 0.860353 0.811888 0.274110
O O7 0.828882 0.851184 0.000000
O O8 0.500000 0.500000 0.742764
O O9 0.463642 0.561095 0.500000
O O10 0.632350 0.588538 0.722023
O O11 0.369896 0.309988 0.223169
O O12 0.324468 0.376505 0.000000
O O13 0.033403 0.794008 0.500000
#
# Coordination Sequence:
#
# PCOD8226138 Si02
#       5
#     8   8   8   8   8
#     4  10  21  35  51  76 108 139 172 211 254 298
#     4  10  20  35  55  77 103 136 174 214 253 299
#     4  10  21  38  58  78 101 130 167 212 260 311
#     4  10  20  35  55  77 103 136 174 214 253 299
#     4  11  21  32  50  77 108 143 178 208 246 301
#
# _framework density 18.698664999999998
#
# number of rings (size 3 to 8) (size 9 to 14) (size 15 to 20)
#    0.000    1.800    0.000    7.200    0.000    9.600 
#    0.000    1.000    0.000    6.000    0.000    0.000 
#    0.000    0.000    0.000    0.000    0.000    0.000 
#
# Total GULP energy -496132.408210 kJ/mol
# GULP energy per Si atom -12403.310205 kJ/mol
# Density = 1.865611 g / cm^3
# Si number density = 18.698665 Si / 1000 Ang^3
#
#
#
# Elastic Constant Matrix: (Units=GPa)
#
#
# Indices 1 2 3 4 5 6 
#
# 1 152.0793 47.6223 20.7085 0.0000 0.0000 0.0000
# 2 47.6223 114.1384 19.9514 0.0000 0.0000 0.0000
# 3 20.7085 19.9514 49.5348 0.0000 0.0000 0.0000
# 4 0.0000 0.0000 0.0000 26.6181 0.0000 0.0000
# 5 0.0000 0.0000 0.0000 0.0000 4.0352 0.0000
# 6 0.0000 0.0000 0.0000 0.0000 0.0000 9.1712
#
#
#
# Elastic Compliance Matrix: (Units=1/GPa)
#
#
# Indices 1 2 3 4 5 6 
#
# 1 0.007759 -0.002873 -0.002087 0.000000 0.000000 0.000000
# 2 -0.002873 0.010488 -0.003024 0.000000 0.000000 0.000000
# 3 -0.002087 -0.003024 0.022278 0.000000 0.000000 0.000000
# 4 0.000000 0.000000 0.000000 0.037568 0.000000 0.000000
# 5 0.000000 0.000000 0.000000 0.000000 0.247822 0.000000
# 6 0.000000 0.000000 0.000000 0.000000 0.000000 0.109037
#
#
# Mechanical properties :
#
#
# Convention : Reuss Voigt Hill
#
# Bulk Modulus (GPa) = 40.71706 54.70188 47.70947
# Shear Modulus (GPa) = 10.89076 23.12959 17.01018
#
# Velocity S-wave (km/s) = 2.41599 3.52087 3.01940
# Velocity P-wave (km/s) = 5.44108 6.77101 6.14215
#
# Compressibility (1/GPa) = 0.02455973
#
# Stress axis : x y z
#
# Youngs Moduli (GPa) = 128.87903 95.34384 44.88724
#
# Poissons Ratio (x) = 0.27389 0.09367
# Poissons Ratio (y) = 0.37022 0.13572
# Poissons Ratio (z) = 0.26894 0.28827
#
# Static dielectric constant tensor:
#      x y z
#    x 3.560690 0.000000 0.000000 
#    y 0.000000 3.268380 0.000000 
#    z 0.000000 0.000000 3.485060 
# 
# 
# High freq. dielectric constant tensor:
#      x y z
#    x 1.731430 0.000000 0.000000 
#    y 0.000000 1.703280 0.000000 
#    z 0.000000 0.000000 1.736320 
# 
# From -- ./inp_files/2519.got.cif
#   From: 2010.03.12/outbox.cif.g09.slc.cpg/sg55_2_cif.got.tgz:2519.got - 2010.04.16 15:19:21.
