data_PCOD8226593
_publ_section_title
;
Structure prediction by ZEFSAII (Michael W. Deem and Ramdas Pophale) SiO2 
 PCOD8226593
Probable space group: P B A M
;
_chemical_formula_sum "Si O2"
_cell_formula_units_Z 52
_cell_length_a 16.855072
_cell_length_b 9.425818
_cell_length_c 16.421885
_cell_angle_alpha 90.000000
_cell_angle_beta 90.000000
_cell_angle_gamma 90.000000
_cell_volume 2608.991525
_symmetry_space_group_name_H-M "P B A M"
_symmetry_group_IT_number 55
_symmetry_cell_setting 'orthorhombic'
loop_
_space_group_symop_operation_xyz
x,y,z
-x,-y,z
1/2+x,1/2-y,-z
1/2-x,1/2+y,-z
-x,-y,-z
x,y,-z
1/2-x,1/2+y,z
1/2+x,1/2-y,z
loop_
_atom_site_type_symbol
_atom_site_label
_atom_site_fract_x
_atom_site_fract_y
_atom_site_fract_z
Si Si1 0.205332 0.341366 0.092386
Si Si2 0.500000 0.500000 0.814216
Si Si3 0.830534 0.950313 0.150816
Si Si4 0.385330 0.945610 0.238980
Si Si5 0.233816 0.038223 0.324063
Si Si6 0.836077 0.224737 0.595323
Si Si7 0.033478 0.719083 0.280987
O O1 0.211865 0.171526 0.098132
O O2 0.288481 0.403587 0.125349
O O3 0.131039 0.389770 0.147855
O O4 0.189493 0.388572 0.000000
O O5 0.424747 0.545498 0.869278
O O6 0.533072 0.628087 0.759970
O O7 0.820218 0.915355 0.247064
O O8 0.305888 0.942916 0.291415
O O9 0.444952 0.843477 0.289174
O O10 0.417514 0.105676 0.226848
O O11 0.182995 0.939072 0.384320
O O12 0.265433 0.176076 0.370970
O O13 0.843558 0.246533 0.500000
O O14 0.921667 0.267647 0.632622
#
# Coordination Sequence:
#
# PCOD8226593 Si02
#       7
#     8   4   8   8   8   8   8
#     4  11  23  41  64  94 125 158 203 259 309 362
#     4  12  22  38  68  92 118 158 218 256 292 362
#     4  11  23  40  67  91 122 167 212 248 307 374
#     4   9  20  39  65  83 115 162 211 246 299 374
#     4  10  20  37  62  86 115 163 210 245 291 376
#     4  11  22  37  58  90 125 157 199 261 312 354
#     4  10  21  39  60  88 118 159 208 248 300 376
#
# _framework density 19.931073000000001
#
# number of rings (size 3 to 8) (size 9 to 14) (size 15 to 20)
#    0.000    1.538    3.077    2.769    4.308    0.000 
#    0.000   10.385    0.000    0.000    0.000    0.000 
#    0.000    0.000    0.000    0.000    0.000    0.000 
#
# Total GULP energy -644766.228785 kJ/mol
# GULP energy per Si atom -12399.350554 kJ/mol
# Density = 1.988571 g / cm^3
# Si number density = 19.931073 Si / 1000 Ang^3
#
#
#
# Elastic Constant Matrix: (Units=GPa)
#
#
# Indices 1 2 3 4 5 6 
#
# 1 110.8907 23.7436 32.7464 0.0000 0.0000 0.0000
# 2 23.7436 91.3042 25.5756 0.0000 0.0000 0.0000
# 3 32.7464 25.5756 104.2612 0.0000 0.0000 0.0000
# 4 0.0000 0.0000 0.0000 27.2391 0.0000 0.0000
# 5 0.0000 0.0000 0.0000 0.0000 18.3987 0.0000
# 6 0.0000 0.0000 0.0000 0.0000 0.0000 27.2472
#
#
#
# Elastic Compliance Matrix: (Units=1/GPa)
#
#
# Indices 1 2 3 4 5 6 
#
# 1 0.010235 -0.001891 -0.002751 0.000000 0.000000 0.000000
# 2 -0.001891 0.012110 -0.002377 0.000000 0.000000 0.000000
# 3 -0.002751 -0.002377 0.011038 0.000000 0.000000 0.000000
# 4 0.000000 0.000000 0.000000 0.036712 0.000000 0.000000
# 5 0.000000 0.000000 0.000000 0.000000 0.054352 0.000000
# 6 0.000000 0.000000 0.000000 0.000000 0.000000 0.036701
#
#
# Mechanical properties :
#
#
# Convention : Reuss Voigt Hill
#
# Bulk Modulus (GPa) = 51.68956 52.28749 51.98852
# Shear Modulus (GPa) = 27.52794 29.53637 28.53216
#
# Velocity S-wave (km/s) = 3.72042 3.85376 3.78768
# Velocity P-wave (km/s) = 6.66677 6.78918 6.72826
#
# Compressibility (1/GPa) = 0.01934627
#
# Stress axis : x y z
#
# Youngs Moduli (GPa) = 97.70289 82.57700 90.59407
#
# Poissons Ratio (x) = 0.15616 0.24920
# Poissons Ratio (y) = 0.18477 0.21531
# Poissons Ratio (z) = 0.26876 0.19626
#
# Static dielectric constant tensor:
#      x y z
#    x 3.770200 0.000000 0.000000 
#    y 0.000000 3.762040 0.000000 
#    z 0.000000 0.000000 3.328320 
# 
# 
# High freq. dielectric constant tensor:
#      x y z
#    x 1.780470 0.000000 0.000000 
#    y 0.000000 1.795690 0.000000 
#    z 0.000000 0.000000 1.742550 
# 
# From -- ./inp_files/21780.got.cif
#   From: 2010.03.12/outbox.cif.g09.slc.cpg/sg55_11_cif.got.tgz:21780.got - 2010.04.16 15:19:21.
