data_PCOD8226058
_publ_section_title
;
Structure prediction by ZEFSAII (Michael W. Deem and Ramdas Pophale) SiO2 
 PCOD8226058
Probable space group: P B A M
;
_chemical_formula_sum "Si O2"
_cell_formula_units_Z 56
_cell_length_a 21.656847
_cell_length_b 8.863797
_cell_length_c 13.860689
_cell_angle_alpha 90.000000
_cell_angle_beta 90.000000
_cell_angle_gamma 90.000000
_cell_volume 2660.724133
_symmetry_space_group_name_H-M "P B A M"
_symmetry_group_IT_number 55
_symmetry_cell_setting 'orthorhombic'
loop_
_space_group_symop_operation_xyz
x,y,z
-x,-y,z
1/2+x,1/2-y,-z
1/2-x,1/2+y,-z
-x,-y,-z
x,y,-z
1/2-x,1/2+y,z
1/2+x,1/2-y,z
loop_
_atom_site_type_symbol
_atom_site_label
_atom_site_fract_x
_atom_site_fract_y
_atom_site_fract_z
Si Si1 0.327086 0.091013 0.262570
Si Si2 0.591093 0.296752 0.394248
Si Si3 0.982276 0.832848 0.789783
Si Si4 0.136592 0.101390 0.889534
Si Si5 0.203615 0.238510 0.728553
Si Si6 0.433342 0.036071 0.605292
Si Si7 0.398286 0.255116 0.887709
O O1 0.272795 0.197556 0.304776
O O2 0.347013 0.140614 0.154574
O O3 0.306390 0.917491 0.264288
O O4 0.387322 0.131661 0.328017
O O5 0.582688 0.376055 0.500000
O O6 0.530659 0.322710 0.325911
O O7 0.654578 0.347044 0.341981
O O8 0.600956 0.120784 0.411502
O O9 0.919503 0.795854 0.847434
O O10 0.037709 0.727745 0.828216
O O11 0.000000 0.000000 0.819799
O O12 0.197051 0.158970 0.833311
O O13 0.126361 0.924377 0.872576
O O14 0.145773 0.141821 0.000000
O O15 0.443867 0.115559 0.500000
O O16 0.500000 0.000000 0.654704
O O17 0.409492 0.219298 0.000000
#
# Coordination Sequence:
#
# PCOD8226058 Si02
#       7
#     8   8   8   8   8   8   8
#     4  11  22  37  57  81 113 150 189 237 288 339
#     4   9  18  33  53  78 110 146 182 225 276 331
#     4   9  17  31  54  83 115 149 187 230 280 338
#     4   9  18  35  57  79 109 150 190 232 282 335
#     4  10  22  37  55  78 108 146 190 235 281 337
#     4   9  18  34  57  82 108 142 183 227 281 341
#     4  10  20  34  55  83 113 147 189 234 282 338
#
# _framework density 21.046900999999998
#
# number of rings (size 3 to 8) (size 9 to 14) (size 15 to 20)
#    0.000    2.429    0.000    2.143    0.000    3.714 
#    0.000    0.000    0.000   19.286    0.000    0.000 
#    0.000    0.000    0.000    0.000    0.000    0.000 
#
# Total GULP energy -693909.727885 kJ/mol
# GULP energy per Si atom -12391.245141 kJ/mol
# Density = 2.099900 g / cm^3
# Si number density = 21.046901 Si / 1000 Ang^3
#
#
#
# Elastic Constant Matrix: (Units=GPa)
#
#
# Indices 1 2 3 4 5 6 
#
# 1 135.2457 29.1684 63.5666 0.0000 0.0000 0.0000
# 2 29.1684 46.9871 26.3677 0.0000 0.0000 0.0000
# 3 63.5666 26.3677 134.8259 0.0000 0.0000 0.0000
# 4 0.0000 0.0000 0.0000 22.5634 0.0000 0.0000
# 5 0.0000 0.0000 0.0000 0.0000 23.9350 0.0000
# 6 0.0000 0.0000 0.0000 0.0000 0.0000 29.5933
#
#
#
# Elastic Compliance Matrix: (Units=1/GPa)
#
#
# Indices 1 2 3 4 5 6 
#
# 1 0.010144 -0.004059 -0.003989 0.000000 0.000000 0.000000
# 2 -0.004059 0.025530 -0.003079 0.000000 0.000000 0.000000
# 3 -0.003989 -0.003079 0.009900 0.000000 0.000000 0.000000
# 4 0.000000 0.000000 0.000000 0.044319 0.000000 0.000000
# 5 0.000000 0.000000 0.000000 0.000000 0.041780 0.000000
# 6 0.000000 0.000000 0.000000 0.000000 0.000000 0.033791
#
#
# Mechanical properties :
#
#
# Convention : Reuss Voigt Hill
#
# Bulk Modulus (GPa) = 42.88152 61.69603 52.28877
# Shear Modulus (GPa) = 25.57651 28.41542 26.99597
#
# Velocity S-wave (km/s) = 3.48978 3.67836 3.58531
# Velocity P-wave (km/s) = 6.05446 6.88605 6.48360
#
# Compressibility (1/GPa) = 0.02332007
#
# Stress axis : x y z
#
# Youngs Moduli (GPa) = 98.57933 39.16964 101.01181
#
# Poissons Ratio (x) = 0.15898 0.40293
# Poissons Ratio (y) = 0.40011 0.31104
# Poissons Ratio (z) = 0.39322 0.12061
#
# Static dielectric constant tensor:
#      x y z
#    x 3.917880 0.000000 0.000000 
#    y 0.000000 3.433860 0.000000 
#    z 0.000000 0.000000 4.016830 
# 
# 
# High freq. dielectric constant tensor:
#      x y z
#    x 1.828170 0.000000 0.000000 
#    y 0.000000 1.790540 0.000000 
#    z 0.000000 0.000000 1.824010 
# 
# From -- ./inp_files/19750.got.cif
#   From: 2010.03.12/outbox.cif.g09.slc.cpg/sg55_10_cif.got.tgz:19750.got - 2010.04.16 15:19:21.
