data_PCOD8226144
_publ_section_title
;
Structure prediction by ZEFSAII (Michael W. Deem and Ramdas Pophale) SiO2 
 PCOD8226144
Probable space group: P B A M
;
_chemical_formula_sum "Si O2"
_cell_formula_units_Z 48
_cell_length_a 17.656554
_cell_length_b 15.323007
_cell_length_c 9.199218
_cell_angle_alpha 90.000000
_cell_angle_beta 90.000000
_cell_angle_gamma 90.000000
_cell_volume 2488.862234
_symmetry_space_group_name_H-M "P B A M"
_symmetry_group_IT_number 55
_symmetry_cell_setting 'orthorhombic'
loop_
_space_group_symop_operation_xyz
x,y,z
-x,-y,z
1/2+x,1/2-y,-z
1/2-x,1/2+y,-z
-x,-y,-z
x,y,-z
1/2-x,1/2+y,z
1/2+x,1/2-y,z
loop_
_atom_site_type_symbol
_atom_site_label
_atom_site_fract_x
_atom_site_fract_y
_atom_site_fract_z
Si Si1 0.045828 0.413054 0.671491
Si Si2 0.538145 0.412033 0.168816
Si Si3 0.698681 0.745571 0.666780
Si Si4 0.782736 0.573109 0.327506
Si Si5 0.954135 0.264981 0.169798
Si Si6 0.192621 0.092886 0.666228
O O1 0.042982 0.394199 0.500000
O O2 0.131354 0.423798 0.730796
O O3 0.000000 0.500000 0.711281
O O4 0.010573 0.331254 0.753068
O O5 0.500000 0.500000 0.230478
O O6 0.481371 0.333041 0.200390
O O7 0.616081 0.394129 0.247861
O O8 0.556621 0.422160 0.000000
O O9 0.671394 0.735873 0.500000
O O10 0.734656 0.656005 0.727003
O O11 0.629070 0.774916 0.764871
O O12 0.762387 0.818042 0.680814
O O13 0.786740 0.571358 0.500000
O O14 0.742112 0.486289 0.267229
O O15 0.951614 0.286860 0.000000
O O16 0.172319 0.071914 0.500000
#
# Coordination Sequence:
#
# PCOD8226144 Si02
#       6
#     8   8   8   8   8   8
#     4  10  20  37  61  84 110 145 180 220 274 329
#     4  10  22  39  56  78 112 151 187 224 271 326
#     4  10  20  35  55  78 107 142 180 224 273 325
#     4   9  18  33  54  81 108 136 177 225 270 322
#     4  11  23  37  55  81 112 145 184 228 271 321
#     4  10  20  35  57  83 107 136 180 229 273 320
#
# _framework density 19.285921999999999
#
# number of rings (size 3 to 8) (size 9 to 14) (size 15 to 20)
#    0.000    2.000    0.000    3.500    0.000    6.667 
#    0.000    1.667    0.000    0.000    0.000    0.000 
#    0.000    0.000    0.000    0.000    0.000    0.000 
#
# Total GULP energy -595398.941397 kJ/mol
# GULP energy per Si atom -12404.144612 kJ/mol
# Density = 1.924203 g / cm^3
# Si number density = 19.285922 Si / 1000 Ang^3
#
#
#
# Elastic Constant Matrix: (Units=GPa)
#
#
# Indices 1 2 3 4 5 6 
#
# 1 87.9415 -5.8744 31.6338 0.0000 0.0000 0.0000
# 2 -5.8744 76.2374 25.1157 0.0000 0.0000 0.0000
# 3 31.6338 25.1157 49.9934 0.0000 0.0000 0.0000
# 4 0.0000 0.0000 0.0000 19.1457 0.0000 0.0000
# 5 0.0000 0.0000 0.0000 0.0000 -13.8190 0.0000
# 6 0.0000 0.0000 0.0000 0.0000 0.0000 31.6148
#
#
#
# Elastic Compliance Matrix: (Units=1/GPa)
#
#
# Indices 1 2 3 4 5 6 
#
# 1 0.016535 0.005657 -0.013305 0.000000 0.000000 0.000000
# 2 0.005657 0.017654 -0.012449 0.000000 0.000000 0.000000
# 3 -0.013305 -0.012449 0.034675 0.000000 0.000000 0.000000
# 4 0.000000 0.000000 0.000000 0.052231 0.000000 0.000000
# 5 0.000000 0.000000 0.000000 0.000000 -0.072364 0.000000
# 6 0.000000 0.000000 0.000000 0.000000 0.000000 0.031631
#
#
# Mechanical properties :
#
#
# Convention : Reuss Voigt Hill
#
# Bulk Modulus (GPa) = 34.87740 35.10251 34.98996
# Shear Modulus (GPa) = 38.42853 18.27478 28.35165
#
# Velocity S-wave (km/s) = 4.46866 3.08160 3.83831
# Velocity P-wave (km/s) = 6.68946 5.55899 6.15025
#
# Compressibility (1/GPa) = 0.02867186
#
# Stress axis : x y z
#
# Youngs Moduli (GPa) = 60.47771 56.64459 28.83896
#
# Poissons Ratio (x) = -0.32045 0.38370
# Poissons Ratio (y) = -0.34214 0.35901
# Poissons Ratio (z) = 0.80464 0.70515
#
# Static dielectric constant tensor:
#      x y z
#    x 3.577820 0.000000 0.000000 
#    y 0.000000 3.795960 0.000000 
#    z 0.000000 0.000000 3.323080 
# 
# 
# High freq. dielectric constant tensor:
#      x y z
#    x 1.763850 0.000000 0.000000 
#    y 0.000000 1.770170 0.000000 
#    z 0.000000 0.000000 1.723020 
# 
# From -- ./inp_files/5649.got.cif
#   From: 2010.03.12/outbox.cif.g09.slc.cpg/sg55_3_cif.got.tgz:5649.got - 2010.04.16 15:19:21.
