data_PCOD8226364
_publ_section_title
;
Structure prediction by ZEFSAII (Michael W. Deem and Ramdas Pophale) SiO2 
 PCOD8226364
Probable space group: P B A M
;
_chemical_formula_sum "Si O2"
_cell_formula_units_Z 64
_cell_length_a 18.396990
_cell_length_b 19.703859
_cell_length_c 9.235194
_cell_angle_alpha 90.000000
_cell_angle_beta 90.000000
_cell_angle_gamma 90.000000
_cell_volume 3347.681145
_symmetry_space_group_name_H-M "P B A M"
_symmetry_group_IT_number 55
_symmetry_cell_setting 'orthorhombic'
loop_
_space_group_symop_operation_xyz
x,y,z
-x,-y,z
1/2+x,1/2-y,-z
1/2-x,1/2+y,-z
-x,-y,-z
x,y,-z
1/2-x,1/2+y,z
1/2+x,1/2-y,z
loop_
_atom_site_type_symbol
_atom_site_label
_atom_site_fract_x
_atom_site_fract_y
_atom_site_fract_z
Si Si1 0.793623 0.415260 0.834351
Si Si2 0.041819 0.566409 0.166553
Si Si3 0.196743 0.740836 0.829736
Si Si4 0.297181 0.842590 0.331134
Si Si5 0.539924 0.707518 0.167251
Si Si6 0.438038 0.447033 0.833591
Si Si7 0.291055 0.474323 0.329109
Si Si8 0.462453 0.818125 0.329980
O O1 0.873063 0.447625 0.814088
O O2 0.795406 0.337300 0.784902
O O3 0.736907 0.454988 0.735289
O O4 0.767773 0.421458 0.000000
O O5 0.000000 0.500000 0.221302
O O6 0.019801 0.629426 0.264553
O O7 0.022868 0.583698 0.000000
O O8 0.260657 0.781195 0.753113
O O9 0.119150 0.769159 0.776728
O O10 0.204625 0.751704 0.000000
O O11 0.284229 0.830107 0.500000
O O12 0.263342 0.914178 0.281652
O O13 0.381883 0.843079 0.290827
O O14 0.529660 0.627665 0.191737
O O15 0.477641 0.744616 0.260061
O O16 0.530074 0.728007 0.000000
O O17 0.500000 0.500000 0.790231
O O18 0.370236 0.458305 0.730402
O O19 0.413168 0.456300 0.000000
O O20 0.295583 0.481873 0.500000
O O21 0.474869 0.813104 0.500000
#
# Coordination Sequence:
#
# PCOD8226364 Si02
#       8
#     8   8   8   8   8   8   8   8
#     4  10  21  37  57  85 119 151 194 245 292 349
#     4  10  20  36  58  84 116 155 198 245 293 348
#     4  10  20  37  62  86 111 152 201 247 294 348
#     4  10  23  40  57  85 122 157 198 242 290 357
#     4  10  20  39  63  87 118 153 199 251 299 357
#     4  10  22  41  66  92 119 155 200 252 307 357
#     4  11  23  39  60  87 122 162 202 244 294 357
#     4  11  23  37  57  86 121 157 195 244 298 356
#
# _framework density 19.117712000000001
#
# number of rings (size 3 to 8) (size 9 to 14) (size 15 to 20)
#    0.000    1.750    2.500    1.500    0.000    5.000 
#    0.000    3.750    0.000    0.000    0.000    0.000 
#    0.000    0.000    0.000    0.000    0.000    0.000 
#
# Total GULP energy -793961.072680 kJ/mol
# GULP energy per Si atom -12405.641761 kJ/mol
# Density = 1.907420 g / cm^3
# Si number density = 19.117712 Si / 1000 Ang^3
#
#
#
# Elastic Constant Matrix: (Units=GPa)
#
#
# Indices 1 2 3 4 5 6 
#
# 1 75.0454 38.2443 42.3167 0.0000 0.0000 0.0000
# 2 38.2443 114.4146 44.6793 0.0000 0.0000 0.0000
# 3 42.3167 44.6793 65.2572 0.0000 0.0000 0.0000
# 4 0.0000 0.0000 0.0000 20.8393 0.0000 0.0000
# 5 0.0000 0.0000 0.0000 0.0000 30.5048 0.0000
# 6 0.0000 0.0000 0.0000 0.0000 0.0000 39.7701
#
#
#
# Elastic Compliance Matrix: (Units=1/GPa)
#
#
# Indices 1 2 3 4 5 6 
#
# 1 0.021469 -0.002375 -0.012296 0.000000 0.000000 0.000000
# 2 -0.002375 0.012192 -0.006808 0.000000 0.000000 0.000000
# 3 -0.012296 -0.006808 0.027959 0.000000 0.000000 0.000000
# 4 0.000000 0.000000 0.000000 0.047986 0.000000 0.000000
# 5 0.000000 0.000000 0.000000 0.000000 0.032782 0.000000
# 6 0.000000 0.000000 0.000000 0.000000 0.000000 0.025144
#
#
# Mechanical properties :
#
#
# Convention : Reuss Voigt Hill
#
# Bulk Modulus (GPa) = 53.58197 56.13311 54.85754
# Shear Modulus (GPa) = 23.07232 26.85464 24.96348
#
# Velocity S-wave (km/s) = 3.47775 3.75200 3.61747
# Velocity P-wave (km/s) = 6.64940 6.94230 6.79743
#
# Compressibility (1/GPa) = 0.01866300
#
# Stress axis : x y z
#
# Youngs Moduli (GPa) = 46.57913 82.01847 35.76729
#
# Poissons Ratio (x) = 0.19476 0.43979
# Poissons Ratio (y) = 0.11061 0.24350
# Poissons Ratio (z) = 0.57273 0.55837
#
# Static dielectric constant tensor:
#      x y z
#    x 3.429600 0.000000 0.000000 
#    y 0.000000 3.614590 0.000000 
#    z 0.000000 0.000000 3.405810 
# 
# 
# High freq. dielectric constant tensor:
#      x y z
#    x 1.742670 0.000000 0.000000 
#    y 0.000000 1.754920 0.000000 
#    z 0.000000 0.000000 1.737120 
# 
# From -- ./inp_files/8065.got.cif
#   From: 2010.03.12/outbox.cif.g09.slc.cpg/sg55_5_cif.got.tgz:8065.got - 2010.04.16 15:19:21.
