data_PCOD8226717
_publ_section_title
;
Structure prediction by ZEFSAII (Michael W. Deem and Ramdas Pophale) SiO2 
 PCOD8226717
Probable space group: P B A M
;
_chemical_formula_sum "Si O2"
_cell_formula_units_Z 48
_cell_length_a 18.551887
_cell_length_b 14.016292
_cell_length_c 8.639642
_cell_angle_alpha 90.000000
_cell_angle_beta 90.000000
_cell_angle_gamma 90.000000
_cell_volume 2246.554578
_symmetry_space_group_name_H-M "P B A M"
_symmetry_group_IT_number 55
_symmetry_cell_setting 'orthorhombic'
loop_
_space_group_symop_operation_xyz
x,y,z
-x,-y,z
1/2+x,1/2-y,-z
1/2-x,1/2+y,-z
-x,-y,-z
x,y,-z
1/2-x,1/2+y,z
1/2+x,1/2-y,z
loop_
_atom_site_type_symbol
_atom_site_label
_atom_site_fract_x
_atom_site_fract_y
_atom_site_fract_z
Si Si1 0.719128 0.325503 0.319460
Si Si2 0.146503 0.356298 0.817242
Si Si3 0.844637 0.428813 0.822095
Si Si4 0.604258 0.461563 0.180543
Si Si5 0.965790 0.130244 0.679654
Si Si6 0.516096 0.821977 0.821988
O O1 0.703256 0.332868 0.500000
O O2 0.698939 0.219109 0.264998
O O3 0.801848 0.351822 0.282032
O O4 0.674944 0.405268 0.228066
O O5 0.172265 0.462532 0.771058
O O6 0.063953 0.344613 0.760195
O O7 0.151281 0.340416 0.000000
O O8 0.930693 0.412202 0.802082
O O9 0.822204 0.412887 0.000000
O O10 0.535583 0.397361 0.220736
O O11 0.600629 0.562209 0.271694
O O12 0.606464 0.483663 0.000000
O O13 0.983096 0.116874 0.500000
O O14 0.947701 0.238706 0.719858
O O15 0.512468 0.789353 0.000000
#
# Coordination Sequence:
#
# PCOD8226717 Si02
#       6
#     8   8   8   8   8   8
#     4  12  25  41  62  91 128 169 207 256 320 381
#     4  10  21  41  69  94 121 161 209 261 311 369
#     4  10  23  42  65  94 125 163 212 260 309 370
#     4  11  21  37  60  86 119 162 210 257 304 363
#     4  11  21  34  57  92 128 160 199 252 311 368
#     4  10  20  38  65  95 126 164 211 259 307 370
#
# _framework density 21.366052
#
# number of rings (size 3 to 8) (size 9 to 14) (size 15 to 20)
#    0.000    1.333    1.667    6.000    0.000    4.667 
#    0.000    1.667    0.000    3.000    0.000    0.000 
#    0.000    0.000    0.000    0.000    0.000    0.000 
#
# Total GULP energy -595301.858616 kJ/mol
# GULP energy per Si atom -12402.122054 kJ/mol
# Density = 2.131742 g / cm^3
# Si number density = 21.366052 Si / 1000 Ang^3
#
#
#
# Elastic Constant Matrix: (Units=GPa)
#
#
# Indices 1 2 3 4 5 6 
#
# 1 82.2483 42.9504 22.6980 0.0000 0.0000 0.0000
# 2 42.9504 124.2136 39.8716 0.0000 0.0000 0.0000
# 3 22.6980 39.8716 90.9792 0.0000 0.0000 0.0000
# 4 0.0000 0.0000 0.0000 15.6358 0.0000 0.0000
# 5 0.0000 0.0000 0.0000 0.0000 18.2488 0.0000
# 6 0.0000 0.0000 0.0000 0.0000 0.0000 32.4380
#
#
#
# Elastic Compliance Matrix: (Units=1/GPa)
#
#
# Indices 1 2 3 4 5 6 
#
# 1 0.015065 -0.004658 -0.001717 0.000000 0.000000 0.000000
# 2 -0.004658 0.010809 -0.003575 0.000000 0.000000 0.000000
# 3 -0.001717 -0.003575 0.012987 0.000000 0.000000 0.000000
# 4 0.000000 0.000000 0.000000 0.063956 0.000000 0.000000
# 5 0.000000 0.000000 0.000000 0.000000 0.054798 0.000000
# 6 0.000000 0.000000 0.000000 0.000000 0.000000 0.030828
#
#
# Mechanical properties :
#
#
# Convention : Reuss Voigt Hill
#
# Bulk Modulus (GPa) = 52.74180 56.49791 54.61986
# Shear Modulus (GPa) = 23.29251 26.05927 24.67589
#
# Velocity S-wave (km/s) = 3.30535 3.49615 3.40209
# Velocity P-wave (km/s) = 6.26941 6.54199 6.40715
#
# Compressibility (1/GPa) = 0.01896029
#
# Stress axis : x y z
#
# Youngs Moduli (GPa) = 66.38118 92.51782 77.00246
#
# Poissons Ratio (x) = 0.43093 0.13222
# Poissons Ratio (y) = 0.30919 0.27527
# Poissons Ratio (z) = 0.11398 0.33074
#
# Static dielectric constant tensor:
#      x y z
#    x 3.748570 0.000000 0.000000 
#    y 0.000000 4.020990 0.000000 
#    z 0.000000 0.000000 3.672120 
# 
# 
# High freq. dielectric constant tensor:
#      x y z
#    x 1.827860 0.000000 0.000000 
#    y 0.000000 1.846640 0.000000 
#    z 0.000000 0.000000 1.828110 
# 
# From -- ./inp_files/7425.got.cif
#   From: 2010.03.12/outbox.cif.g09.slc.cpg/sg55_4_cif.got.tgz:7425.got - 2010.04.16 15:19:21.
