data_PCOD8226203
_publ_section_title
;
Structure prediction by ZEFSAII (Michael W. Deem and Ramdas Pophale) SiO2 
 PCOD8226203
Probable space group: P B A M
;
_chemical_formula_sum "Si O2"
_cell_formula_units_Z 56
_cell_length_a 19.715913
_cell_length_b 16.570721
_cell_length_c 9.086800
_cell_angle_alpha 90.000000
_cell_angle_beta 90.000000
_cell_angle_gamma 90.000000
_cell_volume 2968.720201
_symmetry_space_group_name_H-M "P B A M"
_symmetry_group_IT_number 55
_symmetry_cell_setting 'orthorhombic'
loop_
_space_group_symop_operation_xyz
x,y,z
-x,-y,z
1/2+x,1/2-y,-z
1/2-x,1/2+y,-z
-x,-y,-z
x,y,-z
1/2-x,1/2+y,z
1/2+x,1/2-y,z
loop_
_atom_site_type_symbol
_atom_site_label
_atom_site_fract_x
_atom_site_fract_y
_atom_site_fract_z
Si Si1 0.818697 0.488965 0.827361
Si Si2 0.118827 0.817136 0.327930
Si Si3 0.477879 0.757236 0.674361
Si Si4 0.789692 0.330857 0.668943
Si Si5 0.363438 0.636382 0.671521
Si Si6 0.056063 0.435181 0.325669
Si Si7 0.334959 0.476291 0.172729
O O1 0.826086 0.397894 0.768384
O O2 0.872430 0.546386 0.749252
O O3 0.744511 0.522865 0.786294
O O4 0.832063 0.488638 0.000000
O O5 0.115034 0.838685 0.500000
O O6 0.179900 0.756088 0.293137
O O7 0.130377 0.897502 0.237123
O O8 0.049560 0.776757 0.270572
O O9 0.476043 0.759804 0.500000
O O10 0.418102 0.699693 0.733822
O O11 0.467909 0.848000 0.733412
O O12 0.804675 0.354432 0.500000
O O13 0.710027 0.325166 0.701944
O O14 0.374794 0.618272 0.500000
O O15 0.372621 0.553087 0.757866
O O16 0.066802 0.436452 0.500000
O O17 0.000000 0.500000 0.276144
O O18 0.346482 0.478924 0.000000
#
# Coordination Sequence:
#
# PCOD8226203 Si02
#       7
#     8   8   8   8   8   8   8
#     4  10  21  36  54  79 111 147 183 223 273 328
#     4  10  20  35  57  83 109 140 181 226 276 330
#     4   9  19  34  54  82 112 140 178 229 280 325
#     4   9  18  33  56  81 105 139 185 229 271 324
#     4   9  18  35  56  78 104 140 184 229 274 322
#     4  10  20  35  58  85 115 147 181 226 277 330
#     4  10  22  38  54  78 110 144 184 228 274 323
#
# _framework density 18.863346
#
# number of rings (size 3 to 8) (size 9 to 14) (size 15 to 20)
#    0.000    2.429    0.000    1.714    2.000    5.429 
#    0.000    5.000    0.000    0.000    0.000    0.000 
#    0.000    0.000    0.000    0.000    0.000    0.000 
#
# Total GULP energy -694591.723973 kJ/mol
# GULP energy per Si atom -12403.423642 kJ/mol
# Density = 1.882041 g / cm^3
# Si number density = 18.863346 Si / 1000 Ang^3
#
#
#
# Elastic Constant Matrix: (Units=GPa)
#
#
# Indices 1 2 3 4 5 6 
#
# 1 95.9025 80.9267 34.7845 0.0000 0.0000 0.0000
# 2 80.9267 174.9486 49.5128 0.0000 0.0000 0.0000
# 3 34.7845 49.5128 49.1050 0.0000 0.0000 0.0000
# 4 0.0000 0.0000 0.0000 5.3420 0.0000 0.0000
# 5 0.0000 0.0000 0.0000 0.0000 21.6575 0.0000
# 6 0.0000 0.0000 0.0000 0.0000 0.0000 36.6212
#
#
#
# Elastic Compliance Matrix: (Units=1/GPa)
#
#
# Indices 1 2 3 4 5 6 
#
# 1 0.018367 -0.006736 -0.006219 0.000000 0.000000 0.000000
# 2 -0.006736 0.010469 -0.005784 0.000000 0.000000 0.000000
# 3 -0.006219 -0.005784 0.030602 0.000000 0.000000 0.000000
# 4 0.000000 0.000000 0.000000 0.187197 0.000000 0.000000
# 5 0.000000 0.000000 0.000000 0.000000 0.046173 0.000000
# 6 0.000000 0.000000 0.000000 0.000000 0.000000 0.027307
#
#
# Mechanical properties :
#
#
# Convention : Reuss Voigt Hill
#
# Bulk Modulus (GPa) = 45.53745 72.26713 58.90229
# Shear Modulus (GPa) = 13.70192 23.03961 18.37077
#
# Velocity S-wave (km/s) = 2.69806 3.49864 3.12410
# Velocity P-wave (km/s) = 5.82230 7.39694 6.65635
#
# Compressibility (1/GPa) = 0.02195994
#
# Stress axis : x y z
#
# Youngs Moduli (GPa) = 54.44526 95.52045 32.67790
#
# Poissons Ratio (x) = 0.64345 0.20321
# Poissons Ratio (y) = 0.36675 0.18901
# Poissons Ratio (z) = 0.33857 0.55251
#
# Static dielectric constant tensor:
#      x y z
#    x 3.591360 0.000000 0.000000 
#    y 0.000000 3.546630 0.000000 
#    z 0.000000 0.000000 3.228470 
# 
# 
# High freq. dielectric constant tensor:
#      x y z
#    x 1.738980 0.000000 0.000000 
#    y 0.000000 1.740480 0.000000 
#    z 0.000000 0.000000 1.709640 
# 
# From -- ./inp_files/8680.got.cif
#   From: 2010.03.12/outbox.cif.g09.slc.cpg/sg55_5_cif.got.tgz:8680.got - 2010.04.16 15:19:21.
