data_PCOD8226398
_publ_section_title
;
Structure prediction by ZEFSAII (Michael W. Deem and Ramdas Pophale) SiO2 
 PCOD8226398
Probable space group: P B A M
;
_chemical_formula_sum "Si O2"
_cell_formula_units_Z 48
_cell_length_a 10.316177
_cell_length_b 26.699816
_cell_length_c 8.333886
_cell_angle_alpha 90.000000
_cell_angle_beta 90.000000
_cell_angle_gamma 90.000000
_cell_volume 2295.485791
_symmetry_space_group_name_H-M "P B A M"
_symmetry_group_IT_number 55
_symmetry_cell_setting 'orthorhombic'
loop_
_space_group_symop_operation_xyz
x,y,z
-x,-y,z
1/2+x,1/2-y,-z
1/2-x,1/2+y,-z
-x,-y,-z
x,y,-z
1/2-x,1/2+y,z
1/2+x,1/2-y,z
loop_
_atom_site_type_symbol
_atom_site_label
_atom_site_fract_x
_atom_site_fract_y
_atom_site_fract_z
Si Si1 0.130974 0.138106 0.186844
Si Si2 0.108548 0.356480 0.314363
Si Si3 0.877332 0.534517 0.186732
Si Si4 0.619463 0.689182 0.314586
Si Si5 0.129581 0.701593 0.813394
Si Si6 0.128314 0.026585 0.191097
O O1 0.245767 0.172390 0.258666
O O2 0.136209 0.082633 0.264079
O O3 0.992124 0.162764 0.213332
O O4 0.158439 0.132902 0.000000
O O5 0.083385 0.343758 0.500000
O O6 0.109689 0.415750 0.290490
O O7 0.243993 0.332951 0.255393
O O8 0.996611 0.332565 0.206698
O O9 0.751767 0.504858 0.248871
O O10 0.000000 0.500000 0.219825
O O11 0.865650 0.548947 0.000000
O O12 0.595275 0.677098 0.500000
O O13 0.614577 0.748269 0.288055
O O14 0.147499 0.715165 0.000000
O O15 0.122952 0.029119 0.000000
O O16 0.000000 0.000000 0.259903
#
# Coordination Sequence:
#
# PCOD8226398 Si02
#       6
#     8   8   8   8   8   8
#     4  10  21  38  61  88 115 148 194 242 290 344
#     4  11  24  40  59  86 121 159 195 234 287 349
#     4  10  20  36  59  85 114 150 194 242 286 332
#     4  11  24  40  58  84 118 154 193 237 290 351
#     4  11  23  39  61  87 114 149 196 245 291 343
#     4   9  17  31  54  83 112 143 182 231 284 334
#
# _framework density 20.910606000000001
#
# number of rings (size 3 to 8) (size 9 to 14) (size 15 to 20)
#    0.000    1.667    0.000    4.500    0.000   11.000 
#    0.000    0.833    0.000    3.000    0.000    0.000 
#    0.000    0.000    0.000    0.000    0.000    0.000 
#
# Total GULP energy -595475.390553 kJ/mol
# GULP energy per Si atom -12405.737303 kJ/mol
# Density = 2.086301 g / cm^3
# Si number density = 20.910606 Si / 1000 Ang^3
#
#
#
# Elastic Constant Matrix: (Units=GPa)
#
#
# Indices 1 2 3 4 5 6 
#
# 1 147.0161 43.9234 11.9695 0.0000 0.0000 0.0000
# 2 43.9234 134.5942 6.7842 0.0000 0.0000 0.0000
# 3 11.9695 6.7842 21.3534 0.0000 0.0000 0.0000
# 4 0.0000 0.0000 0.0000 18.7616 0.0000 0.0000
# 5 0.0000 0.0000 0.0000 0.0000 14.0152 0.0000
# 6 0.0000 0.0000 0.0000 0.0000 0.0000 44.6323
#
#
#
# Elastic Compliance Matrix: (Units=1/GPa)
#
#
# Indices 1 2 3 4 5 6 
#
# 1 0.007803 -0.002364 -0.003623 0.000000 0.000000 0.000000
# 2 -0.002364 0.008267 -0.001301 0.000000 0.000000 0.000000
# 3 -0.003623 -0.001301 0.049275 0.000000 0.000000 0.000000
# 4 0.000000 0.000000 0.000000 0.053300 0.000000 0.000000
# 5 0.000000 0.000000 0.000000 0.000000 0.071351 0.000000
# 6 0.000000 0.000000 0.000000 0.000000 0.000000 0.022405
#
#
# Mechanical properties :
#
#
# Convention : Reuss Voigt Hill
#
# Bulk Modulus (GPa) = 19.69722 47.59089 33.64405
# Shear Modulus (GPa) = 20.50012 31.50093 26.00052
#
# Velocity S-wave (km/s) = 3.13448 3.88552 3.53003
# Velocity P-wave (km/s) = 4.74765 6.55273 5.72182
#
# Compressibility (1/GPa) = 0.05076859
#
# Stress axis : x y z
#
# Youngs Moduli (GPa) = 128.15266 120.96629 20.29420
#
# Poissons Ratio (x) = 0.28595 0.07353
# Poissons Ratio (y) = 0.30294 0.02641
# Poissons Ratio (z) = 0.46430 0.15743
#
# Static dielectric constant tensor:
#      x y z
#    x 4.013490 0.000000 0.000000 
#    y 0.000000 3.866020 0.000000 
#    z 0.000000 0.000000 3.396760 
# 
# 
# High freq. dielectric constant tensor:
#      x y z
#    x 1.836450 0.000000 0.000000 
#    y 0.000000 1.835610 0.000000 
#    z 0.000000 0.000000 1.789950 
# 
# From -- ./inp_files/2881.got.cif
#   From: 2010.03.12/outbox.cif.g09.slc.cpg/sg55_2_cif.got.tgz:2881.got - 2010.04.16 15:19:21.
