data_PCOD8226248
_publ_section_title
;
Structure prediction by ZEFSAII (Michael W. Deem and Ramdas Pophale) SiO2 
 PCOD8226248
Probable space group: P B A M
;
_chemical_formula_sum "Si O2"
_cell_formula_units_Z 64
_cell_length_a 18.358733
_cell_length_b 19.653593
_cell_length_c 9.167161
_cell_angle_alpha 90.000000
_cell_angle_beta 90.000000
_cell_angle_gamma 90.000000
_cell_volume 3307.649805
_symmetry_space_group_name_H-M "P B A M"
_symmetry_group_IT_number 55
_symmetry_cell_setting 'orthorhombic'
loop_
_space_group_symop_operation_xyz
x,y,z
-x,-y,z
1/2+x,1/2-y,-z
1/2-x,1/2+y,-z
-x,-y,-z
x,y,-z
1/2-x,1/2+y,z
1/2+x,1/2-y,z
loop_
_atom_site_type_symbol
_atom_site_label
_atom_site_fract_x
_atom_site_fract_y
_atom_site_fract_z
Si Si1 0.331043 0.366935 0.672270
Si Si2 0.441074 0.946574 0.172059
Si Si3 0.292096 0.973678 0.668621
Si Si4 0.602815 0.319214 0.327877
Si Si5 0.515720 0.574462 0.673407
Si Si6 0.260441 0.128110 0.330777
Si Si7 0.976912 0.705193 0.170480
Si Si8 0.642174 0.768756 0.172255
O O1 0.332750 0.353110 0.500000
O O2 0.266726 0.417704 0.717056
O O3 0.406060 0.400039 0.728356
O O4 0.318548 0.295646 0.753801
O O5 0.363618 0.963282 0.238582
O O6 0.468436 0.872519 0.220048
O O7 0.500000 0.000000 0.232780
O O8 0.433271 0.953074 0.000000
O O9 0.312259 0.964894 0.500000
O O10 0.258506 0.047739 0.699376
O O11 0.595542 0.310928 0.500000
O O12 0.546394 0.375225 0.267651
O O13 0.683206 0.341489 0.281560
O O14 0.584476 0.247366 0.254978
O O15 0.500000 0.500000 0.739351
O O16 0.514107 0.571125 0.500000
O O17 0.276133 0.143689 0.500000
O O18 0.322958 0.162201 0.233844
O O19 0.057073 0.731148 0.214124
O O20 0.962744 0.713731 0.000000
O O21 0.654074 0.766436 0.000000
#
# Coordination Sequence:
#
# PCOD8226248 Si02
#       8
#     8   8   8   8   8   8   8   8
#     4  10  20  36  58  86 119 153 189 237 291 342
#     4  10  22  41  63  84 113 155 200 244 295 351
#     4  10  22  39  60  89 121 151 191 245 298 350
#     4  10  20  35  58  87 115 150 191 234 285 343
#     4   9  16  30  56  85 112 146 186 225 275 339
#     4  10  22  39  59  86 119 151 191 243 295 350
#     4  10  22  39  58  83 116 152 194 243 288 342
#     4  11  23  39  60  84 115 158 201 239 289 350
#
# _framework density 19.349084999999999
#
# number of rings (size 3 to 8) (size 9 to 14) (size 15 to 20)
#    0.000    2.000    1.250    1.875    1.750    6.750 
#    0.000    0.000    0.000    3.000    0.000    0.000 
#    0.000    0.000    0.000    0.000    0.000    0.000 
#
# Total GULP energy -793894.333356 kJ/mol
# GULP energy per Si atom -12404.598959 kJ/mol
# Density = 1.930505 g / cm^3
# Si number density = 19.349085 Si / 1000 Ang^3
#
#
#
# Elastic Constant Matrix: (Units=GPa)
#
#
# Indices 1 2 3 4 5 6 
#
# 1 107.6882 45.6429 37.4689 0.0000 0.0000 0.0000
# 2 45.6429 133.0779 39.1465 0.0000 0.0000 0.0000
# 3 37.4689 39.1465 37.7478 0.0000 0.0000 0.0000
# 4 0.0000 0.0000 0.0000 23.5636 0.0000 0.0000
# 5 0.0000 0.0000 0.0000 0.0000 26.8086 0.0000
# 6 0.0000 0.0000 0.0000 0.0000 0.0000 41.6979
#
#
#
# Elastic Compliance Matrix: (Units=1/GPa)
#
#
# Indices 1 2 3 4 5 6 
#
# 1 0.014286 -0.001048 -0.013093 0.000000 0.000000 0.000000
# 2 -0.001048 0.010890 -0.010253 0.000000 0.000000 0.000000
# 3 -0.013093 -0.010253 0.050121 0.000000 0.000000 0.000000
# 4 0.000000 0.000000 0.000000 0.042438 0.000000 0.000000
# 5 0.000000 0.000000 0.000000 0.000000 0.037301 0.000000
# 6 0.000000 0.000000 0.000000 0.000000 0.000000 0.023982
#
#
# Mechanical properties :
#
#
# Convention : Reuss Voigt Hill
#
# Bulk Modulus (GPa) = 37.72459 58.11450 47.91955
# Shear Modulus (GPa) = 21.12877 28.83107 24.97992
#
# Velocity S-wave (km/s) = 3.30809 3.86430 3.59696
# Velocity P-wave (km/s) = 5.84213 7.07180 6.48617
#
# Compressibility (1/GPa) = 0.02650791
#
# Stress axis : x y z
#
# Youngs Moduli (GPa) = 69.99836 91.82776 19.95166
#
# Poissons Ratio (x) = 0.09626 0.26124
# Poissons Ratio (y) = 0.07337 0.20456
# Poissons Ratio (z) = 0.91652 0.94151
#
# Static dielectric constant tensor:
#      x y z
#    x 3.592550 0.000000 0.000000 
#    y 0.000000 3.736110 0.000000 
#    z 0.000000 0.000000 3.254340 
# 
# 
# High freq. dielectric constant tensor:
#      x y z
#    x 1.762270 0.000000 0.000000 
#    y 0.000000 1.770510 0.000000 
#    z 0.000000 0.000000 1.727200 
# 
# From -- ./inp_files/7976.got.cif
#   From: 2010.03.12/outbox.cif.g09.slc.cpg/sg55_4_cif.got.tgz:7976.got - 2010.04.16 15:19:21.
