data_PCOD8226454
_publ_section_title
;
Structure prediction by ZEFSAII (Michael W. Deem and Ramdas Pophale) SiO2 
 PCOD8226454
Probable space group: P B A M
;
_chemical_formula_sum "Si O2"
_cell_formula_units_Z 48
_cell_length_a 11.722706
_cell_length_b 23.181594
_cell_length_c 8.853700
_cell_angle_alpha 90.000000
_cell_angle_beta 90.000000
_cell_angle_gamma 90.000000
_cell_volume 2406.001927
_symmetry_space_group_name_H-M "P B A M"
_symmetry_group_IT_number 55
_symmetry_cell_setting 'orthorhombic'
loop_
_space_group_symop_operation_xyz
x,y,z
-x,-y,z
1/2+x,1/2-y,-z
1/2-x,1/2+y,-z
-x,-y,-z
x,y,-z
1/2-x,1/2+y,z
1/2+x,1/2-y,z
loop_
_atom_site_type_symbol
_atom_site_label
_atom_site_fract_x
_atom_site_fract_y
_atom_site_fract_z
Si Si1 0.572278 0.948597 0.332154
Si Si2 0.410011 0.841472 0.333710
Si Si3 0.125737 0.723075 0.678145
Si Si4 0.740723 0.380201 0.821961
Si Si5 0.319693 0.343193 0.176386
Si Si6 0.994533 0.934723 0.178707
O O1 0.617527 0.966201 0.500000
O O2 0.487912 0.896286 0.350651
O O3 0.676767 0.932827 0.223933
O O4 0.500000 0.000000 0.256732
O O5 0.358626 0.825665 0.500000
O O6 0.495305 0.791502 0.273908
O O7 0.312245 0.854717 0.212922
O O8 0.140344 0.716930 0.500000
O O9 0.220084 0.680254 0.749412
O O10 0.143663 0.787652 0.730705
O O11 0.615546 0.398972 0.763169
O O12 0.743321 0.371797 0.000000
O O13 0.393436 0.398692 0.228071
O O14 0.336017 0.331020 0.000000
O O15 0.987085 0.939968 0.000000
O O16 0.000000 0.000000 0.247219
#
# Coordination Sequence:
#
# PCOD8226454 Si02
#       6
#     8   8   8   8   8   8
#     4   9  19  36  58  83 116 154 190 236 292 344
#     4   9  20  38  57  82 115 151 190 236 290 348
#     4  10  22  41  62  85 118 155 192 241 303 357
#     4  10  20  36  61  89 116 150 198 245 291 350
#     4  11  23  37  61  89 117 153 195 245 293 349
#     4   9  21  40  58  84 124 161 192 237 298 352
#
# _framework density 19.950108
#
# number of rings (size 3 to 8) (size 9 to 14) (size 15 to 20)
#    0.000    2.333    0.000    2.500    4.667    3.667 
#    0.000    2.500    0.000    4.000    0.000    0.000 
#    0.000    0.000    0.000    0.000    0.000    0.000 
#
# Total GULP energy -595020.124392 kJ/mol
# GULP energy per Si atom -12396.252591 kJ/mol
# Density = 1.990470 g / cm^3
# Si number density = 19.950108 Si / 1000 Ang^3
#
#
#
# Elastic Constant Matrix: (Units=GPa)
#
#
# Indices 1 2 3 4 5 6 
#
# 1 130.0851 41.5426 39.2628 0.0000 0.0000 0.0000
# 2 41.5426 67.0725 31.0319 0.0000 0.0000 0.0000
# 3 39.2628 31.0319 58.3662 0.0000 0.0000 0.0000
# 4 0.0000 0.0000 0.0000 27.8674 0.0000 0.0000
# 5 0.0000 0.0000 0.0000 0.0000 29.0205 0.0000
# 6 0.0000 0.0000 0.0000 0.0000 0.0000 5.6990
#
#
#
# Elastic Compliance Matrix: (Units=1/GPa)
#
#
# Indices 1 2 3 4 5 6 
#
# 1 0.010501 -0.004291 -0.004782 0.000000 0.000000 0.000000
# 2 -0.004291 0.021527 -0.008558 0.000000 0.000000 0.000000
# 3 -0.004782 -0.008558 0.024901 0.000000 0.000000 0.000000
# 4 0.000000 0.000000 0.000000 0.035884 0.000000 0.000000
# 5 0.000000 0.000000 0.000000 0.000000 0.034458 0.000000
# 6 0.000000 0.000000 0.000000 0.000000 0.000000 0.175471
#
#
# Mechanical properties :
#
#
# Convention : Reuss Voigt Hill
#
# Bulk Modulus (GPa) = 46.15956 53.24427 49.70191
# Shear Modulus (GPa) = 14.48317 22.09647 18.28982
#
# Velocity S-wave (km/s) = 2.69731 3.33165 3.03112
# Velocity P-wave (km/s) = 5.73484 6.44566 6.10061
#
# Compressibility (1/GPa) = 0.02166399
#
# Stress axis : x y z
#
# Youngs Moduli (GPa) = 95.22704 46.45352 40.15955
#
# Poissons Ratio (x) = 0.19935 0.19206
# Poissons Ratio (y) = 0.40866 0.34370
# Poissons Ratio (z) = 0.45542 0.39757
#
# Static dielectric constant tensor:
#      x y z
#    x 2.637500 0.000000 0.000000 
#    y 0.000000 87.505810 0.000000 
#    z 0.000000 0.000000 3.495860 
# 
# 
# High freq. dielectric constant tensor:
#      x y z
#    x 1.782100 0.000000 0.000000 
#    y 0.000000 1.785230 0.000000 
#    z 0.000000 0.000000 1.761040 
# 
# From -- ./inp_files/4066.got.cif
#   From: 2010.03.12/outbox.cif.g09.slc.cpg/sg55_3_cif.got.tgz:4066.got - 2010.04.16 15:19:21.
