data_PCOD8226439
_publ_section_title
;
Structure prediction by ZEFSAII (Michael W. Deem and Ramdas Pophale) SiO2 
 PCOD8226439
Probable space group: P B A M
;
_chemical_formula_sum "Si O2"
_cell_formula_units_Z 64
_cell_length_a 12.420219
_cell_length_b 29.302729
_cell_length_c 9.056199
_cell_angle_alpha 90.000000
_cell_angle_beta 90.000000
_cell_angle_gamma 90.000000
_cell_volume 3295.970222
_symmetry_space_group_name_H-M "P B A M"
_symmetry_group_IT_number 55
_symmetry_cell_setting 'orthorhombic'
loop_
_space_group_symop_operation_xyz
x,y,z
-x,-y,z
1/2+x,1/2-y,-z
1/2-x,1/2+y,-z
-x,-y,-z
x,y,-z
1/2-x,1/2+y,z
1/2+x,1/2-y,z
loop_
_atom_site_type_symbol
_atom_site_label
_atom_site_fract_x
_atom_site_fract_y
_atom_site_fract_z
Si Si1 0.790069 0.818355 0.164343
Si Si2 0.624972 0.495497 0.326037
Si Si3 0.743508 0.671643 0.830783
Si Si4 0.266553 0.080559 0.174947
Si Si5 0.777220 0.579641 0.674490
Si Si6 0.591368 0.752291 0.840027
Si Si7 0.893388 0.740857 0.330271
Si Si8 0.003495 0.446188 0.831035
O O1 0.767249 0.868846 0.224033
O O2 0.681578 0.790171 0.157905
O O3 0.868600 0.792193 0.275673
O O4 0.841358 0.820637 0.000000
O O5 0.500000 0.500000 0.274386
O O6 0.629900 0.487274 0.500000
O O7 0.679918 0.452709 0.247681
O O8 0.694490 0.539742 0.279785
O O9 0.726363 0.625340 0.741182
O O10 0.635520 0.701188 0.817943
O O11 0.838859 0.701190 0.762414
O O12 0.772618 0.660450 0.000000
O O13 0.389119 0.072282 0.230675
O O14 0.262919 0.073128 0.000000
O O15 0.786283 0.584327 0.500000
O O16 0.897538 0.572667 0.735936
O O17 0.519285 0.765121 0.700012
O O18 0.531033 0.754122 0.000000
O O19 0.863272 0.735109 0.500000
O O20 0.000000 0.500000 0.816621
O O21 0.021363 0.430625 0.000000
#
# Coordination Sequence:
#
# PCOD8226439 Si02
#       8
#     8   8   8   8   8   8   8   8
#     4   9  20  38  58  83 115 151 194 237 283 341
#     4  10  23  42  60  82 119 161 195 236 294 353
#     4  10  22  40  61  83 113 153 196 240 288 344
#     4  10  21  38  61  90 116 149 199 246 287 343
#     4  11  23  38  59  89 121 154 197 244 296 355
#     4   9  19  37  59  82 112 154 195 235 287 344
#     4  11  22  36  57  86 118 151 190 238 290 344
#     4  10  20  36  60  88 121 156 193 242 297 349
#
# _framework density 19.417649999999998
#
# number of rings (size 3 to 8) (size 9 to 14) (size 15 to 20)
#    0.000    2.000    1.250    2.625    1.750    5.500 
#    0.000    2.500    0.000    0.000    0.000    0.000 
#    0.000    0.000    0.000    0.000    0.000    0.000 
#
# Total GULP energy -793450.354466 kJ/mol
# GULP energy per Si atom -12397.661789 kJ/mol
# Density = 1.937345 g / cm^3
# Si number density = 19.417650 Si / 1000 Ang^3
#
#
#
# Elastic Constant Matrix: (Units=GPa)
#
#
# Indices 1 2 3 4 5 6 
#
# 1 77.9526 21.0360 22.5995 0.0000 0.0000 0.0000
# 2 21.0360 120.0820 27.4898 0.0000 0.0000 0.0000
# 3 22.5995 27.4898 64.3998 0.0000 0.0000 0.0000
# 4 0.0000 0.0000 0.0000 25.7229 0.0000 0.0000
# 5 0.0000 0.0000 0.0000 0.0000 19.9425 0.0000
# 6 0.0000 0.0000 0.0000 0.0000 0.0000 3.9595
#
#
#
# Elastic Compliance Matrix: (Units=1/GPa)
#
#
# Indices 1 2 3 4 5 6 
#
# 1 0.014530 -0.001527 -0.004447 0.000000 0.000000 0.000000
# 2 -0.001527 0.009390 -0.003472 0.000000 0.000000 0.000000
# 3 -0.004447 -0.003472 0.018571 0.000000 0.000000 0.000000
# 4 0.000000 0.000000 0.000000 0.038876 0.000000 0.000000
# 5 0.000000 0.000000 0.000000 0.000000 0.050144 0.000000
# 6 0.000000 0.000000 0.000000 0.000000 0.000000 0.252560
#
#
# Mechanical properties :
#
#
# Convention : Reuss Voigt Hill
#
# Bulk Modulus (GPa) = 42.37737 44.96501 43.67119
# Shear Modulus (GPa) = 12.17050 22.67892 17.42471
#
# Velocity S-wave (km/s) = 2.50626 3.42124 2.99885
# Velocity P-wave (km/s) = 5.49970 6.23005 5.87623
#
# Compressibility (1/GPa) = 0.02359750
#
# Stress axis : x y z
#
# Youngs Moduli (GPa) = 68.82468 106.49525 53.84819
#
# Poissons Ratio (x) = 0.16265 0.23946
# Poissons Ratio (y) = 0.10512 0.18698
# Poissons Ratio (z) = 0.30606 0.36978
#
# Static dielectric constant tensor:
#      x y z
#    x 3.617830 0.000000 0.000000 
#    y 0.000000 3.778570 0.000000 
#    z 0.000000 0.000000 3.512830 
# 
# 
# High freq. dielectric constant tensor:
#      x y z
#    x 1.755520 0.000000 0.000000 
#    y 0.000000 1.764890 0.000000 
#    z 0.000000 0.000000 1.749710 
# 
# From -- ./inp_files/4710.got.cif
#   From: 2010.03.12/outbox.cif.g09.slc.cpg/sg55_3_cif.got.tgz:4710.got - 2010.04.16 15:19:21.
