data_PCOD8226763
_publ_section_title
;
Structure prediction by ZEFSAII (Michael W. Deem and Ramdas Pophale) SiO2 
 PCOD8226763
Probable space group: P B A M
;
_chemical_formula_sum "Si O2"
_cell_formula_units_Z 32
_cell_length_a 8.714041
_cell_length_b 14.861108
_cell_length_c 10.585871
_cell_angle_alpha 90.000000
_cell_angle_beta 90.000000
_cell_angle_gamma 90.000000
_cell_volume 1370.873517
_symmetry_space_group_name_H-M "P B A M"
_symmetry_group_IT_number 55
_symmetry_cell_setting 'orthorhombic'
loop_
_space_group_symop_operation_xyz
x,y,z
-x,-y,z
1/2+x,1/2-y,-z
1/2-x,1/2+y,-z
-x,-y,-z
x,y,-z
1/2-x,1/2+y,z
1/2+x,1/2-y,z
loop_
_atom_site_type_symbol
_atom_site_label
_atom_site_fract_x
_atom_site_fract_y
_atom_site_fract_z
Si Si1 0.376401 0.312534 0.276067
Si Si2 0.157569 0.468029 0.259127
Si Si3 0.203807 0.138068 0.643661
Si Si4 0.926162 0.620048 0.000000
Si Si5 0.360044 0.271339 0.000000
O O1 0.241584 0.381324 0.319254
O O2 0.528156 0.330821 0.355258
O O3 0.318633 0.212754 0.303399
O O4 0.420567 0.320467 0.127421
O O5 0.276815 0.550398 0.268040
O O6 0.000000 0.500000 0.330349
O O7 0.108349 0.443917 0.117128
O O8 0.248009 0.114728 0.500000
O O9 0.824106 0.712395 0.000000
O O10 0.097110 0.664353 0.000000
#
# Coordination Sequence:
#
# PCOD8226763 Si02
#       5
#     8   8   8   4   4
#     4  11  24  43  69  99 131 175 224 281 344 399
#     4  11  24  41  65  98 132 172 219 275 339 404
#     4  12  26  44  66  93 132 180 230 278 331 402
#     4  10  21  39  67  99 136 172 214 276 342 410
#     4  10  20  39  67  99 129 162 212 274 338 402
#
# _framework density 23.342779
#
# number of rings (size 3 to 8) (size 9 to 14) (size 15 to 20)
#    0.000    1.000    0.000    7.875    0.000    5.500 
#    0.000    3.750    0.000    0.000    0.000    0.000 
#    0.000    0.000    0.000    0.000    0.000    0.000 
#
# Total GULP energy -396659.799051 kJ/mol
# GULP energy per Si atom -12395.618720 kJ/mol
# Density = 2.328965 g / cm^3
# Si number density = 23.342779 Si / 1000 Ang^3
#
#
#
# Elastic Constant Matrix: (Units=GPa)
#
#
# Indices 1 2 3 4 5 6 
#
# 1 89.8483 38.3738 42.3234 0.0000 0.0000 0.0000
# 2 38.3738 151.8211 50.6023 0.0000 0.0000 0.0000
# 3 42.3234 50.6023 89.6146 0.0000 0.0000 0.0000
# 4 0.0000 0.0000 0.0000 20.6618 0.0000 0.0000
# 5 0.0000 0.0000 0.0000 0.0000 23.4180 0.0000
# 6 0.0000 0.0000 0.0000 0.0000 0.0000 67.3297
#
#
#
# Elastic Compliance Matrix: (Units=1/GPa)
#
#
# Indices 1 2 3 4 5 6 
#
# 1 0.014671 -0.001723 -0.005956 0.000000 0.000000 0.000000
# 2 -0.001723 0.008316 -0.003882 0.000000 0.000000 0.000000
# 3 -0.005956 -0.003882 0.016164 0.000000 0.000000 0.000000
# 4 0.000000 0.000000 0.000000 0.048398 0.000000 0.000000
# 5 0.000000 0.000000 0.000000 0.000000 0.042702 0.000000
# 6 0.000000 0.000000 0.000000 0.000000 0.000000 0.014852
#
#
# Mechanical properties :
#
#
# Convention : Reuss Voigt Hill
#
# Bulk Modulus (GPa) = 62.38694 65.98701 64.18698
# Shear Modulus (GPa) = 28.80686 35.61422 32.21054
#
# Velocity S-wave (km/s) = 3.51676 3.91027 3.71872
# Velocity P-wave (km/s) = 6.57834 6.97976 6.78202
#
# Compressibility (1/GPa) = 0.01602900
#
# Stress axis : x y z
#
# Youngs Moduli (GPa) = 68.15962 120.24840 61.86631
#
# Poissons Ratio (x) = 0.20720 0.36848
# Poissons Ratio (y) = 0.11745 0.24017
# Poissons Ratio (z) = 0.40596 0.46681
#
# Static dielectric constant tensor:
#      x y z
#    x 4.362110 0.000000 0.000000 
#    y 0.000000 4.297990 0.000000 
#    z 0.000000 0.000000 4.011980 
# 
# 
# High freq. dielectric constant tensor:
#      x y z
#    x 1.929340 0.000000 0.000000 
#    y 0.000000 1.929790 0.000000 
#    z 0.000000 0.000000 1.910800 
# 
# From -- ./inp_files/11636.got.cif
#   From: 2010.03.12/outbox.cif.g09.slc.cpg/sg55_6_cif.got.tgz:11636.got - 2010.04.16 15:19:21.
