data_PCOD8226618
_publ_section_title
;
Structure prediction by ZEFSAII (Michael W. Deem and Ramdas Pophale) SiO2 
 PCOD8226618
Probable space group: P B A M
;
_chemical_formula_sum "Si O2"
_cell_formula_units_Z 64
_cell_length_a 19.164459
_cell_length_b 19.229559
_cell_length_c 8.872253
_cell_angle_alpha 90.000000
_cell_angle_beta 90.000000
_cell_angle_gamma 90.000000
_cell_volume 3269.639008
_symmetry_space_group_name_H-M "P B A M"
_symmetry_group_IT_number 55
_symmetry_cell_setting 'orthorhombic'
loop_
_space_group_symop_operation_xyz
x,y,z
-x,-y,z
1/2+x,1/2-y,-z
1/2-x,1/2+y,-z
-x,-y,-z
x,y,-z
1/2-x,1/2+y,z
1/2+x,1/2-y,z
loop_
_atom_site_type_symbol
_atom_site_label
_atom_site_fract_x
_atom_site_fract_y
_atom_site_fract_z
Si Si1 0.529638 0.139475 0.176512
Si Si2 0.359185 0.968208 0.177149
Si Si3 0.960628 0.905533 0.677510
Si Si4 0.127058 0.623930 0.180077
Si Si5 0.389300 0.736013 0.324165
Si Si6 0.270085 0.235844 0.322496
Si Si7 0.091529 0.961284 0.173376
Si Si8 0.769635 0.119640 0.826055
O O1 0.565257 0.065034 0.215057
O O2 0.450862 0.142068 0.240080
O O3 0.578595 0.198405 0.242646
O O4 0.527592 0.151397 0.000000
O O5 0.298859 0.917796 0.243454
O O6 0.354682 0.046553 0.241874
O O7 0.346736 0.972520 0.000000
O O8 0.955782 0.918958 0.500000
O O9 0.040143 0.911479 0.732495
O O10 0.934135 0.830148 0.723958
O O11 0.912058 0.961075 0.761857
O O12 0.181695 0.678584 0.244440
O O13 0.129274 0.626167 0.000000
O O14 0.393077 0.750967 0.500000
O O15 0.309764 0.722601 0.273912
O O16 0.281386 0.230138 0.500000
O O17 0.290882 0.312616 0.268191
O O18 0.169699 0.936199 0.192793
O O19 0.067689 0.960566 0.000000
O O20 0.758914 0.141637 0.000000
#
# Coordination Sequence:
#
# PCOD8226618 Si02
#       8
#     8   8   8   8   8   8   8   8
#     4  10  20  37  63  90 116 152 193 238 291 343
#     4   9  18  37  62  88 117 151 190 236 290 344
#     4  10  21  38  58  80 112 155 193 231 288 349
#     4  10  22  38  62  93 120 148 191 241 289 346
#     4  10  23  40  57  81 116 156 196 236 282 343
#     4  11  24  41  58  83 118 156 194 237 286 339
#     4  10  21  36  57  87 115 141 189 247 288 337
#     4  10  21  38  60  85 115 152 193 238 289 342
#
# _framework density 19.574026
#
# number of rings (size 3 to 8) (size 9 to 14) (size 15 to 20)
#    0.000    2.000    1.250    2.250    3.500    4.500 
#    0.000    1.250    0.000    1.500    0.000    0.000 
#    0.000    0.000    0.000    0.000    0.000    0.000 
#
# Total GULP energy -793605.518270 kJ/mol
# GULP energy per Si atom -12400.086223 kJ/mol
# Density = 1.952947 g / cm^3
# Si number density = 19.574026 Si / 1000 Ang^3
#
#
#
# Elastic Constant Matrix: (Units=GPa)
#
#
# Indices 1 2 3 4 5 6 
#
# 1 115.2490 73.0683 28.0004 0.0000 0.0000 0.0000
# 2 73.0683 122.9310 36.4916 0.0000 0.0000 0.0000
# 3 28.0004 36.4916 39.3156 0.0000 0.0000 0.0000
# 4 0.0000 0.0000 0.0000 13.5585 0.0000 0.0000
# 5 0.0000 0.0000 0.0000 0.0000 24.6430 0.0000
# 6 0.0000 0.0000 0.0000 0.0000 0.0000 30.8530
#
#
#
# Elastic Compliance Matrix: (Units=1/GPa)
#
#
# Indices 1 2 3 4 5 6 
#
# 1 0.014200 -0.007507 -0.003146 0.000000 0.000000 0.000000
# 2 -0.007507 0.015196 -0.008759 0.000000 0.000000 0.000000
# 3 -0.003146 -0.008759 0.035805 0.000000 0.000000 0.000000
# 4 0.000000 0.000000 0.000000 0.073755 0.000000 0.000000
# 5 0.000000 0.000000 0.000000 0.000000 0.040580 0.000000
# 6 0.000000 0.000000 0.000000 0.000000 0.000000 0.032412
#
#
# Mechanical properties :
#
#
# Convention : Reuss Voigt Hill
#
# Bulk Modulus (GPa) = 37.90828 61.40181 49.65504
# Shear Modulus (GPa) = 19.26307 23.13992 21.20149
#
# Velocity S-wave (km/s) = 3.14046 3.44201 3.29469
# Velocity P-wave (km/s) = 5.70602 6.87268 6.31634
#
# Compressibility (1/GPa) = 0.02637946
#
# Stress axis : x y z
#
# Youngs Moduli (GPa) = 70.42031 65.80477 27.92878
#
# Poissons Ratio (x) = 0.49397 0.08787
# Poissons Ratio (y) = 0.52862 0.24462
# Poissons Ratio (z) = 0.22155 0.57637
#
# Static dielectric constant tensor:
#      x y z
#    x 3.925320 0.000000 0.000000 
#    y 0.000000 3.693250 0.000000 
#    z 0.000000 0.000000 3.445970 
# 
# 
# High freq. dielectric constant tensor:
#      x y z
#    x 1.774800 0.000000 0.000000 
#    y 0.000000 1.772190 0.000000 
#    z 0.000000 0.000000 1.743810 
# 
# From -- ./inp_files/9005.got.cif
#   From: 2010.03.12/outbox.cif.g09.slc.cpg/sg55_5_cif.got.tgz:9005.got - 2010.04.16 15:19:21.
