data_PCOD8226220
_publ_section_title
;
Structure prediction by ZEFSAII (Michael W. Deem and Ramdas Pophale) SiO2 
 PCOD8226220
Probable space group: P B A M
;
_chemical_formula_sum "Si O2"
_cell_formula_units_Z 48
_cell_length_a 14.373952
_cell_length_b 14.011542
_cell_length_c 12.534242
_cell_angle_alpha 90.000000
_cell_angle_beta 90.000000
_cell_angle_gamma 90.000000
_cell_volume 2524.411783
_symmetry_space_group_name_H-M "P B A M"
_symmetry_group_IT_number 55
_symmetry_cell_setting 'orthorhombic'
loop_
_space_group_symop_operation_xyz
x,y,z
-x,-y,z
1/2+x,1/2-y,-z
1/2-x,1/2+y,-z
-x,-y,-z
x,y,-z
1/2-x,1/2+y,z
1/2+x,1/2-y,z
loop_
_atom_site_type_symbol
_atom_site_label
_atom_site_fract_x
_atom_site_fract_y
_atom_site_fract_z
Si Si1 0.418344 0.076753 0.626628
Si Si2 0.527968 0.741508 0.235598
Si Si3 0.341117 0.729894 0.881089
Si Si4 0.182863 0.872552 0.879958
Si Si5 0.055528 0.094196 0.611939
Si Si6 0.273953 0.556552 0.257909
O O1 0.396527 0.091789 0.500000
O O2 0.449880 0.175159 0.680865
O O3 0.500000 0.000000 0.640823
O O4 0.329036 0.040822 0.694109
O O5 0.440585 0.765740 0.161440
O O6 0.615387 0.709966 0.165136
O O7 0.499125 0.648601 0.298603
O O8 0.284521 0.827674 0.882248
O O9 0.284814 0.651134 0.813685
O O10 0.353281 0.688052 0.000000
O O11 0.188506 0.966766 0.808741
O O12 0.150502 0.900227 0.000000
O O13 0.059145 0.152403 0.500000
O O14 0.161136 0.069884 0.640442
O O15 0.000000 0.000000 0.591517
#
# Coordination Sequence:
#
# PCOD8226220 Si02
#       6
#     8   8   8   8   8   8
#     4  11  24  42  63  89 124 163 206 249 298 361
#     4  11  21  40  61  86 118 161 199 250 306 357
#     4  10  22  38  60  88 120 157 202 251 302 362
#     4  11  22  38  60  89 120 156 200 249 303 362
#     4  10  20  35  57  86 119 152 196 246 300 359
#     4  11  21  39  61  88 120 159 198 250 308 357
#
# _framework density 19.014330000000001
#
# number of rings (size 3 to 8) (size 9 to 14) (size 15 to 20)
#    0.000    1.333    3.333    3.000    0.000    0.000 
#    0.000    2.500    0.000    4.000    0.000    0.000 
#    0.000    0.000    0.000    0.000    0.000    0.000 
#
# Total GULP energy -594895.224894 kJ/mol
# GULP energy per Si atom -12393.650519 kJ/mol
# Density = 1.897105 g / cm^3
# Si number density = 19.014330 Si / 1000 Ang^3
#
#
#
# Elastic Constant Matrix: (Units=GPa)
#
#
# Indices 1 2 3 4 5 6 
#
# 1 100.7982 20.6774 50.6857 0.0000 0.0000 0.0000
# 2 20.6774 58.4350 17.0157 0.0000 0.0000 0.0000
# 3 50.6857 17.0157 113.7069 0.0000 0.0000 0.0000
# 4 0.0000 0.0000 0.0000 38.6358 0.0000 0.0000
# 5 0.0000 0.0000 0.0000 0.0000 18.8405 0.0000
# 6 0.0000 0.0000 0.0000 0.0000 0.0000 26.3106
#
#
#
# Elastic Compliance Matrix: (Units=1/GPa)
#
#
# Indices 1 2 3 4 5 6 
#
# 1 0.013309 -0.003118 -0.005466 0.000000 0.000000 0.000000
# 2 -0.003118 0.018623 -0.001397 0.000000 0.000000 0.000000
# 3 -0.005466 -0.001397 0.011440 0.000000 0.000000 0.000000
# 4 0.000000 0.000000 0.000000 0.025883 0.000000 0.000000
# 5 0.000000 0.000000 0.000000 0.000000 0.053077 0.000000
# 6 0.000000 0.000000 0.000000 0.000000 0.000000 0.038007
#
#
# Mechanical properties :
#
#
# Convention : Reuss Voigt Hill
#
# Bulk Modulus (GPa) = 42.71599 49.96640 46.34120
# Shear Modulus (GPa) = 26.58096 29.06148 27.82122
#
# Velocity S-wave (km/s) = 3.74296 3.91372 3.82929
# Velocity P-wave (km/s) = 6.41823 6.83800 6.63144
#
# Compressibility (1/GPa) = 0.02341044
#
# Stress axis : x y z
#
# Youngs Moduli (GPa) = 75.13760 53.69682 87.41165
#
# Poissons Ratio (x) = 0.16741 0.47779
# Poissons Ratio (y) = 0.23426 0.12212
# Poissons Ratio (z) = 0.41070 0.07502
#
# Static dielectric constant tensor:
#      x y z
#    x 3.598230 0.000000 0.000000 
#    y 0.000000 3.267670 0.000000 
#    z 0.000000 0.000000 4.064560 
# 
# 
# High freq. dielectric constant tensor:
#      x y z
#    x 1.749900 0.000000 0.000000 
#    y 0.000000 1.731480 0.000000 
#    z 0.000000 0.000000 1.758320 
# 
# From -- ./inp_files/14137.got.cif
#   From: 2010.03.12/outbox.cif.g09.slc.cpg/sg55_8_cif.got.tgz:14137.got - 2010.04.16 15:19:21.
