data_PCOD8226336
_publ_section_title
;
Structure prediction by ZEFSAII (Michael W. Deem and Ramdas Pophale) SiO2 
 PCOD8226336
Probable space group: P B A M
;
_chemical_formula_sum "Si O2"
_cell_formula_units_Z 56
_cell_length_a 11.209412
_cell_length_b 24.144822
_cell_length_c 11.180738
_cell_angle_alpha 90.000000
_cell_angle_beta 90.000000
_cell_angle_gamma 90.000000
_cell_volume 3026.058438
_symmetry_space_group_name_H-M "P B A M"
_symmetry_group_IT_number 55
_symmetry_cell_setting 'orthorhombic'
loop_
_space_group_symop_operation_xyz
x,y,z
-x,-y,z
1/2+x,1/2-y,-z
1/2-x,1/2+y,-z
-x,-y,-z
x,y,-z
1/2-x,1/2+y,z
1/2+x,1/2-y,z
loop_
_atom_site_type_symbol
_atom_site_label
_atom_site_fract_x
_atom_site_fract_y
_atom_site_fract_z
Si Si1 0.843975 0.799705 0.757741
Si Si2 0.223459 0.543988 0.142100
Si Si3 0.965035 0.897518 0.140042
Si Si4 0.931778 0.304312 0.500000
Si Si5 0.721691 0.576998 0.857844
Si Si6 0.834346 0.772167 0.500000
Si Si7 0.104612 0.643080 0.754123
Si Si8 0.630235 0.180791 0.861677
O O1 0.860834 0.808665 0.616087
O O2 0.720086 0.824757 0.801749
O O3 0.842582 0.735039 0.785434
O O4 0.950321 0.833347 0.820534
O O5 0.355257 0.564462 0.180804
O O6 0.213141 0.479788 0.180979
O O7 0.126085 0.577649 0.220159
O O8 0.201595 0.552411 0.000000
O O9 0.087481 0.921508 0.195121
O O10 0.977701 0.898307 0.000000
O O11 0.814197 0.261836 0.500000
O O12 0.925232 0.344108 0.616018
O O13 0.065293 0.277151 0.500000
O O14 0.791162 0.630521 0.808465
O O15 0.719826 0.579225 0.000000
O O16 0.005624 0.664347 0.844764
O O17 0.657706 0.192763 0.000000
#
# Coordination Sequence:
#
# PCOD8226336 Si02
#       8
#     8   8   8   4   8   4   8   8
#     4  10  21  35  53  77 106 138 176 219 269 325
#     4   9  17  33  55  78 106 141 182 221 264 320
#     4   9  17  31  53  80 109 142 176 219 270 315
#     4  10  20  38  58  79 104 143 191 230 269 324
#     4   9  19  32  50  79 110 142 179 218 262 321
#     4  10  20  36  58  78 103 144 183 221 268 319
#     4  10  21  36  55  75 102 142 178 220 268 322
#     4  11  22  32  49  78 110 141 170 213 270 322
#
# _framework density 18.505922000000002
#
# number of rings (size 3 to 8) (size 9 to 14) (size 15 to 20)
#    0.000    2.286    1.429    1.286    2.000    4.000 
#    0.000    2.143    0.000    3.429    0.000    5.000 
#    0.000    0.000    0.000    0.000    0.000    0.000 
#
# Total GULP energy -693918.862123 kJ/mol
# GULP energy per Si atom -12391.408252 kJ/mol
# Density = 1.846380 g / cm^3
# Si number density = 18.505922 Si / 1000 Ang^3
#
#
#
# Elastic Constant Matrix: (Units=GPa)
#
#
# Indices 1 2 3 4 5 6 
#
# 1 54.4103 22.7211 18.7391 0.0000 0.0000 0.0000
# 2 22.7211 114.0321 8.1004 0.0000 0.0000 0.0000
# 3 18.7391 8.1004 14.9159 0.0000 0.0000 0.0000
# 4 0.0000 0.0000 0.0000 16.5288 0.0000 0.0000
# 5 0.0000 0.0000 0.0000 0.0000 19.8159 0.0000
# 6 0.0000 0.0000 0.0000 0.0000 0.0000 25.0135
#
#
#
# Elastic Compliance Matrix: (Units=1/GPa)
#
#
# Indices 1 2 3 4 5 6 
#
# 1 0.033976 -0.003888 -0.040574 0.000000 0.000000 0.000000
# 2 -0.003888 0.009566 -0.000311 0.000000 0.000000 0.000000
# 3 -0.040574 -0.000311 0.118185 0.000000 0.000000 0.000000
# 4 0.000000 0.000000 0.000000 0.060500 0.000000 0.000000
# 5 0.000000 0.000000 0.000000 0.000000 0.050464 0.000000
# 6 0.000000 0.000000 0.000000 0.000000 0.000000 0.039978
#
#
# Mechanical properties :
#
#
# Convention : Reuss Voigt Hill
#
# Bulk Modulus (GPa) = 13.85369 31.38661 22.62015
# Shear Modulus (GPa) = 11.72949 21.19150 16.46050
#
# Velocity S-wave (km/s) = 2.52032 3.38763 2.98564
# Velocity P-wave (km/s) = 3.99646 5.68318 4.91275
#
# Compressibility (1/GPa) = 0.07218292
#
# Stress axis : x y z
#
# Youngs Moduli (GPa) = 29.43251 104.53510 8.46130
#
# Poissons Ratio (x) = 0.40639 0.34331
# Poissons Ratio (y) = 0.11442 0.00263
# Poissons Ratio (z) = 1.19418 0.03251
#
# Static dielectric constant tensor:
#      x y z
#    x 3.734910 0.000000 0.000000 
#    y 0.000000 3.557320 0.000000 
#    z 0.000000 0.000000 3.207260 
# 
# 
# High freq. dielectric constant tensor:
#      x y z
#    x 1.726720 0.000000 0.000000 
#    y 0.000000 1.712190 0.000000 
#    z 0.000000 0.000000 1.687890 
# 
# From -- ./inp_files/13548.got.cif
#   From: 2010.03.12/outbox.cif.g09.slc.cpg/sg55_7_cif.got.tgz:13548.got - 2010.04.16 15:19:21.
