data_PCOD8226348
_publ_section_title
;
Structure prediction by ZEFSAII (Michael W. Deem and Ramdas Pophale) SiO2 
 PCOD8226348
Probable space group: P B A M
;
_chemical_formula_sum "Si O2"
_cell_formula_units_Z 64
_cell_length_a 24.018698
_cell_length_b 15.396041
_cell_length_c 8.834484
_cell_angle_alpha 90.000000
_cell_angle_beta 90.000000
_cell_angle_gamma 90.000000
_cell_volume 3266.929098
_symmetry_space_group_name_H-M "P B A M"
_symmetry_group_IT_number 55
_symmetry_cell_setting 'orthorhombic'
loop_
_space_group_symop_operation_xyz
x,y,z
-x,-y,z
1/2+x,1/2-y,-z
1/2-x,1/2+y,-z
-x,-y,-z
x,y,-z
1/2-x,1/2+y,z
1/2+x,1/2-y,z
loop_
_atom_site_type_symbol
_atom_site_label
_atom_site_fract_x
_atom_site_fract_y
_atom_site_fract_z
Si Si1 0.747247 0.916897 0.175818
Si Si2 0.640734 0.850553 0.677047
Si Si3 0.133442 0.341504 0.175298
Si Si4 0.635728 0.657532 0.677032
Si Si5 0.437045 0.991377 0.321088
Si Si6 0.438035 0.497040 0.679057
Si Si7 0.744951 0.101596 0.678649
Si Si8 0.369312 0.644266 0.827476
O O1 0.743327 0.001032 0.279779
O O2 0.696675 0.855365 0.225030
O O3 0.804161 0.866399 0.210144
O O4 0.741669 0.942342 0.000000
O O5 0.655335 0.860658 0.500000
O O6 0.614757 0.755302 0.710623
O O7 0.596807 0.923149 0.730341
O O8 0.089795 0.405466 0.252675
O O9 0.194562 0.348431 0.244198
O O10 0.112581 0.243395 0.201572
O O11 0.137049 0.365500 0.000000
O O12 0.638822 0.638735 0.500000
O O13 0.593314 0.587369 0.749355
O O14 0.697814 0.642804 0.742012
O O15 0.435978 0.981243 0.500000
O O16 0.500000 0.000000 0.260602
O O17 0.500000 0.500000 0.748752
O O18 0.441284 0.489374 0.500000
O O19 0.405668 0.584545 0.718991
O O20 0.738295 0.111741 0.500000
O O21 0.380987 0.616756 0.000000
#
# Coordination Sequence:
#
# PCOD8226348 Si02
#       8
#     8   8   8   8   8   8   8   8
#     4  11  21  35  57  85 116 149 188 234 286 345
#     4  10  20  36  58  82 114 150 187 233 286 345
#     4  11  23  39  59  85 119 153 191 238 286 344
#     4   9  19  35  56  85 115 146 186 235 287 339
#     4  10  22  39  59  84 114 152 197 240 285 338
#     4  10  21  38  61  87 115 150 196 245 287 331
#     4  11  20  34  58  85 115 150 187 232 292 349
#     4  10  23  40  58  84 119 157 191 232 289 345
#
# _framework density 19.590261999999999
#
# number of rings (size 3 to 8) (size 9 to 14) (size 15 to 20)
#    0.000    1.750    2.500    1.875    0.000    3.000 
#    0.000    3.750    0.000    0.000    0.000    0.000 
#    0.000    0.000    0.000    0.000    0.000    0.000 
#
# Total GULP energy -793725.586586 kJ/mol
# GULP energy per Si atom -12401.962290 kJ/mol
# Density = 1.954567 g / cm^3
# Si number density = 19.590262 Si / 1000 Ang^3
#
#
#
# Elastic Constant Matrix: (Units=GPa)
#
#
# Indices 1 2 3 4 5 6 
#
# 1 151.6035 59.5381 28.8009 0.0000 0.0000 0.0000
# 2 59.5381 122.4223 14.8570 0.0000 0.0000 0.0000
# 3 28.8009 14.8570 12.2092 0.0000 0.0000 0.0000
# 4 0.0000 0.0000 0.0000 18.4238 0.0000 0.0000
# 5 0.0000 0.0000 0.0000 0.0000 17.8417 0.0000
# 6 0.0000 0.0000 0.0000 0.0000 0.0000 14.7270
#
#
#
# Elastic Compliance Matrix: (Units=1/GPa)
#
#
# Indices 1 2 3 4 5 6 
#
# 1 0.012834 -0.003012 -0.026610 0.000000 0.000000 0.000000
# 2 -0.003012 0.010291 -0.005416 0.000000 0.000000 0.000000
# 3 -0.026610 -0.005416 0.151267 0.000000 0.000000 0.000000
# 4 0.000000 0.000000 0.000000 0.054278 0.000000 0.000000
# 5 0.000000 0.000000 0.000000 0.000000 0.056048 0.000000
# 6 0.000000 0.000000 0.000000 0.000000 0.000000 0.067903
#
#
# Mechanical properties :
#
#
# Convention : Reuss Voigt Hill
#
# Bulk Modulus (GPa) = 9.58633 54.73630 32.16132
# Shear Modulus (GPa) = 10.92968 22.40110 16.66539
#
# Velocity S-wave (km/s) = 2.36458 3.38521 2.91984
# Velocity P-wave (km/s) = 3.51554 6.57881 5.27446
#
# Compressibility (1/GPa) = 0.10431517
#
# Stress axis : x y z
#
# Youngs Moduli (GPa) = 77.91536 97.17391 6.61082
#
# Poissons Ratio (x) = 0.29273 0.17591
# Poissons Ratio (y) = 0.23472 0.03581
# Poissons Ratio (z) = 2.07332 0.52632
#
# Static dielectric constant tensor:
#      x y z
#    x 3.766510 0.000000 0.000000 
#    y 0.000000 3.667980 0.000000 
#    z 0.000000 0.000000 3.377010 
# 
# 
# High freq. dielectric constant tensor:
#      x y z
#    x 1.762620 0.000000 0.000000 
#    y 0.000000 1.775390 0.000000 
#    z 0.000000 0.000000 1.745230 
# 
# From -- ./inp_files/9762.got.cif
#   From: 2010.03.12/outbox.cif.g09.slc.cpg/sg55_5_cif.got.tgz:9762.got - 2010.04.16 15:19:21.
