data_PCOD8226607
_publ_section_title
;
Structure prediction by ZEFSAII (Michael W. Deem and Ramdas Pophale) SiO2 
 PCOD8226607
Probable space group: P B A M
;
_chemical_formula_sum "Si O2"
_cell_formula_units_Z 64
_cell_length_a 27.009696
_cell_length_b 12.962600
_cell_length_c 9.148094
_cell_angle_alpha 90.000000
_cell_angle_beta 90.000000
_cell_angle_gamma 90.000000
_cell_volume 3202.893030
_symmetry_space_group_name_H-M "P B A M"
_symmetry_group_IT_number 55
_symmetry_cell_setting 'orthorhombic'
loop_
_space_group_symop_operation_xyz
x,y,z
-x,-y,z
1/2+x,1/2-y,-z
1/2-x,1/2+y,-z
-x,-y,-z
x,y,-z
1/2-x,1/2+y,z
1/2+x,1/2-y,z
loop_
_atom_site_type_symbol
_atom_site_label
_atom_site_fract_x
_atom_site_fract_y
_atom_site_fract_z
Si Si1 0.376765 0.401260 0.673153
Si Si2 0.623012 0.387243 0.826392
Si Si3 0.445119 0.213718 0.327090
Si Si4 0.729094 0.685608 0.670979
Si Si5 0.103034 0.502731 0.670677
Si Si6 0.764852 0.860781 0.838308
Si Si7 0.057201 0.281883 0.329196
Si Si8 0.800523 0.552083 0.162399
O O1 0.382384 0.417021 0.500000
O O2 0.394061 0.505046 0.753826
O O3 0.410964 0.307303 0.730201
O O4 0.320289 0.374849 0.716709
O O5 0.679147 0.363379 0.779309
O O6 0.590308 0.293949 0.766518
O O7 0.616969 0.396561 0.000000
O O8 0.443248 0.209888 0.500000
O O9 0.426292 0.102746 0.269031
O O10 0.501033 0.233000 0.274714
O O11 0.736674 0.681657 0.500000
O O12 0.727353 0.803000 0.727448
O O13 0.779917 0.647964 0.746370
O O14 0.115306 0.514138 0.500000
O O15 0.071425 0.400283 0.701498
O O16 0.153860 0.499960 0.757641
O O17 0.745902 0.976534 0.846253
O O18 0.762583 0.809762 0.000000
O O19 0.063641 0.254574 0.500000
O O20 0.816836 0.587631 0.000000
#
# Coordination Sequence:
#
# PCOD8226607 Si02
#       8
#     8   8   8   8   8   8   8   8
#     4  10  21  38  60  86 117 154 196 245 296 349
#     4  11  23  40  59  82 118 160 201 247 291 347
#     4   9  19  38  63  89 118 152 195 248 306 361
#     4  11  22  35  57  87 116 148 190 244 290 338
#     4  10  20  37  62  92 121 151 195 248 299 356
#     4  10  22  38  56  79 113 157 194 230 282 348
#     4  10  21  38  62  89 117 155 198 245 303 361
#     4  11  22  37  56  82 117 157 192 225 282 352
#
# _framework density 19.981935
#
# number of rings (size 3 to 8) (size 9 to 14) (size 15 to 20)
#    0.000    1.750    1.250    3.000    0.000    8.000 
#    0.000    4.375    0.000    1.500    0.000    0.000 
#    0.000    0.000    0.000    0.000    0.000    0.000 
#
# Total GULP energy -793632.505843 kJ/mol
# GULP energy per Si atom -12400.507904 kJ/mol
# Density = 1.993646 g / cm^3
# Si number density = 19.981935 Si / 1000 Ang^3
#
#
#
# Elastic Constant Matrix: (Units=GPa)
#
#
# Indices 1 2 3 4 5 6 
#
# 1 99.6445 24.2220 43.4582 0.0000 0.0000 0.0000
# 2 24.2220 96.4140 40.5400 0.0000 0.0000 0.0000
# 3 43.4582 40.5400 66.7560 0.0000 0.0000 0.0000
# 4 0.0000 0.0000 0.0000 27.9625 0.0000 0.0000
# 5 0.0000 0.0000 0.0000 0.0000 21.4542 0.0000
# 6 0.0000 0.0000 0.0000 0.0000 0.0000 35.4884
#
#
#
# Elastic Compliance Matrix: (Units=1/GPa)
#
#
# Indices 1 2 3 4 5 6 
#
# 1 0.014028 0.000424 -0.009389 0.000000 0.000000 0.000000
# 2 0.000424 0.013941 -0.008742 0.000000 0.000000 0.000000
# 3 -0.009389 -0.008742 0.026402 0.000000 0.000000 0.000000
# 4 0.000000 0.000000 0.000000 0.035762 0.000000 0.000000
# 5 0.000000 0.000000 0.000000 0.000000 0.046611 0.000000
# 6 0.000000 0.000000 0.000000 0.000000 0.000000 0.028178
#
#
# Mechanical properties :
#
#
# Convention : Reuss Voigt Hill
#
# Bulk Modulus (GPa) = 52.75706 53.25054 53.00380
# Shear Modulus (GPa) = 24.19479 27.28731 25.74105
#
# Velocity S-wave (km/s) = 3.48348 3.69941 3.59307
# Velocity P-wave (km/s) = 6.52987 6.70483 6.61793
#
# Compressibility (1/GPa) = 0.01895481
#
# Stress axis : x y z
#
# Youngs Moduli (GPa) = 71.28763 71.72871 37.87653
#
# Poissons Ratio (x) = -0.03041 0.35564
# Poissons Ratio (y) = -0.03022 0.33113
# Poissons Ratio (z) = 0.66935 0.62708
#
# Static dielectric constant tensor:
#      x y z
#    x 3.664160 0.000000 0.000000 
#    y 0.000000 3.730850 0.000000 
#    z 0.000000 0.000000 3.488350 
# 
# 
# High freq. dielectric constant tensor:
#      x y z
#    x 1.780370 0.000000 0.000000 
#    y 0.000000 1.793320 0.000000 
#    z 0.000000 0.000000 1.762530 
# 
# From -- ./inp_files/4672.got.cif
#   From: 2010.03.12/outbox.cif.g09.slc.cpg/sg55_3_cif.got.tgz:4672.got - 2010.04.16 15:19:21.
