data_PCOD8226440
_publ_section_title
;
Structure prediction by ZEFSAII (Michael W. Deem and Ramdas Pophale) SiO2 
 PCOD8226440
Probable space group: P B A M
;
_chemical_formula_sum "Si O2"
_cell_formula_units_Z 48
_cell_length_a 11.883681
_cell_length_b 23.084211
_cell_length_c 8.948149
_cell_angle_alpha 90.000000
_cell_angle_beta 90.000000
_cell_angle_gamma 90.000000
_cell_volume 2454.704551
_symmetry_space_group_name_H-M "P B A M"
_symmetry_group_IT_number 55
_symmetry_cell_setting 'orthorhombic'
loop_
_space_group_symop_operation_xyz
x,y,z
-x,-y,z
1/2+x,1/2-y,-z
1/2-x,1/2+y,-z
-x,-y,-z
x,y,-z
1/2-x,1/2+y,z
1/2+x,1/2-y,z
loop_
_atom_site_type_symbol
_atom_site_label
_atom_site_fract_x
_atom_site_fract_y
_atom_site_fract_z
Si Si1 0.581431 0.152729 0.823854
Si Si2 0.838508 0.779554 0.826575
Si Si3 0.326295 0.546433 0.327899
Si Si4 0.507211 0.618968 0.173568
Si Si5 0.773247 0.083957 0.675939
Si Si6 0.656430 0.851642 0.326950
O O1 0.627308 0.215553 0.777011
O O2 0.656428 0.103847 0.746874
O O3 0.455321 0.145085 0.768971
O O4 0.584986 0.144116 0.000000
O O5 0.944068 0.821017 0.792649
O O6 0.731601 0.797939 0.728616
O O7 0.804054 0.783094 0.000000
O O8 0.364542 0.548443 0.500000
O O9 0.433467 0.564985 0.230600
O O10 0.289867 0.482715 0.278221
O O11 0.221540 0.588493 0.298417
O O12 0.625095 0.622262 0.259493
O O13 0.532068 0.610385 0.000000
O O14 0.767257 0.092526 0.500000
O O15 0.627095 0.842373 0.500000
#
# Coordination Sequence:
#
# PCOD8226440 Si02
#       6
#     8   8   8   8   8   8
#     4  11  24  40  58  83 117 156 193 235 289 343
#     4   9  21  40  60  81 113 153 188 230 288 345
#     4   9  20  39  60  83 117 156 190 236 293 343
#     4  10  20  36  60  89 116 150 193 239 290 345
#     4  11  23  38  57  85 119 154 194 239 289 340
#     4  10  21  39  62  86 112 147 193 238 284 341
#
# _framework density 19.554286999999999
#
# number of rings (size 3 to 8) (size 9 to 14) (size 15 to 20)
#    0.000    2.000    0.000    2.500    2.333    6.667 
#    0.000    3.333    0.000    0.000    0.000    0.000 
#    0.000    0.000    0.000    0.000    0.000    0.000 
#
# Total GULP energy -595507.665264 kJ/mol
# GULP energy per Si atom -12406.409693 kJ/mol
# Density = 1.950978 g / cm^3
# Si number density = 19.554287 Si / 1000 Ang^3
#
#
#
# Elastic Constant Matrix: (Units=GPa)
#
#
# Indices 1 2 3 4 5 6 
#
# 1 101.0527 17.0869 38.6473 0.0000 0.0000 0.0000
# 2 17.0869 57.4361 23.2369 0.0000 0.0000 0.0000
# 3 38.6473 23.2369 74.4902 0.0000 0.0000 0.0000
# 4 0.0000 0.0000 0.0000 29.5776 0.0000 0.0000
# 5 0.0000 0.0000 0.0000 0.0000 42.4717 0.0000
# 6 0.0000 0.0000 0.0000 0.0000 0.0000 19.4619
#
#
#
# Elastic Compliance Matrix: (Units=1/GPa)
#
#
# Indices 1 2 3 4 5 6 
#
# 1 0.012423 -0.001245 -0.006057 0.000000 0.000000 0.000000
# 2 -0.001245 0.020050 -0.005608 0.000000 0.000000 0.000000
# 3 -0.006057 -0.005608 0.018317 0.000000 0.000000 0.000000
# 4 0.000000 0.000000 0.000000 0.033809 0.000000 0.000000
# 5 0.000000 0.000000 0.000000 0.000000 0.023545 0.000000
# 6 0.000000 0.000000 0.000000 0.000000 0.000000 0.051382
#
#
# Mechanical properties :
#
#
# Convention : Reuss Voigt Hill
#
# Bulk Modulus (GPa) = 40.05070 43.43570 41.74320
# Shear Modulus (GPa) = 25.81708 28.56942 27.19325
#
# Velocity S-wave (km/s) = 3.63750 3.82649 3.73319
# Velocity P-wave (km/s) = 6.17804 6.46404 6.32266
#
# Compressibility (1/GPa) = 0.02496835
#
# Stress axis : x y z
#
# Youngs Moduli (GPa) = 80.49715 49.87492 54.59552
#
# Poissons Ratio (x) = 0.06211 0.33067
# Poissons Ratio (y) = 0.10024 0.30620
# Poissons Ratio (z) = 0.48755 0.27972
#
# Static dielectric constant tensor:
#      x y z
#    x 3.546070 0.000000 0.000000 
#    y 0.000000 3.651080 0.000000 
#    z 0.000000 0.000000 3.604390 
# 
# 
# High freq. dielectric constant tensor:
#      x y z
#    x 1.767010 0.000000 0.000000 
#    y 0.000000 1.764610 0.000000 
#    z 0.000000 0.000000 1.769080 
# 
# From -- ./inp_files/4061.got.cif
#   From: 2010.03.12/outbox.cif.g09.slc.cpg/sg55_3_cif.got.tgz:4061.got - 2010.04.16 15:19:21.
