data_PCOD8226209
_publ_section_title
;
Structure prediction by ZEFSAII (Michael W. Deem and Ramdas Pophale) SiO2 
 PCOD8226209
Probable space group: P B A M
;
_chemical_formula_sum "Si O2"
_cell_formula_units_Z 64
_cell_length_a 28.352171
_cell_length_b 12.583084
_cell_length_c 9.212745
_cell_angle_alpha 90.000000
_cell_angle_beta 90.000000
_cell_angle_gamma 90.000000
_cell_volume 3286.718171
_symmetry_space_group_name_H-M "P B A M"
_symmetry_group_IT_number 55
_symmetry_cell_setting 'orthorhombic'
loop_
_space_group_symop_operation_xyz
x,y,z
-x,-y,z
1/2+x,1/2-y,-z
1/2-x,1/2+y,-z
-x,-y,-z
x,y,-z
1/2-x,1/2+y,z
1/2+x,1/2-y,z
loop_
_atom_site_type_symbol
_atom_site_label
_atom_site_fract_x
_atom_site_fract_y
_atom_site_fract_z
Si Si1 0.391358 0.977173 0.165352
Si Si2 0.571588 0.391172 0.337447
Si Si3 0.195207 0.955387 0.165601
Si Si4 0.679393 0.340520 0.662429
Si Si5 0.702024 0.139283 0.837236
Si Si6 0.393632 0.383824 0.670015
Si Si7 0.940458 0.338965 0.329046
Si Si8 0.533255 0.201514 0.169045
O O1 0.404549 0.071826 0.273529
O O2 0.336208 0.953327 0.191657
O O3 0.420881 0.870235 0.199073
O O4 0.400943 0.013949 0.000000
O O5 0.549941 0.384142 0.500000
O O6 0.623308 0.342204 0.334859
O O7 0.573983 0.514410 0.285422
O O8 0.539654 0.320814 0.230934
O O9 0.245651 0.902616 0.179401
O O10 0.156136 0.884895 0.247279
O O11 0.200912 0.070757 0.234320
O O12 0.178898 0.967175 0.000000
O O13 0.698466 0.358686 0.500000
O O14 0.696784 0.228025 0.717024
O O15 0.693525 0.184828 0.000000
O O16 0.381860 0.392019 0.500000
O O17 0.420655 0.276970 0.711531
O O18 0.947590 0.352219 0.500000
O O19 0.990060 0.355897 0.249359
O O20 0.521640 0.211123 0.000000
#
# Coordination Sequence:
#
# PCOD8226209 Si02
#       8
#     8   8   8   8   8   8   8   8
#     4  10  22  40  59  82 117 153 192 243 293 347
#     4   9  18  35  59  83 110 146 190 236 285 343
#     4  10  21  36  59  87 116 152 193 238 291 349
#     4  10  20  35  57  83 114 150 188 237 290 342
#     4  10  21  38  59  85 115 151 194 240 291 346
#     4   9  21  41  59  82 118 157 194 240 297 348
#     4  11  24  40  59  83 118 158 195 240 293 353
#     4  11  22  37  60  87 115 151 193 243 295 346
#
# _framework density 19.472311999999999
#
# number of rings (size 3 to 8) (size 9 to 14) (size 15 to 20)
#    0.000    2.000    1.250    2.625    0.000    8.500 
#    0.000    6.250    0.000    0.000    0.000    0.000 
#    0.000    0.000    0.000    0.000    0.000    0.000 
#
# Total GULP energy -793760.812425 kJ/mol
# GULP energy per Si atom -12402.512694 kJ/mol
# Density = 1.942799 g / cm^3
# Si number density = 19.472312 Si / 1000 Ang^3
#
#
#
# Elastic Constant Matrix: (Units=GPa)
#
#
# Indices 1 2 3 4 5 6 
#
# 1 35.6194 15.9155 33.7818 0.0000 0.0000 0.0000
# 2 15.9155 84.8117 44.9790 0.0000 0.0000 0.0000
# 3 33.7818 44.9790 98.1164 0.0000 0.0000 0.0000
# 4 0.0000 0.0000 0.0000 33.5078 0.0000 0.0000
# 5 0.0000 0.0000 0.0000 0.0000 27.4353 0.0000
# 6 0.0000 0.0000 0.0000 0.0000 0.0000 20.2750
#
#
#
# Elastic Compliance Matrix: (Units=1/GPa)
#
#
# Indices 1 2 3 4 5 6 
#
# 1 0.041692 -0.000279 -0.014227 0.000000 0.000000 0.000000
# 2 -0.000279 0.015580 -0.007046 0.000000 0.000000 0.000000
# 3 -0.014227 -0.007046 0.018321 0.000000 0.000000 0.000000
# 4 0.000000 0.000000 0.000000 0.029844 0.000000 0.000000
# 5 0.000000 0.000000 0.000000 0.000000 0.036449 0.000000
# 6 0.000000 0.000000 0.000000 0.000000 0.000000 0.049322
#
#
# Mechanical properties :
#
#
# Convention : Reuss Voigt Hill
#
# Bulk Modulus (GPa) = 30.77986 45.32224 38.05105
# Shear Modulus (GPa) = 20.39640 24.50171 22.44905
#
# Velocity S-wave (km/s) = 3.23995 3.55108 3.39908
# Velocity P-wave (km/s) = 5.46239 6.33556 5.91511
#
# Compressibility (1/GPa) = 0.03248878
#
# Stress axis : x y z
#
# Youngs Moduli (GPa) = 23.98533 64.18457 54.58341
#
# Poissons Ratio (x) = 0.01789 0.77656
# Poissons Ratio (y) = 0.00668 0.38461
# Poissons Ratio (z) = 0.34124 0.45227
#
# Static dielectric constant tensor:
#      x y z
#    x 3.456860 0.000000 0.000000 
#    y 0.000000 3.547630 0.000000 
#    z 0.000000 0.000000 3.681200 
# 
# 
# High freq. dielectric constant tensor:
#      x y z
#    x 1.753540 0.000000 0.000000 
#    y 0.000000 1.758510 0.000000 
#    z 0.000000 0.000000 1.764670 
# 
# From -- ./inp_files/10788.got.cif
#   From: 2010.03.12/outbox.cif.g09.slc.cpg/sg55_6_cif.got.tgz:10788.got - 2010.04.16 15:19:21.
