data_PCOD8226169
_publ_section_title
;
Structure prediction by ZEFSAII (Michael W. Deem and Ramdas Pophale) SiO2 
 PCOD8226169
Probable space group: P B A M
;
_chemical_formula_sum "Si O2"
_cell_formula_units_Z 64
_cell_length_a 19.706761
_cell_length_b 18.733294
_cell_length_c 8.966874
_cell_angle_alpha 90.000000
_cell_angle_beta 90.000000
_cell_angle_gamma 90.000000
_cell_volume 3310.323719
_symmetry_space_group_name_H-M "P B A M"
_symmetry_group_IT_number 55
_symmetry_cell_setting 'orthorhombic'
loop_
_space_group_symop_operation_xyz
x,y,z
-x,-y,z
1/2+x,1/2-y,-z
1/2-x,1/2+y,-z
-x,-y,-z
x,y,-z
1/2-x,1/2+y,z
1/2+x,1/2-y,z
loop_
_atom_site_type_symbol
_atom_site_label
_atom_site_fract_x
_atom_site_fract_y
_atom_site_fract_z
Si Si1 0.308935 0.447216 0.673446
Si Si2 0.899535 0.810676 0.172126
Si Si3 0.948147 0.441590 0.823013
Si Si4 0.563650 0.453063 0.326873
Si Si5 0.794367 0.459829 0.823573
Si Si6 0.739367 0.319110 0.323579
Si Si7 0.646915 0.707674 0.675709
Si Si8 0.526109 0.783238 0.171896
O O1 0.289492 0.443281 0.500000
O O2 0.367702 0.504147 0.703508
O O3 0.242002 0.468421 0.766302
O O4 0.333301 0.370656 0.733475
O O5 0.936383 0.881715 0.230108
O O6 0.833114 0.791886 0.266841
O O7 0.949503 0.743605 0.193003
O O8 0.879873 0.821638 0.000000
O O9 0.872385 0.461488 0.770946
O O10 0.967679 0.363174 0.761212
O O11 0.000000 0.500000 0.755077
O O12 0.953895 0.441803 0.000000
O O13 0.500000 0.500000 0.274383
O O14 0.556353 0.432151 0.500000
O O15 0.755602 0.394337 0.749427
O O16 0.788383 0.453354 0.000000
O O17 0.736603 0.329018 0.500000
O O18 0.795249 0.262358 0.272156
O O19 0.637921 0.707469 0.500000
O O20 0.575489 0.729304 0.744222
O O21 0.548177 0.783397 0.000000
#
# Coordination Sequence:
#
# PCOD8226169 Si02
#       8
#     8   8   8   8   8   8   8   8
#     4  10  21  37  57  84 118 152 192 242 293 353
#     4  11  23  36  56  86 119 154 197 244 292 348
#     4   9  19  37  61  87 117 154 196 240 297 357
#     4  10  20  35  56  80 112 156 195 233 290 351
#     4  11  21  36  62  89 115 153 198 245 295 354
#     4  11  22  38  60  84 116 158 199 242 294 351
#     4  10  22  39  61  87 115 156 200 241 296 358
#     4  10  21  38  59  86 120 157 195 247 298 348
#
# _framework density 19.333456000000002
#
# number of rings (size 3 to 8) (size 9 to 14) (size 15 to 20)
#    0.000    1.750    2.500    1.875    0.000    4.250 
#    0.000    1.250    0.000    3.375    0.000    0.000 
#    0.000    0.000    0.000    0.000    0.000    0.000 
#
# Total GULP energy -793879.463403 kJ/mol
# GULP energy per Si atom -12404.366616 kJ/mol
# Density = 1.928945 g / cm^3
# Si number density = 19.333456 Si / 1000 Ang^3
#
#
#
# Elastic Constant Matrix: (Units=GPa)
#
#
# Indices 1 2 3 4 5 6 
#
# 1 115.5640 37.0946 29.5143 0.0000 0.0000 0.0000
# 2 37.0946 103.3524 23.2803 0.0000 0.0000 0.0000
# 3 29.5143 23.2803 42.8855 0.0000 0.0000 0.0000
# 4 0.0000 0.0000 0.0000 23.5701 0.0000 0.0000
# 5 0.0000 0.0000 0.0000 0.0000 22.1194 0.0000
# 6 0.0000 0.0000 0.0000 0.0000 0.0000 37.2074
#
#
#
# Elastic Compliance Matrix: (Units=1/GPa)
#
#
# Indices 1 2 3 4 5 6 
#
# 1 0.011067 -0.002571 -0.006221 0.000000 0.000000 0.000000
# 2 -0.002571 0.011621 -0.004539 0.000000 0.000000 0.000000
# 3 -0.006221 -0.004539 0.030063 0.000000 0.000000 0.000000
# 4 0.000000 0.000000 0.000000 0.042427 0.000000 0.000000
# 5 0.000000 0.000000 0.000000 0.000000 0.045209 0.000000
# 6 0.000000 0.000000 0.000000 0.000000 0.000000 0.026876
#
#
# Mechanical properties :
#
#
# Convention : Reuss Voigt Hill
#
# Bulk Modulus (GPa) = 38.32959 49.06449 43.69704
# Shear Modulus (GPa) = 24.67653 28.04023 26.35838
#
# Velocity S-wave (km/s) = 3.57650 3.81247 3.69637
# Velocity P-wave (km/s) = 6.07649 6.69426 6.39284
#
# Compressibility (1/GPa) = 0.02608950
#
# Stress axis : x y z
#
# Youngs Moduli (GPa) = 90.35675 86.05270 33.26316
#
# Poissons Ratio (x) = 0.22123 0.20693
# Poissons Ratio (y) = 0.23230 0.15098
# Poissons Ratio (z) = 0.56211 0.39059
#
# Static dielectric constant tensor:
#      x y z
#    x 3.661790 0.000000 0.000000 
#    y 0.000000 3.696430 0.000000 
#    z 0.000000 0.000000 3.373010 
# 
# 
# High freq. dielectric constant tensor:
#      x y z
#    x 1.764120 0.000000 0.000000 
#    y 0.000000 1.757620 0.000000 
#    z 0.000000 0.000000 1.736710 
# 
# From -- ./inp_files/8990.got.cif
#   From: 2010.03.12/outbox.cif.g09.slc.cpg/sg55_5_cif.got.tgz:8990.got - 2010.04.16 15:19:21.
