data_PCOD8226503
_publ_section_title
;
Structure prediction by ZEFSAII (Michael W. Deem and Ramdas Pophale) SiO2 
 PCOD8226503
Probable space group: P B A M
;
_chemical_formula_sum "Si O2"
_cell_formula_units_Z 64
_cell_length_a 12.585534
_cell_length_b 27.367024
_cell_length_c 9.382194
_cell_angle_alpha 90.000000
_cell_angle_beta 90.000000
_cell_angle_gamma 90.000000
_cell_volume 3231.496048
_symmetry_space_group_name_H-M "P B A M"
_symmetry_group_IT_number 55
_symmetry_cell_setting 'orthorhombic'
loop_
_space_group_symop_operation_xyz
x,y,z
-x,-y,z
1/2+x,1/2-y,-z
1/2-x,1/2+y,-z
-x,-y,-z
x,y,-z
1/2-x,1/2+y,z
1/2+x,1/2-y,z
loop_
_atom_site_type_symbol
_atom_site_label
_atom_site_fract_x
_atom_site_fract_y
_atom_site_fract_z
Si Si1 0.830328 0.704291 0.667498
Si Si2 0.023468 0.657474 0.832700
Si Si3 0.247703 0.955053 0.341999
Si Si4 0.547362 0.050900 0.167551
Si Si5 0.253100 0.205404 0.839718
Si Si6 0.589964 0.463840 0.663069
Si Si7 0.367771 0.360284 0.340630
Si Si8 0.561411 0.368722 0.160025
O O1 0.853755 0.711043 0.500000
O O2 0.777330 0.753139 0.728169
O O3 0.745674 0.662099 0.698979
O O4 0.938616 0.689696 0.746314
O O5 0.138845 0.678351 0.791825
O O6 0.019569 0.599618 0.790681
O O7 0.998915 0.663691 0.000000
O O8 0.297526 0.947910 0.500000
O O9 0.334755 0.942413 0.225845
O O10 0.146465 0.918734 0.325705
O O11 0.204080 0.009724 0.323537
O O12 0.500000 0.000000 0.231375
O O13 0.556176 0.045804 0.000000
O O14 0.159624 0.166885 0.838001
O O15 0.266165 0.226959 0.000000
O O16 0.500000 0.500000 0.721987
O O17 0.565367 0.448696 0.500000
O O18 0.597757 0.416523 0.758319
O O19 0.401651 0.344794 0.500000
O O20 0.460459 0.342706 0.234928
O O21 0.528077 0.382402 0.000000
#
# Coordination Sequence:
#
# PCOD8226503 Si02
#       8
#     8   8   8   8   8   8   8   8
#     4  11  24  42  67  94 119 153 204 261 308 359
#     4  10  22  43  66  90 126 166 203 249 308 370
#     4  10  20  37  59  84 118 161 202 243 298 359
#     4  10  22  38  61  90 122 161 202 250 304 358
#     4  10  25  45  63  88 125 165 202 248 311 372
#     4  10  20  37  58  82 120 165 198 237 298 355
#     4  10  21  40  62  87 123 158 195 251 307 362
#     4  11  24  39  61  91 122 160 206 254 301 360
#
# _framework density 19.805067999999999
#
# number of rings (size 3 to 8) (size 9 to 14) (size 15 to 20)
#    0.000    1.750    2.500    0.750    3.500    4.000 
#    0.000    0.000    0.000    0.000    0.000    0.000 
#    0.000    0.000    0.000    0.000    0.000    0.000 
#
# Total GULP energy -793622.327704 kJ/mol
# GULP energy per Si atom -12400.348870 kJ/mol
# Density = 1.975999 g / cm^3
# Si number density = 19.805068 Si / 1000 Ang^3
#
#
#
# Elastic Constant Matrix: (Units=GPa)
#
#
# Indices 1 2 3 4 5 6 
#
# 1 104.5428 22.9797 43.3549 0.0000 0.0000 0.0000
# 2 22.9797 80.9149 39.9062 0.0000 0.0000 0.0000
# 3 43.3549 39.9062 74.1444 0.0000 0.0000 0.0000
# 4 0.0000 0.0000 0.0000 21.7523 0.0000 0.0000
# 5 0.0000 0.0000 0.0000 0.0000 21.4500 0.0000
# 6 0.0000 0.0000 0.0000 0.0000 0.0000 27.6749
#
#
#
# Elastic Compliance Matrix: (Units=1/GPa)
#
#
# Indices 1 2 3 4 5 6 
#
# 1 0.012628 0.000075 -0.007425 0.000000 0.000000 0.000000
# 2 0.000075 0.016825 -0.009100 0.000000 0.000000 0.000000
# 3 -0.007425 -0.009100 0.022726 0.000000 0.000000 0.000000
# 4 0.000000 0.000000 0.000000 0.045972 0.000000 0.000000
# 5 0.000000 0.000000 0.000000 0.000000 0.046620 0.000000
# 6 0.000000 0.000000 0.000000 0.000000 0.000000 0.036134
#
#
# Mechanical properties :
#
#
# Convention : Reuss Voigt Hill
#
# Bulk Modulus (GPa) = 51.86322 52.45375 52.15849
# Shear Modulus (GPa) = 22.70347 24.39951 23.55149
#
# Velocity S-wave (km/s) = 3.38945 3.51377 3.45217
# Velocity P-wave (km/s) = 6.44682 6.55779 6.50254
#
# Compressibility (1/GPa) = 0.01928149
#
# Stress axis : x y z
#
# Youngs Moduli (GPa) = 79.18946 59.43485 44.00176
#
# Poissons Ratio (x) = -0.00448 0.32670
# Poissons Ratio (y) = -0.00597 0.40041
# Poissons Ratio (z) = 0.58795 0.54084
#
# Static dielectric constant tensor:
#      x y z
#    x 3.539260 0.000000 0.000000 
#    y 0.000000 4.058320 0.000000 
#    z 0.000000 0.000000 3.720740 
# 
# 
# High freq. dielectric constant tensor:
#      x y z
#    x 1.775000 0.000000 0.000000 
#    y 0.000000 1.776960 0.000000 
#    z 0.000000 0.000000 1.768370 
# 
# From -- ./inp_files/4486.got.cif
#   From: 2010.03.12/outbox.cif.g09.slc.cpg/sg55_3_cif.got.tgz:4486.got - 2010.04.16 15:19:21.
