data_PCOD8226027
_publ_section_title
;
Structure prediction by ZEFSAII (Michael W. Deem and Ramdas Pophale) SiO2 
 PCOD8226027
Probable space group: P B A M
;
_chemical_formula_sum "Si O2"
_cell_formula_units_Z 64
_cell_length_a 19.592965
_cell_length_b 18.410961
_cell_length_c 9.319176
_cell_angle_alpha 90.000000
_cell_angle_beta 90.000000
_cell_angle_gamma 90.000000
_cell_volume 3361.662693
_symmetry_space_group_name_H-M "P B A M"
_symmetry_group_IT_number 55
_symmetry_cell_setting 'orthorhombic'
loop_
_space_group_symop_operation_xyz
x,y,z
-x,-y,z
1/2+x,1/2-y,-z
1/2-x,1/2+y,-z
-x,-y,-z
x,y,-z
1/2-x,1/2+y,z
1/2+x,1/2-y,z
loop_
_atom_site_type_symbol
_atom_site_label
_atom_site_fract_x
_atom_site_fract_y
_atom_site_fract_z
Si Si1 0.270282 0.126762 0.164280
Si Si2 0.194779 0.486402 0.666622
Si Si3 0.128648 0.754156 0.168237
Si Si4 0.479252 0.785016 0.829947
Si Si5 0.940202 0.556487 0.167846
Si Si6 0.324085 0.392652 0.665672
Si Si7 0.578272 0.480632 0.336180
Si Si8 0.381101 0.659832 0.165281
O O1 0.331784 0.180100 0.203593
O O2 0.199613 0.170181 0.187591
O O3 0.271016 0.058423 0.269080
O O4 0.276655 0.099494 0.000000
O O5 0.179516 0.500190 0.500000
O O6 0.125666 0.469097 0.747691
O O7 0.246871 0.419841 0.687927
O O8 0.166303 0.819669 0.246014
O O9 0.051893 0.744067 0.228137
O O10 0.129851 0.771188 0.000000
O O11 0.463597 0.865411 0.771038
O O12 0.419429 0.731500 0.776032
O O13 0.483337 0.789664 0.000000
O O14 0.000000 0.500000 0.198541
O O15 0.921777 0.559661 0.000000
O O16 0.339854 0.376030 0.500000
O O17 0.376476 0.453310 0.724822
O O18 0.500000 0.500000 0.320047
O O19 0.599367 0.465305 0.500000
O O20 0.591530 0.409221 0.247297
O O21 0.400167 0.648076 0.000000
#
# Coordination Sequence:
#
# PCOD8226027 Si02
#       8
#     8   8   8   8   8   8   8   8
#     4  10  21  37  58  84 112 149 196 239 289 349
#     4  11  23  39  59  85 119 156 194 240 289 346
#     4  10  21  37  60  86 113 147 191 237 288 348
#     4   9  19  36  57  85 118 147 185 241 296 344
#     4  10  21  39  65  90 117 154 195 243 298 350
#     4  10  22  38  54  82 119 152 190 235 286 340
#     4  10  20  36  57  79 110 151 189 227 276 338
#     4  10  20  34  54  81 111 145 187 237 285 336
#
# _framework density 19.038197
#
# number of rings (size 3 to 8) (size 9 to 14) (size 15 to 20)
#    0.000    2.000    1.250    1.875    1.750    4.500 
#    0.000    1.250    0.000    0.000    0.000    0.000 
#    0.000    0.000    0.000    0.000    0.000    0.000 
#
# Total GULP energy -793820.528875 kJ/mol
# GULP energy per Si atom -12403.445764 kJ/mol
# Density = 1.899486 g / cm^3
# Si number density = 19.038197 Si / 1000 Ang^3
#
#
#
# Elastic Constant Matrix: (Units=GPa)
#
#
# Indices 1 2 3 4 5 6 
#
# 1 114.4571 41.8264 41.4233 0.0000 0.0000 0.0000
# 2 41.8264 110.6561 45.0676 0.0000 0.0000 0.0000
# 3 41.4233 45.0676 56.6425 0.0000 0.0000 0.0000
# 4 0.0000 0.0000 0.0000 88.0898 0.0000 0.0000
# 5 0.0000 0.0000 0.0000 0.0000 25.5979 0.0000
# 6 0.0000 0.0000 0.0000 0.0000 0.0000 32.7316
#
#
#
# Elastic Compliance Matrix: (Units=1/GPa)
#
#
# Indices 1 2 3 4 5 6 
#
# 1 0.012032 -0.001426 -0.007664 0.000000 0.000000 0.000000
# 2 -0.001426 0.013538 -0.009729 0.000000 0.000000 0.000000
# 3 -0.007664 -0.009729 0.031000 0.000000 0.000000 0.000000
# 4 0.000000 0.000000 0.000000 0.011352 0.000000 0.000000
# 5 0.000000 0.000000 0.000000 0.000000 0.039066 0.000000
# 6 0.000000 0.000000 0.000000 0.000000 0.000000 0.030551
#
#
# Mechanical properties :
#
#
# Convention : Reuss Voigt Hill
#
# Bulk Modulus (GPa) = 52.82086 59.82115 56.32100
# Shear Modulus (GPa) = 27.54993 39.51308 33.53151
#
# Velocity S-wave (km/s) = 3.80819 4.56067 4.20131
# Velocity P-wave (km/s) = 6.86595 7.69563 7.29260
#
# Compressibility (1/GPa) = 0.01893191
#
# Stress axis : x y z
#
# Youngs Moduli (GPa) = 83.11242 73.86367 32.25808
#
# Poissons Ratio (x) = 0.10537 0.24723
# Poissons Ratio (y) = 0.11856 0.31383
# Poissons Ratio (z) = 0.63698 0.71859
#
# Static dielectric constant tensor:
#      x y z
#    x 3.058080 0.000000 0.000000 
#    y 0.000000 3.679340 0.000000 
#    z 0.000000 0.000000 3.340420 
# 
# 
# High freq. dielectric constant tensor:
#      x y z
#    x 1.758250 0.000000 0.000000 
#    y 0.000000 1.745760 0.000000 
#    z 0.000000 0.000000 1.719190 
# 
# From -- ./inp_files/9029.got.cif
#   From: 2010.03.12/outbox.cif.g09.slc.cpg/sg55_5_cif.got.tgz:9029.got - 2010.04.16 15:19:21.
