data_PCOD8226945
_publ_section_title
;
Structure prediction by ZEFSAII (Michael W. Deem and Ramdas Pophale) SiO2 
 PCOD8226945
Probable space group: P B A M
;
_chemical_formula_sum "Si O2"
_cell_formula_units_Z 48
_cell_length_a 24.910493
_cell_length_b 8.625106
_cell_length_c 11.188840
_cell_angle_alpha 90.000000
_cell_angle_beta 90.000000
_cell_angle_gamma 90.000000
_cell_volume 2403.985409
_symmetry_space_group_name_H-M "P B A M"
_symmetry_group_IT_number 55
_symmetry_cell_setting 'orthorhombic'
loop_
_space_group_symop_operation_xyz
x,y,z
-x,-y,z
1/2+x,1/2-y,-z
1/2-x,1/2+y,-z
-x,-y,-z
x,y,-z
1/2-x,1/2+y,z
1/2+x,1/2-y,z
loop_
_atom_site_type_symbol
_atom_site_label
_atom_site_fract_x
_atom_site_fract_y
_atom_site_fract_z
Si Si1 0.674377 0.775700 0.000000
Si Si2 0.892004 0.314851 0.219246
Si Si3 0.802244 0.181118 0.637648
Si Si4 0.002393 0.818052 0.863391
Si Si5 0.794912 0.860599 0.242524
Si Si6 0.256961 0.498422 0.000000
Si Si7 0.889631 0.667765 0.141938
O O1 0.639913 0.726400 0.886359
O O2 0.692958 0.958704 0.000000
O O3 0.732173 0.686115 0.000000
O O4 0.858871 0.270030 0.338043
O O5 0.952483 0.251366 0.224677
O O6 0.892952 0.494489 0.189754
O O7 0.787651 0.204400 0.500000
O O8 0.755363 0.257604 0.716352
O O9 0.807327 0.997624 0.663634
O O10 0.945852 0.747085 0.826675
O O11 0.017097 0.773350 0.000000
O O12 0.000000 0.000000 0.845230
O O13 0.845591 0.749310 0.224865
O O14 0.784449 0.936103 0.116221
O O15 0.878031 0.677965 0.000000
#
# Coordination Sequence:
#
# PCOD8226945 Si02
#       7
#     4   8   8   8   8   4   8
#     4  12  24  34  59  93 129 168 202 251 331 373
#     4  12  22  39  63  90 131 168 209 260 314 383
#     4  12  27  44  63  87 124 175 223 265 306 366
#     4  10  21  36  59  94 135 168 200 250 322 397
#     4  12  23  40  63  90 127 163 206 263 321 383
#     4  12  22  36  57  94 128 155 197 260 325 384
#     4  11  23  36  63  98 133 162 197 252 331 401
#
# _framework density 19.966843000000001
#
# number of rings (size 3 to 8) (size 9 to 14) (size 15 to 20)
#    0.000    0.500    5.833    3.000    2.333    1.333 
#    0.000    0.833    0.000    7.500    0.000    0.000 
#    0.000    0.000    0.000    0.000    0.000    0.000 
#
# Total GULP energy -595205.349780 kJ/mol
# GULP energy per Si atom -12400.111454 kJ/mol
# Density = 1.992140 g / cm^3
# Si number density = 19.966843 Si / 1000 Ang^3
#
#
#
# Elastic Constant Matrix: (Units=GPa)
#
#
# Indices 1 2 3 4 5 6 
#
# 1 142.1760 54.4923 27.5635 0.0000 0.0000 0.0000
# 2 54.4923 109.2815 28.5849 0.0000 0.0000 0.0000
# 3 27.5635 28.5849 67.1919 0.0000 0.0000 0.0000
# 4 0.0000 0.0000 0.0000 20.3515 0.0000 0.0000
# 5 0.0000 0.0000 0.0000 0.0000 -7.1324 0.0000
# 6 0.0000 0.0000 0.0000 0.0000 0.0000 43.4531
#
#
#
# Elastic Compliance Matrix: (Units=1/GPa)
#
#
# Indices 1 2 3 4 5 6 
#
# 1 0.008926 -0.003930 -0.001989 0.000000 0.000000 0.000000
# 2 -0.003930 0.012027 -0.003504 0.000000 0.000000 0.000000
# 3 -0.001989 -0.003504 0.017190 0.000000 0.000000 0.000000
# 4 0.000000 0.000000 0.000000 0.049136 0.000000 0.000000
# 5 0.000000 0.000000 0.000000 0.000000 -0.140206 0.000000
# 6 0.000000 0.000000 0.000000 0.000000 0.000000 0.023013
#
#
# Mechanical properties :
#
#
# Convention : Reuss Voigt Hill
#
# Bulk Modulus (GPa) = 51.82875 59.99229 55.91052
# Shear Modulus (GPa) = -1078.87839 25.20169 -526.83835
#
# Velocity S-wave (km/s) = -23.27032 3.55657 -16.26129
# Velocity P-wave (km/s) = 26.38175 6.85396 18.01416
#
# Compressibility (1/GPa) = 0.01929431
#
# Stress axis : x y z
#
# Youngs Moduli (GPa) = 112.03723 83.14545 58.17449
#
# Poissons Ratio (x) = 0.32679 0.11573
# Poissons Ratio (y) = 0.44034 0.20386
# Poissons Ratio (z) = 0.22289 0.29137
#
# Static dielectric constant tensor:
#      x y z
#    x 4.302240 0.000000 0.000000 
#    y 0.000000 3.891320 0.000000 
#    z 0.000000 0.000000 2.880870 
# 
# 
# High freq. dielectric constant tensor:
#      x y z
#    x 1.788890 0.000000 0.000000 
#    y 0.000000 1.800610 0.000000 
#    z 0.000000 0.000000 1.738350 
# 
# From -- ./inp_files/15650.got.cif
#   From: 2010.03.12/outbox.cif.g09.slc.cpg/sg55_8_cif.got.tgz:15650.got - 2010.04.16 15:19:21.
