data_PCOD8226705
_publ_section_title
;
Structure prediction by ZEFSAII (Michael W. Deem and Ramdas Pophale) SiO2 
 PCOD8226705
Probable space group: P B A M
;
_chemical_formula_sum "Si O2"
_cell_formula_units_Z 56
_cell_length_a 14.501229
_cell_length_b 21.539891
_cell_length_c 8.807522
_cell_angle_alpha 90.000000
_cell_angle_beta 90.000000
_cell_angle_gamma 90.000000
_cell_volume 2751.072583
_symmetry_space_group_name_H-M "P B A M"
_symmetry_group_IT_number 55
_symmetry_cell_setting 'orthorhombic'
loop_
_space_group_symop_operation_xyz
x,y,z
-x,-y,z
1/2+x,1/2-y,-z
1/2-x,1/2+y,-z
-x,-y,-z
x,y,-z
1/2-x,1/2+y,z
1/2+x,1/2-y,z
loop_
_atom_site_type_symbol
_atom_site_label
_atom_site_fract_x
_atom_site_fract_y
_atom_site_fract_z
Si Si1 0.124798 0.753227 0.176687
Si Si2 0.031410 0.176307 0.678505
Si Si3 0.588781 0.873666 0.673558
Si Si4 0.616872 0.101052 0.673436
Si Si5 0.919512 0.953946 0.179024
Si Si6 0.165588 0.273839 0.823222
Si Si7 0.771846 0.479412 0.321895
O O1 0.084673 0.686374 0.220541
O O2 0.231165 0.755465 0.222039
O O3 0.071350 0.808028 0.264173
O O4 0.108754 0.764656 0.000000
O O5 0.030274 0.168793 0.500000
O O6 0.067564 0.112998 0.748541
O O7 0.098173 0.232327 0.723501
O O8 0.603835 0.852036 0.500000
O O9 0.492527 0.910192 0.690247
O O10 0.671275 0.918351 0.726594
O O11 0.641375 0.118953 0.500000
O O12 0.650980 0.154461 0.785359
O O13 0.667836 0.038667 0.723899
O O14 0.822714 0.982730 0.230033
O O15 0.920695 0.946066 0.000000
O O16 0.000000 0.000000 0.234708
O O17 0.145568 0.261872 0.000000
O O18 0.750144 0.478268 0.500000
#
# Coordination Sequence:
#
# PCOD8226705 Si02
#       7
#     8   8   8   8   8   8   8
#     4  11  24  40  62  92 128 166 206 256 316 378
#     4  12  25  43  68  95 125 164 212 263 315 375
#     4  10  20  38  63  94 129 166 207 255 313 374
#     4  10  21  38  62  94 129 166 209 258 315 373
#     4  11  26  46  66  90 126 169 213 263 321 377
#     4  11  24  41  63  93 131 169 210 260 319 381
#     4  10  22  40  64  94 128 168 214 261 311 375
#
# _framework density 20.355698
#
# number of rings (size 3 to 8) (size 9 to 14) (size 15 to 20)
#    0.000    1.286    1.429    3.857    2.000    8.571 
#    0.000    0.000    0.000    2.571    0.000    0.000 
#    0.000    0.000    0.000    0.000    0.000    0.000 
#
# Total GULP energy -694774.928216 kJ/mol
# GULP energy per Si atom -12406.695147 kJ/mol
# Density = 2.030937 g / cm^3
# Si number density = 20.355698 Si / 1000 Ang^3
#
#
#
# Elastic Constant Matrix: (Units=GPa)
#
#
# Indices 1 2 3 4 5 6 
#
# 1 108.4570 28.8230 35.9548 0.0000 0.0000 0.0000
# 2 28.8230 73.1295 22.6075 0.0000 0.0000 0.0000
# 3 35.9548 22.6075 58.0485 0.0000 0.0000 0.0000
# 4 0.0000 0.0000 0.0000 30.2163 0.0000 0.0000
# 5 0.0000 0.0000 0.0000 0.0000 30.6885 0.0000
# 6 0.0000 0.0000 0.0000 0.0000 0.0000 39.1534
#
#
#
# Elastic Compliance Matrix: (Units=1/GPa)
#
#
# Indices 1 2 3 4 5 6 
#
# 1 0.012081 -0.002783 -0.006399 0.000000 0.000000 0.000000
# 2 -0.002783 0.016187 -0.004580 0.000000 0.000000 0.000000
# 3 -0.006399 -0.004580 0.022974 0.000000 0.000000 0.000000
# 4 0.000000 0.000000 0.000000 0.033095 0.000000 0.000000
# 5 0.000000 0.000000 0.000000 0.000000 0.032585 0.000000
# 6 0.000000 0.000000 0.000000 0.000000 0.000000 0.025541
#
#
# Mechanical properties :
#
#
# Convention : Reuss Voigt Hill
#
# Bulk Modulus (GPa) = 42.16298 46.04507 44.10402
# Shear Modulus (GPa) = 28.10645 30.16164 29.13404
#
# Velocity S-wave (km/s) = 3.71990 3.85350 3.78729
# Velocity P-wave (km/s) = 6.26165 6.51680 6.39050
#
# Compressibility (1/GPa) = 0.02371749
#
# Stress axis : x y z
#
# Youngs Moduli (GPa) = 82.77235 61.77646 43.52687
#
# Poissons Ratio (x) = 0.17195 0.27853
# Poissons Ratio (y) = 0.23039 0.19936
# Poissons Ratio (z) = 0.52966 0.28295
#
# Static dielectric constant tensor:
#      x y z
#    x 3.944250 0.000000 0.000000 
#    y 0.000000 3.714650 0.000000 
#    z 0.000000 0.000000 3.675170 
# 
# 
# High freq. dielectric constant tensor:
#      x y z
#    x 1.812710 0.000000 0.000000 
#    y 0.000000 1.800180 0.000000 
#    z 0.000000 0.000000 1.793820 
# 
# From -- ./inp_files/6037.got.cif
#   From: 2010.03.12/outbox.cif.g09.slc.cpg/sg55_4_cif.got.tgz:6037.got - 2010.04.16 15:19:21.
