data_PCOD8226768
_publ_section_title
;
Structure prediction by ZEFSAII (Michael W. Deem and Ramdas Pophale) SiO2 
 PCOD8226768
Probable space group: P B A M
;
_chemical_formula_sum "Si O2"
_cell_formula_units_Z 56
_cell_length_a 9.561080
_cell_length_b 19.215003
_cell_length_c 15.765268
_cell_angle_alpha 90.000000
_cell_angle_beta 90.000000
_cell_angle_gamma 90.000000
_cell_volume 2896.334828
_symmetry_space_group_name_H-M "P B A M"
_symmetry_group_IT_number 55
_symmetry_cell_setting 'orthorhombic'
loop_
_space_group_symop_operation_xyz
x,y,z
-x,-y,z
1/2+x,1/2-y,-z
1/2-x,1/2+y,-z
-x,-y,-z
x,y,-z
1/2-x,1/2+y,z
1/2+x,1/2-y,z
loop_
_atom_site_type_symbol
_atom_site_label
_atom_site_fract_x
_atom_site_fract_y
_atom_site_fract_z
Si Si1 0.506104 0.581031 0.842290
Si Si2 0.578503 0.817713 0.000000
Si Si3 0.344715 0.173698 0.596450
Si Si4 0.164980 0.307276 0.597412
Si Si5 0.027705 0.576088 0.144648
Si Si6 0.912196 0.826645 0.000000
Si Si7 0.768727 0.587931 0.260971
Si Si8 0.264151 0.566762 0.728317
O O1 0.500000 0.500000 0.871398
O O2 0.451443 0.629145 0.917563
O O3 0.661696 0.605172 0.815836
O O4 0.418077 0.592155 0.755330
O O5 0.522001 0.860789 0.920283
O O6 0.503764 0.743314 0.000000
O O7 0.746696 0.809197 0.000000
O O8 0.335347 0.148467 0.500000
O O9 0.233808 0.233368 0.615893
O O10 0.500713 0.199586 0.617781
O O11 0.303702 0.108360 0.652294
O O12 0.191100 0.330599 0.500000
O O13 0.241386 0.360298 0.660102
O O14 0.922419 0.590835 0.221497
O O15 0.000000 0.500000 0.101936
O O16 0.181074 0.574100 0.183814
O O17 0.734180 0.513080 0.301095
#
# Coordination Sequence:
#
# PCOD8226768 Si02
#       8
#     8   4   8   8   8   4   8   8
#     4  10  23  43  65  86 118 159 196 243 299 354
#     4  12  27  42  60  90 122 158 197 246 294 348
#     4  10  22  38  59  86 121 161 198 239 293 349
#     4  10  22  39  58  86 121 159 197 240 294 353
#     4  10  21  41  64  86 117 153 197 245 296 350
#     4  12  27  44  60  88 124 156 199 244 294 352
#     4  10  22  38  64  92 115 150 200 245 294 351
#     4  10  20  40  62  89 117 151 198 246 293 346
#
# _framework density 19.334781
#
# number of rings (size 3 to 8) (size 9 to 14) (size 15 to 20)
#    0.000    1.714    2.857    0.429    4.000    2.857 
#    0.000    1.429    0.000    2.571    0.000    0.000 
#    0.000    0.000    0.000    0.000    0.000    0.000 
#
# Total GULP energy -694363.687465 kJ/mol
# GULP energy per Si atom -12399.351562 kJ/mol
# Density = 1.929077 g / cm^3
# Si number density = 19.334781 Si / 1000 Ang^3
#
#
#
# Elastic Constant Matrix: (Units=GPa)
#
#
# Indices 1 2 3 4 5 6 
#
# 1 88.1523 48.1212 31.0796 0.0000 0.0000 0.0000
# 2 48.1212 112.5229 65.7486 0.0000 0.0000 0.0000
# 3 31.0796 65.7486 83.1029 0.0000 0.0000 0.0000
# 4 0.0000 0.0000 0.0000 36.1610 0.0000 0.0000
# 5 0.0000 0.0000 0.0000 0.0000 20.8424 0.0000
# 6 0.0000 0.0000 0.0000 0.0000 0.0000 31.3505
#
#
#
# Elastic Compliance Matrix: (Units=1/GPa)
#
#
# Indices 1 2 3 4 5 6 
#
# 1 0.014842 -0.005772 -0.000984 0.000000 0.000000 0.000000
# 2 -0.005772 0.018773 -0.012694 0.000000 0.000000 0.000000
# 3 -0.000984 -0.012694 0.022444 0.000000 0.000000 0.000000
# 4 0.000000 0.000000 0.000000 0.027654 0.000000 0.000000
# 5 0.000000 0.000000 0.000000 0.000000 0.047979 0.000000
# 6 0.000000 0.000000 0.000000 0.000000 0.000000 0.031897
#
#
# Mechanical properties :
#
#
# Convention : Reuss Voigt Hill
#
# Bulk Modulus (GPa) = 58.27817 63.74189 61.01003
# Shear Modulus (GPa) = 24.01437 26.92602 25.47020
#
# Velocity S-wave (km/s) = 3.52807 3.73583 3.63344
# Velocity P-wave (km/s) = 6.84130 7.18663 7.01609
#
# Compressibility (1/GPa) = 0.01715908
#
# Stress axis : x y z
#
# Youngs Moduli (GPa) = 67.37657 53.26864 44.55533
#
# Poissons Ratio (x) = 0.30749 0.04383
# Poissons Ratio (y) = 0.38893 0.56557
# Poissons Ratio (z) = 0.06628 0.67617
#
# Static dielectric constant tensor:
#      x y z
#    x 3.723160 0.000000 0.000000 
#    y 0.000000 3.482750 0.000000 
#    z 0.000000 0.000000 3.361530 
# 
# 
# High freq. dielectric constant tensor:
#      x y z
#    x 1.771100 0.000000 0.000000 
#    y 0.000000 1.749680 0.000000 
#    z 0.000000 0.000000 1.745510 
# 
# From -- ./inp_files/17680.got.cif
#   From: 2010.03.12/outbox.cif.g09.slc.cpg/sg55_9_cif.got.tgz:17680.got - 2010.04.16 15:19:21.
