data_PCOD8226383
_publ_section_title
;
Structure prediction by ZEFSAII (Michael W. Deem and Ramdas Pophale) SiO2 
 PCOD8226383
Probable space group: P B A M
;
_chemical_formula_sum "Si O2"
_cell_formula_units_Z 64
_cell_length_a 19.298675
_cell_length_b 19.385763
_cell_length_c 9.026654
_cell_angle_alpha 90.000000
_cell_angle_beta 90.000000
_cell_angle_gamma 90.000000
_cell_volume 3377.047640
_symmetry_space_group_name_H-M "P B A M"
_symmetry_group_IT_number 55
_symmetry_cell_setting 'orthorhombic'
loop_
_space_group_symop_operation_xyz
x,y,z
-x,-y,z
1/2+x,1/2-y,-z
1/2-x,1/2+y,-z
-x,-y,-z
x,y,-z
1/2-x,1/2+y,z
1/2+x,1/2-y,z
loop_
_atom_site_type_symbol
_atom_site_label
_atom_site_fract_x
_atom_site_fract_y
_atom_site_fract_z
Si Si1 0.761137 0.997371 0.328418
Si Si2 0.244998 0.644635 0.172719
Si Si3 0.607857 0.011145 0.329702
Si Si4 0.903893 0.037446 0.673736
Si Si5 0.955187 0.656895 0.327376
Si Si6 0.621980 0.273800 0.825344
Si Si7 0.536220 0.391716 0.675397
Si Si8 0.409673 0.130380 0.173975
O O1 0.770916 0.980477 0.500000
O O2 0.769697 0.924576 0.249888
O O3 0.687484 0.032908 0.296198
O O4 0.823548 0.048952 0.277180
O O5 0.298747 0.705296 0.216664
O O6 0.165449 0.662743 0.217890
O O7 0.248117 0.629243 0.000000
O O8 0.599566 0.986305 0.500000
O O9 0.560055 0.076498 0.297714
O O10 0.586230 0.949338 0.223046
O O11 0.914508 0.039205 0.500000
O O12 0.956118 0.096906 0.731293
O O13 0.924001 0.960631 0.725566
O O14 0.956333 0.674901 0.500000
O O15 0.894759 0.700821 0.250152
O O16 0.030552 0.673505 0.257585
O O17 0.566656 0.328313 0.765461
O O18 0.612979 0.266854 0.000000
O O19 0.542487 0.376374 0.500000
O O20 0.423519 0.134637 0.000000
#
# Coordination Sequence:
#
# PCOD8226383 Si02
#       8
#     8   8   8   8   8   8   8   8
#     4   9  15  28  52  78 103 134 171 212 256 308
#     4   9  19  34  52  77 106 135 168 212 260 311
#     4   9  19  34  54  80 107 133 170 221 270 313
#     4   8  14  25  47  76 105 135 171 214 258 301
#     4  11  23  38  54  76 107 142 178 221 267 315
#     4  11  22  36  53  75 106 143 180 217 262 318
#     4   9  16  29  48  73 103 138 176 216 258 305
#     4  10  20  36  59  83 106 134 173 219 267 320
#
# _framework density 18.951464999999999
#
# number of rings (size 3 to 8) (size 9 to 14) (size 15 to 20)
#    0.000    2.500    1.250    2.250    0.000    3.500 
#    0.000    3.125    0.000    1.500    0.000    0.000 
#    0.000    0.000    0.000    0.000    0.000    0.000 
#
# Total GULP energy -793157.929322 kJ/mol
# GULP energy per Si atom -12393.092646 kJ/mol
# Density = 1.890833 g / cm^3
# Si number density = 18.951465 Si / 1000 Ang^3
#
#
#
# Elastic Constant Matrix: (Units=GPa)
#
#
# Indices 1 2 3 4 5 6 
#
# 1 142.3571 27.9422 44.7522 0.0000 0.0000 0.0000
# 2 27.9422 40.8202 27.8648 0.0000 0.0000 0.0000
# 3 44.7522 27.8648 64.7070 0.0000 0.0000 0.0000
# 4 0.0000 0.0000 0.0000 284.7256 0.0000 0.0000
# 5 0.0000 0.0000 0.0000 0.0000 24.5646 0.0000
# 6 0.0000 0.0000 0.0000 0.0000 0.0000 27.3487
#
#
#
# Elastic Compliance Matrix: (Units=1/GPa)
#
#
# Indices 1 2 3 4 5 6 
#
# 1 0.009191 -0.002765 -0.005166 0.000000 0.000000 0.000000
# 2 -0.002765 0.035529 -0.013387 0.000000 0.000000 0.000000
# 3 -0.005166 -0.013387 0.024792 0.000000 0.000000 0.000000
# 4 0.000000 0.000000 0.000000 0.003512 0.000000 0.000000
# 5 0.000000 0.000000 0.000000 0.000000 0.040709 0.000000
# 6 0.000000 0.000000 0.000000 0.000000 0.000000 0.036565
#
#
# Mechanical properties :
#
#
# Convention : Reuss Voigt Hill
#
# Bulk Modulus (GPa) = 37.20898 49.88918 43.54908
# Shear Modulus (GPa) = 24.76541 77.14946 50.95743
#
# Velocity S-wave (km/s) = 3.61886 6.38728 5.19103
# Velocity P-wave (km/s) = 6.09410 8.98768 7.67842
#
# Compressibility (1/GPa) = 0.02687524
#
# Stress axis : x y z
#
# Youngs Moduli (GPa) = 108.79738 28.14597 40.33514
#
# Poissons Ratio (x) = 0.07783 0.20838
# Poissons Ratio (y) = 0.30085 0.53998
# Poissons Ratio (z) = 0.56206 0.37680
#
# Static dielectric constant tensor:
#      x y z
#    x 4.057820 0.000000 0.000000 
#    y 0.000000 3.141250 0.000000 
#    z 0.000000 0.000000 3.335400 
# 
# 
# High freq. dielectric constant tensor:
#      x y z
#    x 1.761150 0.000000 0.000000 
#    y 0.000000 1.696490 0.000000 
#    z 0.000000 0.000000 1.722380 
# 
# From -- ./inp_files/8977.got.cif
#   From: 2010.03.12/outbox.cif.g09.slc.cpg/sg55_5_cif.got.tgz:8977.got - 2010.04.16 15:19:21.
