data_PCOD8226756
_publ_section_title
;
Structure prediction by ZEFSAII (Michael W. Deem and Ramdas Pophale) SiO2 
 PCOD8226756
Probable space group: P B A M
;
_chemical_formula_sum "Si O2"
_cell_formula_units_Z 56
_cell_length_a 14.463753
_cell_length_b 21.564765
_cell_length_c 8.868277
_cell_angle_alpha 90.000000
_cell_angle_beta 90.000000
_cell_angle_gamma 90.000000
_cell_volume 2766.081527
_symmetry_space_group_name_H-M "P B A M"
_symmetry_group_IT_number 55
_symmetry_cell_setting 'orthorhombic'
loop_
_space_group_symop_operation_xyz
x,y,z
-x,-y,z
1/2+x,1/2-y,-z
1/2-x,1/2+y,-z
-x,-y,-z
x,y,-z
1/2-x,1/2+y,z
1/2+x,1/2-y,z
loop_
_atom_site_type_symbol
_atom_site_label
_atom_site_fract_x
_atom_site_fract_y
_atom_site_fract_z
Si Si1 0.722689 0.505802 0.176637
Si Si2 0.576140 0.051591 0.174634
Si Si3 0.597670 0.745918 0.173536
Si Si4 0.568247 0.603715 0.175071
Si Si5 0.377703 0.604481 0.322219
Si Si6 0.562940 0.180527 0.676644
Si Si7 0.306955 0.728052 0.175476
O O1 0.824754 0.525876 0.226181
O O2 0.652715 0.560146 0.223998
O O3 0.699227 0.443078 0.264373
O O4 0.717890 0.491230 0.000000
O O5 0.548311 0.110078 0.274344
O O6 0.500000 0.000000 0.206181
O O7 0.578127 0.071556 0.000000
O O8 0.598346 0.673436 0.213022
O O9 0.527868 0.780630 0.282524
O O10 0.698177 0.774040 0.205600
O O11 0.568558 0.756694 0.000000
O O12 0.478773 0.582746 0.268572
O O13 0.544164 0.595253 0.000000
O O14 0.374578 0.607611 0.500000
O O15 0.357848 0.672212 0.257957
O O16 0.579982 0.184557 0.500000
O O17 0.652395 0.207744 0.761465
O O18 0.330526 0.723558 0.000000
#
# Coordination Sequence:
#
# PCOD8226756 Si02
#       7
#     8   8   8   8   8   8   8
#     4  10  22  41  65  92 122 165 218 265 312 369
#     4  10  23  44  69  94 123 167 223 267 306 370
#     4  10  22  40  67  94 121 164 215 264 308 367
#     4  10  20  39  65  92 122 163 210 261 312 373
#     4  12  25  39  59  93 131 166 205 259 329 382
#     4  12  25  41  64  97 135 168 201 257 328 384
#     4  11  23  42  67  93 124 168 222 266 309 372
#
# _framework density 20.245246999999999
#
# number of rings (size 3 to 8) (size 9 to 14) (size 15 to 20)
#    0.000    1.286    1.429    4.286    2.000    6.571 
#    0.000    1.429    0.000    0.000    0.000    0.000 
#    0.000    0.000    0.000    0.000    0.000    0.000 
#
# Total GULP energy -694835.132479 kJ/mol
# GULP energy per Si atom -12407.770223 kJ/mol
# Density = 2.019917 g / cm^3
# Si number density = 20.245247 Si / 1000 Ang^3
#
#
#
# Elastic Constant Matrix: (Units=GPa)
#
#
# Indices 1 2 3 4 5 6 
#
# 1 89.7856 31.6815 34.8330 0.0000 0.0000 0.0000
# 2 31.6815 98.4562 40.0127 0.0000 0.0000 0.0000
# 3 34.8330 40.0127 86.5419 0.0000 0.0000 0.0000
# 4 0.0000 0.0000 0.0000 16.5824 0.0000 0.0000
# 5 0.0000 0.0000 0.0000 0.0000 6.4405 0.0000
# 6 0.0000 0.0000 0.0000 0.0000 0.0000 28.2126
#
#
#
# Elastic Compliance Matrix: (Units=1/GPa)
#
#
# Indices 1 2 3 4 5 6 
#
# 1 0.013749 -0.002679 -0.004296 0.000000 0.000000 0.000000
# 2 -0.002679 0.013029 -0.004946 0.000000 0.000000 0.000000
# 3 -0.004296 -0.004946 0.015571 0.000000 0.000000 0.000000
# 4 0.000000 0.000000 0.000000 0.060305 0.000000 0.000000
# 5 0.000000 0.000000 0.000000 0.000000 0.155267 0.000000
# 6 0.000000 0.000000 0.000000 0.000000 0.000000 0.035445
#
#
# Mechanical properties :
#
#
# Convention : Reuss Voigt Hill
#
# Bulk Modulus (GPa) = 54.02801 54.20424 54.11612
# Shear Modulus (GPa) = 15.46190 21.46420 18.46305
#
# Velocity S-wave (km/s) = 2.76656 3.25962 3.02316
# Velocity P-wave (km/s) = 6.07864 6.40303 6.24294
#
# Compressibility (1/GPa) = 0.01850892
#
# Stress axis : x y z
#
# Youngs Moduli (GPa) = 72.73087 76.75394 64.22298
#
# Poissons Ratio (x) = 0.20559 0.27588
# Poissons Ratio (y) = 0.19481 0.31763
# Poissons Ratio (z) = 0.31243 0.37960
#
# Static dielectric constant tensor:
#      x y z
#    x 3.796930 0.000000 0.000000 
#    y 0.000000 3.750240 0.000000 
#    z 0.000000 0.000000 3.539940 
# 
# 
# High freq. dielectric constant tensor:
#      x y z
#    x 1.804090 0.000000 0.000000 
#    y 0.000000 1.801680 0.000000 
#    z 0.000000 0.000000 1.779550 
# 
# From -- ./inp_files/6065.got.cif
#   From: 2010.03.12/outbox.cif.g09.slc.cpg/sg55_4_cif.got.tgz:6065.got - 2010.04.16 15:19:21.
