data_PCOD8226016
_publ_section_title
;
Structure prediction by ZEFSAII (Michael W. Deem and Ramdas Pophale) SiO2 
 PCOD8226016
Probable space group: P B A M
;
_chemical_formula_sum "Si O2"
_cell_formula_units_Z 64
_cell_length_a 15.019817
_cell_length_b 25.153265
_cell_length_c 9.073395
_cell_angle_alpha 90.000000
_cell_angle_beta 90.000000
_cell_angle_gamma 90.000000
_cell_volume 3427.905378
_symmetry_space_group_name_H-M "P B A M"
_symmetry_group_IT_number 55
_symmetry_cell_setting 'orthorhombic'
loop_
_space_group_symop_operation_xyz
x,y,z
-x,-y,z
1/2+x,1/2-y,-z
1/2-x,1/2+y,-z
-x,-y,-z
x,y,-z
1/2-x,1/2+y,z
1/2+x,1/2-y,z
loop_
_atom_site_type_symbol
_atom_site_label
_atom_site_fract_x
_atom_site_fract_y
_atom_site_fract_z
Si Si1 0.131783 0.468096 0.829194
Si Si2 0.106884 0.686744 0.329297
Si Si3 0.053247 0.889800 0.168524
Si Si4 0.445802 0.080540 0.169526
Si Si5 0.006002 0.214433 0.327550
Si Si6 0.695190 0.325442 0.669241
Si Si7 0.142069 0.070696 0.831961
Si Si8 0.308251 0.463256 0.325760
O O1 0.120070 0.531169 0.803175
O O2 0.209884 0.446724 0.725659
O O3 0.044340 0.436221 0.779926
O O4 0.153872 0.457228 0.000000
O O5 0.088500 0.679740 0.500000
O O6 0.088011 0.630231 0.259486
O O7 0.039063 0.731361 0.267854
O O8 0.210231 0.703422 0.299313
O O9 0.039659 0.831954 0.235851
O O10 0.126257 0.919144 0.264144
O O11 0.963706 0.923959 0.177644
O O12 0.085299 0.884380 0.000000
O O13 0.446700 0.096864 0.000000
O O14 0.985277 0.205830 0.500000
O O15 0.112928 0.214848 0.297769
O O16 0.689676 0.344813 0.500000
O O17 0.689983 0.376763 0.772560
O O18 0.169093 0.021017 0.734992
O O19 0.173399 0.061532 0.000000
O O20 0.314881 0.464020 0.500000
#
# Coordination Sequence:
#
# PCOD8226016 Si02
#       8
#     8   8   8   8   8   8   8   8
#     4   9  19  37  56  77 110 146 179 219 269 320
#     4  10  20  34  55  82 109 142 183 227 275 326
#     4  10  21  37  55  75 105 142 181 226 273 320
#     4   9  19  36  58  80 106 142 180 224 272 319
#     4   9  19  37  55  75 108 145 181 228 276 320
#     4   9  18  34  55  78 106 142 181 224 274 324
#     4  10  20  34  54  79 107 140 180 226 270 318
#     4  12  23  33  51  81 111 144 180 216 266 330
#
# _framework density 18.670294999999999
#
# number of rings (size 3 to 8) (size 9 to 14) (size 15 to 20)
#    0.000    2.250    0.000    3.750    0.000    7.000 
#    2.250    1.250    0.000    0.000    0.000    0.000 
#    0.000    0.000    0.000    0.000    0.000    0.000 
#
# Total GULP energy -793615.968351 kJ/mol
# GULP energy per Si atom -12400.249505 kJ/mol
# Density = 1.862780 g / cm^3
# Si number density = 18.670295 Si / 1000 Ang^3
#
#
#
# Elastic Constant Matrix: (Units=GPa)
#
#
# Indices 1 2 3 4 5 6 
#
# 1 109.5498 58.1807 48.8656 0.0000 0.0000 0.0000
# 2 58.1807 64.2941 32.1477 0.0000 0.0000 0.0000
# 3 48.8656 32.1477 92.2738 0.0000 0.0000 0.0000
# 4 0.0000 0.0000 0.0000 -19.7627 0.0000 0.0000
# 5 0.0000 0.0000 0.0000 0.0000 26.8239 0.0000
# 6 0.0000 0.0000 0.0000 0.0000 0.0000 24.6653
#
#
#
# Elastic Compliance Matrix: (Units=1/GPa)
#
#
# Indices 1 2 3 4 5 6 
#
# 1 0.019316 -0.014973 -0.005013 0.000000 0.000000 0.000000
# 2 -0.014973 0.030441 -0.002676 0.000000 0.000000 0.000000
# 3 -0.005013 -0.002676 0.014424 0.000000 0.000000 0.000000
# 4 0.000000 0.000000 0.000000 -0.050600 0.000000 0.000000
# 5 0.000000 0.000000 0.000000 0.000000 0.037280 0.000000
# 6 0.000000 0.000000 0.000000 0.000000 0.000000 0.040543
#
#
# Mechanical properties :
#
#
# Convention : Reuss Voigt Hill
#
# Bulk Modulus (GPa) = 53.02936 60.50064 56.76500
# Shear Modulus (GPa) = 34.96143 14.80687 24.88415
#
# Velocity S-wave (km/s) = 4.33201 2.81921 3.65474
# Velocity P-wave (km/s) = 7.31345 6.56295 6.94834
#
# Compressibility (1/GPa) = 0.01885748
#
# Stress axis : x y z
#
# Youngs Moduli (GPa) = 51.76940 32.85026 69.32741
#
# Poissons Ratio (x) = 0.49188 0.34753
# Poissons Ratio (y) = 0.77516 0.18553
# Poissons Ratio (z) = 0.25951 0.08791
#
# Static dielectric constant tensor:
#      x y z
#    x 3.710440 0.000000 0.000000 
#    y 0.000000 3.298700 0.000000 
#    z 0.000000 0.000000 3.434710 
# 
# 
# High freq. dielectric constant tensor:
#      x y z
#    x 1.738840 0.000000 0.000000 
#    y 0.000000 1.707000 0.000000 
#    z 0.000000 0.000000 1.724500 
# 
# From -- ./inp_files/6527.got.cif
#   From: 2010.03.12/outbox.cif.g09.slc.cpg/sg55_4_cif.got.tgz:6527.got - 2010.04.16 15:19:21.
