data_PCOD8226073
_publ_section_title
;
Structure prediction by ZEFSAII (Michael W. Deem and Ramdas Pophale) SiO2 
 PCOD8226073
Probable space group: P B A M
;
_chemical_formula_sum "Si O2"
_cell_formula_units_Z 64
_cell_length_a 9.535387
_cell_length_b 17.177802
_cell_length_c 19.448753
_cell_angle_alpha 90.000000
_cell_angle_beta 90.000000
_cell_angle_gamma 90.000000
_cell_volume 3185.647198
_symmetry_space_group_name_H-M "P B A M"
_symmetry_group_IT_number 55
_symmetry_cell_setting 'orthorhombic'
loop_
_space_group_symop_operation_xyz
x,y,z
-x,-y,z
1/2+x,1/2-y,-z
1/2-x,1/2+y,-z
-x,-y,-z
x,y,-z
1/2-x,1/2+y,z
1/2+x,1/2-y,z
loop_
_atom_site_type_symbol
_atom_site_label
_atom_site_fract_x
_atom_site_fract_y
_atom_site_fract_z
Si Si1 0.337054 0.161442 0.722794
Si Si2 0.514522 0.860134 0.922198
Si Si3 0.245329 0.408436 0.848346
Si Si4 0.478404 0.320730 0.919408
Si Si5 0.321104 0.159825 0.573527
Si Si6 0.664831 0.179774 0.720143
Si Si7 0.220405 0.084042 0.854121
Si Si8 0.132057 0.304074 0.427338
O O1 0.318161 0.116814 0.648138
O O2 0.498667 0.185539 0.737443
O O3 0.237800 0.236676 0.728223
O O4 0.285713 0.101287 0.779745
O O5 0.414694 0.911026 0.873852
O O6 0.505365 0.769615 0.901723
O O7 0.671423 0.891444 0.913404
O O8 0.467701 0.872599 0.000000
O O9 0.322767 0.346836 0.897966
O O10 0.244749 0.381056 0.769036
O O11 0.315214 0.492736 0.855793
O O12 0.579766 0.369084 0.869707
O O13 0.504538 0.337777 0.000000
O O14 0.316451 0.110711 0.500000
O O15 0.465142 0.208656 0.575077
O O16 0.191167 0.217504 0.572630
O O17 0.683980 0.149985 0.640811
O O18 0.174282 0.346635 0.500000
#
# Coordination Sequence:
#
# PCOD8226073 Si02
#       8
#     8   8   8   8   8   8   8   8
#     4  10  20  34  56  83 114 153 194 235 279 334
#     4  11  23  41  65  87 110 143 186 231 281 342
#     4  12  25  39  58  86 118 151 185 231 285 336
#     4  11  25  45  65  85 110 145 190 237 283 340
#     4   8  14  26  46  75 109 143 184 233 278 320
#     4  10  20  34  56  83 114 153 194 235 279 334
#     4  12  25  39  58  86 118 151 185 231 285 336
#     4   8  14  26  46  75 109 143 184 233 278 320
#
# _framework density 20.090109999999999
#
# number of rings (size 3 to 8) (size 9 to 14) (size 15 to 20)
#    0.000    1.750    1.250    3.750    1.750    5.000 
#    0.000    0.000    0.000    0.750    0.000    3.500 
#    0.000    2.000    0.000    0.000    0.000    0.000 
#
# Total GULP energy -792936.544830 kJ/mol
# GULP energy per Si atom -12389.633513 kJ/mol
# Density = 2.004438 g / cm^3
# Si number density = 20.090110 Si / 1000 Ang^3
#
#
#
# Elastic Constant Matrix: (Units=GPa)
#
#
# Indices 1 2 3 4 5 6 
#
# 1 52.7729 1.5847 9.7666 0.0000 0.0000 0.0000
# 2 1.5847 52.8998 29.6402 0.0000 0.0000 0.0000
# 3 9.7666 29.6402 114.7558 0.0000 0.0000 0.0000
# 4 0.0000 0.0000 0.0000 8.5127 0.0000 0.0000
# 5 0.0000 0.0000 0.0000 0.0000 29.7060 0.0000
# 6 0.0000 0.0000 0.0000 0.0000 0.0000 20.6945
#
#
#
# Elastic Compliance Matrix: (Units=1/GPa)
#
#
# Indices 1 2 3 4 5 6 
#
# 1 0.019260 0.000399 -0.001742 0.000000 0.000000 0.000000
# 2 0.000399 0.022111 -0.005745 0.000000 0.000000 0.000000
# 3 -0.001742 -0.005745 0.010346 0.000000 0.000000 0.000000
# 4 0.000000 0.000000 0.000000 0.117472 0.000000 0.000000
# 5 0.000000 0.000000 0.000000 0.000000 0.033663 0.000000
# 6 0.000000 0.000000 0.000000 0.000000 0.000000 0.048322
#
#
# Mechanical properties :
#
#
# Convention : Reuss Voigt Hill
#
# Bulk Modulus (GPa) = 26.63782 33.60127 30.11954
# Shear Modulus (GPa) = 17.99450 23.74511 20.86980
#
# Velocity S-wave (km/s) = 2.99605 3.44165 3.22655
# Velocity P-wave (km/s) = 5.02558 5.70569 5.37640
#
# Compressibility (1/GPa) = 0.03754061
#
# Stress axis : x y z
#
# Youngs Moduli (GPa) = 51.92229 45.22711 96.65304
#
# Poissons Ratio (x) = -0.01806 0.16839
# Poissons Ratio (y) = -0.02073 0.55526
# Poissons Ratio (z) = 0.09046 0.25983
#
# Static dielectric constant tensor:
#      x y z
#    x 3.688200 0.000000 0.000000 
#    y 0.000000 3.131060 0.000000 
#    z 0.000000 0.000000 4.328280 
# 
# 
# High freq. dielectric constant tensor:
#      x y z
#    x 1.792910 0.000000 0.000000 
#    y 0.000000 1.725300 0.000000 
#    z 0.000000 0.000000 1.817180 
# 
# From -- ./inp_files/22726.got.cif
#   From: 2010.03.12/outbox.cif.g09.slc.cpg/sg55_12_cif.got.tgz:22726.got - 2010.04.16 15:19:21.
