data_PCOD8226069
_publ_section_title
;
Structure prediction by ZEFSAII (Michael W. Deem and Ramdas Pophale) SiO2 
 PCOD8226069
Probable space group: P B A M
;
_chemical_formula_sum "Si O2"
_cell_formula_units_Z 40
_cell_length_a 18.073580
_cell_length_b 9.808752
_cell_length_c 12.577704
_cell_angle_alpha 90.000000
_cell_angle_beta 90.000000
_cell_angle_gamma 90.000000
_cell_volume 2229.766108
_symmetry_space_group_name_H-M "P B A M"
_symmetry_group_IT_number 55
_symmetry_cell_setting 'orthorhombic'
loop_
_space_group_symop_operation_xyz
x,y,z
-x,-y,z
1/2+x,1/2-y,-z
1/2-x,1/2+y,-z
-x,-y,-z
x,y,-z
1/2-x,1/2+y,z
1/2+x,1/2-y,z
loop_
_atom_site_type_symbol
_atom_site_label
_atom_site_fract_x
_atom_site_fract_y
_atom_site_fract_z
Si Si1 0.664905 0.209977 0.267908
Si Si2 0.935398 0.099390 0.121489
Si Si3 0.970217 0.641458 0.121655
Si Si4 0.331861 0.807770 0.500000
Si Si5 0.210660 0.015199 0.500000
Si Si6 0.804231 0.017257 0.730303
O O1 0.600866 0.193249 0.183399
O O2 0.625833 0.202972 0.386354
O O3 0.703983 0.355872 0.246185
O O4 0.725691 0.091560 0.252726
O O5 0.863548 0.085621 0.193335
O O6 0.962580 0.253515 0.131434
O O7 0.914753 0.061455 0.000000
O O8 0.000000 0.000000 0.163164
O O9 0.000000 0.500000 0.169647
O O10 0.945036 0.623042 0.000000
O O11 0.291853 0.952106 0.500000
O O12 0.275775 0.678131 0.500000
O O13 0.168651 0.965428 0.607164
#
# Coordination Sequence:
#
# PCOD8226069 Si02
#       6
#     8   8   8   4   4   8
#     4  10  20  35  56  81 107 137 177 218 257 311
#     4  10  20  37  56  74 104 142 173 211 265 315
#     4  10  22  39  56  75 106 143 176 216 267 316
#     4   8  16  32  52  74 106 139 167 209 263 307
#     4   8  16  32  50  75 106 137 169 210 261 309
#     4  10  20  34  56  81 106 138 177 217 259 310
#
# _framework density 17.939101999999998
#
# number of rings (size 3 to 8) (size 9 to 14) (size 15 to 20)
#    0.000    2.400    2.000    0.000    2.800    0.800 
#    0.000    2.000    0.000    0.000    0.000    0.000 
#    0.000    0.000    0.000    0.000    0.000    0.000 
#
# Total GULP energy -495632.536910 kJ/mol
# GULP energy per Si atom -12390.813423 kJ/mol
# Density = 1.789827 g / cm^3
# Si number density = 17.939102 Si / 1000 Ang^3
#
#
#
# Elastic Constant Matrix: (Units=GPa)
#
#
# Indices 1 2 3 4 5 6 
#
# 1 56.4648 14.8741 43.5306 0.0000 0.0000 0.0000
# 2 14.8741 91.3307 23.5400 0.0000 0.0000 0.0000
# 3 43.5306 23.5400 86.4646 0.0000 0.0000 0.0000
# 4 0.0000 0.0000 0.0000 21.4964 0.0000 0.0000
# 5 0.0000 0.0000 0.0000 0.0000 -146.0113 0.0000
# 6 0.0000 0.0000 0.0000 0.0000 0.0000 26.1708
#
#
#
# Elastic Compliance Matrix: (Units=1/GPa)
#
#
# Indices 1 2 3 4 5 6 
#
# 1 0.029035 -0.001034 -0.014336 0.000000 0.000000 0.000000
# 2 -0.001034 0.011812 -0.002696 0.000000 0.000000 0.000000
# 3 -0.014336 -0.002696 0.019517 0.000000 0.000000 0.000000
# 4 0.000000 0.000000 0.000000 0.046519 0.000000 0.000000
# 5 0.000000 0.000000 0.000000 0.000000 -0.006849 0.000000
# 6 0.000000 0.000000 0.000000 0.000000 0.000000 0.038210
#
#
# Mechanical properties :
#
#
# Convention : Reuss Voigt Hill
#
# Bulk Modulus (GPa) = 41.26548 44.23883 42.75215
# Shear Modulus (GPa) = 27.40432 -9.51446 8.94493
#
# Velocity S-wave (km/s) = 3.91273 -2.30549 2.23542
# Velocity P-wave (km/s) = 6.59285 4.19846 5.52688
#
# Compressibility (1/GPa) = 0.02423333
#
# Stress axis : x y z
#
# Youngs Moduli (GPa) = 34.44167 84.65749 51.23787
#
# Poissons Ratio (x) = 0.08749 0.73455
# Poissons Ratio (y) = 0.03560 0.13812
# Poissons Ratio (z) = 0.49376 0.22820
#
# Static dielectric constant tensor:
#      x y z
#    x 2.837930 0.000000 0.000000 
#    y 0.000000 3.635760 0.000000 
#    z 0.000000 0.000000 3.634930 
# 
# 
# High freq. dielectric constant tensor:
#      x y z
#    x 1.646580 0.000000 0.000000 
#    y 0.000000 1.715450 0.000000 
#    z 0.000000 0.000000 1.708690 
# 
# From -- ./inp_files/11893.got.cif
#   From: 2010.03.12/outbox.cif.g09.slc.cpg/sg55_6_cif.got.tgz:11893.got - 2010.04.16 15:19:21.
