data_PCOD8226699
_publ_section_title
;
Structure prediction by ZEFSAII (Michael W. Deem and Ramdas Pophale) SiO2 
 PCOD8226699
Probable space group: P B A M
;
_chemical_formula_sum "Si O2"
_cell_formula_units_Z 48
_cell_length_a 27.547873
_cell_length_b 10.025976
_cell_length_c 8.577605
_cell_angle_alpha 90.000000
_cell_angle_beta 90.000000
_cell_angle_gamma 90.000000
_cell_volume 2369.085725
_symmetry_space_group_name_H-M "P B A M"
_symmetry_group_IT_number 55
_symmetry_cell_setting 'orthorhombic'
loop_
_space_group_symop_operation_xyz
x,y,z
-x,-y,z
1/2+x,1/2-y,-z
1/2-x,1/2+y,-z
-x,-y,-z
x,y,-z
1/2-x,1/2+y,z
1/2+x,1/2-y,z
loop_
_atom_site_type_symbol
_atom_site_label
_atom_site_fract_x
_atom_site_fract_y
_atom_site_fract_z
Si Si1 0.714859 0.889639 0.814457
Si Si2 0.294144 0.406800 0.816135
Si Si3 0.560725 0.244141 0.318622
Si Si4 0.542676 0.756955 0.819484
Si Si5 0.103078 0.972152 0.680721
Si Si6 0.388293 0.999651 0.817411
O O1 0.719998 0.739049 0.748254
O O2 0.663806 0.949697 0.758855
O O3 0.758103 0.981270 0.745260
O O4 0.716546 0.885951 0.000000
O O5 0.349319 0.440663 0.778944
O O6 0.287987 0.403944 0.000000
O O7 0.546951 0.242533 0.500000
O O8 0.513186 0.214964 0.217170
O O9 0.583206 0.384692 0.268031
O O10 0.600314 0.132303 0.280149
O O11 0.561251 0.634396 0.716253
O O12 0.572210 0.888939 0.776090
O O13 0.549680 0.720351 0.000000
O O14 0.116718 0.968475 0.500000
O O15 0.388122 0.965217 0.000000
#
# Coordination Sequence:
#
# PCOD8226699 Si02
#       6
#     8   8   8   8   8   8
#     4   9  19  36  61  91 118 147 191 246 298 345
#     4  10  20  38  63  90 118 153 197 246 297 352
#     4  11  25  40  57  87 124 160 201 243 294 358
#     4  11  22  40  65  90 117 153 203 252 300 355
#     4  11  24  41  59  85 124 163 198 244 296 354
#     4  10  21  39  61  89 121 153 196 248 296 352
#
# _framework density 20.260981999999998
#
# number of rings (size 3 to 8) (size 9 to 14) (size 15 to 20)
#    0.000    1.667    1.667    2.500    2.333    8.000 
#    0.000    1.667    0.000    0.000    0.000    0.000 
#    0.000    0.000    0.000    0.000    0.000    0.000 
#
# Total GULP energy -595446.204772 kJ/mol
# GULP energy per Si atom -12405.129266 kJ/mol
# Density = 2.021487 g / cm^3
# Si number density = 20.260982 Si / 1000 Ang^3
#
#
#
# Elastic Constant Matrix: (Units=GPa)
#
#
# Indices 1 2 3 4 5 6 
#
# 1 87.5757 32.1844 9.0691 0.0000 0.0000 0.0000
# 2 32.1844 114.8827 26.3022 0.0000 0.0000 0.0000
# 3 9.0691 26.3022 19.4653 0.0000 0.0000 0.0000
# 4 0.0000 0.0000 0.0000 11.0703 0.0000 0.0000
# 5 0.0000 0.0000 0.0000 0.0000 -2.0962 0.0000
# 6 0.0000 0.0000 0.0000 0.0000 0.0000 41.7447
#
#
#
# Elastic Compliance Matrix: (Units=1/GPa)
#
#
# Indices 1 2 3 4 5 6 
#
# 1 0.012764 -0.003206 -0.001615 0.000000 0.000000 0.000000
# 2 -0.003206 0.013409 -0.016625 0.000000 0.000000 0.000000
# 3 -0.001615 -0.016625 0.074590 0.000000 0.000000 0.000000
# 4 0.000000 0.000000 0.000000 0.090332 0.000000 0.000000
# 5 0.000000 0.000000 0.000000 0.000000 -0.477042 0.000000
# 6 0.000000 0.000000 0.000000 0.000000 0.000000 0.023955
#
#
# Mechanical properties :
#
#
# Convention : Reuss Voigt Hill
#
# Bulk Modulus (GPa) = 17.27963 39.67058 28.47510
# Shear Modulus (GPa) = -25.02372 20.43495 -2.29438
#
# Velocity S-wave (km/s) = -3.51817 3.17927 -1.06530
# Velocity P-wave (km/s) = 2.82069 5.75320 3.54563
#
# Compressibility (1/GPa) = 0.05787161
#
# Stress axis : x y z
#
# Youngs Moduli (GPa) = 78.34412 74.57679 13.40666
#
# Poissons Ratio (x) = 0.23911 0.02165
# Poissons Ratio (y) = 0.25119 0.22288
# Poissons Ratio (z) = 0.12649 1.23983
#
# Static dielectric constant tensor:
#      x y z
#    x 3.697550 0.000000 0.000000 
#    y 0.000000 3.986780 0.000000 
#    z 0.000000 0.000000 3.353450 
# 
# 
# High freq. dielectric constant tensor:
#      x y z
#    x 1.799990 0.000000 0.000000 
#    y 0.000000 1.809420 0.000000 
#    z 0.000000 0.000000 1.765930 
# 
# From -- ./inp_files/2777.got.cif
#   From: 2010.03.12/outbox.cif.g09.slc.cpg/sg55_2_cif.got.tgz:2777.got - 2010.04.16 15:19:21.
