data_PCOD8226156
_publ_section_title
;
Structure prediction by ZEFSAII (Michael W. Deem and Ramdas Pophale) SiO2 
 PCOD8226156
Probable space group: P B A M
;
_chemical_formula_sum "Si O2"
_cell_formula_units_Z 64
_cell_length_a 21.125511
_cell_length_b 16.810833
_cell_length_c 9.241284
_cell_angle_alpha 90.000000
_cell_angle_beta 90.000000
_cell_angle_gamma 90.000000
_cell_volume 3281.925919
_symmetry_space_group_name_H-M "P B A M"
_symmetry_group_IT_number 55
_symmetry_cell_setting 'orthorhombic'
loop_
_space_group_symop_operation_xyz
x,y,z
-x,-y,z
1/2+x,1/2-y,-z
1/2-x,1/2+y,-z
-x,-y,-z
x,y,-z
1/2-x,1/2+y,z
1/2+x,1/2-y,z
loop_
_atom_site_type_symbol
_atom_site_label
_atom_site_fract_x
_atom_site_fract_y
_atom_site_fract_z
Si Si1 0.571926 0.504533 0.829197
Si Si2 0.500112 0.088944 0.661693
Si Si3 0.197821 0.569653 0.332066
Si Si4 0.184093 0.107569 0.170472
Si Si5 0.277340 0.782803 0.829332
Si Si6 0.855542 0.157031 0.164349
Si Si7 0.396840 0.173397 0.835250
Si Si8 0.856423 0.599617 0.341098
O O1 0.500000 0.500000 0.764183
O O2 0.613123 0.424910 0.792910
O O3 0.609975 0.580814 0.761878
O O4 0.565677 0.516889 0.000000
O O5 0.469392 0.090804 0.500000
O O6 0.461966 0.142948 0.771056
O O7 0.570448 0.122055 0.657145
O O8 0.500000 0.000000 0.722761
O O9 0.208159 0.589768 0.500000
O O10 0.265322 0.552884 0.255773
O O11 0.164063 0.643800 0.253986
O O12 0.153080 0.493534 0.308606
O O13 0.196403 0.197612 0.227533
O O14 0.196683 0.099595 0.000000
O O15 0.210322 0.812981 0.761987
O O16 0.327427 0.848899 0.786046
O O17 0.270865 0.776192 0.000000
O O18 0.902982 0.231434 0.172556
O O19 0.839764 0.132709 0.000000
O O20 0.388293 0.144375 0.000000
O O21 0.827098 0.619547 0.500000
#
# Coordination Sequence:
#
# PCOD8226156 Si02
#       8
#     8   8   8   8   8   8   8   8
#     4   9  18  33  56  83 112 152 193 231 285 348
#     4  10  20  38  55  73 111 154 189 225 272 335
#     4  11  21  36  57  81 111 150 190 230 284 343
#     4  10  20  36  59  85 112 145 190 240 290 345
#     4  10  20  35  55  83 116 146 181 237 296 338
#     4   9  18  34  53  79 115 145 179 237 291 331
#     4  11  21  34  56  84 113 144 189 239 285 339
#     4  10  22  37  54  78 111 150 188 227 272 337
#
# _framework density 19.500745999999999
#
# number of rings (size 3 to 8) (size 9 to 14) (size 15 to 20)
#    0.000    2.000    2.500    1.500    0.000    4.250 
#    0.000    2.500    0.000    1.125    0.000    0.000 
#    0.000    0.000    0.000    0.000    0.000    0.000 
#
# Total GULP energy -793313.696594 kJ/mol
# GULP energy per Si atom -12395.526509 kJ/mol
# Density = 1.945636 g / cm^3
# Si number density = 19.500746 Si / 1000 Ang^3
#
#
#
# Elastic Constant Matrix: (Units=GPa)
#
#
# Indices 1 2 3 4 5 6 
#
# 1 125.3754 56.3282 29.2321 0.0000 0.0000 0.0000
# 2 56.3282 103.5749 23.6840 0.0000 0.0000 0.0000
# 3 29.2321 23.6840 47.4708 0.0000 0.0000 0.0000
# 4 0.0000 0.0000 0.0000 13.8990 0.0000 0.0000
# 5 0.0000 0.0000 0.0000 0.0000 20.9131 0.0000
# 6 0.0000 0.0000 0.0000 0.0000 0.0000 33.2108
#
#
#
# Elastic Compliance Matrix: (Units=1/GPa)
#
#
# Indices 1 2 3 4 5 6 
#
# 1 0.011314 -0.005147 -0.004399 0.000000 0.000000 0.000000
# 2 -0.005147 0.013240 -0.003436 0.000000 0.000000 0.000000
# 3 -0.004399 -0.003436 0.025489 0.000000 0.000000 0.000000
# 4 0.000000 0.000000 0.000000 0.071948 0.000000 0.000000
# 5 0.000000 0.000000 0.000000 0.000000 0.047817 0.000000
# 6 0.000000 0.000000 0.000000 0.000000 0.000000 0.030111
#
#
# Mechanical properties :
#
#
# Convention : Reuss Voigt Hill
#
# Bulk Modulus (GPa) = 41.53141 54.98997 48.26069
# Shear Modulus (GPa) = 21.37586 24.74971 23.06279
#
# Velocity S-wave (km/s) = 3.31442 3.56640 3.44272
# Velocity P-wave (km/s) = 5.99923 6.72451 6.37220
#
# Compressibility (1/GPa) = 0.02407816
#
# Stress axis : x y z
#
# Youngs Moduli (GPa) = 88.38397 75.52984 39.23289
#
# Poissons Ratio (x) = 0.38877 0.17259
# Poissons Ratio (y) = 0.45493 0.13480
# Poissons Ratio (z) = 0.38882 0.25952
#
# Static dielectric constant tensor:
#      x y z
#    x 3.657020 0.000000 0.000000 
#    y 0.000000 3.568690 0.000000 
#    z 0.000000 0.000000 3.288590 
# 
# 
# High freq. dielectric constant tensor:
#      x y z
#    x 1.763420 0.000000 0.000000 
#    y 0.000000 1.758940 0.000000 
#    z 0.000000 0.000000 1.724450 
# 
# From -- ./inp_files/9032.got.cif
#   From: 2010.03.12/outbox.cif.g09.slc.cpg/sg55_5_cif.got.tgz:9032.got - 2010.04.16 15:19:21.
