data_PCOD8226848
_publ_section_title
;
Structure prediction by ZEFSAII (Michael W. Deem and Ramdas Pophale) SiO2 
 PCOD8226848
Probable space group: P B A M
;
_chemical_formula_sum "Si O2"
_cell_formula_units_Z 64
_cell_length_a 18.581177
_cell_length_b 9.219299
_cell_length_c 17.903751
_cell_angle_alpha 90.000000
_cell_angle_beta 90.000000
_cell_angle_gamma 90.000000
_cell_volume 3067.009702
_symmetry_space_group_name_H-M "P B A M"
_symmetry_group_IT_number 55
_symmetry_cell_setting 'orthorhombic'
loop_
_space_group_symop_operation_xyz
x,y,z
-x,-y,z
1/2+x,1/2-y,-z
1/2-x,1/2+y,-z
-x,-y,-z
x,y,-z
1/2-x,1/2+y,z
1/2+x,1/2-y,z
loop_
_atom_site_type_symbol
_atom_site_label
_atom_site_fract_x
_atom_site_fract_y
_atom_site_fract_z
Si Si1 0.612972 0.320381 0.771557
Si Si2 0.082586 0.998218 0.636007
Si Si3 0.866039 0.311011 0.585651
Si Si4 0.141899 0.450585 0.689125
Si Si5 0.203810 0.858629 0.913488
Si Si6 0.575302 0.426988 0.920417
Si Si7 0.229540 0.591796 0.817151
Si Si8 0.201298 0.224444 0.583045
O O1 0.581603 0.454469 0.723191
O O2 0.576674 0.312812 0.853126
O O3 0.698160 0.342233 0.781407
O O4 0.592464 0.167241 0.732267
O O5 0.137050 0.107707 0.593990
O O6 0.113224 0.837712 0.626052
O O7 0.000000 0.000000 0.605163
O O8 0.893124 0.309031 0.500000
O O9 0.902293 0.444976 0.631796
O O10 0.780532 0.344192 0.590895
O O11 0.179333 0.557544 0.747512
O O12 0.198347 0.355310 0.641593
O O13 0.193239 0.704991 0.873703
O O14 0.130058 0.943812 0.904765
O O15 0.263060 0.947487 0.866968
O O16 0.227113 0.837931 0.000000
O O17 0.500000 0.500000 0.927119
O O18 0.594318 0.349695 0.000000
O O19 0.192179 0.289304 0.500000
#
# Coordination Sequence:
#
# PCOD8226848 Si02
#       8
#     8   8   8   8   8   8   8   8
#     4  10  21  37  57  87 121 159 199 250 307 365
#     4  11  24  41  67  96 125 163 215 269 319 375
#     4  11  23  38  62  92 123 164 209 259 314 377
#     4  11  21  35  55  84 119 158 201 245 308 369
#     4  10  21  35  57  90 124 156 198 253 312 365
#     4   9  19  37  62  87 114 156 206 251 300 365
#     4  11  20  35  58  88 121 163 197 252 305 368
#     4  10  21  39  62  89 124 161 206 263 317 379
#
# _framework density 20.867231
#
# number of rings (size 3 to 8) (size 9 to 14) (size 15 to 20)
#    0.000    1.625    1.250    4.500    3.500    3.500 
#    0.000    2.500    0.000    3.750    0.000    2.625 
#    0.000    0.000    0.000    0.000    0.000    0.000 
#
# Total GULP energy -793159.287939 kJ/mol
# GULP energy per Si atom -12393.113874 kJ/mol
# Density = 2.081974 g / cm^3
# Si number density = 20.867231 Si / 1000 Ang^3
#
#
#
# Elastic Constant Matrix: (Units=GPa)
#
#
# Indices 1 2 3 4 5 6 
#
# 1 59.1349 10.5868 13.3797 0.0000 0.0000 0.0000
# 2 10.5868 127.7486 74.6798 0.0000 0.0000 0.0000
# 3 13.3797 74.6798 156.8358 0.0000 0.0000 0.0000
# 4 0.0000 0.0000 0.0000 38.0275 0.0000 0.0000
# 5 0.0000 0.0000 0.0000 0.0000 21.6618 0.0000
# 6 0.0000 0.0000 0.0000 0.0000 0.0000 10.0884
#
#
#
# Elastic Compliance Matrix: (Units=1/GPa)
#
#
# Indices 1 2 3 4 5 6 
#
# 1 0.017301 -0.000791 -0.001099 0.000000 0.000000 0.000000
# 2 -0.000791 0.010884 -0.005115 0.000000 0.000000 0.000000
# 3 -0.001099 -0.005115 0.008905 0.000000 0.000000 0.000000
# 4 0.000000 0.000000 0.000000 0.026297 0.000000 0.000000
# 5 0.000000 0.000000 0.000000 0.000000 0.046164 0.000000
# 6 0.000000 0.000000 0.000000 0.000000 0.000000 0.099124
#
#
# Mechanical properties :
#
#
# Convention : Reuss Voigt Hill
#
# Bulk Modulus (GPa) = 43.32894 60.11243 51.72068
# Shear Modulus (GPa) = 21.70343 30.29373 25.99858
#
# Velocity S-wave (km/s) = 3.22851 3.81430 3.53357
# Velocity P-wave (km/s) = 5.89126 6.94753 6.44108
#
# Compressibility (1/GPa) = 0.02307926
#
# Stress axis : x y z
#
# Youngs Moduli (GPa) = 57.80064 91.88220 112.29158
#
# Poissons Ratio (x) = 0.07270 0.12343
# Poissons Ratio (y) = 0.04573 0.57436
# Poissons Ratio (z) = 0.06353 0.46996
#
# Static dielectric constant tensor:
#      x y z
#    x 3.449640 0.000000 0.000000 
#    y 0.000000 3.742170 0.000000 
#    z 0.000000 0.000000 4.522000 
# 
# 
# High freq. dielectric constant tensor:
#      x y z
#    x 1.777320 0.000000 0.000000 
#    y 0.000000 1.812350 0.000000 
#    z 0.000000 0.000000 1.846730 
# 
# From -- ./inp_files/21954.got.cif
#   From: 2010.03.12/outbox.cif.g09.slc.cpg/sg55_11_cif.got.tgz:21954.got - 2010.04.16 15:19:21.
