data_PCOD8226793
_publ_section_title
;
Structure prediction by ZEFSAII (Michael W. Deem and Ramdas Pophale) SiO2 
 PCOD8226793
Probable space group: P B A M
;
_chemical_formula_sum "Si O2"
_cell_formula_units_Z 48
_cell_length_a 17.418442
_cell_length_b 9.264290
_cell_length_c 15.131598
_cell_angle_alpha 90.000000
_cell_angle_beta 90.000000
_cell_angle_gamma 90.000000
_cell_volume 2441.778374
_symmetry_space_group_name_H-M "P B A M"
_symmetry_group_IT_number 55
_symmetry_cell_setting 'orthorhombic'
loop_
_space_group_symop_operation_xyz
x,y,z
-x,-y,z
1/2+x,1/2-y,-z
1/2-x,1/2+y,-z
-x,-y,-z
x,y,-z
1/2-x,1/2+y,z
1/2+x,1/2-y,z
loop_
_atom_site_type_symbol
_atom_site_label
_atom_site_fract_x
_atom_site_fract_y
_atom_site_fract_z
Si Si1 0.173340 0.645160 0.811829
Si Si2 0.126998 0.559305 0.000000
Si Si3 0.422291 0.411058 0.399189
Si Si4 0.691337 0.533099 0.755321
Si Si5 0.533380 0.219997 0.000000
Si Si6 0.975197 0.346136 0.704587
Si Si7 0.444075 0.629241 0.819465
O O1 0.224982 0.539463 0.750743
O O2 0.085770 0.626633 0.782345
O O3 0.199938 0.809434 0.797847
O O4 0.178199 0.599606 0.914566
O O5 0.105297 0.389883 0.000000
O O6 0.048184 0.644803 0.000000
O O7 0.500000 0.500000 0.382620
O O8 0.394968 0.422698 0.500000
O O9 0.351380 0.467208 0.339766
O O10 0.438929 0.244259 0.375703
O O11 0.642386 0.429429 0.819588
O O12 0.536183 0.323676 0.916961
O O13 0.000000 0.500000 0.665299
O O14 0.045862 0.260726 0.749946
O O15 0.500000 0.500000 0.788317
#
# Coordination Sequence:
#
# PCOD8226793 Si02
#       7
#     8   4   8   8   4   8   8
#     4  11  25  39  62  86 130 171 211 257 308 373
#     4  11  22  41  55  94 124 165 220 263 307 360
#     4  10  20  41  70  95 120 157 206 259 313 383
#     4  11  24  42  60  92 127 165 207 257 326 381
#     4  11  23  33  65  90 123 160 222 276 301 350
#     4  11  21  38  65  94 127 164 210 261 311 381
#     4  12  20  40  62  89 123 168 214 260 313 372
#
# _framework density 19.657803999999999
#
# number of rings (size 3 to 8) (size 9 to 14) (size 15 to 20)
#    0.000    1.000    6.667    1.250    4.667    2.333 
#    0.000    3.333    0.000    0.000    0.000    0.000 
#    0.000    0.000    0.000    0.000    0.000    0.000 
#
# Total GULP energy -595272.949240 kJ/mol
# GULP energy per Si atom -12401.519776 kJ/mol
# Density = 1.961306 g / cm^3
# Si number density = 19.657804 Si / 1000 Ang^3
#
#
#
# Elastic Constant Matrix: (Units=GPa)
#
#
# Indices 1 2 3 4 5 6 
#
# 1 58.3123 42.5915 28.2469 0.0000 0.0000 0.0000
# 2 42.5915 124.9821 34.7671 0.0000 0.0000 0.0000
# 3 28.2469 34.7671 121.2909 0.0000 0.0000 0.0000
# 4 0.0000 0.0000 0.0000 16.6267 0.0000 0.0000
# 5 0.0000 0.0000 0.0000 0.0000 17.0592 0.0000
# 6 0.0000 0.0000 0.0000 0.0000 0.0000 38.0955
#
#
#
# Elastic Compliance Matrix: (Units=1/GPa)
#
#
# Indices 1 2 3 4 5 6 
#
# 1 0.024161 -0.007246 -0.003550 0.000000 0.000000 0.000000
# 2 -0.007246 0.010868 -0.001428 0.000000 0.000000 0.000000
# 3 -0.003550 -0.001428 0.009481 0.000000 0.000000 0.000000
# 4 0.000000 0.000000 0.000000 0.060144 0.000000 0.000000
# 5 0.000000 0.000000 0.000000 0.000000 0.058619 0.000000
# 6 0.000000 0.000000 0.000000 0.000000 0.000000 0.026250
#
#
# Mechanical properties :
#
#
# Convention : Reuss Voigt Hill
#
# Bulk Modulus (GPa) = 49.84471 57.31071 53.57771
# Shear Modulus (GPa) = 22.65957 27.62160 25.14058
#
# Velocity S-wave (km/s) = 3.39883 3.75256 3.58007
# Velocity P-wave (km/s) = 6.38858 6.92770 6.66360
#
# Compressibility (1/GPa) = 0.02006231
#
# Stress axis : x y z
#
# Youngs Moduli (GPa) = 41.38869 92.01629 105.47939
#
# Poissons Ratio (x) = 0.66677 0.37442
# Poissons Ratio (y) = 0.29991 0.15058
# Poissons Ratio (z) = 0.14692 0.13136
#
# Static dielectric constant tensor:
#      x y z
#    x 3.503040 0.000000 0.000000 
#    y 0.000000 3.806080 0.000000 
#    z 0.000000 0.000000 3.439270 
# 
# 
# High freq. dielectric constant tensor:
#      x y z
#    x 1.751270 0.000000 0.000000 
#    y 0.000000 1.780290 0.000000 
#    z 0.000000 0.000000 1.753100 
# 
# From -- ./inp_files/19383.got.cif
#   From: 2010.03.12/outbox.cif.g09.slc.cpg/sg55_10_cif.got.tgz:19383.got - 2010.04.16 15:19:21.
