data_PCOD8226206
_publ_section_title
;
Structure prediction by ZEFSAII (Michael W. Deem and Ramdas Pophale) SiO2 
 PCOD8226206
Probable space group: P B A M
;
_chemical_formula_sum "Si O2"
_cell_formula_units_Z 64
_cell_length_a 24.796667
_cell_length_b 14.199760
_cell_length_c 9.175900
_cell_angle_alpha 90.000000
_cell_angle_beta 90.000000
_cell_angle_gamma 90.000000
_cell_volume 3230.896054
_symmetry_space_group_name_H-M "P B A M"
_symmetry_group_IT_number 55
_symmetry_cell_setting 'orthorhombic'
loop_
_space_group_symop_operation_xyz
x,y,z
-x,-y,z
1/2+x,1/2-y,-z
1/2-x,1/2+y,-z
-x,-y,-z
x,y,-z
1/2-x,1/2+y,z
1/2+x,1/2-y,z
loop_
_atom_site_type_symbol
_atom_site_label
_atom_site_fract_x
_atom_site_fract_y
_atom_site_fract_z
Si Si1 0.601067 0.227315 0.171513
Si Si2 0.385625 0.135777 0.332304
Si Si3 0.222616 0.945680 0.667647
Si Si4 0.507994 0.751887 0.329811
Si Si5 0.935911 0.099617 0.839429
Si Si6 0.154188 0.436099 0.664846
Si Si7 0.635940 0.434875 0.829135
Si Si8 0.826666 0.215742 0.162302
O O1 0.544402 0.209339 0.249643
O O2 0.642314 0.147348 0.223074
O O3 0.625803 0.327733 0.216928
O O4 0.592165 0.220591 0.000000
O O5 0.372496 0.158371 0.500000
O O6 0.444596 0.174793 0.291258
O O7 0.338755 0.184481 0.237415
O O8 0.384879 0.024366 0.301189
O O9 0.204490 0.936937 0.500000
O O10 0.284957 0.973154 0.683391
O O11 0.215685 0.844006 0.743685
O O12 0.187543 0.027613 0.741778
O O13 0.496375 0.745370 0.500000
O O14 0.522800 0.646887 0.273342
O O15 0.881289 0.157710 0.845450
O O16 0.918659 0.994139 0.790530
O O17 0.963305 0.098459 0.000000
O O18 0.144642 0.399504 0.500000
O O19 0.648812 0.446125 0.000000
O O20 0.803298 0.233183 0.000000
#
# Coordination Sequence:
#
# PCOD8226206 Si02
#       8
#     8   8   8   8   8   8   8   8
#     4  11  24  40  57  80 113 150 186 227 277 333
#     4   9  19  37  59  81 107 143 189 235 279 328
#     4  10  20  35  58  84 111 144 180 224 277 331
#     4  10  20  35  57  83 111 144 182 229 281 331
#     4   8  15  31  54  79 108 141 177 217 265 323
#     4  10  23  41  57  78 109 145 188 234 278 326
#     4   9  20  38  58  82 114 149 183 225 277 331
#     4   9  17  31  54  83 113 142 175 220 271 324
#
# _framework density 19.808745999999999
#
# number of rings (size 3 to 8) (size 9 to 14) (size 15 to 20)
#    0.000    2.500    0.000    2.250    0.000    8.000 
#    0.000    8.750    0.000    0.000    0.000    0.000 
#    0.000    0.000    0.000    0.000    0.000    0.000 
#
# Total GULP energy -793640.445671 kJ/mol
# GULP energy per Si atom -12400.631964 kJ/mol
# Density = 1.976366 g / cm^3
# Si number density = 19.808746 Si / 1000 Ang^3
#
#
#
# Elastic Constant Matrix: (Units=GPa)
#
#
# Indices 1 2 3 4 5 6 
#
# 1 68.1524 33.7247 43.7572 0.0000 0.0000 0.0000
# 2 33.7247 109.7031 49.7170 0.0000 0.0000 0.0000
# 3 43.7572 49.7170 104.1961 0.0000 0.0000 0.0000
# 4 0.0000 0.0000 0.0000 30.5277 0.0000 0.0000
# 5 0.0000 0.0000 0.0000 0.0000 27.9767 0.0000
# 6 0.0000 0.0000 0.0000 0.0000 0.0000 25.7974
#
#
#
# Elastic Compliance Matrix: (Units=1/GPa)
#
#
# Indices 1 2 3 4 5 6 
#
# 1 0.020895 -0.003122 -0.007285 0.000000 0.000000 0.000000
# 2 -0.003122 0.012097 -0.004461 0.000000 0.000000 0.000000
# 3 -0.007285 -0.004461 0.014785 0.000000 0.000000 0.000000
# 4 0.000000 0.000000 0.000000 0.032757 0.000000 0.000000
# 5 0.000000 0.000000 0.000000 0.000000 0.035744 0.000000
# 6 0.000000 0.000000 0.000000 0.000000 0.000000 0.038764
#
#
# Mechanical properties :
#
#
# Convention : Reuss Voigt Hill
#
# Bulk Modulus (GPa) = 55.42902 59.60548 57.51725
# Shear Modulus (GPa) = 26.20643 27.18388 26.69516
#
# Velocity S-wave (km/s) = 3.64122 3.70850 3.67501
# Velocity P-wave (km/s) = 6.76171 6.96370 6.86345
#
# Compressibility (1/GPa) = 0.01804109
#
# Stress axis : x y z
#
# Youngs Moduli (GPa) = 47.85733 82.66557 67.63450
#
# Poissons Ratio (x) = 0.25807 0.49275
# Poissons Ratio (y) = 0.14941 0.30172
# Poissons Ratio (z) = 0.34866 0.36877
#
# Static dielectric constant tensor:
#      x y z
#    x 3.415950 0.000000 0.000000 
#    y 0.000000 3.664810 0.000000 
#    z 0.000000 0.000000 3.735370 
# 
# 
# High freq. dielectric constant tensor:
#      x y z
#    x 1.759800 0.000000 0.000000 
#    y 0.000000 1.768950 0.000000 
#    z 0.000000 0.000000 1.775350 
# 
# From -- ./inp_files/9803.got.cif
#   From: 2010.03.12/outbox.cif.g09.slc.cpg/sg55_5_cif.got.tgz:9803.got - 2010.04.16 15:19:21.
