data_PCOD8226300
_publ_section_title
;
Structure prediction by ZEFSAII (Michael W. Deem and Ramdas Pophale) SiO2 
 PCOD8226300
Probable space group: P B A M
;
_chemical_formula_sum "Si O2"
_cell_formula_units_Z 56
_cell_length_a 15.235420
_cell_length_b 9.111264
_cell_length_c 18.632382
_cell_angle_alpha 90.000000
_cell_angle_beta 90.000000
_cell_angle_gamma 90.000000
_cell_volume 2586.434241
_symmetry_space_group_name_H-M "P B A M"
_symmetry_group_IT_number 55
_symmetry_cell_setting 'orthorhombic'
loop_
_space_group_symop_operation_xyz
x,y,z
-x,-y,z
1/2+x,1/2-y,-z
1/2-x,1/2+y,-z
-x,-y,-z
x,y,-z
1/2-x,1/2+y,z
1/2+x,1/2-y,z
loop_
_atom_site_type_symbol
_atom_site_label
_atom_site_fract_x
_atom_site_fract_y
_atom_site_fract_z
Si Si1 0.413748 0.079556 0.078775
Si Si2 0.353894 0.803457 0.364611
Si Si3 0.669594 0.858307 0.348384
Si Si4 0.476900 0.660011 0.920131
Si Si5 0.361927 0.732232 0.210099
Si Si6 0.018154 0.835697 0.418766
Si Si7 0.784739 0.470293 0.799340
O O1 0.432527 0.252572 0.072001
O O2 0.327091 0.064872 0.124729
O O3 0.500000 0.000000 0.112070
O O4 0.395374 0.010165 0.000000
O O5 0.262366 0.714465 0.371348
O O6 0.403932 0.761179 0.288551
O O7 0.425283 0.749895 0.421876
O O8 0.337322 0.976096 0.380139
O O9 0.590585 0.752663 0.372594
O O10 0.663331 0.881261 0.262629
O O11 0.500000 0.500000 0.890820
O O12 0.422832 0.749042 0.859482
O O13 0.431084 0.653043 0.000000
O O14 0.317159 0.573360 0.202885
O O15 0.285140 0.855172 0.210144
O O16 0.054191 0.846343 0.500000
O O17 0.000000 0.000000 0.387758
#
# Coordination Sequence:
#
# PCOD8226300 Si02
#       7
#     8   8   8   8   8   8   8
#     4  10  20  36  56  78 111 155 199 247 303 358
#     4  10  22  41  64  93 128 165 207 259 312 368
#     4  10  22  41  64  93 129 164 208 260 308 369
#     4  10  22  38  55  81 115 153 202 253 303 361
#     4  10  22  38  57  86 116 152 196 246 298 356
#     4  11  25  43  66  97 128 164 207 248 304 374
#     4  10  22  37  58  85 116 151 198 244 299 357
#
# _framework density 21.651429
#
# number of rings (size 3 to 8) (size 9 to 14) (size 15 to 20)
#    0.000    1.857    1.429    1.286    4.000    4.000 
#    0.000    0.000    0.000    0.000    0.000    0.000 
#    0.000    0.000    0.000    0.000    0.000    0.000 
#
# Total GULP energy -693751.339412 kJ/mol
# GULP energy per Si atom -12388.416775 kJ/mol
# Density = 2.160215 g / cm^3
# Si number density = 21.651429 Si / 1000 Ang^3
#
#
#
# Elastic Constant Matrix: (Units=GPa)
#
#
# Indices 1 2 3 4 5 6 
#
# 1 69.7721 24.8126 17.0250 0.0000 0.0000 0.0000
# 2 24.8126 117.9814 12.0564 0.0000 0.0000 0.0000
# 3 17.0250 12.0564 63.8595 0.0000 0.0000 0.0000
# 4 0.0000 0.0000 0.0000 26.9435 0.0000 0.0000
# 5 0.0000 0.0000 0.0000 0.0000 27.2579 0.0000
# 6 0.0000 0.0000 0.0000 0.0000 0.0000 38.4002
#
#
#
# Elastic Compliance Matrix: (Units=1/GPa)
#
#
# Indices 1 2 3 4 5 6 
#
# 1 0.016339 -0.003050 -0.003780 0.000000 0.000000 0.000000
# 2 -0.003050 0.009212 -0.000926 0.000000 0.000000 0.000000
# 3 -0.003780 -0.000926 0.016842 0.000000 0.000000 0.000000
# 4 0.000000 0.000000 0.000000 0.037115 0.000000 0.000000
# 5 0.000000 0.000000 0.000000 0.000000 0.036687 0.000000
# 6 0.000000 0.000000 0.000000 0.000000 0.000000 0.026042
#
#
# Mechanical properties :
#
#
# Convention : Reuss Voigt Hill
#
# Bulk Modulus (GPa) = 37.20132 39.93345 38.56738
# Shear Modulus (GPa) = 29.99230 31.70157 30.84694
#
# Velocity S-wave (km/s) = 3.72591 3.83061 3.77862
# Velocity P-wave (km/s) = 5.97738 6.16835 6.07362
#
# Compressibility (1/GPa) = 0.02688077
#
# Stress axis : x y z
#
# Youngs Moduli (GPa) = 61.20153 108.55411 59.37520
#
# Poissons Ratio (x) = 0.33109 0.22446
# Poissons Ratio (y) = 0.18667 0.05498
# Poissons Ratio (z) = 0.23136 0.10052
#
# Static dielectric constant tensor:
#      x y z
#    x 3.455210 0.000000 0.000000 
#    y 0.000000 4.186890 0.000000 
#    z 0.000000 0.000000 3.957510 
# 
# 
# High freq. dielectric constant tensor:
#      x y z
#    x 1.816530 0.000000 0.000000 
#    y 0.000000 1.872880 0.000000 
#    z 0.000000 0.000000 1.848210 
# 
# From -- ./inp_files/22961.got.cif
#   From: 2010.03.12/outbox.cif.g09.slc.cpg/sg55_12_cif.got.tgz:22961.got - 2010.04.16 15:19:21.
