data_PCOD8226014
_publ_section_title
;
Structure prediction by ZEFSAII (Michael W. Deem and Ramdas Pophale) SiO2 
 PCOD8226014
Probable space group: P B A M
;
_chemical_formula_sum "Si O2"
_cell_formula_units_Z 48
_cell_length_a 9.319520
_cell_length_b 33.866021
_cell_length_c 7.842524
_cell_angle_alpha 90.000000
_cell_angle_beta 90.000000
_cell_angle_gamma 90.000000
_cell_volume 2475.218683
_symmetry_space_group_name_H-M "P B A M"
_symmetry_group_IT_number 55
_symmetry_cell_setting 'orthorhombic'
loop_
_space_group_symop_operation_xyz
x,y,z
-x,-y,z
1/2+x,1/2-y,-z
1/2-x,1/2+y,-z
-x,-y,-z
x,y,-z
1/2-x,1/2+y,z
1/2+x,1/2-y,z
loop_
_atom_site_type_symbol
_atom_site_label
_atom_site_fract_x
_atom_site_fract_y
_atom_site_fract_z
Si Si1 0.872949 0.161891 0.811677
Si Si2 0.263361 0.703731 0.500000
Si Si3 0.841472 0.503167 0.693878
Si Si4 0.833647 0.073745 0.801366
Si Si5 0.210977 0.149811 0.191473
Si Si6 0.647901 0.433757 0.194883
Si Si7 0.103642 0.785115 0.500000
O O1 0.798642 0.119852 0.769091
O O2 0.831781 0.193484 0.667520
O O3 0.041665 0.155588 0.814063
O O4 0.822486 0.176761 0.000000
O O5 0.221019 0.679393 0.670398
O O6 0.160898 0.741103 0.500000
O O7 0.430998 0.715301 0.500000
O O8 0.847154 0.488779 0.500000
O O9 0.785965 0.547910 0.706057
O O10 0.735056 0.473913 0.790962
O O11 0.000000 0.500000 0.775530
O O12 0.989867 0.062511 0.720535
O O13 0.825480 0.062968 0.000000
O O14 0.236916 0.104740 0.259802
O O15 0.275554 0.157310 0.000000
O O16 0.614838 0.423630 0.000000
#
# Coordination Sequence:
#
# PCOD8226014 Si02
#       7
#     8   4   8   8   8   8   4
#     4   8  16  32  54  79 104 131 170 217 258 301
#     4  10  20  34  54  79 106 137 167 204 259 310
#     4  11  24  35  44  70 110 145 172 205 254 310
#     4   9  18  34  56  78  97 126 175 225 259 296
#     4   8  16  32  54  79 104 131 170 217 258 301
#     4   9  18  34  56  78  97 126 175 225 259 296
#     4  10  20  34  54  79 106 137 167 204 259 310
#
# _framework density 19.392226999999998
#
# number of rings (size 3 to 8) (size 9 to 14) (size 15 to 20)
#    0.000    2.833    0.000    3.000    2.333    4.667 
#    0.000    1.667    0.000    2.000    0.000    0.000 
#    0.000    0.000    0.000    0.000    0.000    0.000 
#
# Total GULP energy -594914.190837 kJ/mol
# GULP energy per Si atom -12394.045642 kJ/mol
# Density = 1.934809 g / cm^3
# Si number density = 19.392227 Si / 1000 Ang^3
#
#
#
# Elastic Constant Matrix: (Units=GPa)
#
#
# Indices 1 2 3 4 5 6 
#
# 1 31.9980 -9.7195 0.5937 0.0000 0.0000 0.0000
# 2 -9.7195 51.9943 21.0071 0.0000 0.0000 0.0000
# 3 0.5937 21.0071 78.0391 0.0000 0.0000 0.0000
# 4 0.0000 0.0000 0.0000 34.7016 0.0000 0.0000
# 5 0.0000 0.0000 0.0000 0.0000 13.0262 0.0000
# 6 0.0000 0.0000 0.0000 0.0000 0.0000 28.3711
#
#
#
# Elastic Compliance Matrix: (Units=1/GPa)
#
#
# Indices 1 2 3 4 5 6 
#
# 1 0.033459 0.007133 -0.002175 0.000000 0.000000 0.000000
# 2 0.007133 0.023101 -0.006273 0.000000 0.000000 0.000000
# 3 -0.002175 -0.006273 0.014519 0.000000 0.000000 0.000000
# 4 0.000000 0.000000 0.000000 0.028817 0.000000 0.000000
# 5 0.000000 0.000000 0.000000 0.000000 0.076768 0.000000
# 6 0.000000 0.000000 0.000000 0.000000 0.000000 0.035247
#
#
# Mechanical properties :
#
#
# Convention : Reuss Voigt Hill
#
# Bulk Modulus (GPa) = 14.60907 20.64378 17.62642
# Shear Modulus (GPa) = 21.06536 25.22978 23.14757
#
# Velocity S-wave (km/s) = 3.29945 3.61089 3.45868
# Velocity P-wave (km/s) = 4.69734 5.29652 5.00590
#
# Compressibility (1/GPa) = 0.06845065
#
# Stress axis : x y z
#
# Youngs Moduli (GPa) = 29.88724 43.28887 68.87457
#
# Poissons Ratio (x) = -0.30879 0.14978
# Poissons Ratio (y) = -0.21319 0.43203
# Poissons Ratio (z) = 0.06500 0.27154
#
# Static dielectric constant tensor:
#      x y z
#    x 3.126010 0.000000 0.000000 
#    y 0.000000 3.527100 0.000000 
#    z 0.000000 0.000000 3.736860 
# 
# 
# High freq. dielectric constant tensor:
#      x y z
#    x 1.707380 0.000000 0.000000 
#    y 0.000000 1.754400 0.000000 
#    z 0.000000 0.000000 1.757420 
# 
# From -- ./inp_files/2916.got.cif
#   From: 2010.03.12/outbox.cif.g09.slc.cpg/sg55_2_cif.got.tgz:2916.got - 2010.04.16 15:19:21.
