data_PCOD8226204
_publ_section_title
;
Structure prediction by ZEFSAII (Michael W. Deem and Ramdas Pophale) SiO2 
 PCOD8226204
Probable space group: P B A M
;
_chemical_formula_sum "Si O2"
_cell_formula_units_Z 56
_cell_length_a 19.792418
_cell_length_b 16.418427
_cell_length_c 9.267601
_cell_angle_alpha 90.000000
_cell_angle_beta 90.000000
_cell_angle_gamma 90.000000
_cell_volume 3011.603051
_symmetry_space_group_name_H-M "P B A M"
_symmetry_group_IT_number 55
_symmetry_cell_setting 'orthorhombic'
loop_
_space_group_symop_operation_xyz
x,y,z
-x,-y,z
1/2+x,1/2-y,-z
1/2-x,1/2+y,-z
-x,-y,-z
x,y,-z
1/2-x,1/2+y,z
1/2+x,1/2-y,z
loop_
_atom_site_type_symbol
_atom_site_label
_atom_site_fract_x
_atom_site_fract_y
_atom_site_fract_z
Si Si1 0.799875 0.931013 0.166027
Si Si2 0.488076 0.749606 0.169936
Si Si3 0.118901 0.692224 0.667789
Si Si4 0.951318 0.929521 0.171658
Si Si5 0.137351 0.362334 0.167074
Si Si6 0.174764 0.514488 0.332346
Si Si7 0.242716 0.745715 0.163862
O O1 0.875272 0.947726 0.224848
O O2 0.748533 0.984327 0.259778
O O3 0.786359 0.835525 0.184870
O O4 0.791728 0.958107 0.000000
O O5 0.549832 0.789259 0.252868
O O6 0.477327 0.657781 0.227393
O O7 0.421911 0.800836 0.209742
O O8 0.502993 0.751292 0.000000
O O9 0.111791 0.711928 0.500000
O O10 0.135687 0.598142 0.697240
O O11 0.178486 0.748566 0.731136
O O12 0.951174 0.928073 0.000000
O O13 0.000000 0.000000 0.233239
O O14 0.129984 0.443313 0.262258
O O15 0.209169 0.320966 0.202202
O O16 0.132270 0.386678 0.000000
O O17 0.184390 0.497155 0.500000
O O18 0.216066 0.751658 0.000000
#
# Coordination Sequence:
#
# PCOD8226204 Si02
#       7
#     8   8   8   8   8   8   8
#     4   9  16  32  56  79 105 137 177 224 272 325
#     4  10  20  36  57  83 113 146 186 232 280 333
#     4  10  22  38  54  78 114 152 187 226 277 336
#     4   9  17  31  55  85 113 140 173 220 278 334
#     4  10  20  35  57  83 109 142 190 237 281 330
#     4  10  22  37  53  78 111 147 187 231 277 328
#     4   9  17  33  57  79 102 139 185 233 277 323
#
# _framework density 18.594747999999999
#
# number of rings (size 3 to 8) (size 9 to 14) (size 15 to 20)
#    0.000    2.429    1.429    0.857    0.000    4.571 
#    0.000    6.429    0.000    0.857    0.000    0.000 
#    0.000    0.000    0.000    0.000    0.000    0.000 
#
# Total GULP energy -694524.784555 kJ/mol
# GULP energy per Si atom -12402.228296 kJ/mol
# Density = 1.855243 g / cm^3
# Si number density = 18.594748 Si / 1000 Ang^3
#
#
#
# Elastic Constant Matrix: (Units=GPa)
#
#
# Indices 1 2 3 4 5 6 
#
# 1 115.7140 66.2221 67.7969 0.0000 0.0000 0.0000
# 2 66.2221 94.4633 50.6354 0.0000 0.0000 0.0000
# 3 67.7969 50.6354 77.7860 0.0000 0.0000 0.0000
# 4 0.0000 0.0000 0.0000 22.6080 0.0000 0.0000
# 5 0.0000 0.0000 0.0000 0.0000 8.7312 0.0000
# 6 0.0000 0.0000 0.0000 0.0000 0.0000 24.6103
#
#
#
# Elastic Compliance Matrix: (Units=1/GPa)
#
#
# Indices 1 2 3 4 5 6 
#
# 1 0.020538 -0.007377 -0.013099 0.000000 0.000000 0.000000
# 2 -0.007377 0.018909 -0.005880 0.000000 0.000000 0.000000
# 3 -0.013099 -0.005880 0.028100 0.000000 0.000000 0.000000
# 4 0.000000 0.000000 0.000000 0.044232 0.000000 0.000000
# 5 0.000000 0.000000 0.000000 0.000000 0.114532 0.000000
# 6 0.000000 0.000000 0.000000 0.000000 0.000000 0.040633
#
#
# Mechanical properties :
#
#
# Convention : Reuss Voigt Hill
#
# Bulk Modulus (GPa) = 67.39954 73.03024 70.21489
# Shear Modulus (GPa) = 15.40357 18.07718 16.74037
#
# Velocity S-wave (km/s) = 2.88129 3.12134 3.00371
# Velocity P-wave (km/s) = 6.88435 7.23535 7.06203
#
# Compressibility (1/GPa) = 0.01483690
#
# Stress axis : x y z
#
# Youngs Moduli (GPa) = 48.68989 52.88459 35.58727
#
# Poissons Ratio (x) = 0.39011 0.46615
# Poissons Ratio (y) = 0.35916 0.20924
# Poissons Ratio (z) = 0.63778 0.31095
#
# Static dielectric constant tensor:
#      x y z
#    x 3.494540 0.000000 0.000000 
#    y 0.000000 3.427370 0.000000 
#    z 0.000000 0.000000 3.221880 
# 
# 
# High freq. dielectric constant tensor:
#      x y z
#    x 1.727070 0.000000 0.000000 
#    y 0.000000 1.721210 0.000000 
#    z 0.000000 0.000000 1.699040 
# 
# From -- ./inp_files/8745.got.cif
#   From: 2010.03.12/outbox.cif.g09.slc.cpg/sg55_5_cif.got.tgz:8745.got - 2010.04.16 15:19:21.
