data_PCOD8226767
_publ_section_title
;
Structure prediction by ZEFSAII (Michael W. Deem and Ramdas Pophale) SiO2 
 PCOD8226767
Probable space group: P B A M
;
_chemical_formula_sum "Si O2"
_cell_formula_units_Z 64
_cell_length_a 17.285555
_cell_length_b 14.259268
_cell_length_c 13.306973
_cell_angle_alpha 90.000000
_cell_angle_beta 90.000000
_cell_angle_gamma 90.000000
_cell_volume 3279.894206
_symmetry_space_group_name_H-M "P B A M"
_symmetry_group_IT_number 55
_symmetry_cell_setting 'orthorhombic'
loop_
_space_group_symop_operation_xyz
x,y,z
-x,-y,z
1/2+x,1/2-y,-z
1/2-x,1/2+y,-z
-x,-y,-z
x,y,-z
1/2-x,1/2+y,z
1/2+x,1/2-y,z
loop_
_atom_site_type_symbol
_atom_site_label
_atom_site_fract_x
_atom_site_fract_y
_atom_site_fract_z
Si Si1 0.579326 0.454567 0.783128
Si Si2 0.762501 0.987789 0.117291
Si Si3 0.082766 0.262611 0.743833
Si Si4 0.440156 0.220991 0.387051
Si Si5 0.637258 0.581243 0.385882
Si Si6 0.753630 0.661796 0.761232
Si Si7 0.997577 0.395318 0.885243
Si Si8 0.155175 0.664395 0.206021
O O1 0.500000 0.500000 0.823907
O O2 0.645869 0.483130 0.862093
O O3 0.570265 0.343561 0.777697
O O4 0.598073 0.494778 0.672282
O O5 0.721352 0.912014 0.188884
O O6 0.728096 0.088562 0.149528
O O7 0.745184 0.969489 0.000000
O O8 0.172060 0.282873 0.719123
O O9 0.061164 0.329572 0.835641
O O10 0.028729 0.288673 0.649292
O O11 0.432908 0.182012 0.500000
O O12 0.419936 0.330505 0.381212
O O13 0.382407 0.158831 0.318021
O O14 0.652932 0.549423 0.500000
O O15 0.718572 0.607537 0.334473
O O16 0.692029 0.733553 0.808961
O O17 0.000000 0.500000 0.837185
O O18 0.912595 0.350224 0.874655
O O19 0.021670 0.402038 0.000000
#
# Coordination Sequence:
#
# PCOD8226767 Si02
#       8
#     8   8   8   8   8   8   8   8
#     4  11  22  39  58  88 131 161 199 249 306 366
#     4  11  24  40  62  86 117 164 208 252 308 365
#     4  11  21  37  61  91 124 160 197 252 303 363
#     4   9  19  36  62  91 119 157 199 243 300 359
#     4   9  19  37  60  83 117 160 197 241 296 361
#     4  10  22  39  58  86 123 152 201 255 304 360
#     4  10  22  39  61  86 113 155 209 260 308 361
#     4  10  20  40  61  84 121 158 198 257 305 356
#
# _framework density 19.512824999999999
#
# number of rings (size 3 to 8) (size 9 to 14) (size 15 to 20)
#    0.000    1.875    2.500    1.125    1.750    4.500 
#    0.000    2.500    0.000   12.750    0.000    0.000 
#    0.000    0.000    0.000    0.000    0.000    0.000 
#
# Total GULP energy -793660.685112 kJ/mol
# GULP energy per Si atom -12400.948205 kJ/mol
# Density = 1.946841 g / cm^3
# Si number density = 19.512825 Si / 1000 Ang^3
#
#
#
# Elastic Constant Matrix: (Units=GPa)
#
#
# Indices 1 2 3 4 5 6 
#
# 1 94.4510 31.8010 25.6368 0.0000 0.0000 0.0000
# 2 31.8010 108.0721 45.1112 0.0000 0.0000 0.0000
# 3 25.6368 45.1112 106.9743 0.0000 0.0000 0.0000
# 4 0.0000 0.0000 0.0000 26.8349 0.0000 0.0000
# 5 0.0000 0.0000 0.0000 0.0000 17.1215 0.0000
# 6 0.0000 0.0000 0.0000 0.0000 0.0000 35.8581
#
#
#
# Elastic Compliance Matrix: (Units=1/GPa)
#
#
# Indices 1 2 3 4 5 6 
#
# 1 0.011996 -0.002828 -0.001683 0.000000 0.000000 0.000000
# 2 -0.002828 0.011896 -0.004339 0.000000 0.000000 0.000000
# 3 -0.001683 -0.004339 0.011581 0.000000 0.000000 0.000000
# 4 0.000000 0.000000 0.000000 0.037265 0.000000 0.000000
# 5 0.000000 0.000000 0.000000 0.000000 0.058406 0.000000
# 6 0.000000 0.000000 0.000000 0.000000 0.000000 0.027888
#
#
# Mechanical properties :
#
#
# Convention : Reuss Voigt Hill
#
# Bulk Modulus (GPa) = 56.25824 57.17726 56.71775
# Shear Modulus (GPa) = 27.37387 29.75945 28.56666
#
# Velocity S-wave (km/s) = 3.74955 3.90952 3.83037
# Velocity P-wave (km/s) = 6.90214 7.05302 6.97799
#
# Compressibility (1/GPa) = 0.01777517
#
# Stress axis : x y z
#
# Youngs Moduli (GPa) = 83.35942 84.05951 86.34804
#
# Poissons Ratio (x) = 0.23769 0.14528
# Poissons Ratio (y) = 0.23571 0.37467
# Poissons Ratio (z) = 0.14025 0.36474
#
# Static dielectric constant tensor:
#      x y z
#    x 3.686110 0.000000 0.000000 
#    y 0.000000 3.589220 0.000000 
#    z 0.000000 0.000000 3.415500 
# 
# 
# High freq. dielectric constant tensor:
#      x y z
#    x 1.770960 0.000000 0.000000 
#    y 0.000000 1.762680 0.000000 
#    z 0.000000 0.000000 1.741270 
# 
# From -- ./inp_files/19583.got.cif
#   From: 2010.03.12/outbox.cif.g09.slc.cpg/sg55_10_cif.got.tgz:19583.got - 2010.04.16 15:19:21.
