data_PCOD8226051
_publ_section_title
;
Structure prediction by ZEFSAII (Michael W. Deem and Ramdas Pophale) SiO2 
 PCOD8226051
Probable space group: P B A M
;
_chemical_formula_sum "Si O2"
_cell_formula_units_Z 64
_cell_length_a 9.543117
_cell_length_b 24.942023
_cell_length_c 13.875313
_cell_angle_alpha 90.000000
_cell_angle_beta 90.000000
_cell_angle_gamma 90.000000
_cell_volume 3302.666433
_symmetry_space_group_name_H-M "P B A M"
_symmetry_group_IT_number 55
_symmetry_cell_setting 'orthorhombic'
loop_
_space_group_symop_operation_xyz
x,y,z
-x,-y,z
1/2+x,1/2-y,-z
1/2-x,1/2+y,-z
-x,-y,-z
x,y,-z
1/2-x,1/2+y,z
1/2+x,1/2-y,z
loop_
_atom_site_type_symbol
_atom_site_label
_atom_site_fract_x
_atom_site_fract_y
_atom_site_fract_z
Si Si1 0.107795 0.887216 0.774512
Si Si2 0.123379 0.630106 0.390505
Si Si3 0.162672 0.986517 0.892818
Si Si4 0.525724 0.727791 0.196803
Si Si5 0.756680 0.305572 0.113232
Si Si6 0.302616 0.853642 0.608796
Si Si7 0.144223 0.749109 0.392839
Si Si8 0.289636 0.587361 0.776608
O O1 0.184078 0.927873 0.847216
O O2 0.099062 0.829411 0.827088
O O3 0.197246 0.886198 0.676674
O O4 0.952155 0.907090 0.747979
O O5 0.137186 0.609426 0.500000
O O6 0.198001 0.688212 0.377091
O O7 0.199693 0.587851 0.321528
O O8 0.961631 0.636114 0.359480
O O9 0.241092 0.031010 0.828583
O O10 0.228138 0.986271 0.000000
O O11 0.000000 0.000000 0.898962
O O12 0.365348 0.728327 0.164438
O O13 0.600085 0.775377 0.138571
O O14 0.529102 0.736426 0.312155
O O15 0.761564 0.365949 0.152031
O O16 0.730720 0.307700 0.000000
O O17 0.276415 0.873878 0.500000
O O18 0.274947 0.789671 0.616331
O O19 0.074315 0.753281 0.500000
#
# Coordination Sequence:
#
# PCOD8226051 Si02
#       8
#     8   8   8   8   8   8   8   8
#     4   9  20  34  57  81 106 140 182 231 276 322
#     4  10  20  34  55  81 113 149 184 222 273 336
#     4   9  18  36  61  83 104 139 190 241 283 325
#     4  10  21  34  52  79 111 142 176 220 270 331
#     4  11  22  35  51  76 109 146 179 218 272 330
#     4   9  19  34  53  79 112 149 182 218 271 331
#     4   9  18  31  51  78 108 143 183 221 261 318
#     4  10  20  36  56  82 109 140 186 234 278 326
#
# _framework density 19.378281999999999
#
# number of rings (size 3 to 8) (size 9 to 14) (size 15 to 20)
#    0.000    2.375    1.250    0.750    3.500    5.000 
#    0.000    5.625    0.000    6.000    0.000    0.000 
#    0.000    0.000    0.000    0.000    0.000    0.000 
#
# Total GULP energy -793569.089048 kJ/mol
# GULP energy per Si atom -12399.517016 kJ/mol
# Density = 1.933418 g / cm^3
# Si number density = 19.378282 Si / 1000 Ang^3
#
#
#
# Elastic Constant Matrix: (Units=GPa)
#
#
# Indices 1 2 3 4 5 6 
#
# 1 40.6368 2.5377 23.9117 0.0000 0.0000 0.0000
# 2 2.5377 74.0052 28.4672 0.0000 0.0000 0.0000
# 3 23.9117 28.4672 114.8818 0.0000 0.0000 0.0000
# 4 0.0000 0.0000 0.0000 30.6722 0.0000 0.0000
# 5 0.0000 0.0000 0.0000 0.0000 23.3360 0.0000
# 6 0.0000 0.0000 0.0000 0.0000 0.0000 20.2015
#
#
#
# Elastic Compliance Matrix: (Units=1/GPa)
#
#
# Indices 1 2 3 4 5 6 
#
# 1 0.028178 0.001426 -0.006218 0.000000 0.000000 0.000000
# 2 0.001426 0.015008 -0.004016 0.000000 0.000000 0.000000
# 3 -0.006218 -0.004016 0.010994 0.000000 0.000000 0.000000
# 4 0.000000 0.000000 0.000000 0.032603 0.000000 0.000000
# 5 0.000000 0.000000 0.000000 0.000000 0.042852 0.000000
# 6 0.000000 0.000000 0.000000 0.000000 0.000000 0.049501
#
#
# Mechanical properties :
#
#
# Convention : Reuss Voigt Hill
#
# Bulk Modulus (GPa) = 27.34943 37.70632 32.52787
# Shear Modulus (GPa) = 23.93014 26.48244 25.20629
#
# Velocity S-wave (km/s) = 3.51792 3.70077 3.61050
# Velocity P-wave (km/s) = 5.53580 6.14502 5.84835
#
# Compressibility (1/GPa) = 0.03656384
#
# Stress axis : x y z
#
# Youngs Moduli (GPa) = 35.48837 66.62940 90.95883
#
# Poissons Ratio (x) = -0.09499 0.56561
# Poissons Ratio (y) = -0.05060 0.36527
# Poissons Ratio (z) = 0.22068 0.26757
#
# Static dielectric constant tensor:
#      x y z
#    x 3.228990 0.000000 0.000000 
#    y 0.000000 3.489030 0.000000 
#    z 0.000000 0.000000 3.688480 
# 
# 
# High freq. dielectric constant tensor:
#      x y z
#    x 1.730420 0.000000 0.000000 
#    y 0.000000 1.737330 0.000000 
#    z 0.000000 0.000000 1.762760 
# 
# From -- ./inp_files/17814.got.cif
#   From: 2010.03.12/outbox.cif.g09.slc.cpg/sg55_9_cif.got.tgz:17814.got - 2010.04.16 15:19:21.
