data_PCOD8226651
_publ_section_title
;
Structure prediction by ZEFSAII (Michael W. Deem and Ramdas Pophale) SiO2 
 PCOD8226651
Probable space group: P B A M
;
_chemical_formula_sum "Si O2"
_cell_formula_units_Z 64
_cell_length_a 10.017672
_cell_length_b 19.857651
_cell_length_c 16.705074
_cell_angle_alpha 90.000000
_cell_angle_beta 90.000000
_cell_angle_gamma 90.000000
_cell_volume 3323.097512
_symmetry_space_group_name_H-M "P B A M"
_symmetry_group_IT_number 55
_symmetry_cell_setting 'orthorhombic'
loop_
_space_group_symop_operation_xyz
x,y,z
-x,-y,z
1/2+x,1/2-y,-z
1/2-x,1/2+y,-z
-x,-y,-z
x,y,-z
1/2-x,1/2+y,z
1/2+x,1/2-y,z
loop_
_atom_site_type_symbol
_atom_site_label
_atom_site_fract_x
_atom_site_fract_y
_atom_site_fract_z
Si Si1 0.604595 0.058831 0.348185
Si Si2 0.524639 0.813802 0.407472
Si Si3 0.149128 0.771913 0.179196
Si Si4 0.490009 0.326940 0.325603
Si Si5 0.513173 0.926439 0.814731
Si Si6 0.613903 0.548963 0.407195
Si Si7 0.080896 0.301676 0.094068
Si Si8 0.274719 0.144587 0.277163
O O1 0.584553 0.126455 0.401722
O O2 0.596099 0.081524 0.255630
O O3 0.749793 0.028368 0.363675
O O4 0.500000 0.000000 0.370117
O O5 0.557318 0.798253 0.500000
O O6 0.472479 0.745882 0.363361
O O7 0.656409 0.840081 0.362520
O O8 0.266126 0.801955 0.124067
O O9 0.208963 0.704953 0.215782
O O10 0.111757 0.822106 0.251183
O O11 0.011954 0.757247 0.130653
O O12 0.421046 0.372904 0.392391
O O13 0.620158 0.366451 0.294509
O O14 0.486767 0.872749 0.883777
O O15 0.656504 0.918537 0.768762
O O16 0.500000 0.000000 0.854477
O O17 0.500000 0.500000 0.372465
O O18 0.634340 0.536131 0.500000
O O19 0.082333 0.292334 0.000000
#
# Coordination Sequence:
#
# PCOD8226651 Si02
#       8
#     8   8   8   8   8   8   8   8
#     4  10  22  42  62  80 112 159 206 241 289 356
#     4  10  22  34  56  85 111 151 200 248 300 345
#     4  10  20  38  59  87 119 150 190 231 280 351
#     4  11  22  38  61  82 117 154 196 246 295 348
#     4   9  20  37  62  87 112 149 203 241 276 349
#     4  11  26  40  54  83 120 155 198 253 306 347
#     4  11  21  36  61  92 122 151 181 231 297 351
#     4   9  20  36  58  84 112 153 193 240 291 339
#
# _framework density 19.259139999999999
#
# number of rings (size 3 to 8) (size 9 to 14) (size 15 to 20)
#    0.000    1.875    1.250    2.625    8.750    2.250 
#    0.000    0.000    0.000    0.000    0.000    0.875 
#    0.000    0.000    0.000    0.000    0.000    0.000 
#
# Total GULP energy -793451.474774 kJ/mol
# GULP energy per Si atom -12397.679293 kJ/mol
# Density = 1.921531 g / cm^3
# Si number density = 19.259140 Si / 1000 Ang^3
#
#
#
# Elastic Constant Matrix: (Units=GPa)
#
#
# Indices 1 2 3 4 5 6 
#
# 1 100.9470 15.8951 7.6184 0.0000 0.0000 0.0000
# 2 15.8951 73.3590 5.7313 0.0000 0.0000 0.0000
# 3 7.6184 5.7313 73.7875 0.0000 0.0000 0.0000
# 4 0.0000 0.0000 0.0000 20.0404 0.0000 0.0000
# 5 0.0000 0.0000 0.0000 0.0000 21.7001 0.0000
# 6 0.0000 0.0000 0.0000 0.0000 0.0000 24.2563
#
#
#
# Elastic Compliance Matrix: (Units=1/GPa)
#
#
# Indices 1 2 3 4 5 6 
#
# 1 0.010315 -0.002165 -0.000897 0.000000 0.000000 0.000000
# 2 -0.002165 0.014169 -0.000877 0.000000 0.000000 0.000000
# 3 -0.000897 -0.000877 0.013713 0.000000 0.000000 0.000000
# 4 0.000000 0.000000 0.000000 0.049899 0.000000 0.000000
# 5 0.000000 0.000000 0.000000 0.000000 0.046083 0.000000
# 6 0.000000 0.000000 0.000000 0.000000 0.000000 0.041226
#
#
# Mechanical properties :
#
#
# Convention : Reuss Voigt Hill
#
# Bulk Modulus (GPa) = 32.98198 34.06479 33.52339
# Shear Modulus (GPa) = 25.85454 27.78926 26.82190
#
# Velocity S-wave (km/s) = 3.66793 3.80269 3.73592
# Velocity P-wave (km/s) = 5.92459 6.08330 6.00447
#
# Compressibility (1/GPa) = 0.03031958
#
# Stress axis : x y z
#
# Youngs Moduli (GPa) = 96.94849 70.57566 72.92266
#
# Poissons Ratio (x) = 0.15279 0.06540
# Poissons Ratio (y) = 0.20988 0.06396
# Poissons Ratio (z) = 0.08695 0.06190
#
# Static dielectric constant tensor:
#      x y z
#    x 3.596160 0.000000 0.000000 
#    y 0.000000 3.535890 0.000000 
#    z 0.000000 0.000000 3.299220 
# 
# 
# High freq. dielectric constant tensor:
#      x y z
#    x 1.749740 0.000000 0.000000 
#    y 0.000000 1.746100 0.000000 
#    z 0.000000 0.000000 1.731390 
# 
# From -- ./inp_files/21088.got.cif
#   From: 2010.03.12/outbox.cif.g09.slc.cpg/sg55_11_cif.got.tgz:21088.got - 2010.04.16 15:19:21.
