data_PCOD8226173
_publ_section_title
;
Structure prediction by ZEFSAII (Michael W. Deem and Ramdas Pophale) SiO2 
 PCOD8226173
Probable space group: P B A M
;
_chemical_formula_sum "Si O2"
_cell_formula_units_Z 64
_cell_length_a 25.186503
_cell_length_b 14.428496
_cell_length_c 9.153448
_cell_angle_alpha 90.000000
_cell_angle_beta 90.000000
_cell_angle_gamma 90.000000
_cell_volume 3326.393739
_symmetry_space_group_name_H-M "P B A M"
_symmetry_group_IT_number 55
_symmetry_cell_setting 'orthorhombic'
loop_
_space_group_symop_operation_xyz
x,y,z
-x,-y,z
1/2+x,1/2-y,-z
1/2-x,1/2+y,-z
-x,-y,-z
x,y,-z
1/2-x,1/2+y,z
1/2+x,1/2-y,z
loop_
_atom_site_type_symbol
_atom_site_label
_atom_site_fract_x
_atom_site_fract_y
_atom_site_fract_z
Si Si1 0.866284 0.088885 0.670887
Si Si2 0.005184 0.607226 0.671825
Si Si3 0.219973 0.647496 0.827361
Si Si4 0.614269 0.797051 0.669992
Si Si5 0.308882 0.781769 0.167176
Si Si6 0.945031 0.955054 0.171154
Si Si7 0.760909 0.051091 0.167039
Si Si8 0.573995 0.244669 0.827304
O O1 0.864923 0.068831 0.500000
O O2 0.893385 0.187995 0.706142
O O3 0.806666 0.091607 0.730994
O O4 0.897466 0.005568 0.746658
O O5 0.996388 0.618748 0.500000
O O6 0.062201 0.647148 0.719971
O O7 0.000000 0.500000 0.719566
O O8 0.960777 0.666351 0.752430
O O9 0.162992 0.660104 0.756589
O O10 0.262077 0.720628 0.761113
O O11 0.244200 0.549751 0.781682
O O12 0.212220 0.658607 0.000000
O O13 0.625861 0.811266 0.500000
O O14 0.292401 0.888414 0.183682
O O15 0.366440 0.765303 0.238346
O O16 0.313496 0.749471 0.000000
O O17 0.946892 0.846905 0.213199
O O18 0.935203 0.968929 0.000000
O O19 0.000000 0.000000 0.222976
O O20 0.781566 0.052745 0.000000
O O21 0.572445 0.227035 0.000000
#
# Coordination Sequence:
#
# PCOD8226173 Si02
#       8
#     8   8   8   8   8   8   8   8
#     4  11  22  36  57  86 117 151 189 236 290 345
#     4  10  23  42  60  81 114 159 200 237 292 348
#     4  10  20  35  59  86 111 148 191 231 286 345
#     4  10  22  39  57  81 117 152 191 242 287 339
#     4   9  18  34  54  81 115 144 176 230 287 334
#     4  10  21  37  59  86 117 153 191 237 293 348
#     4  10  20  35  56  81 111 147 187 233 287 349
#     4  10  21  38  60  87 116 147 193 247 291 340
#
# _framework density 19.240055000000002
#
# number of rings (size 3 to 8) (size 9 to 14) (size 15 to 20)
#    0.000    2.000    1.250    1.875    1.750    4.500 
#    0.000    1.250    0.000    0.000    0.000    0.000 
#    0.000    0.000    0.000    0.000    0.000    0.000 
#
# Total GULP energy -793721.416782 kJ/mol
# GULP energy per Si atom -12401.897137 kJ/mol
# Density = 1.919626 g / cm^3
# Si number density = 19.240055 Si / 1000 Ang^3
#
#
#
# Elastic Constant Matrix: (Units=GPa)
#
#
# Indices 1 2 3 4 5 6 
#
# 1 149.8105 67.4519 39.9009 0.0000 0.0000 0.0000
# 2 67.4519 137.4226 39.3792 0.0000 0.0000 0.0000
# 3 39.9009 39.3792 40.4216 0.0000 0.0000 0.0000
# 4 0.0000 0.0000 0.0000 17.4635 0.0000 0.0000
# 5 0.0000 0.0000 0.0000 0.0000 9.9117 0.0000
# 6 0.0000 0.0000 0.0000 0.0000 0.0000 36.1553
#
#
#
# Elastic Compliance Matrix: (Units=1/GPa)
#
#
# Indices 1 2 3 4 5 6 
#
# 1 0.009787 -0.002824 -0.006910 0.000000 0.000000 0.000000
# 2 -0.002824 0.010910 -0.007841 0.000000 0.000000 0.000000
# 3 -0.006910 -0.007841 0.039199 0.000000 0.000000 0.000000
# 4 0.000000 0.000000 0.000000 0.057262 0.000000 0.000000
# 5 0.000000 0.000000 0.000000 0.000000 0.100891 0.000000
# 6 0.000000 0.000000 0.000000 0.000000 0.000000 0.027658
#
#
# Mechanical properties :
#
#
# Convention : Reuss Voigt Hill
#
# Bulk Modulus (GPa) = 40.41015 69.01318 54.71166
# Shear Modulus (GPa) = 17.29475 24.76763 21.03119
#
# Velocity S-wave (km/s) = 3.00141 3.59178 3.30978
# Velocity P-wave (km/s) = 5.74978 7.29031 6.56539
#
# Compressibility (1/GPa) = 0.02474626
#
# Stress axis : x y z
#
# Youngs Moduli (GPa) = 102.17788 91.66183 25.51082
#
# Poissons Ratio (x) = 0.25882 0.17628
# Poissons Ratio (y) = 0.28851 0.20003
# Poissons Ratio (z) = 0.70604 0.71873
#
# Static dielectric constant tensor:
#      x y z
#    x 3.603840 0.000000 0.000000 
#    y 0.000000 3.665870 0.000000 
#    z 0.000000 0.000000 3.287370 
# 
# 
# High freq. dielectric constant tensor:
#      x y z
#    x 1.758490 0.000000 0.000000 
#    y 0.000000 1.764340 0.000000 
#    z 0.000000 0.000000 1.723250 
# 
# From -- ./inp_files/9644.got.cif
#   From: 2010.03.12/outbox.cif.g09.slc.cpg/sg55_5_cif.got.tgz:9644.got - 2010.04.16 15:19:21.
