data_PCOD8226122
_publ_section_title
;
Structure prediction by ZEFSAII (Michael W. Deem and Ramdas Pophale) SiO2 
 PCOD8226122
Probable space group: P B A M
;
_chemical_formula_sum "Si O2"
_cell_formula_units_Z 56
_cell_length_a 15.326618
_cell_length_b 9.456756
_cell_length_c 19.421398
_cell_angle_alpha 90.000000
_cell_angle_beta 90.000000
_cell_angle_gamma 90.000000
_cell_volume 2814.939111
_symmetry_space_group_name_H-M "P B A M"
_symmetry_group_IT_number 55
_symmetry_cell_setting 'orthorhombic'
loop_
_space_group_symop_operation_xyz
x,y,z
-x,-y,z
1/2+x,1/2-y,-z
1/2-x,1/2+y,-z
-x,-y,-z
x,y,-z
1/2-x,1/2+y,z
1/2+x,1/2-y,z
loop_
_atom_site_type_symbol
_atom_site_label
_atom_site_fract_x
_atom_site_fract_y
_atom_site_fract_z
Si Si1 0.415369 0.084059 0.076325
Si Si2 0.359182 0.761442 0.349045
Si Si3 0.689544 0.920944 0.342454
Si Si4 0.479034 0.656563 0.923223
Si Si5 0.356058 0.720309 0.196020
Si Si6 0.026839 0.662139 0.577663
Si Si7 0.784036 0.488552 0.808408
O O1 0.433179 0.251945 0.072392
O O2 0.334527 0.064807 0.125442
O O3 0.500000 0.000000 0.104170
O O4 0.391698 0.025980 0.000000
O O5 0.284587 0.643126 0.363171
O O6 0.397786 0.742338 0.271520
O O7 0.445690 0.741804 0.395839
O O8 0.316006 0.914699 0.365335
O O9 0.614620 0.822905 0.376736
O O10 0.674121 0.918903 0.260263
O O11 0.500000 0.500000 0.896590
O O12 0.421609 0.739732 0.867042
O O13 0.435111 0.650959 0.000000
O O14 0.314951 0.565181 0.187053
O O15 0.281610 0.841713 0.191967
O O16 0.048494 0.709550 0.500000
O O17 0.000000 0.500000 0.581537
#
# Coordination Sequence:
#
# PCOD8226122 Si02
#       7
#     8   8   8   8   8   8   8
#     4  10  20  35  54  75 101 139 183 224 271 326
#     4   9  19  36  55  81 113 144 184 230 274 325
#     4   9  19  35  55  80 112 145 183 230 275 326
#     4  10  22  38  54  76 107 141 181 229 279 330
#     4  10  21  36  53  79 106 141 179 224 274 327
#     4   9  18  33  57  85 110 147 189 220 270 339
#     4  10  21  34  54  77 106 138 181 224 274 326
#
# _framework density 19.893857000000001
#
# number of rings (size 3 to 8) (size 9 to 14) (size 15 to 20)
#    0.000    2.429    1.429    0.000    4.000    1.714 
#    0.000    0.714    0.000    0.857    0.000    0.000 
#    0.000    0.000    0.000    0.000    0.000    0.000 
#
# Total GULP energy -693916.801239 kJ/mol
# GULP energy per Si atom -12391.371451 kJ/mol
# Density = 1.984858 g / cm^3
# Si number density = 19.893857 Si / 1000 Ang^3
#
#
#
# Elastic Constant Matrix: (Units=GPa)
#
#
# Indices 1 2 3 4 5 6 
#
# 1 59.9668 5.2867 37.4134 0.0000 0.0000 0.0000
# 2 5.2867 61.8539 7.8043 0.0000 0.0000 0.0000
# 3 37.4134 7.8043 95.4307 0.0000 0.0000 0.0000
# 4 0.0000 0.0000 0.0000 20.5150 0.0000 0.0000
# 5 0.0000 0.0000 0.0000 0.0000 30.0667 0.0000
# 6 0.0000 0.0000 0.0000 0.0000 0.0000 27.7487
#
#
#
# Elastic Compliance Matrix: (Units=1/GPa)
#
#
# Indices 1 2 3 4 5 6 
#
# 1 0.022115 -0.000805 -0.008604 0.000000 0.000000 0.000000
# 2 -0.000805 0.016365 -0.001023 0.000000 0.000000 0.000000
# 3 -0.008604 -0.001023 0.013936 0.000000 0.000000 0.000000
# 4 0.000000 0.000000 0.000000 0.048745 0.000000 0.000000
# 5 0.000000 0.000000 0.000000 0.000000 0.033259 0.000000
# 6 0.000000 0.000000 0.000000 0.000000 0.000000 0.036038
#
#
# Mechanical properties :
#
#
# Convention : Reuss Voigt Hill
#
# Bulk Modulus (GPa) = 31.69351 35.36224 33.52787
# Shear Modulus (GPa) = 24.77225 26.78256 25.77740
#
# Velocity S-wave (km/s) = 3.53260 3.67314 3.60355
# Velocity P-wave (km/s) = 5.71007 5.98359 5.84843
#
# Compressibility (1/GPa) = 0.03155220
#
# Stress axis : x y z
#
# Youngs Moduli (GPa) = 45.21794 61.10614 71.75773
#
# Poissons Ratio (x) = 0.04916 0.61743
# Poissons Ratio (y) = 0.03638 0.07340
# Poissons Ratio (z) = 0.38907 0.06251
#
# Static dielectric constant tensor:
#      x y z
#    x 3.302710 0.000000 0.000000 
#    y 0.000000 3.633890 0.000000 
#    z 0.000000 0.000000 3.733410 
# 
# 
# High freq. dielectric constant tensor:
#      x y z
#    x 1.745190 0.000000 0.000000 
#    y 0.000000 1.769000 0.000000 
#    z 0.000000 0.000000 1.779710 
# 
# From -- ./inp_files/22962.got.cif
#   From: 2010.03.12/outbox.cif.g09.slc.cpg/sg55_12_cif.got.tgz:22962.got - 2010.04.16 15:19:21.
