data_PCOD8226143
_publ_section_title
;
Structure prediction by ZEFSAII (Michael W. Deem and Ramdas Pophale) SiO2 
 PCOD8226143
Probable space group: P B A M
;
_chemical_formula_sum "Si O2"
_cell_formula_units_Z 56
_cell_length_a 18.712161
_cell_length_b 17.816886
_cell_length_c 8.842363
_cell_angle_alpha 90.000000
_cell_angle_beta 90.000000
_cell_angle_gamma 90.000000
_cell_volume 2947.976970
_symmetry_space_group_name_H-M "P B A M"
_symmetry_group_IT_number 55
_symmetry_cell_setting 'orthorhombic'
loop_
_space_group_symop_operation_xyz
x,y,z
-x,-y,z
1/2+x,1/2-y,-z
1/2-x,1/2+y,-z
-x,-y,-z
x,y,-z
1/2-x,1/2+y,z
1/2+x,1/2-y,z
loop_
_atom_site_type_symbol
_atom_site_label
_atom_site_fract_x
_atom_site_fract_y
_atom_site_fract_z
Si Si1 0.396285 0.877014 0.673827
Si Si2 0.145831 0.549135 0.673375
Si Si3 0.923277 0.027631 0.676893
Si Si4 0.116282 0.803742 0.677295
Si Si5 0.784732 0.987899 0.830106
Si Si6 0.042463 0.666172 0.177964
Si Si7 0.243077 0.339121 0.829417
O O1 0.411095 0.855895 0.500000
O O2 0.463231 0.856728 0.775816
O O3 0.329051 0.828701 0.732893
O O4 0.381921 0.964942 0.692102
O O5 0.141966 0.575649 0.500000
O O6 0.227247 0.557284 0.730386
O O7 0.096620 0.601314 0.774564
O O8 0.913740 0.013248 0.500000
O O9 0.915542 0.115004 0.717317
O O10 0.863359 0.977713 0.760042
O O11 0.000000 0.000000 0.735381
O O12 0.126119 0.792658 0.500000
O O13 0.060956 0.743888 0.741192
O O14 0.193685 0.791077 0.753602
O O15 0.764995 0.074689 0.827935
O O16 0.784137 0.955728 0.000000
O O17 0.046481 0.677548 0.000000
O O18 0.230543 0.310292 0.000000
#
# Coordination Sequence:
#
# PCOD8226143 Si02
#       7
#     8   8   8   8   8   8   8
#     4  10  20  35  56  81 107 139 181 223 265 318
#     4  10  20  35  55  78 106 141 181 222 266 322
#     4   9  18  34  57  82 106 136 177 224 270 317
#     4  10  20  36  56  77 105 141 179 218 267 326
#     4   9  17  30  51  79 107 134 168 212 261 312
#     4  12  24  36  52  77 111 145 179 223 273 323
#     4   9  17  32  54  78 103 132 170 214 259 310
#
# _framework density 18.996079000000002
#
# number of rings (size 3 to 8) (size 9 to 14) (size 15 to 20)
#    0.000    2.143    0.000    3.857    0.000    7.714 
#    0.000    1.429    0.000    1.714    0.000    0.000 
#    0.000    0.000    0.000    0.000    0.000    0.000 
#
# Total GULP energy -694549.639888 kJ/mol
# GULP energy per Si atom -12402.672141 kJ/mol
# Density = 1.895284 g / cm^3
# Si number density = 18.996079 Si / 1000 Ang^3
#
#
#
# Elastic Constant Matrix: (Units=GPa)
#
#
# Indices 1 2 3 4 5 6 
#
# 1 133.0328 30.0246 27.1570 0.0000 0.0000 0.0000
# 2 30.0246 38.6366 23.9072 0.0000 0.0000 0.0000
# 3 27.1570 23.9072 78.4011 0.0000 0.0000 0.0000
# 4 0.0000 0.0000 0.0000 24.4667 0.0000 0.0000
# 5 0.0000 0.0000 0.0000 0.0000 35.1060 0.0000
# 6 0.0000 0.0000 0.0000 0.0000 0.0000 8.9022
#
#
#
# Elastic Compliance Matrix: (Units=1/GPa)
#
#
# Indices 1 2 3 4 5 6 
#
# 1 0.009213 -0.006391 -0.001243 0.000000 0.000000 0.000000
# 2 -0.006391 0.036334 -0.008866 0.000000 0.000000 0.000000
# 3 -0.001243 -0.008866 0.015889 0.000000 0.000000 0.000000
# 4 0.000000 0.000000 0.000000 0.040872 0.000000 0.000000
# 5 0.000000 0.000000 0.000000 0.000000 0.028485 0.000000
# 6 0.000000 0.000000 0.000000 0.000000 0.000000 0.112331
#
#
# Mechanical properties :
#
#
# Convention : Reuss Voigt Hill
#
# Bulk Modulus (GPa) = 35.16423 45.80533 40.48478
# Shear Modulus (GPa) = 17.50688 24.96043 21.23365
#
# Velocity S-wave (km/s) = 3.03909 3.62882 3.34697
# Velocity P-wave (km/s) = 5.55574 6.45934 6.02451
#
# Compressibility (1/GPa) = 0.02843799
#
# Stress axis : x y z
#
# Youngs Moduli (GPa) = 108.54359 27.52216 62.93719
#
# Poissons Ratio (x) = 0.17588 0.07820
# Poissons Ratio (y) = 0.69365 0.55800
# Poissons Ratio (z) = 0.13487 0.24401
#
# Static dielectric constant tensor:
#      x y z
#    x 3.684670 0.000000 0.000000 
#    y 0.000000 3.193530 0.000000 
#    z 0.000000 0.000000 3.630430 
# 
# 
# High freq. dielectric constant tensor:
#      x y z
#    x 1.750400 0.000000 0.000000 
#    y 0.000000 1.703250 0.000000 
#    z 0.000000 0.000000 1.752770 
# 
# From -- ./inp_files/8895.got.cif
#   From: 2010.03.12/outbox.cif.g09.slc.cpg/sg55_5_cif.got.tgz:8895.got - 2010.04.16 15:19:21.
