data_PCOD8226157
_publ_section_title
;
Structure prediction by ZEFSAII (Michael W. Deem and Ramdas Pophale) SiO2 
 PCOD8226157
Probable space group: P B A M
;
_chemical_formula_sum "Si O2"
_cell_formula_units_Z 64
_cell_length_a 15.015377
_cell_length_b 24.510181
_cell_length_c 9.070680
_cell_angle_alpha 90.000000
_cell_angle_beta 90.000000
_cell_angle_gamma 90.000000
_cell_volume 3338.278805
_symmetry_space_group_name_H-M "P B A M"
_symmetry_group_IT_number 55
_symmetry_cell_setting 'orthorhombic'
loop_
_space_group_symop_operation_xyz
x,y,z
-x,-y,z
1/2+x,1/2-y,-z
1/2-x,1/2+y,-z
-x,-y,-z
x,y,-z
1/2-x,1/2+y,z
1/2+x,1/2-y,z
loop_
_atom_site_type_symbol
_atom_site_label
_atom_site_fract_x
_atom_site_fract_y
_atom_site_fract_z
Si Si1 0.535146 0.780042 0.830600
Si Si2 0.328342 0.644644 0.668129
Si Si3 0.303869 0.357144 0.173149
Si Si4 0.657962 0.053542 0.173517
Si Si5 0.023777 0.832794 0.329746
Si Si6 0.998518 0.612302 0.671194
Si Si7 0.262288 0.237331 0.166597
Si Si8 0.811959 0.442246 0.671088
O O1 0.508566 0.724289 0.751930
O O2 0.485182 0.829852 0.751365
O O3 0.640610 0.789574 0.819350
O O4 0.503468 0.777650 0.000000
O O5 0.300208 0.652618 0.500000
O O6 0.433183 0.631999 0.686721
O O7 0.307770 0.702164 0.743653
O O8 0.270123 0.594563 0.730476
O O9 0.235258 0.404046 0.215246
O O10 0.396821 0.367817 0.257261
O O11 0.263865 0.299284 0.227240
O O12 0.325453 0.354524 0.000000
O O13 0.567753 0.068503 0.257820
O O14 0.690354 0.994983 0.226785
O O15 0.638871 0.052904 0.000000
O O16 0.046090 0.821129 0.500000
O O17 0.975548 0.619282 0.500000
O O18 0.097712 0.590877 0.695503
O O19 0.228295 0.237650 0.000000
O O20 0.800547 0.459080 0.500000
#
# Coordination Sequence:
#
# PCOD8226157 Si02
#       8
#     8   8   8   8   8   8   8   8
#     4  10  20  35  55  83 120 156 189 233 285 342
#     4  10  21  37  57  85 118 150 190 239 288 340
#     4   9  21  41  58  81 116 153 192 241 294 344
#     4  11  24  40  60  85 115 152 198 246 292 348
#     4  10  21  36  58  87 117 153 195 240 291 347
#     4  11  22  37  59  86 117 156 195 236 289 348
#     4   9  18  33  55  81 111 149 188 228 284 342
#     4  10  22  41  60  82 117 154 192 239 289 344
#
# _framework density 19.171555999999999
#
# number of rings (size 3 to 8) (size 9 to 14) (size 15 to 20)
#    0.000    2.000    1.250    2.625    1.750    7.000 
#    0.000    0.625    0.000    3.750    0.000    0.000 
#    0.000    0.000    0.000    0.000    0.000    0.000 
#
# Total GULP energy -793797.350785 kJ/mol
# GULP energy per Si atom -12403.083606 kJ/mol
# Density = 1.912792 g / cm^3
# Si number density = 19.171556 Si / 1000 Ang^3
#
#
#
# Elastic Constant Matrix: (Units=GPa)
#
#
# Indices 1 2 3 4 5 6 
#
# 1 78.9136 30.9262 42.8215 0.0000 0.0000 0.0000
# 2 30.9262 77.6007 42.5871 0.0000 0.0000 0.0000
# 3 42.8215 42.5871 94.1736 0.0000 0.0000 0.0000
# 4 0.0000 0.0000 0.0000 32.7043 0.0000 0.0000
# 5 0.0000 0.0000 0.0000 0.0000 29.3150 0.0000
# 6 0.0000 0.0000 0.0000 0.0000 0.0000 24.5759
#
#
#
# Elastic Compliance Matrix: (Units=1/GPa)
#
#
# Indices 1 2 3 4 5 6 
#
# 1 0.017497 -0.003467 -0.006388 0.000000 0.000000 0.000000
# 2 -0.003467 0.017827 -0.006485 0.000000 0.000000 0.000000
# 3 -0.006388 -0.006485 0.016456 0.000000 0.000000 0.000000
# 4 0.000000 0.000000 0.000000 0.030577 0.000000 0.000000
# 5 0.000000 0.000000 0.000000 0.000000 0.034112 0.000000
# 6 0.000000 0.000000 0.000000 0.000000 0.000000 0.040690
#
#
# Mechanical properties :
#
#
# Convention : Reuss Voigt Hill
#
# Bulk Modulus (GPa) = 52.35777 53.70638 53.03208
# Shear Modulus (GPa) = 25.48305 26.27590 25.87947
#
# Velocity S-wave (km/s) = 3.64979 3.70613 3.67807
# Velocity P-wave (km/s) = 6.71794 6.81089 6.76458
#
# Compressibility (1/GPa) = 0.01909936
#
# Stress axis : x y z
#
# Youngs Moduli (GPa) = 57.15118 56.09328 60.76738
#
# Poissons Ratio (x) = 0.19450 0.38819
# Poissons Ratio (y) = 0.19817 0.39409
# Poissons Ratio (z) = 0.36509 0.36378
#
# Static dielectric constant tensor:
#      x y z
#    x 3.512820 0.000000 0.000000 
#    y 0.000000 3.382780 0.000000 
#    z 0.000000 0.000000 3.529200 
# 
# 
# High freq. dielectric constant tensor:
#      x y z
#    x 1.747830 0.000000 0.000000 
#    y 0.000000 1.733980 0.000000 
#    z 0.000000 0.000000 1.749680 
# 
# From -- ./inp_files/6562.got.cif
#   From: 2010.03.12/outbox.cif.g09.slc.cpg/sg55_4_cif.got.tgz:6562.got - 2010.04.16 15:19:21.
