data_PCOD8226512
_publ_section_title
;
Structure prediction by ZEFSAII (Michael W. Deem and Ramdas Pophale) SiO2 
 PCOD8226512
Probable space group: P B A M
;
_chemical_formula_sum "Si O2"
_cell_formula_units_Z 64
_cell_length_a 23.542815
_cell_length_b 14.829263
_cell_length_c 9.098160
_cell_angle_alpha 90.000000
_cell_angle_beta 90.000000
_cell_angle_gamma 90.000000
_cell_volume 3176.373233
_symmetry_space_group_name_H-M "P B A M"
_symmetry_group_IT_number 55
_symmetry_cell_setting 'orthorhombic'
loop_
_space_group_symop_operation_xyz
x,y,z
-x,-y,z
1/2+x,1/2-y,-z
1/2-x,1/2+y,-z
-x,-y,-z
x,y,-z
1/2-x,1/2+y,z
1/2+x,1/2-y,z
loop_
_atom_site_type_symbol
_atom_site_label
_atom_site_fract_x
_atom_site_fract_y
_atom_site_fract_z
Si Si1 0.460358 0.086259 0.335976
Si Si2 0.969486 0.086339 0.830134
Si Si3 0.525432 0.235260 0.173404
Si Si4 0.755961 0.263758 0.328549
Si Si5 0.170750 0.562862 0.672445
Si Si6 0.126578 0.191721 0.670458
Si Si7 0.863409 0.985261 0.167329
Si Si8 0.252237 0.924001 0.827450
O O1 0.459710 0.128888 0.500000
O O2 0.487599 0.151157 0.217051
O O3 0.395737 0.065951 0.287604
O O4 0.500000 0.000000 0.336011
O O5 0.991454 0.178834 0.759853
O O6 0.901720 0.074903 0.808595
O O7 0.986942 0.090913 0.000000
O O8 0.000000 0.000000 0.756784
O O9 0.587856 0.233785 0.247481
O O10 0.533372 0.234906 0.000000
O O11 0.765775 0.243937 0.500000
O O12 0.798108 0.344314 0.275278
O O13 0.691952 0.291813 0.293752
O O14 0.765837 0.171943 0.239705
O O15 0.181458 0.548801 0.500000
O O16 0.194050 0.472969 0.752961
O O17 0.112765 0.197957 0.500000
O O18 0.111723 0.092647 0.729573
O O19 0.799262 0.008418 0.206016
O O20 0.869311 0.950932 0.000000
O O21 0.263520 0.911165 0.000000
#
# Coordination Sequence:
#
# PCOD8226512 Si02
#       8
#     8   8   8   8   8   8   8   8
#     4  10  24  45  66  88 119 163 212 262 314 364
#     4   9  17  33  56  82 119 162 193 224 288 364
#     4  11  23  39  63  90 122 163 204 253 305 365
#     4  10  23  41  62  87 120 165 205 246 307 374
#     4  10  22  44  67  89 125 168 210 256 309 376
#     4  11  22  38  61  88 121 159 205 254 302 363
#     4  10  20  37  58  85 122 160 197 240 299 365
#     4  11  24  38  62  94 123 156 199 256 313 367
#
# _framework density 20.148765000000001
#
# number of rings (size 3 to 8) (size 9 to 14) (size 15 to 20)
#    0.000    1.750    2.500    1.125    3.500    2.750 
#    0.000    1.875    0.000    0.000    0.000    0.000 
#    0.000    0.000    0.000    0.000    0.000    0.000 
#
# Total GULP energy -793501.160477 kJ/mol
# GULP energy per Si atom -12398.455632 kJ/mol
# Density = 2.010291 g / cm^3
# Si number density = 20.148765 Si / 1000 Ang^3
#
#
#
# Elastic Constant Matrix: (Units=GPa)
#
#
# Indices 1 2 3 4 5 6 
#
# 1 131.6631 33.0723 43.7529 0.0000 0.0000 0.0000
# 2 33.0723 83.9126 33.2669 0.0000 0.0000 0.0000
# 3 43.7529 33.2669 66.7941 0.0000 0.0000 0.0000
# 4 0.0000 0.0000 0.0000 34.0876 0.0000 0.0000
# 5 0.0000 0.0000 0.0000 0.0000 27.3025 0.0000
# 6 0.0000 0.0000 0.0000 0.0000 0.0000 25.2352
#
#
#
# Elastic Compliance Matrix: (Units=1/GPa)
#
#
# Indices 1 2 3 4 5 6 
#
# 1 0.009890 -0.001657 -0.005653 0.000000 0.000000 0.000000
# 2 -0.001657 0.015127 -0.006449 0.000000 0.000000 0.000000
# 3 -0.005653 -0.006449 0.021886 0.000000 0.000000 0.000000
# 4 0.000000 0.000000 0.000000 0.029336 0.000000 0.000000
# 5 0.000000 0.000000 0.000000 0.000000 0.036627 0.000000
# 6 0.000000 0.000000 0.000000 0.000000 0.000000 0.039627
#
#
# Mechanical properties :
#
#
# Convention : Reuss Voigt Hill
#
# Bulk Modulus (GPa) = 51.58438 55.83934 53.71186
# Shear Modulus (GPa) = 26.81371 28.81024 27.81198
#
# Velocity S-wave (km/s) = 3.65195 3.78547 3.71931
# Velocity P-wave (km/s) = 6.59088 6.84690 6.72011
#
# Compressibility (1/GPa) = 0.01938571
#
# Stress axis : x y z
#
# Youngs Moduli (GPa) = 101.11344 66.10843 45.69090
#
# Poissons Ratio (x) = 0.10952 0.25830
# Poissons Ratio (y) = 0.16751 0.29465
# Poissons Ratio (z) = 0.57161 0.42631
#
# Static dielectric constant tensor:
#      x y z
#    x 3.827070 0.000000 0.000000 
#    y 0.000000 4.022870 0.000000 
#    z 0.000000 0.000000 3.489870 
# 
# 
# High freq. dielectric constant tensor:
#      x y z
#    x 1.801610 0.000000 0.000000 
#    y 0.000000 1.783280 0.000000 
#    z 0.000000 0.000000 1.770470 
# 
# From -- ./inp_files/9787.got.cif
#   From: 2010.03.12/outbox.cif.g09.slc.cpg/sg55_5_cif.got.tgz:9787.got - 2010.04.16 15:19:21.
