data_PCOD8226406
_publ_section_title
;
Structure prediction by ZEFSAII (Michael W. Deem and Ramdas Pophale) SiO2 
 PCOD8226406
Probable space group: P B A M
;
_chemical_formula_sum "Si O2"
_cell_formula_units_Z 48
_cell_length_a 18.670396
_cell_length_b 14.771655
_cell_length_c 9.209190
_cell_angle_alpha 90.000000
_cell_angle_beta 90.000000
_cell_angle_gamma 90.000000
_cell_volume 2539.826900
_symmetry_space_group_name_H-M "P B A M"
_symmetry_group_IT_number 55
_symmetry_cell_setting 'orthorhombic'
loop_
_space_group_symop_operation_xyz
x,y,z
-x,-y,z
1/2+x,1/2-y,-z
1/2-x,1/2+y,-z
-x,-y,-z
x,y,-z
1/2-x,1/2+y,z
1/2+x,1/2-y,z
loop_
_atom_site_type_symbol
_atom_site_label
_atom_site_fract_x
_atom_site_fract_y
_atom_site_fract_z
Si Si1 0.783862 0.024661 0.331257
Si Si2 0.924084 0.739285 0.669262
Si Si3 0.688322 0.888309 0.170724
Si Si4 0.023294 0.598532 0.829736
Si Si5 0.759772 0.724991 0.666245
Si Si6 0.066994 0.055639 0.327459
O O1 0.773625 0.000008 0.500000
O O2 0.781777 0.131863 0.306100
O O3 0.720318 0.978144 0.242715
O O4 0.859616 0.988962 0.270487
O O5 0.941826 0.731451 0.500000
O O6 0.842938 0.710548 0.702913
O O7 0.937387 0.841165 0.726041
O O8 0.976553 0.674260 0.753789
O O9 0.605237 0.883745 0.211925
O O10 0.726951 0.799338 0.229077
O O11 0.700406 0.894630 0.000000
O O12 0.000000 0.500000 0.771997
O O13 0.009384 0.605925 0.000000
O O14 0.751275 0.758102 0.500000
O O15 0.066154 0.050956 0.500000
O O16 0.000000 0.000000 0.262150
#
# Coordination Sequence:
#
# PCOD8226406 Si02
#       6
#     8   8   8   8   8   8
#     4  10  20  37  61  84 113 150 192 243 289 339
#     4  10  20  36  59  87 115 145 191 242 284 338
#     4  11  23  38  58  85 118 154 192 238 291 348
#     4  10  23  41  58  80 115 156 193 233 286 345
#     4  10  21  37  60  88 115 149 193 242 293 343
#     4   9  18  33  54  83 116 149 184 229 288 342
#
# _framework density 18.898925999999999
#
# number of rings (size 3 to 8) (size 9 to 14) (size 15 to 20)
#    0.000    2.000    1.667    1.500    2.333    3.000 
#    0.000    0.000    0.000    1.000    0.000    0.000 
#    0.000    0.000    0.000    0.000    0.000    0.000 
#
# Total GULP energy -595386.725201 kJ/mol
# GULP energy per Si atom -12403.890108 kJ/mol
# Density = 1.885591 g / cm^3
# Si number density = 18.898926 Si / 1000 Ang^3
#
#
#
# Elastic Constant Matrix: (Units=GPa)
#
#
# Indices 1 2 3 4 5 6 
#
# 1 92.6361 29.8530 33.7654 0.0000 0.0000 0.0000
# 2 29.8530 86.8913 19.2167 0.0000 0.0000 0.0000
# 3 33.7654 19.2167 42.3713 0.0000 0.0000 0.0000
# 4 0.0000 0.0000 0.0000 12.7857 0.0000 0.0000
# 5 0.0000 0.0000 0.0000 0.0000 23.6318 0.0000
# 6 0.0000 0.0000 0.0000 0.0000 0.0000 42.7312
#
#
#
# Elastic Compliance Matrix: (Units=1/GPa)
#
#
# Indices 1 2 3 4 5 6 
#
# 1 0.015867 -0.002951 -0.011306 0.000000 0.000000 0.000000
# 2 -0.002951 0.013340 -0.003699 0.000000 0.000000 0.000000
# 3 -0.011306 -0.003699 0.034288 0.000000 0.000000 0.000000
# 4 0.000000 0.000000 0.000000 0.078212 0.000000 0.000000
# 5 0.000000 0.000000 0.000000 0.000000 0.042316 0.000000
# 6 0.000000 0.000000 0.000000 0.000000 0.000000 0.023402
#
#
# Mechanical properties :
#
#
# Convention : Reuss Voigt Hill
#
# Bulk Modulus (GPa) = 36.25263 43.06323 39.65793
# Shear Modulus (GPa) = 19.79952 25.10064 22.45008
#
# Velocity S-wave (km/s) = 3.24026 3.64834 3.45034
# Velocity P-wave (km/s) = 5.76394 6.37045 6.07477
#
# Compressibility (1/GPa) = 0.02758421
#
# Stress axis : x y z
#
# Youngs Moduli (GPa) = 63.02459 74.95981 29.16478
#
# Poissons Ratio (x) = 0.22120 0.32973
# Poissons Ratio (y) = 0.18598 0.10787
# Poissons Ratio (z) = 0.71255 0.27726
#
# Static dielectric constant tensor:
#      x y z
#    x 3.684810 0.000000 0.000000 
#    y 0.000000 3.607400 0.000000 
#    z 0.000000 0.000000 3.228530 
# 
# 
# High freq. dielectric constant tensor:
#      x y z
#    x 1.747750 0.000000 0.000000 
#    y 0.000000 1.749640 0.000000 
#    z 0.000000 0.000000 1.707910 
# 
# From -- ./inp_files/5590.got.cif
#   From: 2010.03.12/outbox.cif.g09.slc.cpg/sg55_3_cif.got.tgz:5590.got - 2010.04.16 15:19:21.
