data_PCOD8226732
_publ_section_title
;
Structure prediction by ZEFSAII (Michael W. Deem and Ramdas Pophale) SiO2 
 PCOD8226732
Probable space group: P B A M
;
_chemical_formula_sum "Si O2"
_cell_formula_units_Z 48
_cell_length_a 8.647031
_cell_length_b 18.379899
_cell_length_c 15.586010
_cell_angle_alpha 90.000000
_cell_angle_beta 90.000000
_cell_angle_gamma 90.000000
_cell_volume 2477.108828
_symmetry_space_group_name_H-M "P B A M"
_symmetry_group_IT_number 55
_symmetry_cell_setting 'orthorhombic'
loop_
_space_group_symop_operation_xyz
x,y,z
-x,-y,z
1/2+x,1/2-y,-z
1/2-x,1/2+y,-z
-x,-y,-z
x,y,-z
1/2-x,1/2+y,z
1/2+x,1/2-y,z
loop_
_atom_site_type_symbol
_atom_site_label
_atom_site_fract_x
_atom_site_fract_y
_atom_site_fract_z
Si Si1 0.161555 0.343832 0.595213
Si Si2 0.208634 0.930813 0.750000
Si Si3 0.162053 0.704946 0.154751
Si Si4 0.647639 0.401978 0.750000
Si Si5 0.837947 0.295054 0.654751
Si Si6 0.161555 0.343832 0.095213
O O1 0.192460 0.375468 0.500000
O O2 0.203462 0.404279 0.665158
O O3 0.262935 0.271762 0.605627
O O4 0.981751 0.324228 0.601538
O O5 0.296538 0.904279 0.834842
O O6 0.036089 0.900092 0.750000
O O7 0.214885 0.017272 0.750000
O O8 0.289258 0.640232 0.165369
O O9 0.105578 0.730643 0.250000
O O10 0.237065 0.771762 0.105627
O O11 0.018249 0.675772 0.101538
O O12 0.710742 0.359768 0.665369
O O13 0.192460 0.375468 0.000000
#
# Coordination Sequence:
#
# PCOD8226732 Si02
#       6
#     8   8   8   8   8   8
#     4  12  23  37  63  90 119 152 193 245 292 348
#     4  11  20  43  60  87 119 153 204 233 298 341
#     4  10  20  39  59  87 116 155 194 235 294 338
#     4   9  22  37  68  79 115 169 188 245 286 349
#     4  10  20  39  59  87 116 155 194 235 294 338
#     4  12  23  37  63  90 119 152 193 245 292 348
#
# _framework density 19.377428999999999
#
# number of rings (size 3 to 8) (size 9 to 14) (size 15 to 20)
#    1.000    0.333    3.333    3.000    0.000    2.667 
#    0.000   10.000    0.000    0.000    0.000    0.000 
#    0.000    0.000    0.000    0.000    0.000    0.000 
#
# Total GULP energy -595151.262112 kJ/mol
# GULP energy per Si atom -12398.984627 kJ/mol
# Density = 1.933333 g / cm^3
# Si number density = 19.377429 Si / 1000 Ang^3
#
#
#
# Elastic Constant Matrix: (Units=GPa)
#
#
# Indices 1 2 3 4 5 6 
#
# 1 35.3369 -16.3385 4.5494 0.0000 0.0000 0.0000
# 2 -16.3385 40.2389 12.4239 0.0000 0.0000 0.0000
# 3 4.5494 12.4239 135.9196 0.0000 0.0000 0.0000
# 4 0.0000 0.0000 0.0000 124.2436 0.0000 0.0000
# 5 0.0000 0.0000 0.0000 0.0000 7.5024 0.0000
# 6 0.0000 0.0000 0.0000 0.0000 0.0000 34.8759
#
#
#
# Elastic Compliance Matrix: (Units=1/GPa)
#
#
# Indices 1 2 3 4 5 6 
#
# 1 0.035707 0.015299 -0.002594 0.000000 0.000000 0.000000
# 2 0.015299 0.032128 -0.003449 0.000000 0.000000 0.000000
# 3 -0.002594 -0.003449 0.007759 0.000000 0.000000 0.000000
# 4 0.000000 0.000000 0.000000 0.008049 0.000000 0.000000
# 5 0.000000 0.000000 0.000000 0.000000 0.133290 0.000000
# 6 0.000000 0.000000 0.000000 0.000000 0.000000 0.028673
#
#
# Mechanical properties :
#
#
# Convention : Reuss Voigt Hill
#
# Bulk Modulus (GPa) = 10.62612 23.64057 17.13335
# Shear Modulus (GPa) = 19.34518 47.38174 33.36346
#
# Velocity S-wave (km/s) = 3.16307 4.95026 4.15392
# Velocity P-wave (km/s) = 4.34001 6.70075 5.64516
#
# Compressibility (1/GPa) = 0.09410769
#
# Stress axis : x y z
#
# Youngs Moduli (GPa) = 28.00595 31.12511 128.87685
#
# Poissons Ratio (x) = -0.47618 0.33425
# Poissons Ratio (y) = -0.42846 0.44447
# Poissons Ratio (z) = 0.07264 0.10735
#
# Static dielectric constant tensor:
#      x y z
#    x 3.543590 0.000000 0.000000 
#    y 0.000000 3.413970 0.000000 
#    z 0.000000 0.000000 3.409240 
# 
# 
# High freq. dielectric constant tensor:
#      x y z
#    x 1.767270 0.000000 0.000000 
#    y 0.000000 1.746070 0.000000 
#    z 0.000000 0.000000 1.739380 
# 
# From -- ./inp_files/17353.got.cif
#   From: 2010.03.12/outbox.cif.g09.slc.cpg/sg55_9_cif.got.tgz:17353.got - 2010.04.16 15:19:21.
