data_PCOD8226045
_publ_section_title
;
Structure prediction by ZEFSAII (Michael W. Deem and Ramdas Pophale) SiO2 
 PCOD8226045
Probable space group: P B A M
;
_chemical_formula_sum "Si O2"
_cell_formula_units_Z 64
_cell_length_a 15.132707
_cell_length_b 24.392904
_cell_length_c 8.816215
_cell_angle_alpha 90.000000
_cell_angle_beta 90.000000
_cell_angle_gamma 90.000000
_cell_volume 3254.335342
_symmetry_space_group_name_H-M "P B A M"
_symmetry_group_IT_number 55
_symmetry_cell_setting 'orthorhombic'
loop_
_space_group_symop_operation_xyz
x,y,z
-x,-y,z
1/2+x,1/2-y,-z
1/2-x,1/2+y,-z
-x,-y,-z
x,y,-z
1/2-x,1/2+y,z
1/2+x,1/2-y,z
loop_
_atom_site_type_symbol
_atom_site_label
_atom_site_fract_x
_atom_site_fract_y
_atom_site_fract_z
Si Si1 0.198140 0.149249 0.823923
Si Si2 0.831329 0.434541 0.678754
Si Si3 0.510907 0.103347 0.824068
Si Si4 0.175757 0.867454 0.677376
Si Si5 0.807674 0.549805 0.820671
Si Si6 0.781118 0.254787 0.323744
Si Si7 0.498689 0.657722 0.172998
Si Si8 0.456827 0.221530 0.172402
O O1 0.264169 0.112960 0.726034
O O2 0.207972 0.212777 0.773168
O O3 0.096888 0.131253 0.792761
O O4 0.222264 0.143160 0.000000
O O5 0.831884 0.439825 0.500000
O O6 0.930065 0.422689 0.733751
O O7 0.795610 0.490415 0.749587
O O8 0.601235 0.076996 0.762416
O O9 0.518415 0.168787 0.796921
O O10 0.496304 0.089106 0.000000
O O11 0.186077 0.878379 0.500000
O O12 0.225050 0.914072 0.769747
O O13 0.217217 0.808879 0.725045
O O14 0.071827 0.869075 0.718577
O O15 0.806813 0.544761 0.000000
O O16 0.760083 0.261535 0.500000
O O17 0.875583 0.282117 0.288017
O O18 0.488705 0.723023 0.201567
O O19 0.527327 0.646462 0.000000
O O20 0.419851 0.219773 0.000000
#
# Coordination Sequence:
#
# PCOD8226045 Si02
#       8
#     8   8   8   8   8   8   8   8
#     4  11  22  37  61  89 119 156 203 251 296 351
#     4  12  25  41  61  86 122 159 199 248 302 358
#     4  10  21  37  60  89 120 157 199 244 292 350
#     4  10  22  40  60  87 124 159 196 245 301 356
#     4  11  24  41  64  88 116 157 206 251 297 353
#     4  10  20  34  54  85 121 158 193 234 294 354
#     4   9  20  37  60  88 119 157 199 245 296 351
#     4   9  17  33  56  84 118 154 192 235 286 347
#
# _framework density 19.666073999999998
#
# number of rings (size 3 to 8) (size 9 to 14) (size 15 to 20)
#    0.000    1.750    1.250    3.000    1.750    5.000 
#    0.000    0.625    0.000    3.750    0.000    0.000 
#    0.000    0.000    0.000    0.000    0.000    0.000 
#
# Total GULP energy -793746.292528 kJ/mol
# GULP energy per Si atom -12402.285821 kJ/mol
# Density = 1.962131 g / cm^3
# Si number density = 19.666074 Si / 1000 Ang^3
#
#
#
# Elastic Constant Matrix: (Units=GPa)
#
#
# Indices 1 2 3 4 5 6 
#
# 1 85.6780 21.8720 29.0910 0.0000 0.0000 0.0000
# 2 21.8720 58.9161 20.8777 0.0000 0.0000 0.0000
# 3 29.0910 20.8777 72.3783 0.0000 0.0000 0.0000
# 4 0.0000 0.0000 0.0000 32.1164 0.0000 0.0000
# 5 0.0000 0.0000 0.0000 0.0000 11.5018 0.0000
# 6 0.0000 0.0000 0.0000 0.0000 0.0000 20.6415
#
#
#
# Elastic Compliance Matrix: (Units=1/GPa)
#
#
# Indices 1 2 3 4 5 6 
#
# 1 0.014174 -0.003613 -0.004655 0.000000 0.000000 0.000000
# 2 -0.003613 0.019826 -0.004267 0.000000 0.000000 0.000000
# 3 -0.004655 -0.004267 0.016918 0.000000 0.000000 0.000000
# 4 0.000000 0.000000 0.000000 0.031137 0.000000 0.000000
# 5 0.000000 0.000000 0.000000 0.000000 0.086943 0.000000
# 6 0.000000 0.000000 0.000000 0.000000 0.000000 0.048446
#
#
# Mechanical properties :
#
#
# Convention : Reuss Voigt Hill
#
# Bulk Modulus (GPa) = 38.68502 40.07264 39.37883
# Shear Modulus (GPa) = 19.90993 22.52737 21.21865
#
# Velocity S-wave (km/s) = 3.18527 3.38819 3.28830
# Velocity P-wave (km/s) = 5.76555 5.97722 5.87234
#
# Compressibility (1/GPa) = 0.02584980
#
# Stress axis : x y z
#
# Youngs Moduli (GPa) = 70.54977 50.43759 59.10816
#
# Poissons Ratio (x) = 0.18221 0.27515
# Poissons Ratio (y) = 0.25486 0.25222
# Poissons Ratio (z) = 0.32841 0.21522
#
# Static dielectric constant tensor:
#      x y z
#    x 3.479570 0.000000 0.000000 
#    y 0.000000 3.648830 0.000000 
#    z 0.000000 0.000000 3.551660 
# 
# 
# High freq. dielectric constant tensor:
#      x y z
#    x 1.760460 0.000000 0.000000 
#    y 0.000000 1.762560 0.000000 
#    z 0.000000 0.000000 1.767270 
# 
# From -- ./inp_files/6490.got.cif
#   From: 2010.03.12/outbox.cif.g09.slc.cpg/sg55_4_cif.got.tgz:6490.got - 2010.04.16 15:19:21.
