data_PCOD8226914
_publ_section_title
;
Structure prediction by ZEFSAII (Michael W. Deem and Ramdas Pophale) SiO2 
 PCOD8226914
Probable space group: P B A M
;
_chemical_formula_sum "Si O2"
_cell_formula_units_Z 48
_cell_length_a 13.509180
_cell_length_b 12.531444
_cell_length_c 14.094626
_cell_angle_alpha 90.000000
_cell_angle_beta 90.000000
_cell_angle_gamma 90.000000
_cell_volume 2386.072648
_symmetry_space_group_name_H-M "P B A M"
_symmetry_group_IT_number 55
_symmetry_cell_setting 'orthorhombic'
loop_
_space_group_symop_operation_xyz
x,y,z
-x,-y,z
1/2+x,1/2-y,-z
1/2-x,1/2+y,-z
-x,-y,-z
x,y,-z
1/2-x,1/2+y,z
1/2+x,1/2-y,z
loop_
_atom_site_type_symbol
_atom_site_label
_atom_site_fract_x
_atom_site_fract_y
_atom_site_fract_z
Si Si1 0.106615 0.903031 0.106429
Si Si2 0.021111 0.324052 0.393242
Si Si3 0.055791 0.202403 0.212224
Si Si4 0.085994 0.667974 0.105158
Si Si5 0.659415 0.978139 0.606873
Si Si6 0.739573 0.431655 0.790587
O O1 0.004900 0.900157 0.169748
O O2 0.144697 0.780576 0.100321
O O3 0.192390 0.969974 0.154613
O O4 0.084256 0.946367 0.000000
O O5 0.032343 0.279795 0.500000
O O6 0.106261 0.410067 0.371409
O O7 0.030624 0.223605 0.322610
O O8 0.915216 0.379554 0.380684
O O9 0.021849 0.309690 0.154378
O O10 0.171161 0.174001 0.200133
O O11 0.151722 0.586741 0.165847
O O12 0.068606 0.620625 0.000000
O O13 0.702423 0.978601 0.500000
O O14 0.749361 0.962721 0.680127
#
# Coordination Sequence:
#
# PCOD8226914 Si02
#       6
#     8   8   8   8   8   8
#     4   9  21  39  56  81 118 156 196 241 294 347
#     4   9  18  37  61  80 113 155 191 239 298 347
#     4  10  21  36  56  88 114 154 193 241 289 349
#     4   9  21  38  55  85 117 152 203 243 285 348
#     4   9  19  36  59  86 113 150 198 244 293 354
#     4  12  21  34  64  86 119 157 199 242 296 354
#
# _framework density 20.116737000000001
#
# number of rings (size 3 to 8) (size 9 to 14) (size 15 to 20)
#    1.000    1.333    1.667    2.000    2.333    4.000 
#    0.000    0.833    0.000    3.000    0.000    0.000 
#    0.000    0.000    0.000    0.000    0.000    0.000 
#
# Total GULP energy -594766.211644 kJ/mol
# GULP energy per Si atom -12390.962743 kJ/mol
# Density = 2.007095 g / cm^3
# Si number density = 20.116737 Si / 1000 Ang^3
#
#
#
# Elastic Constant Matrix: (Units=GPa)
#
#
# Indices 1 2 3 4 5 6 
#
# 1 63.7340 17.9629 50.9098 0.0000 0.0000 0.0000
# 2 17.9629 28.3098 34.4875 0.0000 0.0000 0.0000
# 3 50.9098 34.4875 172.4755 0.0000 0.0000 0.0000
# 4 0.0000 0.0000 0.0000 25.6153 0.0000 0.0000
# 5 0.0000 0.0000 0.0000 0.0000 26.3339 0.0000
# 6 0.0000 0.0000 0.0000 0.0000 0.0000 26.1105
#
#
#
# Elastic Compliance Matrix: (Units=1/GPa)
#
#
# Indices 1 2 3 4 5 6 
#
# 1 0.021797 -0.007923 -0.004850 0.000000 0.000000 0.000000
# 2 -0.007923 0.049579 -0.007575 0.000000 0.000000 0.000000
# 3 -0.004850 -0.007575 0.008744 0.000000 0.000000 0.000000
# 4 0.000000 0.000000 0.000000 0.039039 0.000000 0.000000
# 5 0.000000 0.000000 0.000000 0.000000 0.037974 0.000000
# 6 0.000000 0.000000 0.000000 0.000000 0.000000 0.038299
#
#
# Mechanical properties :
#
#
# Convention : Reuss Voigt Hill
#
# Bulk Modulus (GPa) = 25.36453 52.35998 38.86226
# Shear Modulus (GPa) = 20.05877 26.35587 23.20732
#
# Velocity S-wave (km/s) = 3.16114 3.62352 3.40020
# Velocity P-wave (km/s) = 5.09508 6.60236 5.89707
#
# Compressibility (1/GPa) = 0.03942514
#
# Stress axis : x y z
#
# Youngs Moduli (GPa) = 45.87791 20.17002 114.36292
#
# Poissons Ratio (x) = 0.15980 0.55462
# Poissons Ratio (y) = 0.36347 0.86630
# Poissons Ratio (z) = 0.22249 0.15279
#
# Static dielectric constant tensor:
#      x y z
#    x 3.283570 0.000000 0.000000 
#    y 0.000000 3.297780 0.000000 
#    z 0.000000 0.000000 3.801130 
# 
# 
# High freq. dielectric constant tensor:
#      x y z
#    x 1.756990 0.000000 0.000000 
#    y 0.000000 1.761840 0.000000 
#    z 0.000000 0.000000 1.800770 
# 
# From -- ./inp_files/14148.got.cif
#   From: 2010.03.12/outbox.cif.g09.slc.cpg/sg55_8_cif.got.tgz:14148.got - 2010.04.16 15:19:21.
