data_PCOD8226546
_publ_section_title
;
Structure prediction by ZEFSAII (Michael W. Deem and Ramdas Pophale) SiO2 
 PCOD8226546
Probable space group: P B A M
;
_chemical_formula_sum "Si O2"
_cell_formula_units_Z 64
_cell_length_a 10.948442
_cell_length_b 32.206957
_cell_length_c 9.186167
_cell_angle_alpha 90.000000
_cell_angle_beta 90.000000
_cell_angle_gamma 90.000000
_cell_volume 3239.189469
_symmetry_space_group_name_H-M "P B A M"
_symmetry_group_IT_number 55
_symmetry_cell_setting 'orthorhombic'
loop_
_space_group_symop_operation_xyz
x,y,z
-x,-y,z
1/2+x,1/2-y,-z
1/2-x,1/2+y,-z
-x,-y,-z
x,y,-z
1/2-x,1/2+y,z
1/2+x,1/2-y,z
loop_
_atom_site_type_symbol
_atom_site_label
_atom_site_fract_x
_atom_site_fract_y
_atom_site_fract_z
Si Si1 0.726802 0.687320 0.669053
Si Si2 0.395803 0.885360 0.665598
Si Si3 0.886754 0.529150 0.827043
Si Si4 0.738463 0.267721 0.834946
Si Si5 0.865516 0.987762 0.172467
Si Si6 0.819973 0.894957 0.166413
Si Si7 0.995890 0.824672 0.159421
Si Si8 0.640445 0.837171 0.667024
O O1 0.744366 0.697107 0.500000
O O2 0.777706 0.641734 0.709474
O O3 0.790692 0.723995 0.759169
O O4 0.585100 0.686779 0.710589
O O5 0.388356 0.901726 0.500000
O O6 0.410664 0.924672 0.769396
O O7 0.502832 0.852038 0.684463
O O8 0.752218 0.514175 0.770287
O O9 0.000000 0.500000 0.773307
O O10 0.887209 0.530486 0.000000
O O11 0.616909 0.294117 0.828449
O O12 0.843962 0.293659 0.752027
O O13 0.782775 0.260465 0.000000
O O14 0.840146 0.941161 0.223341
O O15 0.871612 0.991697 0.000000
O O16 0.000000 0.000000 0.237036
O O17 0.949709 0.871769 0.177192
O O18 0.722121 0.873975 0.269818
O O19 0.770861 0.893971 0.000000
O O20 0.058585 0.819646 0.000000
O O21 0.677028 0.829633 0.500000
#
# Coordination Sequence:
#
# PCOD8226546 Si02
#       8
#     8   8   8   8   8   8   8   8
#     4  11  24  39  57  82 117 155 192 237 287 343
#     4  10  24  41  57  84 120 157 194 235 289 347
#     4  10  21  37  61  91 117 149 198 248 296 353
#     4  10  22  40  61  87 114 146 193 242 288 341
#     4   9  18  32  55  85 116 149 188 239 294 348
#     4   9  18  35  59  85 114 147 190 239 287 339
#     4   9  20  37  58  85 114 147 189 237 288 343
#     4  10  20  37  60  85 113 151 194 233 284 345
#
# _framework density 19.758029000000001
#
# number of rings (size 3 to 8) (size 9 to 14) (size 15 to 20)
#    0.000    2.250    0.000    2.625    3.500    5.750 
#    0.000    0.625    0.000    0.750    0.000    0.000 
#    0.000    0.000    0.000    0.000    0.000    0.000 
#
# Total GULP energy -793429.188520 kJ/mol
# GULP energy per Si atom -12397.331071 kJ/mol
# Density = 1.971306 g / cm^3
# Si number density = 19.758029 Si / 1000 Ang^3
#
#
#
# Elastic Constant Matrix: (Units=GPa)
#
#
# Indices 1 2 3 4 5 6 
#
# 1 81.7767 23.6991 27.7784 0.0000 0.0000 0.0000
# 2 23.6991 110.4096 45.2832 0.0000 0.0000 0.0000
# 3 27.7784 45.2832 82.9354 0.0000 0.0000 0.0000
# 4 0.0000 0.0000 0.0000 30.0634 0.0000 0.0000
# 5 0.0000 0.0000 0.0000 0.0000 25.8553 0.0000
# 6 0.0000 0.0000 0.0000 0.0000 0.0000 17.5910
#
#
#
# Elastic Compliance Matrix: (Units=1/GPa)
#
#
# Indices 1 2 3 4 5 6 
#
# 1 0.013962 -0.001390 -0.003917 0.000000 0.000000 0.000000
# 2 -0.001390 0.011809 -0.005982 0.000000 0.000000 0.000000
# 3 -0.003917 -0.005982 0.016636 0.000000 0.000000 0.000000
# 4 0.000000 0.000000 0.000000 0.033263 0.000000 0.000000
# 5 0.000000 0.000000 0.000000 0.000000 0.038677 0.000000
# 6 0.000000 0.000000 0.000000 0.000000 0.000000 0.056847
#
#
# Mechanical properties :
#
#
# Convention : Reuss Voigt Hill
#
# Bulk Modulus (GPa) = 50.43500 52.07144 51.25322
# Shear Modulus (GPa) = 24.95223 26.59267 25.77245
#
# Velocity S-wave (km/s) = 3.55757 3.67265 3.61557
# Velocity P-wave (km/s) = 6.51589 6.66306 6.58988
#
# Compressibility (1/GPa) = 0.01982750
#
# Stress axis : x y z
#
# Youngs Moduli (GPa) = 71.62304 84.68021 60.11064
#
# Poissons Ratio (x) = 0.11773 0.23547
# Poissons Ratio (y) = 0.09957 0.35959
# Poissons Ratio (z) = 0.28057 0.50658
#
# Static dielectric constant tensor:
#      x y z
#    x 3.699430 0.000000 0.000000 
#    y 0.000000 3.718750 0.000000 
#    z 0.000000 0.000000 3.518410 
# 
# 
# High freq. dielectric constant tensor:
#      x y z
#    x 1.770640 0.000000 0.000000 
#    y 0.000000 1.780030 0.000000 
#    z 0.000000 0.000000 1.753750 
# 
# From -- ./inp_files/4630.got.cif
#   From: 2010.03.12/outbox.cif.g09.slc.cpg/sg55_3_cif.got.tgz:4630.got - 2010.04.16 15:19:21.
