data_PCOD8226906
_publ_section_title
;
Structure prediction by ZEFSAII (Michael W. Deem and Ramdas Pophale) SiO2 
 PCOD8226906
Probable space group: P B A M
;
_chemical_formula_sum "Si O2"
_cell_formula_units_Z 56
_cell_length_a 20.054287
_cell_length_b 16.042158
_cell_length_c 9.210453
_cell_angle_alpha 90.000000
_cell_angle_beta 90.000000
_cell_angle_gamma 90.000000
_cell_volume 2963.132051
_symmetry_space_group_name_H-M "P B A M"
_symmetry_group_IT_number 55
_symmetry_cell_setting 'orthorhombic'
loop_
_space_group_symop_operation_xyz
x,y,z
-x,-y,z
1/2+x,1/2-y,-z
1/2-x,1/2+y,-z
-x,-y,-z
x,y,-z
1/2-x,1/2+y,z
1/2+x,1/2-y,z
loop_
_atom_site_type_symbol
_atom_site_label
_atom_site_fract_x
_atom_site_fract_y
_atom_site_fract_z
Si Si1 0.860842 0.344603 0.330767
Si Si2 0.768792 0.811582 0.832430
Si Si3 0.117602 0.316864 0.168415
Si Si4 0.555461 0.562582 0.827464
Si Si5 0.697791 0.499874 0.168729
Si Si6 0.827824 0.533977 0.669100
Si Si7 0.972984 0.248933 0.169575
O O1 0.862128 0.324193 0.500000
O O2 0.797350 0.297786 0.262059
O O3 0.856792 0.442768 0.299287
O O4 0.928160 0.313296 0.257660
O O5 0.822281 0.743247 0.784302
O O6 0.801566 0.901259 0.803215
O O7 0.748483 0.801682 0.000000
O O8 0.120431 0.400790 0.262468
O O9 0.049418 0.269440 0.202570
O O10 0.122518 0.341035 0.000000
O O11 0.500000 0.500000 0.762075
O O12 0.627998 0.534828 0.771318
O O13 0.540532 0.655726 0.773302
O O14 0.553021 0.557814 0.000000
O O15 0.756028 0.545770 0.256370
O O16 0.707947 0.521417 0.000000
O O17 0.819702 0.551554 0.500000
O O18 0.955944 0.257419 0.000000
#
# Coordination Sequence:
#
# PCOD8226906 Si02
#       7
#     8   8   8   8   8   8   8
#     4  10  22  39  56  78 110 148 187 229 279 332
#     4   9  18  34  57  82 110 143 182 228 274 325
#     4  10  21  36  56  82 111 143 184 230 279 330
#     4   9  17  31  55  85 115 143 175 218 273 332
#     4   9  17  32  56  83 109 140 179 223 270 326
#     4  10  22  38  55  77 107 145 188 232 277 326
#     4  10  21  36  56  84 114 145 182 228 278 331
#
# _framework density 18.898921000000001
#
# number of rings (size 3 to 8) (size 9 to 14) (size 15 to 20)
#    0.000    2.429    0.000    1.714    2.000    6.857 
#    0.000    2.857    0.000    3.429    0.000    0.000 
#    0.000    0.000    0.000    0.000    0.000    0.000 
#
# Total GULP energy -694627.891119 kJ/mol
# GULP energy per Si atom -12404.069484 kJ/mol
# Density = 1.885591 g / cm^3
# Si number density = 18.898921 Si / 1000 Ang^3
#
#
#
# Elastic Constant Matrix: (Units=GPa)
#
#
# Indices 1 2 3 4 5 6 
#
# 1 80.0443 48.3877 42.3060 0.0000 0.0000 0.0000
# 2 48.3877 89.1619 43.1089 0.0000 0.0000 0.0000
# 3 42.3060 43.1089 65.5116 0.0000 0.0000 0.0000
# 4 0.0000 0.0000 0.0000 22.4319 0.0000 0.0000
# 5 0.0000 0.0000 0.0000 0.0000 5.4303 0.0000
# 6 0.0000 0.0000 0.0000 0.0000 0.0000 35.4964
#
#
#
# Elastic Compliance Matrix: (Units=1/GPa)
#
#
# Indices 1 2 3 4 5 6 
#
# 1 0.021844 -0.007383 -0.009248 0.000000 0.000000 0.000000
# 2 -0.007383 0.018944 -0.007698 0.000000 0.000000 0.000000
# 3 -0.009248 -0.007698 0.026302 0.000000 0.000000 0.000000
# 4 0.000000 0.000000 0.000000 0.044579 0.000000 0.000000
# 5 0.000000 0.000000 0.000000 0.000000 0.184152 0.000000
# 6 0.000000 0.000000 0.000000 0.000000 0.000000 0.028172
#
#
# Mechanical properties :
#
#
# Convention : Reuss Voigt Hill
#
# Bulk Modulus (GPa) = 54.25357 55.81366 55.03361
# Shear Modulus (GPa) = 13.19966 19.39940 16.29953
#
# Velocity S-wave (km/s) = 2.64566 3.20735 2.93995
# Velocity P-wave (km/s) = 6.17270 6.58126 6.38025
#
# Compressibility (1/GPa) = 0.01843197
#
# Stress axis : x y z
#
# Youngs Moduli (GPa) = 45.77846 52.78599 38.01967
#
# Poissons Ratio (x) = 0.38974 0.35161
# Poissons Ratio (y) = 0.33800 0.29268
# Poissons Ratio (z) = 0.42336 0.40635
#
# Static dielectric constant tensor:
#      x y z
#    x 3.512060 0.000000 0.000000 
#    y 0.000000 3.524580 0.000000 
#    z 0.000000 0.000000 3.253560 
# 
# 
# High freq. dielectric constant tensor:
#      x y z
#    x 1.741250 0.000000 0.000000 
#    y 0.000000 1.741200 0.000000 
#    z 0.000000 0.000000 1.710170 
# 
# From -- ./inp_files/5999.got.cif
#   From: 2010.03.12/outbox.cif.g09.slc.cpg/sg55_3_cif.got.tgz:5999.got - 2010.04.16 15:19:21.
