data_PCOD8226071
_publ_section_title
;
Structure prediction by ZEFSAII (Michael W. Deem and Ramdas Pophale) SiO2 
 PCOD8226071
Probable space group: P B A M
;
_chemical_formula_sum "Si O2"
_cell_formula_units_Z 56
_cell_length_a 21.620552
_cell_length_b 14.521704
_cell_length_c 9.434118
_cell_angle_alpha 90.000000
_cell_angle_beta 90.000000
_cell_angle_gamma 90.000000
_cell_volume 2962.004146
_symmetry_space_group_name_H-M "P B A M"
_symmetry_group_IT_number 55
_symmetry_cell_setting 'orthorhombic'
loop_
_space_group_symop_operation_xyz
x,y,z
-x,-y,z
1/2+x,1/2-y,-z
1/2-x,1/2+y,-z
-x,-y,-z
x,y,-z
1/2-x,1/2+y,z
1/2+x,1/2-y,z
loop_
_atom_site_type_symbol
_atom_site_label
_atom_site_fract_x
_atom_site_fract_y
_atom_site_fract_z
Si Si1 0.623399 0.901083 0.336786
Si Si2 0.604043 0.108656 0.336766
Si Si3 0.824456 0.063472 0.834497
Si Si4 0.251448 0.108504 0.166008
Si Si5 0.988286 0.270907 0.666983
Si Si6 0.538230 0.591618 0.833324
Si Si7 0.714651 0.190479 0.837153
O O1 0.642996 0.889687 0.500000
O O2 0.683219 0.888749 0.241899
O O3 0.574560 0.823354 0.291657
O O4 0.591883 0.000516 0.311855
O O5 0.616763 0.130296 0.500000
O O6 0.544959 0.165174 0.282621
O O7 0.664771 0.138006 0.254126
O O8 0.892627 0.077846 0.770080
O O9 0.782991 0.152526 0.799924
O O10 0.790678 0.973337 0.770555
O O11 0.833070 0.046296 0.000000
O O12 0.213627 0.201539 0.195904
O O13 0.265048 0.095068 0.000000
O O14 0.991293 0.251056 0.500000
O O15 0.993566 0.175748 0.751603
O O16 0.500000 0.500000 0.800579
O O17 0.538549 0.614769 0.000000
O O18 0.699083 0.169357 0.000000
#
# Coordination Sequence:
#
# PCOD8226071 Si02
#       7
#     8   8   8   8   8   8   8
#     4  10  20  37  59  84 113 147 188 230 279 337
#     4  10  21  37  57  82 113 146 186 233 283 335
#     4   9  18  35  54  80 114 144 176 223 279 328
#     4  10  20  34  57  83 112 146 181 226 281 334
#     4  10  22  39  58  81 113 152 187 230 285 336
#     4  10  22  39  61  86 113 148 193 236 276 332
#     4  10  20  34  56  82 111 146 185 228 278 333
#
# _framework density 18.906119
#
# number of rings (size 3 to 8) (size 9 to 14) (size 15 to 20)
#    0.000    2.143    1.429    1.286    2.000    4.857 
#    0.000    1.429    0.000    2.571    0.000    0.000 
#    0.000    0.000    0.000    0.000    0.000    0.000 
#
# Total GULP energy -694516.045123 kJ/mol
# GULP energy per Si atom -12402.072234 kJ/mol
# Density = 1.886309 g / cm^3
# Si number density = 18.906119 Si / 1000 Ang^3
#
#
#
# Elastic Constant Matrix: (Units=GPa)
#
#
# Indices 1 2 3 4 5 6 
#
# 1 82.4951 20.4555 29.7917 0.0000 0.0000 0.0000
# 2 20.4555 104.1415 35.7539 0.0000 0.0000 0.0000
# 3 29.7917 35.7539 41.6241 0.0000 0.0000 0.0000
# 4 0.0000 0.0000 0.0000 21.7776 0.0000 0.0000
# 5 0.0000 0.0000 0.0000 0.0000 24.1015 0.0000
# 6 0.0000 0.0000 0.0000 0.0000 0.0000 30.5184
#
#
#
# Elastic Compliance Matrix: (Units=1/GPa)
#
#
# Indices 1 2 3 4 5 6 
#
# 1 0.016444 0.001150 -0.012757 0.000000 0.000000 0.000000
# 2 0.001150 0.013699 -0.012590 0.000000 0.000000 0.000000
# 3 -0.012757 -0.012590 0.043970 0.000000 0.000000 0.000000
# 4 0.000000 0.000000 0.000000 0.045919 0.000000 0.000000
# 5 0.000000 0.000000 0.000000 0.000000 0.041491 0.000000
# 6 0.000000 0.000000 0.000000 0.000000 0.000000 0.032767
#
#
# Mechanical properties :
#
#
# Convention : Reuss Voigt Hill
#
# Bulk Modulus (GPa) = 38.88331 44.47369 41.67850
# Shear Modulus (GPa) = 19.90002 24.76348 22.33175
#
# Velocity S-wave (km/s) = 3.24785 3.62306 3.44058
# Velocity P-wave (km/s) = 5.88863 6.40910 6.15437
#
# Compressibility (1/GPa) = 0.02571798
#
# Stress axis : x y z
#
# Youngs Moduli (GPa) = 60.81316 72.99891 22.74300
#
# Poissons Ratio (x) = -0.08394 0.29013
# Poissons Ratio (y) = -0.06993 0.28633
# Poissons Ratio (z) = 0.77580 0.91905
#
# Static dielectric constant tensor:
#      x y z
#    x 3.532610 0.000000 0.000000 
#    y 0.000000 3.663840 0.000000 
#    z 0.000000 0.000000 3.236040 
# 
# 
# High freq. dielectric constant tensor:
#      x y z
#    x 1.740390 0.000000 0.000000 
#    y 0.000000 1.750810 0.000000 
#    z 0.000000 0.000000 1.709150 
# 
# From -- ./inp_files/6136.got.cif
#   From: 2010.03.12/outbox.cif.g09.slc.cpg/sg55_4_cif.got.tgz:6136.got - 2010.04.16 15:19:21.
