data_PCOD8226401
_publ_section_title
;
Structure prediction by ZEFSAII (Michael W. Deem and Ramdas Pophale) SiO2 
 PCOD8226401
Probable space group: P B A M
;
_chemical_formula_sum "Si O2"
_cell_formula_units_Z 56
_cell_length_a 19.335741
_cell_length_b 16.446911
_cell_length_c 9.020309
_cell_angle_alpha 90.000000
_cell_angle_beta 90.000000
_cell_angle_gamma 90.000000
_cell_volume 2868.577432
_symmetry_space_group_name_H-M "P B A M"
_symmetry_group_IT_number 55
_symmetry_cell_setting 'orthorhombic'
loop_
_space_group_symop_operation_xyz
x,y,z
-x,-y,z
1/2+x,1/2-y,-z
1/2-x,1/2+y,-z
-x,-y,-z
x,y,-z
1/2-x,1/2+y,z
1/2+x,1/2-y,z
loop_
_atom_site_type_symbol
_atom_site_label
_atom_site_fract_x
_atom_site_fract_y
_atom_site_fract_z
Si Si1 0.154092 0.522858 0.827925
Si Si2 0.192216 0.979022 0.828578
Si Si3 0.876848 0.636076 0.673593
Si Si4 0.124614 0.703481 0.824508
Si Si5 0.223036 0.819643 0.325585
Si Si6 0.488670 0.733512 0.675676
Si Si7 0.553688 0.429298 0.171420
O O1 0.235448 0.522014 0.787271
O O2 0.111900 0.452194 0.745516
O O3 0.122275 0.608911 0.778864
O O4 0.143169 0.507483 0.000000
O O5 0.131141 0.041477 0.792752
O O6 0.181496 0.899122 0.728944
O O7 0.189951 0.951868 0.000000
O O8 0.880760 0.623238 0.500000
O O9 0.803033 0.672806 0.720723
O O10 0.935590 0.697230 0.730053
O O11 0.194800 0.740720 0.758431
O O12 0.061069 0.751035 0.753973
O O13 0.124331 0.714892 0.000000
O O14 0.212483 0.809404 0.500000
O O15 0.498573 0.734792 0.500000
O O16 0.459981 0.646650 0.723626
O O17 0.500000 0.500000 0.211713
O O18 0.545581 0.403435 0.000000
#
# Coordination Sequence:
#
# PCOD8226401 Si02
#       7
#     8   8   8   8   8   8   8
#     4   9  20  37  58  84 111 148 196 240 284 339
#     4   9  18  35  57  83 115 149 188 234 287 342
#     4   9  21  40  59  84 117 151 190 237 289 345
#     4  11  23  38  57  84 116 150 194 241 287 339
#     4  10  20  36  59  86 116 151 190 234 287 343
#     4  11  24  40  58  84 117 154 195 236 287 348
#     4  10  21  36  57  85 118 152 189 235 289 345
#
# _framework density 19.521872999999999
#
# number of rings (size 3 to 8) (size 9 to 14) (size 15 to 20)
#    0.000    2.143    0.000    2.143    2.000    5.429 
#    0.000    2.857    0.000    0.000    0.000    0.000 
#    0.000    0.000    0.000    0.000    0.000    0.000 
#
# Total GULP energy -694646.046022 kJ/mol
# GULP energy per Si atom -12404.393679 kJ/mol
# Density = 1.947744 g / cm^3
# Si number density = 19.521873 Si / 1000 Ang^3
#
#
#
# Elastic Constant Matrix: (Units=GPa)
#
#
# Indices 1 2 3 4 5 6 
#
# 1 38.5366 12.2489 15.8830 0.0000 0.0000 0.0000
# 2 12.2489 94.6132 37.6504 0.0000 0.0000 0.0000
# 3 15.8830 37.6504 60.7157 0.0000 0.0000 0.0000
# 4 0.0000 0.0000 0.0000 33.6324 0.0000 0.0000
# 5 0.0000 0.0000 0.0000 0.0000 24.4678 0.0000
# 6 0.0000 0.0000 0.0000 0.0000 0.0000 34.9874
#
#
#
# Elastic Compliance Matrix: (Units=1/GPa)
#
#
# Indices 1 2 3 4 5 6 
#
# 1 0.029154 -0.000982 -0.007018 0.000000 0.000000 0.000000
# 2 -0.000982 0.014065 -0.008465 0.000000 0.000000 0.000000
# 3 -0.007018 -0.008465 0.023555 0.000000 0.000000 0.000000
# 4 0.000000 0.000000 0.000000 0.029733 0.000000 0.000000
# 5 0.000000 0.000000 0.000000 0.000000 0.040870 0.000000
# 6 0.000000 0.000000 0.000000 0.000000 0.000000 0.028582
#
#
# Mechanical properties :
#
#
# Convention : Reuss Voigt Hill
#
# Bulk Modulus (GPa) = 29.54639 36.15891 32.85265
# Shear Modulus (GPa) = 23.79027 27.15639 25.47333
#
# Velocity S-wave (km/s) = 3.49470 3.73376 3.61621
# Velocity P-wave (km/s) = 5.60819 6.09511 5.85671
#
# Compressibility (1/GPa) = 0.03384508
#
# Stress axis : x y z
#
# Youngs Moduli (GPa) = 34.30083 71.09827 42.45328
#
# Poissons Ratio (x) = 0.06980 0.29793
# Poissons Ratio (y) = 0.03367 0.35937
# Poissons Ratio (z) = 0.24072 0.60185
#
# Static dielectric constant tensor:
#      x y z
#    x 3.661040 0.000000 0.000000 
#    y 0.000000 3.599550 0.000000 
#    z 0.000000 0.000000 3.489920 
# 
# 
# High freq. dielectric constant tensor:
#      x y z
#    x 1.764070 0.000000 0.000000 
#    y 0.000000 1.765420 0.000000 
#    z 0.000000 0.000000 1.758340 
# 
# From -- ./inp_files/8673.got.cif
#   From: 2010.03.12/outbox.cif.g09.slc.cpg/sg55_5_cif.got.tgz:8673.got - 2010.04.16 15:19:21.
