data_PCOD8226270
_publ_section_title
;
Structure prediction by ZEFSAII (Michael W. Deem and Ramdas Pophale) SiO2 
 PCOD8226270
Probable space group: P B A M
;
_chemical_formula_sum "Si O2"
_cell_formula_units_Z 56
_cell_length_a 13.711298
_cell_length_b 9.422468
_cell_length_c 20.680675
_cell_angle_alpha 90.000000
_cell_angle_beta 90.000000
_cell_angle_gamma 90.000000
_cell_volume 2671.824640
_symmetry_space_group_name_H-M "P B A M"
_symmetry_group_IT_number 55
_symmetry_cell_setting 'orthorhombic'
loop_
_space_group_symop_operation_xyz
x,y,z
-x,-y,z
1/2+x,1/2-y,-z
1/2-x,1/2+y,-z
-x,-y,-z
x,y,-z
1/2-x,1/2+y,z
1/2+x,1/2-y,z
loop_
_atom_site_type_symbol
_atom_site_label
_atom_site_fract_x
_atom_site_fract_y
_atom_site_fract_z
Si Si1 0.980630 0.843121 0.168156
Si Si2 0.688471 0.164059 0.575622
Si Si3 0.352116 0.333029 0.074909
Si Si4 0.988085 0.844055 0.427200
Si Si5 0.235354 0.104473 0.857212
Si Si6 0.150393 0.649086 0.618257
Si Si7 0.414486 0.107293 0.761687
O O1 0.864157 0.811762 0.163856
O O2 0.035689 0.816352 0.099198
O O3 0.037632 0.757318 0.222711
O O4 0.000000 0.000000 0.192484
O O5 0.710559 0.195959 0.500000
O O6 0.593884 0.243906 0.603160
O O7 0.763712 0.236866 0.624855
O O8 0.683410 0.994593 0.582792
O O9 0.296806 0.454093 0.114863
O O10 0.291178 0.189758 0.086528
O O11 0.355145 0.371410 0.000000
O O12 0.957689 0.879545 0.500000
O O13 0.079734 0.740852 0.426508
O O14 0.000000 0.000000 0.392323
O O15 0.311552 0.081225 0.798357
O O16 0.105566 0.603034 0.686078
O O17 0.500000 0.000000 0.782841
#
# Coordination Sequence:
#
# PCOD8226270 Si02
#       7
#     8   8   8   8   8   8   8
#     4   9  21  39  59  85 118 160 205 251 307 365
#     4  11  23  40  62  89 121 155 198 252 311 371
#     4  10  20  35  59  90 120 157 207 256 305 367
#     4  10  21  39  62  88 120 156 196 249 312 371
#     4  10  21  38  60  85 122 164 197 248 311 358
#     4  12  25  40  63  91 120 160 206 254 306 369
#     4  11  24  41  61  87 122 160 205 252 299 368
#
# _framework density 20.95946
#
# number of rings (size 3 to 8) (size 9 to 14) (size 15 to 20)
#    0.000    1.571    0.000    4.714    0.000   11.714 
#    0.000    0.000    0.000    4.714    0.000    0.000 
#    0.000    0.000    0.000    0.000    0.000    0.000 
#
# Total GULP energy -693849.738123 kJ/mol
# GULP energy per Si atom -12390.173895 kJ/mol
# Density = 2.091176 g / cm^3
# Si number density = 20.959460 Si / 1000 Ang^3
#
#
#
# Elastic Constant Matrix: (Units=GPa)
#
#
# Indices 1 2 3 4 5 6 
#
# 1 156.6463 43.9550 27.5458 0.0000 0.0000 0.0000
# 2 43.9550 139.7541 8.1608 0.0000 0.0000 0.0000
# 3 27.5458 8.1608 73.5410 0.0000 0.0000 0.0000
# 4 0.0000 0.0000 0.0000 21.9845 0.0000 0.0000
# 5 0.0000 0.0000 0.0000 0.0000 22.7221 0.0000
# 6 0.0000 0.0000 0.0000 0.0000 0.0000 39.5746
#
#
#
# Elastic Compliance Matrix: (Units=1/GPa)
#
#
# Indices 1 2 3 4 5 6 
#
# 1 0.007447 -0.002194 -0.002546 0.000000 0.000000 0.000000
# 2 -0.002194 0.007848 -0.000049 0.000000 0.000000 0.000000
# 3 -0.002546 -0.000049 0.014557 0.000000 0.000000 0.000000
# 4 0.000000 0.000000 0.000000 0.045487 0.000000 0.000000
# 5 0.000000 0.000000 0.000000 0.000000 0.044010 0.000000
# 6 0.000000 0.000000 0.000000 0.000000 0.000000 0.025269
#
#
# Mechanical properties :
#
#
# Convention : Reuss Voigt Hill
#
# Bulk Modulus (GPa) = 49.32284 58.80718 54.06501
# Shear Modulus (GPa) = 31.06489 36.20821 33.63655
#
# Velocity S-wave (km/s) = 3.85404 4.16087 4.01039
# Velocity P-wave (km/s) = 6.58699 7.15558 6.87716
#
# Compressibility (1/GPa) = 0.02027458
#
# Stress axis : x y z
#
# Youngs Moduli (GPa) = 134.28188 127.41757 68.69566
#
# Poissons Ratio (x) = 0.27950 0.17490
# Poissons Ratio (y) = 0.29455 0.00339
# Poissons Ratio (z) = 0.34188 0.00628
#
# Static dielectric constant tensor:
#      x y z
#    x 3.848580 0.000000 0.000000 
#    y 0.000000 3.935550 0.000000 
#    z 0.000000 0.000000 3.393970 
# 
# 
# High freq. dielectric constant tensor:
#      x y z
#    x 1.841150 0.000000 0.000000 
#    y 0.000000 1.836170 0.000000 
#    z 0.000000 0.000000 1.792820 
# 
# From -- ./inp_files/22968.got.cif
#   From: 2010.03.12/outbox.cif.g09.slc.cpg/sg55_12_cif.got.tgz:22968.got - 2010.04.16 15:19:21.
