data_PCOD8226782
_publ_section_title
;
Structure prediction by ZEFSAII (Michael W. Deem and Ramdas Pophale) SiO2 
 PCOD8226782
Probable space group: P B A M
;
_chemical_formula_sum "Si O2"
_cell_formula_units_Z 48
_cell_length_a 27.144448
_cell_length_b 9.965524
_cell_length_c 8.829335
_cell_angle_alpha 90.000000
_cell_angle_beta 90.000000
_cell_angle_gamma 90.000000
_cell_volume 2388.411474
_symmetry_space_group_name_H-M "P B A M"
_symmetry_group_IT_number 55
_symmetry_cell_setting 'orthorhombic'
loop_
_space_group_symop_operation_xyz
x,y,z
-x,-y,z
1/2+x,1/2-y,-z
1/2-x,1/2+y,-z
-x,-y,-z
x,y,-z
1/2-x,1/2+y,z
1/2+x,1/2-y,z
loop_
_atom_site_type_symbol
_atom_site_label
_atom_site_fract_x
_atom_site_fract_y
_atom_site_fract_z
Si Si1 0.960109 0.392086 0.178681
Si Si2 0.636031 0.533765 0.826337
Si Si3 0.858527 0.480471 0.678197
Si Si4 0.289859 0.229795 0.824612
Si Si5 0.462944 0.383744 0.323082
Si Si6 0.322032 0.756467 0.176536
O O1 0.907484 0.419186 0.250987
O O2 0.979354 0.247403 0.230984
O O3 0.000000 0.500000 0.234367
O O4 0.953563 0.395047 0.000000
O O5 0.681556 0.632201 0.795728
O O6 0.592306 0.573259 0.715385
O O7 0.652909 0.384708 0.786888
O O8 0.618142 0.546132 0.000000
O O9 0.863836 0.475331 0.500000
O O10 0.812196 0.392058 0.729402
O O11 0.851841 0.633016 0.730397
O O12 0.234342 0.252854 0.768723
O O13 0.290967 0.186433 0.000000
O O14 0.500000 0.500000 0.272680
O O15 0.466656 0.352187 0.500000
O O16 0.325225 0.792762 0.000000
#
# Coordination Sequence:
#
# PCOD8226782 Si02
#       6
#     8   8   8   8   8   8
#     4  11  25  45  69  94 120 160 213 263 307 367
#     4  10  21  38  64  93 122 163 212 260 303 358
#     4  12  25  40  62  94 132 169 203 255 321 378
#     4  10  20  40  67  92 122 165 215 262 307 363
#     4  11  25  43  64  93 128 164 199 249 318 380
#     4  10  22  40  64  94 126 167 216 259 302 362
#
# _framework density 20.09704
#
# number of rings (size 3 to 8) (size 9 to 14) (size 15 to 20)
#    0.000    1.333    1.667    3.500    2.333    6.667 
#    0.000    1.667    0.000    0.000    0.000    0.000 
#    0.000    0.000    0.000    0.000    0.000    0.000 
#
# Total GULP energy -595560.714115 kJ/mol
# GULP energy per Si atom -12407.514877 kJ/mol
# Density = 2.005130 g / cm^3
# Si number density = 20.097040 Si / 1000 Ang^3
#
#
#
# Elastic Constant Matrix: (Units=GPa)
#
#
# Indices 1 2 3 4 5 6 
#
# 1 78.3734 35.1633 27.0936 0.0000 0.0000 0.0000
# 2 35.1633 138.4394 38.6825 0.0000 0.0000 0.0000
# 3 27.0936 38.6825 70.0761 0.0000 0.0000 0.0000
# 4 0.0000 0.0000 0.0000 13.9122 0.0000 0.0000
# 5 0.0000 0.0000 0.0000 0.0000 8.5114 0.0000
# 6 0.0000 0.0000 0.0000 0.0000 0.0000 36.8712
#
#
#
# Elastic Compliance Matrix: (Units=1/GPa)
#
#
# Indices 1 2 3 4 5 6 
#
# 1 0.015525 -0.002679 -0.004524 0.000000 0.000000 0.000000
# 2 -0.002679 0.009003 -0.003934 0.000000 0.000000 0.000000
# 3 -0.004524 -0.003934 0.018191 0.000000 0.000000 0.000000
# 4 0.000000 0.000000 0.000000 0.071879 0.000000 0.000000
# 5 0.000000 0.000000 0.000000 0.000000 0.117489 0.000000
# 6 0.000000 0.000000 0.000000 0.000000 0.000000 0.027121
#
#
# Mechanical properties :
#
#
# Convention : Reuss Voigt Hill
#
# Bulk Modulus (GPa) = 48.91045 54.30754 51.60900
# Shear Modulus (GPa) = 17.34318 24.25560 20.79939
#
# Velocity S-wave (km/s) = 2.94083 3.47785 3.22055
# Velocity P-wave (km/s) = 5.99343 6.57332 6.29006
#
# Compressibility (1/GPa) = 0.02044553
#
# Stress axis : x y z
#
# Youngs Moduli (GPa) = 64.41066 111.07240 54.97334
#
# Poissons Ratio (x) = 0.29761 0.24867
# Poissons Ratio (y) = 0.17259 0.21626
# Poissons Ratio (z) = 0.29136 0.43694
#
# Static dielectric constant tensor:
#      x y z
#    x 3.717770 0.000000 0.000000 
#    y 0.000000 3.917470 0.000000 
#    z 0.000000 0.000000 3.555090 
# 
# 
# High freq. dielectric constant tensor:
#      x y z
#    x 1.791460 0.000000 0.000000 
#    y 0.000000 1.804170 0.000000 
#    z 0.000000 0.000000 1.777180 
# 
# From -- ./inp_files/10545.got.cif
#   From: 2010.03.12/outbox.cif.g09.slc.cpg/sg55_6_cif.got.tgz:10545.got - 2010.04.16 15:19:21.
