data_PCOD8226008
_publ_section_title
;
Structure prediction by ZEFSAII (Michael W. Deem and Ramdas Pophale) SiO2 
 PCOD8226008
Probable space group: P B A M
;
_chemical_formula_sum "Si O2"
_cell_formula_units_Z 64
_cell_length_a 34.968086
_cell_length_b 10.924834
_cell_length_c 9.315919
_cell_angle_alpha 90.000000
_cell_angle_beta 90.000000
_cell_angle_gamma 90.000000
_cell_volume 3558.872359
_symmetry_space_group_name_H-M "P B A M"
_symmetry_group_IT_number 55
_symmetry_cell_setting 'orthorhombic'
loop_
_space_group_symop_operation_xyz
x,y,z
-x,-y,z
1/2+x,1/2-y,-z
1/2-x,1/2+y,-z
-x,-y,-z
x,y,-z
1/2-x,1/2+y,z
1/2+x,1/2-y,z
loop_
_atom_site_type_symbol
_atom_site_label
_atom_site_fract_x
_atom_site_fract_y
_atom_site_fract_z
Si Si1 0.776077 0.860452 0.331588
Si Si2 0.578965 0.243955 0.661921
Si Si3 0.643006 0.626540 0.163947
Si Si4 0.001598 0.142572 0.659621
Si Si5 0.543573 0.982138 0.338930
Si Si6 0.933557 0.258245 0.169928
Si Si7 0.219680 0.859742 0.667816
Si Si8 0.146741 0.154479 0.164846
O O1 0.784542 0.850222 0.500000
O O2 0.746039 0.755055 0.284117
O O3 0.813800 0.824754 0.246336
O O4 0.763721 0.002603 0.293721
O O5 0.589516 0.286546 0.500000
O O6 0.542889 0.320189 0.722008
O O7 0.567985 0.103528 0.664616
O O8 0.614821 0.260201 0.765307
O O9 0.606240 0.699208 0.221243
O O10 0.679465 0.663490 0.256534
O O11 0.632897 0.484434 0.180295
O O12 0.652452 0.660305 0.000000
O O13 0.996581 0.202336 0.500000
O O14 0.968945 0.184918 0.766017
O O15 0.000000 0.000000 0.645946
O O16 0.542998 0.926902 0.500000
O O17 0.500000 0.000000 0.285756
O O18 0.565515 0.894911 0.229184
O O19 0.937247 0.256347 0.000000
O O20 0.212115 0.852929 0.500000
O O21 0.152403 0.192845 0.000000
#
# Coordination Sequence:
#
# PCOD8226008 Si02
#       8
#     8   8   8   8   8   8   8   8
#     4   9  18  35  57  82 111 140 175 220 267 316
#     4  10  20  35  54  76 103 137 176 222 269 310
#     4   9  20  37  54  77 111 144 173 214 265 315
#     4  10  20  34  54  78 103 135 178 223 266 318
#     4  10  20  38  57  72 101 142 183 224 268 320
#     4  11  22  35  53  77 108 140 176 222 270 319
#     4   9  18  34  58  83 108 140 179 221 264 317
#     4  10  20  35  56  80 108 142 177 213 261 319
#
# _framework density 17.983224
#
# number of rings (size 3 to 8) (size 9 to 14) (size 15 to 20)
#    0.000    2.250    1.250    1.500    0.000    3.500 
#    2.250    0.000    0.000    0.000    0.000    0.000 
#    0.000    0.000    0.000    0.000    0.000    0.000 
#
# Total GULP energy -793453.058861 kJ/mol
# GULP energy per Si atom -12397.704045 kJ/mol
# Density = 1.794229 g / cm^3
# Si number density = 17.983224 Si / 1000 Ang^3
#
#
#
# Elastic Constant Matrix: (Units=GPa)
#
#
# Indices 1 2 3 4 5 6 
#
# 1 101.9783 41.1262 50.9186 0.0000 0.0000 0.0000
# 2 41.1262 73.9979 31.0292 0.0000 0.0000 0.0000
# 3 50.9186 31.0292 63.4012 0.0000 0.0000 0.0000
# 4 0.0000 0.0000 0.0000 26.5416 0.0000 0.0000
# 5 0.0000 0.0000 0.0000 0.0000 27.0716 0.0000
# 6 0.0000 0.0000 0.0000 0.0000 0.0000 35.8098
#
#
#
# Elastic Compliance Matrix: (Units=1/GPa)
#
#
# Indices 1 2 3 4 5 6 
#
# 1 0.017662 -0.004867 -0.011803 0.000000 0.000000 0.000000
# 2 -0.004867 0.018344 -0.005069 0.000000 0.000000 0.000000
# 3 -0.011803 -0.005069 0.027732 0.000000 0.000000 0.000000
# 4 0.000000 0.000000 0.000000 0.037677 0.000000 0.000000
# 5 0.000000 0.000000 0.000000 0.000000 0.036939 0.000000
# 6 0.000000 0.000000 0.000000 0.000000 0.000000 0.027925
#
#
# Mechanical properties :
#
#
# Convention : Reuss Voigt Hill
#
# Bulk Modulus (GPa) = 49.35555 53.94725 51.65140
# Shear Modulus (GPa) = 23.09346 25.63815 24.36580
#
# Velocity S-wave (km/s) = 3.58741 3.77990 3.68491
# Velocity P-wave (km/s) = 6.68314 7.00814 6.84756
#
# Compressibility (1/GPa) = 0.02026115
#
# Stress axis : x y z
#
# Youngs Moduli (GPa) = 56.61902 54.51231 36.05878
#
# Poissons Ratio (x) = 0.26530 0.42559
# Poissons Ratio (y) = 0.27556 0.18279
# Poissons Ratio (z) = 0.66826 0.27634
#
# Static dielectric constant tensor:
#      x y z
#    x 3.288920 0.000000 0.000000 
#    y 0.000000 3.480190 0.000000 
#    z 0.000000 0.000000 3.357380 
# 
# 
# High freq. dielectric constant tensor:
#      x y z
#    x 1.691130 0.000000 0.000000 
#    y 0.000000 1.701740 0.000000 
#    z 0.000000 0.000000 1.694200 
# 
# From -- ./inp_files/10809.got.cif
#   From: 2010.03.12/outbox.cif.g09.slc.cpg/sg55_6_cif.got.tgz:10809.got - 2010.04.16 15:19:21.
