data_PCOD8226290
_publ_section_title
;
Structure prediction by ZEFSAII (Michael W. Deem and Ramdas Pophale) SiO2 
 PCOD8226290
Probable space group: P B A M
;
_chemical_formula_sum "Si O2"
_cell_formula_units_Z 48
_cell_length_a 14.226177
_cell_length_b 8.635681
_cell_length_c 19.441286
_cell_angle_alpha 90.000000
_cell_angle_beta 90.000000
_cell_angle_gamma 90.000000
_cell_volume 2388.414990
_symmetry_space_group_name_H-M "P B A M"
_symmetry_group_IT_number 55
_symmetry_cell_setting 'orthorhombic'
loop_
_space_group_symop_operation_xyz
x,y,z
-x,-y,z
1/2+x,1/2-y,-z
1/2-x,1/2+y,-z
-x,-y,-z
x,y,-z
1/2-x,1/2+y,z
1/2+x,1/2-y,z
loop_
_atom_site_type_symbol
_atom_site_label
_atom_site_fract_x
_atom_site_fract_y
_atom_site_fract_z
Si Si1 0.698744 0.853720 0.500000
Si Si2 0.322085 0.380805 0.000000
Si Si3 0.122766 0.236243 0.000000
Si Si4 0.122327 0.337232 0.350266
Si Si5 0.624263 0.182330 0.500000
Si Si6 0.818960 0.314257 0.351662
Si Si7 0.027850 0.822493 0.105329
Si Si8 0.970836 0.177902 0.261338
O O1 0.810955 0.832947 0.500000
O O2 0.651027 0.782323 0.568668
O O3 0.695431 0.038146 0.500000
O O4 0.335864 0.564178 0.000000
O O5 0.372144 0.303668 0.066652
O O6 0.210559 0.352529 0.000000
O O7 0.056839 0.268493 0.933211
O O8 0.070094 0.326752 0.426392
O O9 0.159068 0.508312 0.332625
O O10 0.208053 0.216903 0.344688
O O11 0.046258 0.292296 0.294374
O O12 0.872863 0.198041 0.301107
O O13 0.040064 0.764565 0.183049
O O14 0.000000 0.000000 0.103134
O O15 0.000000 0.000000 0.266757
#
# Coordination Sequence:
#
# PCOD8226290 Si02
#       8
#     4   4   4   8   4   8   8   8
#     4   8  16  31  52  73  98 132 176 225 270 311
#     4   9  17  35  60  82 102 133 171 209 252 302
#     4   9  17  35  60  82 102 133 171 209 252 302
#     4  10  20  36  55  77 104 139 180 225 271 318
#     4   8  16  31  52  73  98 132 176 225 270 311
#     4  10  20  36  55  77 104 139 180 225 271 318
#     4   8  18  36  55  75 107 141 170 205 252 307
#     4  11  22  36  53  78 110 145 178 214 260 315
#
# _framework density 20.097010000000001
#
# number of rings (size 3 to 8) (size 9 to 14) (size 15 to 20)
#    0.000    2.667    0.000    2.500    0.000    3.333 
#    0.000   11.667    0.000    0.000    0.000    0.000 
#    0.000    0.000    0.000    0.000    0.000    0.000 
#
# Total GULP energy -594771.911000 kJ/mol
# GULP energy per Si atom -12391.081479 kJ/mol
# Density = 2.005127 g / cm^3
# Si number density = 20.097010 Si / 1000 Ang^3
#
#
#
# Elastic Constant Matrix: (Units=GPa)
#
#
# Indices 1 2 3 4 5 6 
#
# 1 60.6708 -2.3014 26.1798 0.0000 0.0000 0.0000
# 2 -2.3014 37.6602 19.2881 0.0000 0.0000 0.0000
# 3 26.1798 19.2881 141.1063 0.0000 0.0000 0.0000
# 4 0.0000 0.0000 0.0000 22.9753 0.0000 0.0000
# 5 0.0000 0.0000 0.0000 0.0000 24.2151 0.0000
# 6 0.0000 0.0000 0.0000 0.0000 0.0000 35.1756
#
#
#
# Elastic Compliance Matrix: (Units=1/GPa)
#
#
# Indices 1 2 3 4 5 6 
#
# 1 0.018239 0.003062 -0.003803 0.000000 0.000000 0.000000
# 2 0.003062 0.029066 -0.004541 0.000000 0.000000 0.000000
# 3 -0.003803 -0.004541 0.008413 0.000000 0.000000 0.000000
# 4 0.000000 0.000000 0.000000 0.043525 0.000000 0.000000
# 5 0.000000 0.000000 0.000000 0.000000 0.041297 0.000000
# 6 0.000000 0.000000 0.000000 0.000000 0.000000 0.028429
#
#
# Mechanical properties :
#
#
# Convention : Reuss Voigt Hill
#
# Bulk Modulus (GPa) = 22.14577 36.19670 29.17123
# Shear Modulus (GPa) = 25.69581 29.55792 27.62686
#
# Velocity S-wave (km/s) = 3.57962 3.83921 3.71168
# Velocity P-wave (km/s) = 5.30360 6.14026 5.73720
#
# Compressibility (1/GPa) = 0.04515535
#
# Stress axis : x y z
#
# Youngs Moduli (GPa) = 54.82647 34.40418 118.86216
#
# Poissons Ratio (x) = -0.10535 0.45198
# Poissons Ratio (y) = -0.16789 0.53978
# Poissons Ratio (z) = 0.20848 0.15624
#
# Static dielectric constant tensor:
#      x y z
#    x 3.492520 0.000000 0.000000 
#    y 0.000000 3.440110 0.000000 
#    z 0.000000 0.000000 4.132090 
# 
# 
# High freq. dielectric constant tensor:
#      x y z
#    x 1.769880 0.000000 0.000000 
#    y 0.000000 1.768900 0.000000 
#    z 0.000000 0.000000 1.789910 
# 
# From -- ./inp_files/21552.got.cif
#   From: 2010.03.12/outbox.cif.g09.slc.cpg/sg55_11_cif.got.tgz:21552.got - 2010.04.16 15:19:21.
