data_PCOD8226164
_publ_section_title
;
Structure prediction by ZEFSAII (Michael W. Deem and Ramdas Pophale) SiO2 
 PCOD8226164
Probable space group: P B A M
;
_chemical_formula_sum "Si O2"
_cell_formula_units_Z 64
_cell_length_a 22.576569
_cell_length_b 15.919193
_cell_length_c 9.365832
_cell_angle_alpha 90.000000
_cell_angle_beta 90.000000
_cell_angle_gamma 90.000000
_cell_volume 3366.087131
_symmetry_space_group_name_H-M "P B A M"
_symmetry_group_IT_number 55
_symmetry_cell_setting 'orthorhombic'
loop_
_space_group_symop_operation_xyz
x,y,z
-x,-y,z
1/2+x,1/2-y,-z
1/2-x,1/2+y,-z
-x,-y,-z
x,y,-z
1/2-x,1/2+y,z
1/2+x,1/2-y,z
loop_
_atom_site_type_symbol
_atom_site_label
_atom_site_fract_x
_atom_site_fract_y
_atom_site_fract_z
Si Si1 0.161776 0.038874 0.168948
Si Si2 0.464536 0.916494 0.831513
Si Si3 0.222323 0.892599 0.662396
Si Si4 0.513964 0.755615 0.331840
Si Si5 0.854355 0.271210 0.341059
Si Si6 0.171187 0.423614 0.156965
Si Si7 0.456409 0.577077 0.333328
Si Si8 0.781742 0.390221 0.153851
O O1 0.101347 0.071068 0.236367
O O2 0.212279 0.109769 0.197866
O O3 0.181439 0.953693 0.245654
O O4 0.154171 0.022172 0.000000
O O5 0.485276 0.832990 0.751437
O O6 0.396080 0.928644 0.789062
O O7 0.500000 0.000000 0.780724
O O8 0.473770 0.903452 0.000000
O O9 0.228977 0.926295 0.500000
O O10 0.189894 0.805067 0.665811
O O11 0.287370 0.875282 0.729568
O O12 0.508102 0.772702 0.500000
O O13 0.581664 0.747852 0.277786
O O14 0.485129 0.666252 0.292820
O O15 0.864542 0.303257 0.500000
O O16 0.824990 0.348594 0.263875
O O17 0.198346 0.514751 0.142218
O O18 0.173774 0.379778 0.000000
O O19 0.500000 0.500000 0.295448
O O20 0.438926 0.572729 0.500000
O O21 0.789011 0.345504 0.000000
#
# Coordination Sequence:
#
# PCOD8226164 Si02
#       8
#     8   8   8   8   8   8   8   8
#     4  10  21  37  56  81 111 142 182 227 273 327
#     4  10  21  38  59  81 111 152 190 227 277 335
#     4  10  20  35  56  80 107 141 180 222 272 329
#     4  10  22  38  56  82 113 144 185 234 279 330
#     4  10  21  36  54  78 107 139 178 223 271 325
#     4   9  19  36  55  78 108 140 179 224 271 324
#     4  10  21  39  61  82 112 153 189 228 281 335
#     4   9  19  35  55  78 105 138 175 220 270 321
#
# _framework density 19.013175
#
# number of rings (size 3 to 8) (size 9 to 14) (size 15 to 20)
#    0.000    2.250    0.000    3.000    0.000    9.500 
#    0.000    6.250    0.000    0.000    0.000    0.000 
#    0.000    0.000    0.000    0.000    0.000    0.000 
#
# Total GULP energy -793336.326029 kJ/mol
# GULP energy per Si atom -12395.880094 kJ/mol
# Density = 1.896990 g / cm^3
# Si number density = 19.013175 Si / 1000 Ang^3
#
#
#
# Elastic Constant Matrix: (Units=GPa)
#
#
# Indices 1 2 3 4 5 6 
#
# 1 158.7160 39.1689 55.8778 0.0000 0.0000 0.0000
# 2 39.1689 76.4089 31.7480 0.0000 0.0000 0.0000
# 3 55.8778 31.7480 71.8893 0.0000 0.0000 0.0000
# 4 0.0000 0.0000 0.0000 65.9648 0.0000 0.0000
# 5 0.0000 0.0000 0.0000 0.0000 26.4403 0.0000
# 6 0.0000 0.0000 0.0000 0.0000 0.0000 25.4612
#
#
#
# Elastic Compliance Matrix: (Units=1/GPa)
#
#
# Indices 1 2 3 4 5 6 
#
# 1 0.008935 -0.002076 -0.006028 0.000000 0.000000 0.000000
# 2 -0.002076 0.016511 -0.005678 0.000000 0.000000 0.000000
# 3 -0.006028 -0.005678 0.021104 0.000000 0.000000 0.000000
# 4 0.000000 0.000000 0.000000 0.015160 0.000000 0.000000
# 5 0.000000 0.000000 0.000000 0.000000 0.037821 0.000000
# 6 0.000000 0.000000 0.000000 0.000000 0.000000 0.039275
#
#
# Mechanical properties :
#
#
# Convention : Reuss Voigt Hill
#
# Bulk Modulus (GPa) = 52.67295 62.28927 57.48111
# Shear Modulus (GPa) = 28.95217 35.58790 32.27004
#
# Velocity S-wave (km/s) = 3.90647 4.33107 4.12423
# Velocity P-wave (km/s) = 6.93620 7.60546 7.27853
#
# Compressibility (1/GPa) = 0.01898508
#
# Stress axis : x y z
#
# Youngs Moduli (GPa) = 111.91733 60.56648 47.38502
#
# Poissons Ratio (x) = 0.12571 0.28566
# Poissons Ratio (y) = 0.23229 0.26907
# Poissons Ratio (z) = 0.67469 0.34391
#
# Static dielectric constant tensor:
#      x y z
#    x 4.064490 0.000000 0.000000 
#    y 0.000000 3.317360 0.000000 
#    z 0.000000 0.000000 3.779850 
# 
# 
# High freq. dielectric constant tensor:
#      x y z
#    x 1.757110 0.000000 0.000000 
#    y 0.000000 1.727810 0.000000 
#    z 0.000000 0.000000 1.739770 
# 
# From -- ./inp_files/9740.got.cif
#   From: 2010.03.12/outbox.cif.g09.slc.cpg/sg55_5_cif.got.tgz:9740.got - 2010.04.16 15:19:21.
