data_PCOD8226939
_publ_section_title
;
Structure prediction by ZEFSAII (Michael W. Deem and Ramdas Pophale) SiO2 
 PCOD8226939
Probable space group: P B A M
;
_chemical_formula_sum "Si O2"
_cell_formula_units_Z 40
_cell_length_a 8.385870
_cell_length_b 19.727450
_cell_length_c 12.150612
_cell_angle_alpha 90.000000
_cell_angle_beta 90.000000
_cell_angle_gamma 90.000000
_cell_volume 2010.097993
_symmetry_space_group_name_H-M "P B A M"
_symmetry_group_IT_number 55
_symmetry_cell_setting 'orthorhombic'
loop_
_space_group_symop_operation_xyz
x,y,z
-x,-y,z
1/2+x,1/2-y,-z
1/2-x,1/2+y,-z
-x,-y,-z
x,y,-z
1/2-x,1/2+y,z
1/2+x,1/2-y,z
loop_
_atom_site_type_symbol
_atom_site_label
_atom_site_fract_x
_atom_site_fract_y
_atom_site_fract_z
Si Si1 0.278997 0.220051 0.124730
Si Si2 0.577696 0.926771 0.371489
Si Si3 0.648584 0.415971 0.794647
Si Si4 0.401832 0.837488 0.207951
Si Si5 0.179766 0.944488 0.122279
O O1 0.168447 0.155592 0.146409
O O2 0.460792 0.198779 0.139007
O O3 0.237134 0.280360 0.212142
O O4 0.253576 0.246264 0.000000
O O5 0.594268 0.914298 0.500000
O O6 0.756173 0.919784 0.321207
O O7 0.465900 0.865830 0.324612
O O8 0.500000 0.000000 0.345645
O O9 0.722860 0.476114 0.868933
O O10 0.456784 0.426573 0.786275
O O11 0.339636 0.902715 0.142343
O O12 0.113317 0.929394 0.000000
#
# Coordination Sequence:
#
# PCOD8226939 Si02
#       5
#     8   8   8   8   8
#     4  11  21  35  55  85 125 164 198 244 307 376
#     4  10  21  43  66  87 118 161 213 273 317 353
#     4  10  21  36  58  90 122 162 208 252 306 370
#     4  11  23  38  60  91 122 168 211 253 307 375
#     4  11  20  35  57  89 131 166 203 251 306 373
#
# _framework density 19.899526000000002
#
# number of rings (size 3 to 8) (size 9 to 14) (size 15 to 20)
#    0.000    1.400    2.000    5.400    0.000    0.000 
#    0.000   10.000    0.000    0.000    0.000    0.000 
#    0.000    0.000    0.000    0.000    0.000    0.000 
#
# Total GULP energy -495723.771133 kJ/mol
# GULP energy per Si atom -12393.094278 kJ/mol
# Density = 1.985423 g / cm^3
# Si number density = 19.899526 Si / 1000 Ang^3
#
#
#
# Elastic Constant Matrix: (Units=GPa)
#
#
# Indices 1 2 3 4 5 6 
#
# 1 68.5767 28.7286 52.7612 0.0000 0.0000 0.0000
# 2 28.7286 109.2963 42.3080 0.0000 0.0000 0.0000
# 3 52.7612 42.3080 126.5997 0.0000 0.0000 0.0000
# 4 0.0000 0.0000 0.0000 26.2405 0.0000 0.0000
# 5 0.0000 0.0000 0.0000 0.0000 25.7990 0.0000
# 6 0.0000 0.0000 0.0000 0.0000 0.0000 44.0554
#
#
#
# Elastic Compliance Matrix: (Units=1/GPa)
#
#
# Indices 1 2 3 4 5 6 
#
# 1 0.022078 -0.002575 -0.008341 0.000000 0.000000 0.000000
# 2 -0.002575 0.010809 -0.002539 0.000000 0.000000 0.000000
# 3 -0.008341 -0.002539 0.012224 0.000000 0.000000 0.000000
# 4 0.000000 0.000000 0.000000 0.038109 0.000000 0.000000
# 5 0.000000 0.000000 0.000000 0.000000 0.038761 0.000000
# 6 0.000000 0.000000 0.000000 0.000000 0.000000 0.022699
#
#
# Mechanical properties :
#
#
# Convention : Reuss Voigt Hill
#
# Bulk Modulus (GPa) = 54.94076 61.34094 58.14085
# Shear Modulus (GPa) = 28.14431 31.26397 29.70414
#
# Velocity S-wave (km/s) = 3.76483 3.96800 3.86775
# Velocity P-wave (km/s) = 6.82404 7.20317 7.01617
#
# Compressibility (1/GPa) = 0.01820142
#
# Stress axis : x y z
#
# Youngs Moduli (GPa) = 45.29412 92.51456 81.80921
#
# Poissons Ratio (x) = 0.23818 0.68235
# Poissons Ratio (y) = 0.11661 0.20774
# Poissons Ratio (z) = 0.37779 0.23492
#
# Static dielectric constant tensor:
#      x y z
#    x 3.678170 0.000000 0.000000 
#    y 0.000000 3.982830 0.000000 
#    z 0.000000 0.000000 3.272850 
# 
# 
# High freq. dielectric constant tensor:
#      x y z
#    x 1.781940 0.000000 0.000000 
#    y 0.000000 1.798060 0.000000 
#    z 0.000000 0.000000 1.732780 
# 
# From -- ./inp_files/11866.got.cif
#   From: 2010.03.12/outbox.cif.g09.slc.cpg/sg55_6_cif.got.tgz:11866.got - 2010.04.16 15:19:21.
