data_PCOD8226115
_publ_section_title
;
Structure prediction by ZEFSAII (Michael W. Deem and Ramdas Pophale) SiO2 
 PCOD8226115
Probable space group: P B A M
;
_chemical_formula_sum "Si O2"
_cell_formula_units_Z 48
_cell_length_a 10.340731
_cell_length_b 29.400739
_cell_length_c 8.674754
_cell_angle_alpha 90.000000
_cell_angle_beta 90.000000
_cell_angle_gamma 90.000000
_cell_volume 2637.343240
_symmetry_space_group_name_H-M "P B A M"
_symmetry_group_IT_number 55
_symmetry_cell_setting 'orthorhombic'
loop_
_space_group_symop_operation_xyz
x,y,z
-x,-y,z
1/2+x,1/2-y,-z
1/2-x,1/2+y,-z
-x,-y,-z
x,y,-z
1/2-x,1/2+y,z
1/2+x,1/2-y,z
loop_
_atom_site_type_symbol
_atom_site_label
_atom_site_fract_x
_atom_site_fract_y
_atom_site_fract_z
Si Si1 0.622288 0.026770 0.318499
Si Si2 0.870577 0.974912 0.682764
Si Si3 0.503078 0.883057 0.319719
Si Si4 0.290983 0.711565 0.683679
Si Si5 0.277638 0.614941 0.181025
Si Si6 0.500806 0.781629 0.318551
O O1 0.624596 0.019295 0.500000
O O2 0.608794 0.080525 0.278669
O O3 0.500000 0.000000 0.247261
O O4 0.754057 0.006152 0.250695
O O5 0.862890 0.968467 0.500000
O O6 0.869310 0.925526 0.760793
O O7 0.000000 0.000000 0.734444
O O8 0.540153 0.885006 0.500000
O O9 0.631149 0.896626 0.227588
O O10 0.454800 0.832673 0.274099
O O11 0.292278 0.711353 0.500000
O O12 0.326355 0.661473 0.741487
O O13 0.147390 0.726222 0.743166
O O14 0.397960 0.746244 0.753606
O O15 0.289356 0.620353 0.000000
O O16 0.499944 0.774844 0.500000
#
# Coordination Sequence:
#
# PCOD8226115 Si02
#       6
#     8   8   8   8   8   8
#     4   9  15  27  52  79 102 127 160 204 251 294
#     4  10  20  35  53  77 104 133 168 208 255 305
#     4   9  16  31  54  77 101 129 166 212 253 293
#     4   9  17  33  53  76 100 129 165 210 257 301
#     4  11  21  33  51  74 101 139 175 204 248 302
#     4   8  15  28  50  75  99 125 161 207 254 294
#
# _framework density 18.200133000000001
#
# number of rings (size 3 to 8) (size 9 to 14) (size 15 to 20)
#    0.000    2.667    1.667    2.500    0.000    0.333 
#    3.000    5.000    0.000    0.000    0.000    0.000 
#    0.000    0.000    0.000    0.000    0.000    0.000 
#
# Total GULP energy -594990.166852 kJ/mol
# GULP energy per Si atom -12395.628476 kJ/mol
# Density = 1.815871 g / cm^3
# Si number density = 18.200133 Si / 1000 Ang^3
#
#
#
# Elastic Constant Matrix: (Units=GPa)
#
#
# Indices 1 2 3 4 5 6 
#
# 1 128.5302 95.1371 17.2164 0.0000 0.0000 0.0000
# 2 95.1371 162.9481 19.9040 0.0000 0.0000 0.0000
# 3 17.2164 19.9040 25.8373 0.0000 0.0000 0.0000
# 4 0.0000 0.0000 0.0000 7.0257 0.0000 0.0000
# 5 0.0000 0.0000 0.0000 0.0000 5.9039 0.0000
# 6 0.0000 0.0000 0.0000 0.0000 0.0000 37.3598
#
#
#
# Elastic Compliance Matrix: (Units=1/GPa)
#
#
# Indices 1 2 3 4 5 6 
#
# 1 0.013957 -0.007741 -0.003337 0.000000 0.000000 0.000000
# 2 -0.007741 0.011068 -0.003368 0.000000 0.000000 0.000000
# 3 -0.003337 -0.003368 0.043522 0.000000 0.000000 0.000000
# 4 0.000000 0.000000 0.000000 0.142335 0.000000 0.000000
# 5 0.000000 0.000000 0.000000 0.000000 0.169380 0.000000
# 6 0.000000 0.000000 0.000000 0.000000 0.000000 0.026767
#
#
# Mechanical properties :
#
#
# Convention : Reuss Voigt Hill
#
# Bulk Modulus (GPa) = 25.21753 64.64785 44.93269
# Shear Modulus (GPa) = 11.13241 22.39508 16.76375
#
# Velocity S-wave (km/s) = 2.47587 3.51164 3.03822
# Velocity P-wave (km/s) = 4.69670 7.21386 6.08682
#
# Compressibility (1/GPa) = 0.03965496
#
# Stress axis : x y z
#
# Youngs Moduli (GPa) = 71.64681 90.34935 22.97704
#
# Poissons Ratio (x) = 0.69943 0.07667
# Poissons Ratio (y) = 0.55465 0.07739
# Poissons Ratio (z) = 0.23906 0.30430
#
# Static dielectric constant tensor:
#      x y z
#    x 3.502330 0.000000 0.000000 
#    y 0.000000 3.619690 0.000000 
#    z 0.000000 0.000000 2.890690 
# 
# 
# High freq. dielectric constant tensor:
#      x y z
#    x 1.690290 0.000000 0.000000 
#    y 0.000000 1.719280 0.000000 
#    z 0.000000 0.000000 1.659240 
# 
# From -- ./inp_files/2794.got.cif
#   From: 2010.03.12/outbox.cif.g09.slc.cpg/sg55_2_cif.got.tgz:2794.got - 2010.04.16 15:19:21.
