data_PCOD8226861
_publ_section_title
;
Structure prediction by ZEFSAII (Michael W. Deem and Ramdas Pophale) SiO2 
 PCOD8226861
Probable space group: P B A M
;
_chemical_formula_sum "Si O2"
_cell_formula_units_Z 64
_cell_length_a 33.765573
_cell_length_b 11.519910
_cell_length_c 8.938464
_cell_angle_alpha 90.000000
_cell_angle_beta 90.000000
_cell_angle_gamma 90.000000
_cell_volume 3476.851209
_symmetry_space_group_name_H-M "P B A M"
_symmetry_group_IT_number 55
_symmetry_cell_setting 'orthorhombic'
loop_
_space_group_symop_operation_xyz
x,y,z
-x,-y,z
1/2+x,1/2-y,-z
1/2-x,1/2+y,-z
-x,-y,-z
x,y,-z
1/2-x,1/2+y,z
1/2+x,1/2-y,z
loop_
_atom_site_type_symbol
_atom_site_label
_atom_site_fract_x
_atom_site_fract_y
_atom_site_fract_z
Si Si1 0.943232 0.907518 0.677550
Si Si2 0.528063 0.656693 0.676315
Si Si3 0.902565 0.307925 0.323815
Si Si4 0.300521 0.558455 0.177399
Si Si5 0.629220 0.278932 0.177233
Si Si6 0.140793 0.464563 0.322584
Si Si7 0.712042 0.913927 0.173915
Si Si8 0.666440 0.682753 0.173162
O O1 0.935326 0.897133 0.500000
O O2 0.906393 0.859053 0.768345
O O3 0.982436 0.834566 0.728430
O O4 0.950284 0.039520 0.732248
O O5 0.527323 0.645713 0.500000
O O6 0.552972 0.770908 0.727589
O O7 0.898282 0.302276 0.500000
O O8 0.890642 0.436626 0.268510
O O9 0.873524 0.211184 0.259145
O O10 0.329483 0.662102 0.228591
O O11 0.256363 0.578432 0.239859
O O12 0.316449 0.436342 0.240551
O O13 0.298616 0.553244 0.000000
O O14 0.625605 0.154035 0.252542
O O15 0.627103 0.265091 0.000000
O O16 0.142036 0.452923 0.500000
O O17 0.184386 0.496967 0.263984
O O18 0.698960 0.781979 0.199334
O O19 0.709861 0.949718 0.000000
O O20 0.655630 0.669426 0.000000
#
# Coordination Sequence:
#
# PCOD8226861 Si02
#       8
#     8   8   8   8   8   8   8   8
#     4   9  17  32  54  80 108 134 168 211 259 312
#     4   8  15  30  55  81 103 134 170 208 257 317
#     4   9  17  32  53  74  98 130 170 209 252 303
#     4   9  19  32  51  76  98 129 170 207 247 303
#     4  11  22  35  52  75 105 140 176 211 255 309
#     4  10  21  36  52  72 101 136 171 212 256 301
#     4   9  18  33  54  74  95 127 166 206 248 296
#     4   9  17  30  49  74 100 124 160 207 250 296
#
# _framework density 18.40746
#
# number of rings (size 3 to 8) (size 9 to 14) (size 15 to 20)
#    0.000    2.750    0.000    2.250    1.750    0.500 
#    0.000    5.000    0.000    3.750    0.000    0.000 
#    0.000    0.000    0.000    0.000    0.000    0.000 
#
# Total GULP energy -793367.180909 kJ/mol
# GULP energy per Si atom -12396.362202 kJ/mol
# Density = 1.836556 g / cm^3
# Si number density = 18.407460 Si / 1000 Ang^3
#
#
#
# Elastic Constant Matrix: (Units=GPa)
#
#
# Indices 1 2 3 4 5 6 
#
# 1 95.4733 24.3496 22.1044 0.0000 0.0000 0.0000
# 2 24.3496 72.7207 19.5447 0.0000 0.0000 0.0000
# 3 22.1044 19.5447 30.1050 0.0000 0.0000 0.0000
# 4 0.0000 0.0000 0.0000 22.3074 0.0000 0.0000
# 5 0.0000 0.0000 0.0000 0.0000 25.9792 0.0000
# 6 0.0000 0.0000 0.0000 0.0000 0.0000 24.1667
#
#
#
# Elastic Compliance Matrix: (Units=1/GPa)
#
#
# Indices 1 2 3 4 5 6 
#
# 1 0.012890 -0.002147 -0.008071 0.000000 0.000000 0.000000
# 2 -0.002147 0.017015 -0.009470 0.000000 0.000000 0.000000
# 3 -0.008071 -0.009470 0.045291 0.000000 0.000000 0.000000
# 4 0.000000 0.000000 0.000000 0.044828 0.000000 0.000000
# 5 0.000000 0.000000 0.000000 0.000000 0.038492 0.000000
# 6 0.000000 0.000000 0.000000 0.000000 0.000000 0.041379
#
#
# Mechanical properties :
#
#
# Convention : Reuss Voigt Hill
#
# Bulk Modulus (GPa) = 27.91667 36.69960 32.30814
# Shear Modulus (GPa) = 19.90343 23.31069 21.60706
#
# Velocity S-wave (km/s) = 3.29183 3.56247 3.42982
# Velocity P-wave (km/s) = 5.44492 6.07472 5.76842
#
# Compressibility (1/GPa) = 0.03582089
#
# Stress axis : x y z
#
# Youngs Moduli (GPa) = 77.57774 58.77028 22.07932
#
# Poissons Ratio (x) = 0.12618 0.17820
# Poissons Ratio (y) = 0.16656 0.20910
# Poissons Ratio (z) = 0.62611 0.55657
#
# Static dielectric constant tensor:
#      x y z
#    x 3.794280 0.000000 0.000000 
#    y 0.000000 3.513990 0.000000 
#    z 0.000000 0.000000 3.115620 
# 
# 
# High freq. dielectric constant tensor:
#      x y z
#    x 1.719200 0.000000 0.000000 
#    y 0.000000 1.713800 0.000000 
#    z 0.000000 0.000000 1.685860 
# 
# From -- ./inp_files/10832.got.cif
#   From: 2010.03.12/outbox.cif.g09.slc.cpg/sg55_6_cif.got.tgz:10832.got - 2010.04.16 15:19:21.
