data_PCOD8226127
_publ_section_title
;
Structure prediction by ZEFSAII (Michael W. Deem and Ramdas Pophale) SiO2 
 PCOD8226127
Probable space group: P B A M
;
_chemical_formula_sum "Si O2"
_cell_formula_units_Z 64
_cell_length_a 27.740362
_cell_length_b 13.115284
_cell_length_c 8.828222
_cell_angle_alpha 90.000000
_cell_angle_beta 90.000000
_cell_angle_gamma 90.000000
_cell_volume 3211.907793
_symmetry_space_group_name_H-M "P B A M"
_symmetry_group_IT_number 55
_symmetry_cell_setting 'orthorhombic'
loop_
_space_group_symop_operation_xyz
x,y,z
-x,-y,z
1/2+x,1/2-y,-z
1/2-x,1/2+y,-z
-x,-y,-z
x,y,-z
1/2-x,1/2+y,z
1/2+x,1/2-y,z
loop_
_atom_site_type_symbol
_atom_site_label
_atom_site_fract_x
_atom_site_fract_y
_atom_site_fract_z
Si Si1 0.124264 0.377497 0.674980
Si Si2 0.948493 0.458657 0.319478
Si Si3 0.519549 0.605077 0.828815
Si Si4 0.081005 0.199684 0.166750
Si Si5 0.169762 0.070673 0.825418
Si Si6 0.407801 0.256363 0.322500
Si Si7 0.716702 0.235605 0.319371
Si Si8 0.184855 0.839822 0.179581
O O1 0.130200 0.398921 0.500000
O O2 0.096421 0.474401 0.747095
O O3 0.090516 0.280047 0.701472
O O4 0.177188 0.348290 0.739964
O O5 0.949979 0.467402 0.500000
O O6 0.937298 0.343504 0.266945
O O7 0.000000 0.500000 0.254722
O O8 0.500000 0.500000 0.760605
O O9 0.475396 0.682046 0.828983
O O10 0.561221 0.644884 0.720307
O O11 0.539991 0.589771 0.000000
O O12 0.112969 0.097736 0.194815
O O13 0.095295 0.243382 0.000000
O O14 0.202139 0.150581 0.731787
O O15 0.177528 0.956166 0.762733
O O16 0.185922 0.076955 0.000000
O O17 0.398092 0.252467 0.500000
O O18 0.356820 0.265010 0.239287
O O19 0.720848 0.234975 0.500000
O O20 0.766200 0.204422 0.244620
O O21 0.185380 0.835313 0.000000
#
# Coordination Sequence:
#
# PCOD8226127 Si02
#       8
#     8   8   8   8   8   8   8   8
#     4   9  18  34  55  78 106 142 183 227 278 333
#     4   9  18  34  56  82 116 155 188 223 276 342
#     4  10  20  35  54  76 107 146 181 217 270 333
#     4   9  17  31  53  79 105 135 177 225 268 317
#     4   9  19  37  59  81 108 146 187 228 279 338
#     4  11  23  37  56  84 114 146 188 236 285 338
#     4  10  21  36  57  86 115 145 189 245 297 346
#     4  11  23  40  60  81 112 152 192 235 288 350
#
# _framework density 19.925851000000002
#
# number of rings (size 3 to 8) (size 9 to 14) (size 15 to 20)
#    0.000    2.250    0.000    2.625    0.000    6.250 
#    0.000    5.000    0.000    3.375    0.000    0.000 
#    0.000    0.000    0.000    0.000    0.000    0.000 
#
# Total GULP energy -793302.213793 kJ/mol
# GULP energy per Si atom -12395.347091 kJ/mol
# Density = 1.988050 g / cm^3
# Si number density = 19.925851 Si / 1000 Ang^3
#
#
#
# Elastic Constant Matrix: (Units=GPa)
#
#
# Indices 1 2 3 4 5 6 
#
# 1 129.1756 51.9570 35.3408 0.0000 0.0000 0.0000
# 2 51.9570 101.4259 26.0871 0.0000 0.0000 0.0000
# 3 35.3408 26.0871 45.9823 0.0000 0.0000 0.0000
# 4 0.0000 0.0000 0.0000 26.4537 0.0000 0.0000
# 5 0.0000 0.0000 0.0000 0.0000 28.1738 0.0000
# 6 0.0000 0.0000 0.0000 0.0000 0.0000 31.3220
#
#
#
# Elastic Compliance Matrix: (Units=1/GPa)
#
#
# Indices 1 2 3 4 5 6 
#
# 1 0.011079 -0.004081 -0.006200 0.000000 0.000000 0.000000
# 2 -0.004081 0.013047 -0.004266 0.000000 0.000000 0.000000
# 3 -0.006200 -0.004266 0.028933 0.000000 0.000000 0.000000
# 4 0.000000 0.000000 0.000000 0.037802 0.000000 0.000000
# 5 0.000000 0.000000 0.000000 0.000000 0.035494 0.000000
# 6 0.000000 0.000000 0.000000 0.000000 0.000000 0.031926
#
#
# Mechanical properties :
#
#
# Convention : Reuss Voigt Hill
#
# Bulk Modulus (GPa) = 41.72565 55.92819 48.82692
# Shear Modulus (GPa) = 25.59354 28.06983 26.83168
#
# Velocity S-wave (km/s) = 3.58779 3.75736 3.67355
# Velocity P-wave (km/s) = 6.17648 6.85221 6.52310
#
# Compressibility (1/GPa) = 0.02396607
#
# Stress axis : x y z
#
# Youngs Moduli (GPa) = 90.26123 76.64626 34.56316
#
# Poissons Ratio (x) = 0.31277 0.21429
# Poissons Ratio (y) = 0.36833 0.14743
# Poissons Ratio (z) = 0.55961 0.32694
#
# Static dielectric constant tensor:
#      x y z
#    x 3.769560 0.000000 0.000000 
#    y 0.000000 3.724630 0.000000 
#    z 0.000000 0.000000 3.448920 
# 
# 
# High freq. dielectric constant tensor:
#      x y z
#    x 1.785850 0.000000 0.000000 
#    y 0.000000 1.775660 0.000000 
#    z 0.000000 0.000000 1.755490 
# 
# From -- ./inp_files/10765.got.cif
#   From: 2010.03.12/outbox.cif.g09.slc.cpg/sg55_6_cif.got.tgz:10765.got - 2010.04.16 15:19:21.
