data_PCOD8226136
_publ_section_title
;
Structure prediction by ZEFSAII (Michael W. Deem and Ramdas Pophale) SiO2 
 PCOD8226136
Probable space group: P B A M
;
_chemical_formula_sum "Si O2"
_cell_formula_units_Z 64
_cell_length_a 15.571429
_cell_length_b 22.796421
_cell_length_c 9.404300
_cell_angle_alpha 90.000000
_cell_angle_beta 90.000000
_cell_angle_gamma 90.000000
_cell_volume 3338.271183
_symmetry_space_group_name_H-M "P B A M"
_symmetry_group_IT_number 55
_symmetry_cell_setting 'orthorhombic'
loop_
_space_group_symop_operation_xyz
x,y,z
-x,-y,z
1/2+x,1/2-y,-z
1/2-x,1/2+y,-z
-x,-y,-z
x,y,-z
1/2-x,1/2+y,z
1/2+x,1/2-y,z
loop_
_atom_site_type_symbol
_atom_site_label
_atom_site_fract_x
_atom_site_fract_y
_atom_site_fract_z
Si Si1 0.909187 0.247359 0.156079
Si Si2 0.961590 0.846429 0.157404
Si Si3 0.305698 0.679904 0.333722
Si Si4 0.424694 0.455687 0.164772
Si Si5 0.597410 0.979981 0.338162
Si Si6 0.148558 0.629608 0.164536
Si Si7 0.246945 0.934748 0.332811
Si Si8 0.738075 0.697178 0.665428
O O1 0.917875 0.316615 0.186118
O O2 0.852677 0.213555 0.269397
O O3 0.003631 0.219971 0.160538
O O4 0.866734 0.238097 0.000000
O O5 0.892412 0.850732 0.281376
O O6 0.039921 0.890311 0.188791
O O7 0.922468 0.860084 0.000000
O O8 0.294044 0.668013 0.500000
O O9 0.233745 0.645544 0.248826
O O10 0.305065 0.750037 0.298137
O O11 0.500000 0.500000 0.217306
O O12 0.336067 0.462378 0.252868
O O13 0.402772 0.468305 0.000000
O O14 0.614840 0.959683 0.500000
O O15 0.605513 0.926921 0.230316
O O16 0.500000 0.000000 0.320951
O O17 0.666603 0.029715 0.294828
O O18 0.170593 0.618058 0.000000
O O19 0.226758 0.937649 0.500000
O O20 0.266701 0.867573 0.282199
O O21 0.721697 0.694809 0.500000
#
# Coordination Sequence:
#
# PCOD8226136 Si02
#       8
#     8   8   8   8   8   8   8   8
#     4   9  18  34  56  80 109 145 184 229 282 337
#     4  10  20  35  54  82 119 150 185 231 282 341
#     4  10  21  35  55  85 118 151 186 228 284 347
#     4  10  22  38  57  84 117 155 195 235 289 349
#     4  10  23  42  61  84 116 154 195 243 298 351
#     4  10  21  38  60  83 112 150 194 241 289 341
#     4  10  21  38  61  86 114 152 197 242 287 341
#     4   9  18  34  54  79 109 141 184 231 277 333
#
# _framework density 19.171599000000001
#
# number of rings (size 3 to 8) (size 9 to 14) (size 15 to 20)
#    0.000    2.250    1.250    0.750    1.750    4.000 
#    0.000    1.250    0.000    0.000    0.000    0.000 
#    0.000    0.000    0.000    0.000    0.000    0.000 
#
# Total GULP energy -793243.000247 kJ/mol
# GULP energy per Si atom -12394.421879 kJ/mol
# Density = 1.912796 g / cm^3
# Si number density = 19.171599 Si / 1000 Ang^3
#
#
#
# Elastic Constant Matrix: (Units=GPa)
#
#
# Indices 1 2 3 4 5 6 
#
# 1 100.3305 44.3108 49.5544 0.0000 0.0000 0.0000
# 2 44.3108 98.6571 46.0864 0.0000 0.0000 0.0000
# 3 49.5544 46.0864 72.6604 0.0000 0.0000 0.0000
# 4 0.0000 0.0000 0.0000 28.5297 0.0000 0.0000
# 5 0.0000 0.0000 0.0000 0.0000 29.9194 0.0000
# 6 0.0000 0.0000 0.0000 0.0000 0.0000 21.5710
#
#
#
# Elastic Compliance Matrix: (Units=1/GPa)
#
#
# Indices 1 2 3 4 5 6 
#
# 1 0.015590 -0.002892 -0.008798 0.000000 0.000000 0.000000
# 2 -0.002892 0.014940 -0.007504 0.000000 0.000000 0.000000
# 3 -0.008798 -0.007504 0.024522 0.000000 0.000000 0.000000
# 4 0.000000 0.000000 0.000000 0.035051 0.000000 0.000000
# 5 0.000000 0.000000 0.000000 0.000000 0.033423 0.000000
# 6 0.000000 0.000000 0.000000 0.000000 0.000000 0.046359
#
#
# Mechanical properties :
#
#
# Convention : Reuss Voigt Hill
#
# Bulk Modulus (GPa) = 60.00671 61.28348 60.64510
# Shear Modulus (GPa) = 23.38333 24.78377 24.08355
#
# Velocity S-wave (km/s) = 3.49619 3.59936 3.54815
# Velocity P-wave (km/s) = 6.90402 7.02204 6.96328
#
# Compressibility (1/GPa) = 0.01666480
#
# Stress axis : x y z
#
# Youngs Moduli (GPa) = 64.14494 66.93252 40.77952
#
# Poissons Ratio (x) = 0.19358 0.35877
# Poissons Ratio (y) = 0.18552 0.30600
# Poissons Ratio (z) = 0.56433 0.50225
#
# Static dielectric constant tensor:
#      x y z
#    x 3.286400 0.000000 0.000000 
#    y 0.000000 3.804840 0.000000 
#    z 0.000000 0.000000 3.556730 
# 
# 
# High freq. dielectric constant tensor:
#      x y z
#    x 1.726960 0.000000 0.000000 
#    y 0.000000 1.755850 0.000000 
#    z 0.000000 0.000000 1.746920 
# 
# From -- ./inp_files/6552.got.cif
#   From: 2010.03.12/outbox.cif.g09.slc.cpg/sg55_4_cif.got.tgz:6552.got - 2010.04.16 15:19:21.
