data_PCOD8226148
_publ_section_title
;
Structure prediction by ZEFSAII (Michael W. Deem and Ramdas Pophale) SiO2 
 PCOD8226148
Probable space group: P B A M
;
_chemical_formula_sum "Si O2"
_cell_formula_units_Z 64
_cell_length_a 16.176277
_cell_length_b 14.818252
_cell_length_c 13.529250
_cell_angle_alpha 90.000000
_cell_angle_beta 90.000000
_cell_angle_gamma 90.000000
_cell_volume 3243.017358
_symmetry_space_group_name_H-M "P B A M"
_symmetry_group_IT_number 55
_symmetry_cell_setting 'orthorhombic'
loop_
_space_group_symop_operation_xyz
x,y,z
-x,-y,z
1/2+x,1/2-y,-z
1/2-x,1/2+y,-z
-x,-y,-z
x,y,-z
1/2-x,1/2+y,z
1/2+x,1/2-y,z
loop_
_atom_site_type_symbol
_atom_site_label
_atom_site_fract_x
_atom_site_fract_y
_atom_site_fract_z
Si Si1 0.433061 0.570515 0.806108
Si Si2 0.861076 0.421235 0.382514
Si Si3 0.246724 0.242147 0.390747
Si Si4 0.501373 0.171083 0.281124
Si Si5 0.313347 0.435436 0.884537
Si Si6 0.434674 0.663329 0.609353
Si Si7 0.316651 0.901612 0.270745
Si Si8 0.453985 0.289111 0.886297
O O1 0.500000 0.500000 0.843882
O O2 0.345324 0.531689 0.841650
O O3 0.437003 0.581212 0.687249
O O4 0.457260 0.663820 0.860712
O O5 0.865781 0.433349 0.500000
O O6 0.809771 0.332768 0.349782
O O7 0.818233 0.509547 0.338120
O O8 0.952532 0.408831 0.336702
O O9 0.274536 0.272810 0.500000
O O10 0.157457 0.198469 0.395325
O O11 0.244633 0.330064 0.322560
O O12 0.505153 0.256313 0.355424
O O13 0.592068 0.136295 0.252832
O O14 0.451653 0.199682 0.181684
O O15 0.224327 0.419224 0.835495
O O16 0.377501 0.354790 0.860021
O O17 0.298552 0.444877 0.000000
O O18 0.463055 0.630510 0.500000
O O19 0.451654 0.259391 0.000000
#
# Coordination Sequence:
#
# PCOD8226148 Si02
#       8
#     8   8   8   8   8   8   8   8
#     4   9  17  30  51  80 110 140 180 229 277 332
#     4  11  22  37  59  84 112 150 190 225 271 333
#     4   9  19  35  54  77 106 140 182 229 269 316
#     4  10  21  35  53  79 110 145 187 230 267 326
#     4  10  20  35  55  79 107 139 182 237 289 337
#     4   9  17  31  50  74 108 146 179 220 274 323
#     4  11  22  36  56  81 113 148 184 228 280 331
#     4   9  18  35  59  81 105 145 191 235 286 335
#
# _framework density 19.734705999999999
#
# number of rings (size 3 to 8) (size 9 to 14) (size 15 to 20)
#    0.000    2.250    0.000    3.000    0.000    4.250 
#    0.000    1.250    0.000    7.500    0.000    0.000 
#    0.000    0.000    0.000    0.000    0.000    0.000 
#
# Total GULP energy -793477.738341 kJ/mol
# GULP energy per Si atom -12398.089662 kJ/mol
# Density = 1.968979 g / cm^3
# Si number density = 19.734706 Si / 1000 Ang^3
#
#
#
# Elastic Constant Matrix: (Units=GPa)
#
#
# Indices 1 2 3 4 5 6 
#
# 1 60.7478 36.8889 51.1565 0.0000 0.0000 0.0000
# 2 36.8889 83.9467 49.4282 0.0000 0.0000 0.0000
# 3 51.1565 49.4282 132.5897 0.0000 0.0000 0.0000
# 4 0.0000 0.0000 0.0000 25.9201 0.0000 0.0000
# 5 0.0000 0.0000 0.0000 0.0000 29.4146 0.0000
# 6 0.0000 0.0000 0.0000 0.0000 0.0000 23.0911
#
#
#
# Elastic Compliance Matrix: (Units=1/GPa)
#
#
# Indices 1 2 3 4 5 6 
#
# 1 0.027651 -0.007520 -0.007865 0.000000 0.000000 0.000000
# 2 -0.007520 0.017307 -0.003551 0.000000 0.000000 0.000000
# 3 -0.007865 -0.003551 0.011900 0.000000 0.000000 0.000000
# 4 0.000000 0.000000 0.000000 0.038580 0.000000 0.000000
# 5 0.000000 0.000000 0.000000 0.000000 0.033997 0.000000
# 6 0.000000 0.000000 0.000000 0.000000 0.000000 0.043307
#
#
# Mechanical properties :
#
#
# Convention : Reuss Voigt Hill
#
# Bulk Modulus (GPa) = 52.66607 61.35902 57.01255
# Shear Modulus (GPa) = 23.04750 25.00588 24.02669
#
# Velocity S-wave (km/s) = 3.42111 3.56350 3.49303
# Velocity P-wave (km/s) = 6.50771 6.93475 6.72462
#
# Compressibility (1/GPa) = 0.01898756
#
# Stress axis : x y z
#
# Youngs Moduli (GPa) = 36.16467 57.77863 84.03104
#
# Poissons Ratio (x) = 0.43448 0.66093
# Poissons Ratio (y) = 0.27195 0.29837
# Poissons Ratio (z) = 0.28445 0.20516
#
# Static dielectric constant tensor:
#      x y z
#    x 3.475670 0.000000 0.000000 
#    y 0.000000 3.563100 0.000000 
#    z 0.000000 0.000000 3.639170 
# 
# 
# High freq. dielectric constant tensor:
#      x y z
#    x 1.759960 0.000000 0.000000 
#    y 0.000000 1.757530 0.000000 
#    z 0.000000 0.000000 1.768480 
# 
# From -- ./inp_files/15001.got.cif
#   From: 2010.03.12/outbox.cif.g09.slc.cpg/sg55_8_cif.got.tgz:15001.got - 2010.04.16 15:19:21.
