data_PCOD8226750
_publ_section_title
;
Structure prediction by ZEFSAII (Michael W. Deem and Ramdas Pophale) SiO2 
 PCOD8226750
Probable space group: P B A M
;
_chemical_formula_sum "Si O2"
_cell_formula_units_Z 56
_cell_length_a 21.551988
_cell_length_b 14.443735
_cell_length_c 8.589592
_cell_angle_alpha 90.000000
_cell_angle_beta 90.000000
_cell_angle_gamma 90.000000
_cell_volume 2673.864430
_symmetry_space_group_name_H-M "P B A M"
_symmetry_group_IT_number 55
_symmetry_cell_setting 'orthorhombic'
loop_
_space_group_symop_operation_xyz
x,y,z
-x,-y,z
1/2+x,1/2-y,-z
1/2-x,1/2+y,-z
-x,-y,-z
x,y,-z
1/2-x,1/2+y,z
1/2+x,1/2-y,z
loop_
_atom_site_type_symbol
_atom_site_label
_atom_site_fract_x
_atom_site_fract_y
_atom_site_fract_z
Si Si1 0.569269 0.589453 0.180704
Si Si2 0.306326 0.913254 0.319724
Si Si3 0.805824 0.191347 0.819881
Si Si4 0.062618 0.102043 0.680743
Si Si5 0.474758 0.095701 0.815402
Si Si6 0.664533 0.896415 0.182369
Si Si7 0.910841 0.712453 0.182177
O O1 0.624635 0.659311 0.220382
O O2 0.589475 0.484983 0.223587
O O3 0.509595 0.618909 0.280130
O O4 0.551049 0.595205 0.000000
O O5 0.322791 0.905189 0.500000
O O6 0.241119 0.864019 0.288349
O O7 0.360064 0.864646 0.220865
O O8 0.300896 0.020750 0.271340
O O9 0.799579 0.300666 0.784396
O O10 0.790559 0.170176 0.000000
O O11 0.070750 0.080999 0.500000
O O12 0.102521 0.192244 0.727155
O O13 0.405683 0.114540 0.753165
O O14 0.521244 0.177230 0.764517
O O15 0.500000 0.000000 0.743115
O O16 0.474015 0.088774 0.000000
O O17 0.664064 0.919630 0.000000
O O18 0.908308 0.732906 0.000000
#
# Coordination Sequence:
#
# PCOD8226750 Si02
#       7
#     8   8   8   8   8   8   8
#     4  10  20  39  64  90 117 155 207 250 294 357
#     4  12  26  41  58  86 124 160 197 244 303 362
#     4  10  23  42  66  89 114 157 211 256 293 350
#     4  11  22  36  58  91 129 160 192 244 309 362
#     4   9  16  31  61  94 118 147 187 244 304 351
#     4  10  20  40  66  91 118 152 198 246 298 361
#     4  11  21  38  63  88 119 159 205 250 297 357
#
# _framework density 20.943470999999999
#
# number of rings (size 3 to 8) (size 9 to 14) (size 15 to 20)
#    0.000    1.571    1.429    5.143    0.000    5.143 
#    0.000    5.000    0.000    0.000    0.000    0.000 
#    0.000    0.000    0.000    0.000    0.000    0.000 
#
# Total GULP energy -694585.479096 kJ/mol
# GULP energy per Si atom -12403.312127 kJ/mol
# Density = 2.089580 g / cm^3
# Si number density = 20.943471 Si / 1000 Ang^3
#
#
#
# Elastic Constant Matrix: (Units=GPa)
#
#
# Indices 1 2 3 4 5 6 
#
# 1 56.0715 23.0939 17.1342 0.0000 0.0000 0.0000
# 2 23.0939 123.2213 19.9258 0.0000 0.0000 0.0000
# 3 17.1342 19.9258 55.8436 0.0000 0.0000 0.0000
# 4 0.0000 0.0000 0.0000 16.3106 0.0000 0.0000
# 5 0.0000 0.0000 0.0000 0.0000 21.2521 0.0000
# 6 0.0000 0.0000 0.0000 0.0000 0.0000 31.0941
#
#
#
# Elastic Compliance Matrix: (Units=1/GPa)
#
#
# Indices 1 2 3 4 5 6 
#
# 1 0.020691 -0.003026 -0.005269 0.000000 0.000000 0.000000
# 2 -0.003026 0.009055 -0.002303 0.000000 0.000000 0.000000
# 3 -0.005269 -0.002303 0.020345 0.000000 0.000000 0.000000
# 4 0.000000 0.000000 0.000000 0.061310 0.000000 0.000000
# 5 0.000000 0.000000 0.000000 0.000000 0.047054 0.000000
# 6 0.000000 0.000000 0.000000 0.000000 0.000000 0.032160
#
#
# Mechanical properties :
#
#
# Convention : Reuss Voigt Hill
#
# Bulk Modulus (GPa) = 34.60607 39.49381 37.04994
# Shear Modulus (GPa) = 22.57932 25.39687 23.98809
#
# Velocity S-wave (km/s) = 3.28702 3.48607 3.38801
# Velocity P-wave (km/s) = 5.56466 5.92469 5.74749
#
# Compressibility (1/GPa) = 0.02889667
#
# Stress axis : x y z
#
# Youngs Moduli (GPa) = 48.33116 110.43738 49.15139
#
# Poissons Ratio (x) = 0.33416 0.25897
# Poissons Ratio (y) = 0.14624 0.11317
# Poissons Ratio (z) = 0.25464 0.25429
#
# Static dielectric constant tensor:
#      x y z
#    x 3.667360 0.000000 0.000000 
#    y 0.000000 3.960670 0.000000 
#    z 0.000000 0.000000 3.519400 
# 
# 
# High freq. dielectric constant tensor:
#      x y z
#    x 1.806870 0.000000 0.000000 
#    y 0.000000 1.837860 0.000000 
#    z 0.000000 0.000000 1.798420 
# 
# From -- ./inp_files/8800.got.cif
#   From: 2010.03.12/outbox.cif.g09.slc.cpg/sg55_5_cif.got.tgz:8800.got - 2010.04.16 15:19:21.
