data_PCOD8226385
_publ_section_title
;
Structure prediction by ZEFSAII (Michael W. Deem and Ramdas Pophale) SiO2 
 PCOD8226385
Probable space group: P B A M
;
_chemical_formula_sum "Si O2"
_cell_formula_units_Z 48
_cell_length_a 15.457854
_cell_length_b 17.859067
_cell_length_c 8.805325
_cell_angle_alpha 90.000000
_cell_angle_beta 90.000000
_cell_angle_gamma 90.000000
_cell_volume 2430.823117
_symmetry_space_group_name_H-M "P B A M"
_symmetry_group_IT_number 55
_symmetry_cell_setting 'orthorhombic'
loop_
_space_group_symop_operation_xyz
x,y,z
-x,-y,z
1/2+x,1/2-y,-z
1/2-x,1/2+y,-z
-x,-y,-z
x,y,-z
1/2-x,1/2+y,z
1/2+x,1/2-y,z
loop_
_atom_site_type_symbol
_atom_site_label
_atom_site_fract_x
_atom_site_fract_y
_atom_site_fract_z
Si Si1 0.936683 0.288387 0.321406
Si Si2 0.757998 0.212509 0.679167
Si Si3 0.750080 0.043424 0.319290
Si Si4 0.597348 0.292708 0.178959
Si Si5 0.583568 0.957494 0.319407
Si Si6 0.914850 0.952275 0.323518
O O1 0.955899 0.286145 0.500000
O O2 0.854736 0.237751 0.278161
O O3 0.916860 0.372131 0.264388
O O4 0.021822 0.260883 0.237425
O O5 0.742515 0.217871 0.500000
O O6 0.746986 0.128285 0.741829
O O7 0.689541 0.266811 0.757368
O O8 0.750491 0.045500 0.500000
O O9 0.667956 0.998813 0.253534
O O10 0.835389 0.001381 0.260743
O O11 0.577787 0.376651 0.229849
O O12 0.600419 0.288632 0.000000
O O13 0.585146 0.961528 0.500000
O O14 0.500000 0.000000 0.254068
O O15 0.902797 0.931484 0.500000
O O16 0.000000 0.000000 0.295790
#
# Coordination Sequence:
#
# PCOD8226385 Si02
#       6
#     8   8   8   8   8   8
#     4  10  20  36  59  83 108 145 195 246 288 330
#     4  10  20  37  62  87 111 144 191 243 288 334
#     4   9  17  31  55  85 109 133 176 237 293 332
#     4  12  25  38  55  83 122 161 190 225 283 353
#     4   9  16  27  48  78 107 134 171 226 285 331
#     4  10  20  37  61  85 109 142 191 244 287 332
#
# _framework density 19.746397000000002
#
# number of rings (size 3 to 8) (size 9 to 14) (size 15 to 20)
#    0.000    2.000    0.000    4.500    0.000    9.000 
#    0.000    0.833    0.000    4.500    0.000    0.000 
#    0.000    0.000    0.000    0.000    0.000    0.000 
#
# Total GULP energy -595355.957176 kJ/mol
# GULP energy per Si atom -12403.249108 kJ/mol
# Density = 1.970145 g / cm^3
# Si number density = 19.746397 Si / 1000 Ang^3
#
#
#
# Elastic Constant Matrix: (Units=GPa)
#
#
# Indices 1 2 3 4 5 6 
#
# 1 121.7452 32.5597 28.3599 0.0000 0.0000 0.0000
# 2 32.5597 119.0830 20.1518 0.0000 0.0000 0.0000
# 3 28.3599 20.1518 45.7604 0.0000 0.0000 0.0000
# 4 0.0000 0.0000 0.0000 9.5712 0.0000 0.0000
# 5 0.0000 0.0000 0.0000 0.0000 0.2339 0.0000
# 6 0.0000 0.0000 0.0000 0.0000 0.0000 41.9510
#
#
#
# Elastic Compliance Matrix: (Units=1/GPa)
#
#
# Indices 1 2 3 4 5 6 
#
# 1 0.009949 -0.001812 -0.005368 0.000000 0.000000 0.000000
# 2 -0.001812 0.009404 -0.003018 0.000000 0.000000 0.000000
# 3 -0.005368 -0.003018 0.026509 0.000000 0.000000 0.000000
# 4 0.000000 0.000000 0.000000 0.104481 0.000000 0.000000
# 5 0.000000 0.000000 0.000000 0.000000 4.275869 0.000000
# 6 0.000000 0.000000 0.000000 0.000000 0.000000 0.023837
#
#
# Mechanical properties :
#
#
# Convention : Reuss Voigt Hill
#
# Bulk Modulus (GPa) = 39.26896 49.85905 44.56401
# Shear Modulus (GPa) = 1.11634 24.05234 12.58434
#
# Velocity S-wave (km/s) = 0.75270 3.49386 2.52722
# Velocity P-wave (km/s) = 4.54810 6.44830 5.57969
#
# Compressibility (1/GPa) = 0.02546540
#
# Stress axis : x y z
#
# Youngs Moduli (GPa) = 100.51405 106.34152 37.72317
#
# Poissons Ratio (x) = 0.19267 0.20249
# Poissons Ratio (y) = 0.18212 0.11386
# Poissons Ratio (z) = 0.53955 0.32097
#
# Static dielectric constant tensor:
#      x y z
#    x 3.797410 0.000000 0.000000 
#    y 0.000000 3.837550 0.000000 
#    z 0.000000 0.000000 3.113190 
# 
# 
# High freq. dielectric constant tensor:
#      x y z
#    x 1.790490 0.000000 0.000000 
#    y 0.000000 1.789980 0.000000 
#    z 0.000000 0.000000 1.715040 
# 
# From -- ./inp_files/5612.got.cif
#   From: 2010.03.12/outbox.cif.g09.slc.cpg/sg55_3_cif.got.tgz:5612.got - 2010.04.16 15:19:21.
