data_PCOD8226342
_publ_section_title
;
Structure prediction by ZEFSAII (Michael W. Deem and Ramdas Pophale) SiO2 
 PCOD8226342
Probable space group: P B A M
;
_chemical_formula_sum "Si O2"
_cell_formula_units_Z 56
_cell_length_a 13.374983
_cell_length_b 23.113992
_cell_length_c 9.168603
_cell_angle_alpha 90.000000
_cell_angle_beta 90.000000
_cell_angle_gamma 90.000000
_cell_volume 2834.466742
_symmetry_space_group_name_H-M "P B A M"
_symmetry_group_IT_number 55
_symmetry_cell_setting 'orthorhombic'
loop_
_space_group_symop_operation_xyz
x,y,z
-x,-y,z
1/2+x,1/2-y,-z
1/2-x,1/2+y,-z
-x,-y,-z
x,y,-z
1/2-x,1/2+y,z
1/2+x,1/2-y,z
loop_
_atom_site_type_symbol
_atom_site_label
_atom_site_fract_x
_atom_site_fract_y
_atom_site_fract_z
Si Si1 0.896837 0.064286 0.836412
Si Si2 0.972034 0.169706 0.667841
Si Si3 0.801728 0.835168 0.333701
Si Si4 0.801811 0.967046 0.669573
Si Si5 0.596696 0.031849 0.331214
Si Si6 0.696447 0.736752 0.826745
Si Si7 0.186844 0.371975 0.839428
O O1 0.966092 0.105931 0.739263
O O2 0.788176 0.092020 0.843373
O O3 0.886765 0.001098 0.761643
O O4 0.940983 0.057800 0.000000
O O5 0.936050 0.165310 0.500000
O O6 0.906959 0.217098 0.752983
O O7 0.086496 0.190143 0.678039
O O8 0.762956 0.831365 0.500000
O O9 0.799894 0.901040 0.278290
O O10 0.726864 0.799527 0.231189
O O11 0.830671 0.972237 0.500000
O O12 0.692676 0.992808 0.700994
O O13 0.579304 0.043026 0.500000
O O14 0.500000 0.000000 0.263176
O O15 0.607199 0.095881 0.262735
O O16 0.785185 0.692126 0.782236
O O17 0.679969 0.737561 0.000000
O O18 0.139147 0.368171 0.000000
#
# Coordination Sequence:
#
# PCOD8226342 Si02
#       7
#     8   8   8   8   8   8   8
#     4   9  17  31  53  80 108 137 175 218 271 330
#     4  10  20  36  58  81 106 142 188 230 277 335
#     4  10  22  38  56  80 111 148 188 233 281 333
#     4   9  18  34  53  75 109 145 179 224 277 330
#     4   9  17  30  50  77 105 136 175 220 268 320
#     4  10  21  38  58  79 108 143 183 233 282 335
#     4   8  16  31  50  72  98 133 172 213 262 317
#
# _framework density 19.756803000000001
#
# number of rings (size 3 to 8) (size 9 to 14) (size 15 to 20)
#    0.000    2.714    0.000    2.143    0.000    6.571 
#    2.571    2.857    0.000    0.000    0.000    0.000 
#    0.000    0.000    0.000    0.000    0.000    0.000 
#
# Total GULP energy -694353.552622 kJ/mol
# GULP energy per Si atom -12399.170583 kJ/mol
# Density = 1.971184 g / cm^3
# Si number density = 19.756803 Si / 1000 Ang^3
#
#
#
# Elastic Constant Matrix: (Units=GPa)
#
#
# Indices 1 2 3 4 5 6 
#
# 1 31.1515 13.6634 23.6173 0.0000 0.0000 0.0000
# 2 13.6634 107.8518 43.1584 0.0000 0.0000 0.0000
# 3 23.6173 43.1584 93.8348 0.0000 0.0000 0.0000
# 4 0.0000 0.0000 0.0000 33.7607 0.0000 0.0000
# 5 0.0000 0.0000 0.0000 0.0000 15.0574 0.0000
# 6 0.0000 0.0000 0.0000 0.0000 0.0000 25.3482
#
#
#
# Elastic Compliance Matrix: (Units=1/GPa)
#
#
# Indices 1 2 3 4 5 6 
#
# 1 0.039812 -0.001267 -0.009437 0.000000 0.000000 0.000000
# 2 -0.001267 0.011404 -0.004926 0.000000 0.000000 0.000000
# 3 -0.009437 -0.004926 0.015298 0.000000 0.000000 0.000000
# 4 0.000000 0.000000 0.000000 0.029620 0.000000 0.000000
# 5 0.000000 0.000000 0.000000 0.000000 0.066413 0.000000
# 6 0.000000 0.000000 0.000000 0.000000 0.000000 0.039451
#
#
# Mechanical properties :
#
#
# Convention : Reuss Voigt Hill
#
# Bulk Modulus (GPa) = 28.36695 43.74627 36.05661
# Shear Modulus (GPa) = 20.40738 24.99318 22.70028
#
# Velocity S-wave (km/s) = 3.21741 3.56060 3.39335
# Velocity P-wave (km/s) = 5.30957 6.25254 5.80025
#
# Compressibility (1/GPa) = 0.03525229
#
# Stress axis : x y z
#
# Youngs Moduli (GPa) = 25.11814 87.69027 65.36773
#
# Poissons Ratio (x) = 0.11111 0.61690
# Poissons Ratio (y) = 0.03183 0.32201
# Poissons Ratio (z) = 0.23705 0.43197
#
# Static dielectric constant tensor:
#      x y z
#    x 3.384500 0.000000 0.000000 
#    y 0.000000 3.681960 0.000000 
#    z 0.000000 0.000000 3.672960 
# 
# 
# High freq. dielectric constant tensor:
#      x y z
#    x 1.751350 0.000000 0.000000 
#    y 0.000000 1.767900 0.000000 
#    z 0.000000 0.000000 1.769380 
# 
# From -- ./inp_files/6021.got.cif
#   From: 2010.03.12/outbox.cif.g09.slc.cpg/sg55_4_cif.got.tgz:6021.got - 2010.04.16 15:19:21.
