data_PCOD8226225
_publ_section_title
;
Structure prediction by ZEFSAII (Michael W. Deem and Ramdas Pophale) SiO2 
 PCOD8226225
Probable space group: P B A M
;
_chemical_formula_sum "Si O2"
_cell_formula_units_Z 48
_cell_length_a 9.413851
_cell_length_b 28.896663
_cell_length_c 8.919966
_cell_angle_alpha 90.000000
_cell_angle_beta 90.000000
_cell_angle_gamma 90.000000
_cell_volume 2426.488360
_symmetry_space_group_name_H-M "P B A M"
_symmetry_group_IT_number 55
_symmetry_cell_setting 'orthorhombic'
loop_
_space_group_symop_operation_xyz
x,y,z
-x,-y,z
1/2+x,1/2-y,-z
1/2-x,1/2+y,-z
-x,-y,-z
x,y,-z
1/2-x,1/2+y,z
1/2+x,1/2-y,z
loop_
_atom_site_type_symbol
_atom_site_label
_atom_site_fract_x
_atom_site_fract_y
_atom_site_fract_z
Si Si1 0.120575 0.462318 0.666296
Si Si2 0.647610 0.481957 0.823378
Si Si3 0.201444 0.284897 0.677406
Si Si4 0.700825 0.378415 0.821488
Si Si5 0.521206 0.302305 0.678636
Si Si6 0.495167 0.134362 0.322144
O O1 0.185387 0.454391 0.500000
O O2 0.238878 0.479578 0.779477
O O3 0.000000 0.500000 0.657795
O O4 0.056755 0.414856 0.729815
O O5 0.500000 0.500000 0.754833
O O6 0.685397 0.431047 0.760750
O O7 0.639350 0.478955 0.000000
O O8 0.202435 0.285411 0.500000
O O9 0.362790 0.289482 0.736298
O O10 0.130059 0.237394 0.733618
O O11 0.105942 0.327354 0.735683
O O12 0.567678 0.349890 0.756894
O O13 0.845560 0.356616 0.757947
O O14 0.700732 0.375937 0.000000
O O15 0.523703 0.308508 0.500000
O O16 0.469791 0.136841 0.500000
#
# Coordination Sequence:
#
# PCOD8226225 Si02
#       6
#     8   8   8   8   8   8
#     4  10  20  35  57  87 116 145 187 237 281 323
#     4  10  23  40  56  77 112 156 196 230 275 339
#     4   9  19  36  61  89 112 144 185 225 277 340
#     4  11  23  38  56  82 113 149 191 233 280 332
#     4  10  20  37  61  85 111 144 184 228 277 334
#     4  10  20  37  60  86 117 148 186 233 281 337
#
# _framework density 19.781673000000001
#
# number of rings (size 3 to 8) (size 9 to 14) (size 15 to 20)
#    0.000    2.000    1.667    1.500    2.333    4.667 
#    0.000    4.167    0.000    0.000    0.000    0.000 
#    0.000    0.000    0.000    0.000    0.000    0.000 
#
# Total GULP energy -595278.246902 kJ/mol
# GULP energy per Si atom -12401.630144 kJ/mol
# Density = 1.973665 g / cm^3
# Si number density = 19.781673 Si / 1000 Ang^3
#
#
#
# Elastic Constant Matrix: (Units=GPa)
#
#
# Indices 1 2 3 4 5 6 
#
# 1 144.4981 42.7118 28.4432 0.0000 0.0000 0.0000
# 2 42.7118 90.6951 23.0140 0.0000 0.0000 0.0000
# 3 28.4432 23.0140 30.4588 0.0000 0.0000 0.0000
# 4 0.0000 0.0000 0.0000 27.0243 0.0000 0.0000
# 5 0.0000 0.0000 0.0000 0.0000 16.7064 0.0000
# 6 0.0000 0.0000 0.0000 0.0000 0.0000 40.5380
#
#
#
# Elastic Compliance Matrix: (Units=1/GPa)
#
#
# Indices 1 2 3 4 5 6 
#
# 1 0.008945 -0.002589 -0.006397 0.000000 0.000000 0.000000
# 2 -0.002589 0.014391 -0.008455 0.000000 0.000000 0.000000
# 3 -0.006397 -0.008455 0.045193 0.000000 0.000000 0.000000
# 4 0.000000 0.000000 0.000000 0.037004 0.000000 0.000000
# 5 0.000000 0.000000 0.000000 0.000000 0.059857 0.000000
# 6 0.000000 0.000000 0.000000 0.000000 0.000000 0.024668
#
#
# Mechanical properties :
#
#
# Convention : Reuss Voigt Hill
#
# Bulk Modulus (GPa) = 29.72088 50.44333 40.08210
# Shear Modulus (GPa) = 21.17235 28.28593 24.72914
#
# Velocity S-wave (km/s) = 3.27510 3.78551 3.53952
# Velocity P-wave (km/s) = 5.41837 6.68298 6.08362
#
# Compressibility (1/GPa) = 0.03364638
#
# Stress axis : x y z
#
# Youngs Moduli (GPa) = 111.79412 69.48788 22.12716
#
# Poissons Ratio (x) = 0.17993 0.14154
# Poissons Ratio (y) = 0.28948 0.18710
# Poissons Ratio (z) = 0.71510 0.58755
#
# Static dielectric constant tensor:
#      x y z
#    x 3.690370 0.000000 0.000000 
#    y 0.000000 3.764600 0.000000 
#    z 0.000000 0.000000 3.245660 
# 
# 
# High freq. dielectric constant tensor:
#      x y z
#    x 1.781120 0.000000 0.000000 
#    y 0.000000 1.785670 0.000000 
#    z 0.000000 0.000000 1.736240 
# 
# From -- ./inp_files/2782.got.cif
#   From: 2010.03.12/outbox.cif.g09.slc.cpg/sg55_2_cif.got.tgz:2782.got - 2010.04.16 15:19:21.
