data_PCOD8226418
_publ_section_title
;
Structure prediction by ZEFSAII (Michael W. Deem and Ramdas Pophale) SiO2 
 PCOD8226418
Probable space group: P B A M
;
_chemical_formula_sum "Si O2"
_cell_formula_units_Z 64
_cell_length_a 15.314841
_cell_length_b 23.774389
_cell_length_c 8.959940
_cell_angle_alpha 90.000000
_cell_angle_beta 90.000000
_cell_angle_gamma 90.000000
_cell_volume 3262.323001
_symmetry_space_group_name_H-M "P B A M"
_symmetry_group_IT_number 55
_symmetry_cell_setting 'orthorhombic'
loop_
_space_group_symop_operation_xyz
x,y,z
-x,-y,z
1/2+x,1/2-y,-z
1/2-x,1/2+y,-z
-x,-y,-z
x,y,-z
1/2-x,1/2+y,z
1/2+x,1/2-y,z
loop_
_atom_site_type_symbol
_atom_site_label
_atom_site_fract_x
_atom_site_fract_y
_atom_site_fract_z
Si Si1 0.652238 0.370423 0.330406
Si Si2 0.159292 0.370336 0.326493
Si Si3 0.584530 0.249634 0.328890
Si Si4 0.498340 0.934632 0.174887
Si Si5 0.996976 0.936750 0.823356
Si Si6 0.096768 0.744099 0.826314
Si Si7 0.850627 0.367163 0.673037
Si Si8 0.162091 0.866923 0.174602
O O1 0.624374 0.382493 0.500000
O O2 0.642427 0.304307 0.294486
O O3 0.592408 0.407693 0.225020
O O4 0.752034 0.388165 0.302243
O O5 0.159794 0.384671 0.500000
O O6 0.143640 0.304522 0.295235
O O7 0.251886 0.388121 0.258318
O O8 0.084516 0.406920 0.251513
O O9 0.550840 0.248634 0.500000
O O10 0.503963 0.249829 0.216861
O O11 0.587185 0.907841 0.234809
O O12 0.500000 0.000000 0.214442
O O13 0.492242 0.923267 0.000000
O O14 0.080339 0.902505 0.761899
O O15 0.998563 0.936627 0.000000
O O16 0.000000 0.000000 0.759599
O O17 0.142523 0.696502 0.729115
O O18 0.146016 0.801763 0.790056
O O19 0.102324 0.728435 0.000000
O O20 0.877804 0.368759 0.500000
O O21 0.174853 0.877801 0.000000
#
# Coordination Sequence:
#
# PCOD8226418 Si02
#       8
#     8   8   8   8   8   8   8   8
#     4  10  22  39  61  89 122 157 196 243 295 355
#     4  11  23  39  63  92 120 158 199 243 303 362
#     4  10  20  36  59  88 121 156 192 239 298 357
#     4  11  25  44  64  87 118 158 204 253 303 357
#     4  10  22  41  62  84 116 158 203 251 300 348
#     4  11  21  35  60  91 122 159 198 243 298 356
#     4  11  23  40  62  91 125 158 197 246 301 363
#     4  10  22  39  59  89 123 157 199 248 299 355
#
# _framework density 19.617922
#
# number of rings (size 3 to 8) (size 9 to 14) (size 15 to 20)
#    0.000    1.500    2.500    2.250    0.000    6.250 
#    0.000    3.750    0.000    0.000    0.000    0.000 
#    0.000    0.000    0.000    0.000    0.000    0.000 
#
# Total GULP energy -793921.333822 kJ/mol
# GULP energy per Si atom -12405.020841 kJ/mol
# Density = 1.957327 g / cm^3
# Si number density = 19.617922 Si / 1000 Ang^3
#
#
#
# Elastic Constant Matrix: (Units=GPa)
#
#
# Indices 1 2 3 4 5 6 
#
# 1 128.6445 56.8022 40.4920 0.0000 0.0000 0.0000
# 2 56.8022 125.1500 49.5606 0.0000 0.0000 0.0000
# 3 40.4920 49.5606 55.1798 0.0000 0.0000 0.0000
# 4 0.0000 0.0000 0.0000 21.9798 0.0000 0.0000
# 5 0.0000 0.0000 0.0000 0.0000 39.9742 0.0000
# 6 0.0000 0.0000 0.0000 0.0000 0.0000 1.4243
#
#
#
# Elastic Compliance Matrix: (Units=1/GPa)
#
#
# Indices 1 2 3 4 5 6 
#
# 1 0.010666 -0.002703 -0.005400 0.000000 0.000000 0.000000
# 2 -0.002703 0.013086 -0.009770 0.000000 0.000000 0.000000
# 3 -0.005400 -0.009770 0.030860 0.000000 0.000000 0.000000
# 4 0.000000 0.000000 0.000000 0.045496 0.000000 0.000000
# 5 0.000000 0.000000 0.000000 0.000000 0.025016 0.000000
# 6 0.000000 0.000000 0.000000 0.000000 0.000000 0.702093
#
#
# Mechanical properties :
#
#
# Convention : Reuss Voigt Hill
#
# Bulk Modulus (GPa) = 53.00127 66.96489 59.98308
# Shear Modulus (GPa) = 5.75207 23.48363 14.61785
#
# Velocity S-wave (km/s) = 1.71418 3.46359 2.73266
# Velocity P-wave (km/s) = 5.56716 7.08548 6.37171
#
# Compressibility (1/GPa) = 0.01886747
#
# Stress axis : x y z
#
# Youngs Moduli (GPa) = 93.75280 76.41590 32.40432
#
# Poissons Ratio (x) = 0.20654 0.17497
# Poissons Ratio (y) = 0.25340 0.31660
# Poissons Ratio (z) = 0.50622 0.74660
#
# Static dielectric constant tensor:
#      x y z
#    x 3.542310 0.000000 0.000000 
#    y 0.000000 3.796140 0.000000 
#    z 0.000000 0.000000 3.560710 
# 
# 
# High freq. dielectric constant tensor:
#      x y z
#    x 1.773830 0.000000 0.000000 
#    y 0.000000 1.765660 0.000000 
#    z 0.000000 0.000000 1.766120 
# 
# From -- ./inp_files/6711.got.cif
#   From: 2010.03.12/outbox.cif.g09.slc.cpg/sg55_4_cif.got.tgz:6711.got - 2010.04.16 15:19:21.
