data_PCOD8226412
_publ_section_title
;
Structure prediction by ZEFSAII (Michael W. Deem and Ramdas Pophale) SiO2 
 PCOD8226412
Probable space group: P B A M
;
_chemical_formula_sum "Si O2"
_cell_formula_units_Z 40
_cell_length_a 9.935344
_cell_length_b 8.724402
_cell_length_c 20.646717
_cell_angle_alpha 90.000000
_cell_angle_beta 90.000000
_cell_angle_gamma 90.000000
_cell_volume 1789.656089
_symmetry_space_group_name_H-M "P B A M"
_symmetry_group_IT_number 55
_symmetry_cell_setting 'orthorhombic'
loop_
_space_group_symop_operation_xyz
x,y,z
-x,-y,z
1/2+x,1/2-y,-z
1/2-x,1/2+y,-z
-x,-y,-z
x,y,-z
1/2-x,1/2+y,z
1/2+x,1/2-y,z
loop_
_atom_site_type_symbol
_atom_site_label
_atom_site_fract_x
_atom_site_fract_y
_atom_site_fract_z
Si Si1 0.148101 0.928891 0.362121
Si Si2 0.352099 0.995563 0.247177
Si Si3 0.253679 0.742234 0.840494
Si Si4 0.148297 0.983035 0.930752
Si Si5 0.872067 0.394046 0.426440
O O1 0.234199 0.954120 0.297190
O O2 0.130606 0.749163 0.377388
O O3 0.232881 0.011098 0.419128
O O4 0.000000 0.000000 0.354299
O O5 0.353933 0.868115 0.190423
O O6 0.500000 0.000000 0.280519
O O7 0.331311 0.164397 0.217200
O O8 0.332720 0.610918 0.876797
O O9 0.164434 0.819903 0.895912
O O10 0.232140 0.993076 0.000000
O O11 0.000000 0.000000 0.955170
O O12 0.881497 0.334014 0.500000
O O13 0.000000 0.500000 0.409773
#
# Coordination Sequence:
#
# PCOD8226412 Si02
#       5
#     8   8   8   8   8
#     4  12  26  43  67  99 133 171 218 270 324 382
#     4  11  24  42  63  89 125 168 213 262 316 375
#     4  10  22  38  60  88 121 160 209 260 313 375
#     4  10  20  36  59  87 120 158 202 255 315 378
#     4  11  25  46  71  99 133 172 214 263 322 388
#
# _framework density 22.350662
#
# number of rings (size 3 to 8) (size 9 to 14) (size 15 to 20)
#    0.000    1.200    0.000    5.400    0.000   11.200 
#    0.000    0.000    0.000    9.600    0.000    0.000 
#    0.000    0.000    0.000    0.000    0.000    0.000 
#
# Total GULP energy -495694.288648 kJ/mol
# GULP energy per Si atom -12392.357216 kJ/mol
# Density = 2.229979 g / cm^3
# Si number density = 22.350662 Si / 1000 Ang^3
#
#
#
# Elastic Constant Matrix: (Units=GPa)
#
#
# Indices 1 2 3 4 5 6 
#
# 1 155.9463 44.0830 40.7216 0.0000 0.0000 0.0000
# 2 44.0830 114.4611 28.5596 0.0000 0.0000 0.0000
# 3 40.7216 28.5596 120.9290 0.0000 0.0000 0.0000
# 4 0.0000 0.0000 0.0000 48.4247 0.0000 0.0000
# 5 0.0000 0.0000 0.0000 0.0000 33.1244 0.0000
# 6 0.0000 0.0000 0.0000 0.0000 0.0000 26.6335
#
#
#
# Elastic Compliance Matrix: (Units=1/GPa)
#
#
# Indices 1 2 3 4 5 6 
#
# 1 0.007622 -0.002439 -0.001991 0.000000 0.000000 0.000000
# 2 -0.002439 0.010064 -0.001556 0.000000 0.000000 0.000000
# 3 -0.001991 -0.001556 0.009307 0.000000 0.000000 0.000000
# 4 0.000000 0.000000 0.000000 0.020651 0.000000 0.000000
# 5 0.000000 0.000000 0.000000 0.000000 0.030189 0.000000
# 6 0.000000 0.000000 0.000000 0.000000 0.000000 0.037547
#
#
# Mechanical properties :
#
#
# Convention : Reuss Voigt Hill
#
# Bulk Modulus (GPa) = 66.56500 68.67386 67.61943
# Shear Modulus (GPa) = 37.77679 40.16800 38.97239
#
# Velocity S-wave (km/s) = 4.11565 4.24391 4.18027
# Velocity P-wave (km/s) = 7.24096 7.40315 7.32251
#
# Compressibility (1/GPa) = 0.01502291
#
# Stress axis : x y z
#
# Youngs Moduli (GPa) = 131.20570 99.36460 107.44609
#
# Poissons Ratio (x) = 0.24232 0.21388
# Poissons Ratio (y) = 0.31997 0.16714
# Poissons Ratio (z) = 0.26117 0.15457
#
# Static dielectric constant tensor:
#      x y z
#    x 3.923860 0.000000 0.000000 
#    y 0.000000 4.303100 0.000000 
#    z 0.000000 0.000000 4.131470 
# 
# 
# High freq. dielectric constant tensor:
#      x y z
#    x 1.863470 0.000000 0.000000 
#    y 0.000000 1.892030 0.000000 
#    z 0.000000 0.000000 1.906500 
# 
# From -- ./inp_files/23407.got.cif
#   From: 2010.03.12/outbox.cif.g09.slc.cpg/sg55_12_cif.got.tgz:23407.got - 2010.04.16 15:19:21.
