data_PCOD8226240
_publ_section_title
;
Structure prediction by ZEFSAII (Michael W. Deem and Ramdas Pophale) SiO2 
 PCOD8226240
Probable space group: P B A M
;
_chemical_formula_sum "Si O2"
_cell_formula_units_Z 56
_cell_length_a 21.812027
_cell_length_b 12.503524
_cell_length_c 10.388003
_cell_angle_alpha 90.000000
_cell_angle_beta 90.000000
_cell_angle_gamma 90.000000
_cell_volume 2833.091004
_symmetry_space_group_name_H-M "P B A M"
_symmetry_group_IT_number 55
_symmetry_cell_setting 'orthorhombic'
loop_
_space_group_symop_operation_xyz
x,y,z
-x,-y,z
1/2+x,1/2-y,-z
1/2-x,1/2+y,-z
-x,-y,-z
x,y,-z
1/2-x,1/2+y,z
1/2+x,1/2-y,z
loop_
_atom_site_type_symbol
_atom_site_label
_atom_site_fract_x
_atom_site_fract_y
_atom_site_fract_z
Si Si1 0.626337 0.181037 0.643755
Si Si2 0.912990 0.276763 0.143773
Si Si3 0.250381 0.909412 0.352355
Si Si4 0.178438 0.105141 0.736296
Si Si5 0.067109 0.970970 0.850790
Si Si6 0.497352 0.125673 0.645457
Si Si7 0.722630 0.755844 0.858520
O O1 0.609536 0.148260 0.500000
O O2 0.677948 0.096400 0.691777
O O3 0.652422 0.301016 0.646977
O O4 0.560598 0.169003 0.712880
O O5 0.918095 0.151639 0.177423
O O6 0.842534 0.315765 0.144205
O O7 0.944751 0.342298 0.256124
O O8 0.940876 0.297924 0.000000
O O9 0.244274 0.867342 0.500000
O O10 0.215964 0.832242 0.253153
O O11 0.222406 0.027622 0.345920
O O12 0.221725 0.160115 0.843518
O O13 0.120431 0.043205 0.791355
O O14 0.066697 0.998873 0.000000
O O15 0.000000 0.000000 0.791513
O O16 0.484851 0.171685 0.500000
O O17 0.500000 0.000000 0.637476
O O18 0.731144 0.701182 0.000000
#
# Coordination Sequence:
#
# PCOD8226240 Si02
#       7
#     8   8   8   8   8   8   8
#     4   9  20  38  55  82 119 148 192 249 291 349
#     4  10  21  39  58  85 122 153 196 249 296 346
#     4  10  21  37  60  87 117 155 196 244 302 358
#     4  11  20  35  61  86 117 156 197 243 298 360
#     4  10  20  35  58  85 117 157 193 238 297 355
#     4  10  22  40  62  84 114 157 200 241 295 353
#     4  10  22  38  59  88 122 159 198 249 298 354
#
# _framework density 19.766396
#
# number of rings (size 3 to 8) (size 9 to 14) (size 15 to 20)
#    0.000    2.000    1.429    1.714    2.000    2.000 
#    0.000    2.857    0.000    3.000    0.000    0.000 
#    0.000    0.000    0.000    0.000    0.000    0.000 
#
# Total GULP energy -693877.629378 kJ/mol
# GULP energy per Si atom -12390.671953 kJ/mol
# Density = 1.972141 g / cm^3
# Si number density = 19.766396 Si / 1000 Ang^3
#
#
#
# Elastic Constant Matrix: (Units=GPa)
#
#
# Indices 1 2 3 4 5 6 
#
# 1 107.9720 33.9484 37.7089 0.0000 0.0000 0.0000
# 2 33.9484 72.4169 26.3907 0.0000 0.0000 0.0000
# 3 37.7089 26.3907 96.7581 0.0000 0.0000 0.0000
# 4 0.0000 0.0000 0.0000 21.5284 0.0000 0.0000
# 5 0.0000 0.0000 0.0000 0.0000 24.3336 0.0000
# 6 0.0000 0.0000 0.0000 0.0000 0.0000 38.7929
#
#
#
# Elastic Compliance Matrix: (Units=1/GPa)
#
#
# Indices 1 2 3 4 5 6 
#
# 1 0.011808 -0.004284 -0.003433 0.000000 0.000000 0.000000
# 2 -0.004284 0.016887 -0.002936 0.000000 0.000000 0.000000
# 3 -0.003433 -0.002936 0.012474 0.000000 0.000000 0.000000
# 4 0.000000 0.000000 0.000000 0.046450 0.000000 0.000000
# 5 0.000000 0.000000 0.000000 0.000000 0.041096 0.000000
# 6 0.000000 0.000000 0.000000 0.000000 0.000000 0.025778
#
#
# Mechanical properties :
#
#
# Convention : Reuss Voigt Hill
#
# Bulk Modulus (GPa) = 50.34872 52.58258 51.46565
# Shear Modulus (GPa) = 27.40912 28.87089 28.14001
#
# Velocity S-wave (km/s) = 3.72782 3.82593 3.77719
# Velocity P-wave (km/s) = 6.63747 6.79535 6.71687
#
# Compressibility (1/GPa) = 0.01986148
#
# Stress axis : x y z
#
# Youngs Moduli (GPa) = 84.69019 59.21565 80.16697
#
# Poissons Ratio (x) = 0.25369 0.27523
# Poissons Ratio (y) = 0.36283 0.23540
# Poissons Ratio (z) = 0.29076 0.17388
#
# Static dielectric constant tensor:
#      x y z
#    x 3.940090 0.000000 0.000000 
#    y 0.000000 3.449050 0.000000 
#    z 0.000000 0.000000 3.543020 
# 
# 
# High freq. dielectric constant tensor:
#      x y z
#    x 1.791000 0.000000 0.000000 
#    y 0.000000 1.755120 0.000000 
#    z 0.000000 0.000000 1.758770 
# 
# From -- ./inp_files/15324.got.cif
#   From: 2010.03.12/outbox.cif.g09.slc.cpg/sg55_8_cif.got.tgz:15324.got - 2010.04.16 15:19:21.
