data_PCOD8226909
_publ_section_title
;
Structure prediction by ZEFSAII (Michael W. Deem and Ramdas Pophale) SiO2 
 PCOD8226909
Probable space group: P B A M
;
_chemical_formula_sum "Si O2"
_cell_formula_units_Z 32
_cell_length_a 8.236347
_cell_length_b 14.739012
_cell_length_c 13.228745
_cell_angle_alpha 90.000000
_cell_angle_beta 90.000000
_cell_angle_gamma 90.000000
_cell_volume 1605.911665
_symmetry_space_group_name_H-M "P B A M"
_symmetry_group_IT_number 55
_symmetry_cell_setting 'orthorhombic'
loop_
_space_group_symop_operation_xyz
x,y,z
-x,-y,z
1/2+x,1/2-y,-z
1/2-x,1/2+y,-z
-x,-y,-z
x,y,-z
1/2-x,1/2+y,z
1/2+x,1/2-y,z
loop_
_atom_site_type_symbol
_atom_site_label
_atom_site_fract_x
_atom_site_fract_y
_atom_site_fract_z
Si Si1 0.320226 0.470472 0.234203
Si Si2 0.076938 0.402507 0.388895
Si Si3 0.793007 0.685681 0.115095
Si Si4 0.375758 0.151827 0.211578
O O1 0.500000 0.500000 0.263932
O O2 0.246185 0.415817 0.329581
O O3 0.322786 0.399981 0.140626
O O4 0.211291 0.555283 0.201076
O O5 0.106666 0.358471 0.500000
O O6 0.000000 0.500000 0.403653
O O7 0.954123 0.339071 0.323983
O O8 0.752968 0.769148 0.190088
O O9 0.979917 0.657200 0.129777
O O10 0.762505 0.715143 0.000000
#
# Coordination Sequence:
#
# PCOD8226909 Si02
#       4
#     8   8   8   8
#     4  10  21  36  56  84 116 149 191 241 286 341
#     4   8  16  34  58  81 109 145 181 225 282 337
#     4  11  22  36  56  80 112 154 194 238 292 344
#     4  10  21  37  56  82 113 146 192 242 289 344
#
# _framework density 19.926376999999999
#
# number of rings (size 3 to 8) (size 9 to 14) (size 15 to 20)
#    0.000    2.250    0.000    4.500    0.000    4.000 
#    0.000    5.000    0.000    6.000    0.000    0.000 
#    0.000    0.000    0.000    0.000    0.000    0.000 
#
# Total GULP energy -396693.781813 kJ/mol
# GULP energy per Si atom -12396.680682 kJ/mol
# Density = 1.988102 g / cm^3
# Si number density = 19.926377 Si / 1000 Ang^3
#
#
#
# Elastic Constant Matrix: (Units=GPa)
#
#
# Indices 1 2 3 4 5 6 
#
# 1 90.3530 24.5941 46.0093 0.0000 0.0000 0.0000
# 2 24.5941 96.1937 54.3409 0.0000 0.0000 0.0000
# 3 46.0093 54.3409 144.6383 0.0000 0.0000 0.0000
# 4 0.0000 0.0000 0.0000 25.4581 0.0000 0.0000
# 5 0.0000 0.0000 0.0000 0.0000 16.4170 0.0000
# 6 0.0000 0.0000 0.0000 0.0000 0.0000 35.2974
#
#
#
# Elastic Compliance Matrix: (Units=1/GPa)
#
#
# Indices 1 2 3 4 5 6 
#
# 1 0.013331 -0.001286 -0.003758 0.000000 0.000000 0.000000
# 2 -0.001286 0.013320 -0.004596 0.000000 0.000000 0.000000
# 3 -0.003758 -0.004596 0.009836 0.000000 0.000000 0.000000
# 4 0.000000 0.000000 0.000000 0.039280 0.000000 0.000000
# 5 0.000000 0.000000 0.000000 0.000000 0.060912 0.000000
# 6 0.000000 0.000000 0.000000 0.000000 0.000000 0.028331
#
#
# Mechanical properties :
#
#
# Convention : Reuss Voigt Hill
#
# Bulk Modulus (GPa) = 58.10722 64.56372 61.33547
# Shear Modulus (GPa) = 26.31236 29.18388 27.74812
#
# Velocity S-wave (km/s) = 3.63778 3.83114 3.73571
# Velocity P-wave (km/s) = 6.84608 7.21399 7.03244
#
# Compressibility (1/GPa) = 0.01720956
#
# Stress axis : x y z
#
# Youngs Moduli (GPa) = 75.01266 75.07232 101.67117
#
# Poissons Ratio (x) = 0.09652 0.38204
# Poissons Ratio (y) = 0.09644 0.46723
# Poissons Ratio (z) = 0.28186 0.34500
#
# Static dielectric constant tensor:
#      x y z
#    x 3.640360 0.000000 0.000000 
#    y 0.000000 3.588530 0.000000 
#    z 0.000000 0.000000 3.818850 
# 
# 
# High freq. dielectric constant tensor:
#      x y z
#    x 1.775260 0.000000 0.000000 
#    y 0.000000 1.769790 0.000000 
#    z 0.000000 0.000000 1.768270 
# 
# From -- ./inp_files/11618.got.cif
#   From: 2010.03.12/outbox.cif.g09.slc.cpg/sg55_6_cif.got.tgz:11618.got - 2010.04.16 15:19:21.
