data_PCOD8226610
_publ_section_title
;
Structure prediction by ZEFSAII (Michael W. Deem and Ramdas Pophale) SiO2 
 PCOD8226610
Probable space group: P B A M
;
_chemical_formula_sum "Si O2"
_cell_formula_units_Z 40
_cell_length_a 9.953365
_cell_length_b 8.932904
_cell_length_c 20.153241
_cell_angle_alpha 90.000000
_cell_angle_beta 90.000000
_cell_angle_gamma 90.000000
_cell_volume 1791.874114
_symmetry_space_group_name_H-M "P B A M"
_symmetry_group_IT_number 55
_symmetry_cell_setting 'orthorhombic'
loop_
_space_group_symop_operation_xyz
x,y,z
-x,-y,z
1/2+x,1/2-y,-z
1/2-x,1/2+y,-z
-x,-y,-z
x,y,-z
1/2-x,1/2+y,z
1/2+x,1/2-y,z
loop_
_atom_site_type_symbol
_atom_site_label
_atom_site_fract_x
_atom_site_fract_y
_atom_site_fract_z
Si Si1 0.302814 0.088412 0.376269
Si Si2 0.351320 0.012500 0.928949
Si Si3 0.068977 0.294305 0.575449
Si Si4 0.746877 0.245873 0.162316
Si Si5 0.147770 0.001584 0.250947
O O1 0.432763 0.200627 0.378893
O O2 0.165844 0.159259 0.403883
O O3 0.269643 0.033042 0.302066
O O4 0.344951 0.946291 0.420010
O O5 0.330626 0.879735 0.877520
O O6 0.500000 0.000000 0.953312
O O7 0.336644 0.170005 0.891596
O O8 0.268062 0.006054 0.000000
O O9 0.021435 0.271200 0.500000
O O10 0.647579 0.368071 0.195296
O O11 0.831300 0.162907 0.219764
O O12 0.000000 0.000000 0.284495
#
# Coordination Sequence:
#
# PCOD8226610 Si02
#       5
#     8   8   8   8   8
#     4  11  25  42  68  97 131 172 217 269 325 390
#     4  10  20  37  62  92 125 165 212 262 318 380
#     4  11  24  46  69  99 133 170 216 269 327 391
#     4  10  22  40  60  91 126 171 209 268 318 386
#     4  11  24  41  62  92 129 169 219 267 325 392
#
# _framework density 22.322997000000001
#
# number of rings (size 3 to 8) (size 9 to 14) (size 15 to 20)
#    0.000    1.400    0.000    5.400    5.600    0.000 
#   14.400    2.000    0.000    9.600    0.000    0.000 
#    0.000    0.000    0.000    0.000    0.000    0.000 
#
# Total GULP energy -495670.914135 kJ/mol
# GULP energy per Si atom -12391.772853 kJ/mol
# Density = 2.227219 g / cm^3
# Si number density = 22.322997 Si / 1000 Ang^3
#
#
#
# Elastic Constant Matrix: (Units=GPa)
#
#
# Indices 1 2 3 4 5 6 
#
# 1 111.0643 15.3378 38.0794 0.0000 0.0000 0.0000
# 2 15.3378 73.5168 15.2656 0.0000 0.0000 0.0000
# 3 38.0794 15.2656 100.9367 0.0000 0.0000 0.0000
# 4 0.0000 0.0000 0.0000 36.6170 0.0000 0.0000
# 5 0.0000 0.0000 0.0000 0.0000 23.5308 0.0000
# 6 0.0000 0.0000 0.0000 0.0000 0.0000 30.1548
#
#
#
# Elastic Compliance Matrix: (Units=1/GPa)
#
#
# Indices 1 2 3 4 5 6 
#
# 1 0.010481 -0.001410 -0.003741 0.000000 0.000000 0.000000
# 2 -0.001410 0.014233 -0.001621 0.000000 0.000000 0.000000
# 3 -0.003741 -0.001621 0.011564 0.000000 0.000000 0.000000
# 4 0.000000 0.000000 0.000000 0.027310 0.000000 0.000000
# 5 0.000000 0.000000 0.000000 0.000000 0.042497 0.000000
# 6 0.000000 0.000000 0.000000 0.000000 0.000000 0.033162
#
#
# Mechanical properties :
#
#
# Convention : Reuss Voigt Hill
#
# Bulk Modulus (GPa) = 43.98547 46.98706 45.48626
# Shear Modulus (GPa) = 31.17824 32.51619 31.84721
#
# Velocity S-wave (km/s) = 3.74128 3.82071 3.78121
# Velocity P-wave (km/s) = 6.19756 6.36853 6.28363
#
# Compressibility (1/GPa) = 0.02273478
#
# Stress axis : x y z
#
# Youngs Moduli (GPa) = 95.40996 70.25921 86.47836
#
# Poissons Ratio (x) = 0.09906 0.32350
# Poissons Ratio (y) = 0.13452 0.14016
# Poissons Ratio (z) = 0.35692 0.11387
#
# Static dielectric constant tensor:
#      x y z
#    x 3.881130 0.000000 0.000000 
#    y 0.000000 4.447030 0.000000 
#    z 0.000000 0.000000 4.067210 
# 
# 
# High freq. dielectric constant tensor:
#      x y z
#    x 1.862850 0.000000 0.000000 
#    y 0.000000 1.888000 0.000000 
#    z 0.000000 0.000000 1.892180 
# 
# From -- ./inp_files/21181.got.cif
#   From: 2010.03.12/outbox.cif.g09.slc.cpg/sg55_11_cif.got.tgz:21181.got - 2010.04.16 15:19:21.
