data_PCOD8226210
_publ_section_title
;
Structure prediction by ZEFSAII (Michael W. Deem and Ramdas Pophale) SiO2 
 PCOD8226210
Probable space group: P B A M
;
_chemical_formula_sum "Si O2"
_cell_formula_units_Z 40
_cell_length_a 13.461681
_cell_length_b 13.426374
_cell_length_c 12.669231
_cell_angle_alpha 90.000000
_cell_angle_beta 90.000000
_cell_angle_gamma 90.000000
_cell_volume 2289.856623
_symmetry_space_group_name_H-M "P B A M"
_symmetry_group_IT_number 55
_symmetry_cell_setting 'orthorhombic'
loop_
_space_group_symop_operation_xyz
x,y,z
-x,-y,z
1/2+x,1/2-y,-z
1/2-x,1/2+y,-z
-x,-y,-z
x,y,-z
1/2-x,1/2+y,z
1/2+x,1/2-y,z
loop_
_atom_site_type_symbol
_atom_site_label
_atom_site_fract_x
_atom_site_fract_y
_atom_site_fract_z
Si Si1 0.461044 0.891766 0.120746
Si Si2 0.799614 0.706083 0.738789
Si Si3 0.089735 0.121883 0.620339
Si Si4 0.881359 0.090879 0.302243
Si Si5 0.371487 0.272143 0.121168
O O1 0.371842 0.868065 0.199232
O O2 0.548820 0.813669 0.137434
O O3 0.500000 0.000000 0.151729
O O4 0.422696 0.889505 0.000000
O O5 0.860367 0.779482 0.665038
O O6 0.724811 0.639877 0.665208
O O7 0.732525 0.764894 0.825933
O O8 0.123620 0.106337 0.500000
O O9 0.970034 0.131200 0.623203
O O10 0.125360 0.028356 0.690683
O O11 0.906336 0.126568 0.181809
O O12 0.354545 0.299228 0.000000
#
# Coordination Sequence:
#
# PCOD8226210 Si02
#       5
#     8   8   8   8   8
#     4  10  20  35  57  83 116 154 180 223 287 343
#     4  10  20  36  59  85 112 143 193 234 274 341
#     4  11  22  40  59  80 112 153 191 242 287 321
#     4   9  21  37  58  81 115 145 192 229 280 346
#     4   9  19  35  56  84 119 147 181 227 282 342
#
# _framework density 17.468342
#
# number of rings (size 3 to 8) (size 9 to 14) (size 15 to 20)
#    1.200    1.000    2.000    1.800    2.800    1.600 
#    0.000    4.000    0.000    0.600    0.000    0.000 
#    0.000    0.000    0.000    0.000    0.000    0.000 
#
# Total GULP energy -495637.413495 kJ/mol
# GULP energy per Si atom -12390.935337 kJ/mol
# Density = 1.742858 g / cm^3
# Si number density = 17.468342 Si / 1000 Ang^3
#
#
#
# Elastic Constant Matrix: (Units=GPa)
#
#
# Indices 1 2 3 4 5 6 
#
# 1 109.7204 61.8341 32.7995 0.0000 0.0000 0.0000
# 2 61.8341 112.4079 50.0123 0.0000 0.0000 0.0000
# 3 32.7995 50.0123 83.3983 0.0000 0.0000 0.0000
# 4 0.0000 0.0000 0.0000 15.5005 0.0000 0.0000
# 5 0.0000 0.0000 0.0000 0.0000 16.3409 0.0000
# 6 0.0000 0.0000 0.0000 0.0000 0.0000 22.0206
#
#
#
# Elastic Compliance Matrix: (Units=1/GPa)
#
#
# Indices 1 2 3 4 5 6 
#
# 1 0.013289 -0.006799 -0.001149 0.000000 0.000000 0.000000
# 2 -0.006799 0.015612 -0.006688 0.000000 0.000000 0.000000
# 3 -0.001149 -0.006688 0.016453 0.000000 0.000000 0.000000
# 4 0.000000 0.000000 0.000000 0.064514 0.000000 0.000000
# 5 0.000000 0.000000 0.000000 0.000000 0.061196 0.000000
# 6 0.000000 0.000000 0.000000 0.000000 0.000000 0.045412
#
#
# Mechanical properties :
#
#
# Convention : Reuss Voigt Hill
#
# Bulk Modulus (GPa) = 62.18245 66.09093 64.13669
# Shear Modulus (GPa) = 19.91159 21.49779 20.70469
#
# Velocity S-wave (km/s) = 3.37985 3.51190 3.44651
# Velocity P-wave (km/s) = 7.13482 7.37302 7.25490
#
# Compressibility (1/GPa) = 0.01608171
#
# Stress axis : x y z
#
# Youngs Moduli (GPa) = 75.24897 64.05391 60.77745
#
# Poissons Ratio (x) = 0.43549 0.06985
# Poissons Ratio (y) = 0.51161 0.40649
# Poissons Ratio (z) = 0.08649 0.42841
#
# Static dielectric constant tensor:
#      x y z
#    x 3.317320 0.000000 0.000000 
#    y 0.000000 3.077370 0.000000 
#    z 0.000000 0.000000 3.102940 
# 
# 
# High freq. dielectric constant tensor:
#      x y z
#    x 1.681890 0.000000 0.000000 
#    y 0.000000 1.665400 0.000000 
#    z 0.000000 0.000000 1.662570 
# 
# From -- ./inp_files/13960.got.cif
#   From: 2010.03.12/outbox.cif.g09.slc.cpg/sg55_7_cif.got.tgz:13960.got - 2010.04.16 15:19:21.
