data_PCOD8226495
_publ_section_title
;
Structure prediction by ZEFSAII (Michael W. Deem and Ramdas Pophale) SiO2 
 PCOD8226495
Probable space group: P B A M
;
_chemical_formula_sum "Si O2"
_cell_formula_units_Z 56
_cell_length_a 22.995633
_cell_length_b 13.759201
_cell_length_c 9.122706
_cell_angle_alpha 90.000000
_cell_angle_beta 90.000000
_cell_angle_gamma 90.000000
_cell_volume 2886.438196
_symmetry_space_group_name_H-M "P B A M"
_symmetry_group_IT_number 55
_symmetry_cell_setting 'orthorhombic'
loop_
_space_group_symop_operation_xyz
x,y,z
-x,-y,z
1/2+x,1/2-y,-z
1/2-x,1/2+y,-z
-x,-y,-z
x,y,-z
1/2-x,1/2+y,z
1/2+x,1/2-y,z
loop_
_atom_site_type_symbol
_atom_site_label
_atom_site_fract_x
_atom_site_fract_y
_atom_site_fract_z
Si Si1 0.969856 0.400694 0.171889
Si Si2 0.037203 0.207856 0.828745
Si Si3 0.441105 0.386644 0.661415
Si Si4 0.325303 0.479446 0.325463
Si Si5 0.832858 0.827714 0.168758
Si Si6 0.275588 0.297322 0.169717
Si Si7 0.129253 0.688704 0.664174
O O1 0.908535 0.394780 0.256988
O O2 0.000000 0.500000 0.220859
O O3 0.012518 0.312836 0.217415
O O4 0.956091 0.398842 0.000000
O O5 0.103404 0.202168 0.773178
O O6 0.998895 0.120132 0.759895
O O7 0.033215 0.192622 0.000000
O O8 0.461759 0.417864 0.500000
O O9 0.392877 0.462196 0.722141
O O10 0.409699 0.283795 0.656646
O O11 0.318058 0.472009 0.500000
O O12 0.307253 0.584594 0.266098
O O13 0.283557 0.398966 0.253286
O O14 0.791516 0.734192 0.186208
O O15 0.834972 0.861992 0.000000
O O16 0.313756 0.211121 0.240540
O O17 0.293561 0.309770 0.000000
O O18 0.147025 0.655195 0.500000
#
# Coordination Sequence:
#
# PCOD8226495 Si02
#       7
#     8   8   8   8   8   8   8
#     4   9  17  31  52  79 109 144 185 226 275 333
#     4   9  18  33  52  76 108 142 178 225 273 321
#     4   8  16  31  51  76 104 136 170 211 266 324
#     4  10  21  37  58  82 109 142 182 228 277 333
#     4  10  22  38  55  79 111 147 185 229 278 325
#     4  10  20  37  58  78 106 144 187 232 275 327
#     4   9  17  31  52  76 104 138 179 225 272 321
#
# _framework density 19.401074000000001
#
# number of rings (size 3 to 8) (size 9 to 14) (size 15 to 20)
#    0.000    2.714    0.000    2.143    0.000    6.571 
#    2.571    2.857    0.000    0.000    0.000    0.000 
#    0.000    0.000    0.000    0.000    0.000    0.000 
#
# Total GULP energy -694318.105235 kJ/mol
# GULP energy per Si atom -12398.537593 kJ/mol
# Density = 1.935692 g / cm^3
# Si number density = 19.401074 Si / 1000 Ang^3
#
#
#
# Elastic Constant Matrix: (Units=GPa)
#
#
# Indices 1 2 3 4 5 6 
#
# 1 95.3499 25.3439 39.1720 0.0000 0.0000 0.0000
# 2 25.3439 66.6207 31.2255 0.0000 0.0000 0.0000
# 3 39.1720 31.2255 83.1311 0.0000 0.0000 0.0000
# 4 0.0000 0.0000 0.0000 21.4531 0.0000 0.0000
# 5 0.0000 0.0000 0.0000 0.0000 17.1839 0.0000
# 6 0.0000 0.0000 0.0000 0.0000 0.0000 26.1283
#
#
#
# Elastic Compliance Matrix: (Units=1/GPa)
#
#
# Indices 1 2 3 4 5 6 
#
# 1 0.013363 -0.002588 -0.005325 0.000000 0.000000 0.000000
# 2 -0.002588 0.018719 -0.005812 0.000000 0.000000 0.000000
# 3 -0.005325 -0.005812 0.016721 0.000000 0.000000 0.000000
# 4 0.000000 0.000000 0.000000 0.046613 0.000000 0.000000
# 5 0.000000 0.000000 0.000000 0.000000 0.058194 0.000000
# 6 0.000000 0.000000 0.000000 0.000000 0.000000 0.038273
#
#
# Mechanical properties :
#
#
# Convention : Reuss Voigt Hill
#
# Bulk Modulus (GPa) = 46.82848 48.50938 47.66893
# Shear Modulus (GPa) = 22.07994 22.91040 22.49517
#
# Velocity S-wave (km/s) = 3.37720 3.44013 3.40881
# Velocity P-wave (km/s) = 6.27669 6.39039 6.33379
#
# Compressibility (1/GPa) = 0.02135452
#
# Stress axis : x y z
#
# Youngs Moduli (GPa) = 74.83315 53.42220 59.80427
#
# Poissons Ratio (x) = 0.13825 0.31844
# Poissons Ratio (y) = 0.19366 0.34756
# Poissons Ratio (z) = 0.39847 0.31047
#
# Static dielectric constant tensor:
#      x y z
#    x 3.628520 0.000000 0.000000 
#    y 0.000000 3.364420 0.000000 
#    z 0.000000 0.000000 3.616240 
# 
# 
# High freq. dielectric constant tensor:
#      x y z
#    x 1.751290 0.000000 0.000000 
#    y 0.000000 1.738040 0.000000 
#    z 0.000000 0.000000 1.755150 
# 
# From -- ./inp_files/6144.got.cif
#   From: 2010.03.12/outbox.cif.g09.slc.cpg/sg55_4_cif.got.tgz:6144.got - 2010.04.16 15:19:21.
