data_PCOD8226783
_publ_section_title
;
Structure prediction by ZEFSAII (Michael W. Deem and Ramdas Pophale) SiO2 
 PCOD8226783
Probable space group: P B A M
;
_chemical_formula_sum "Si O2"
_cell_formula_units_Z 48
_cell_length_a 8.780271
_cell_length_b 18.300918
_cell_length_c 15.385169
_cell_angle_alpha 90.000000
_cell_angle_beta 90.000000
_cell_angle_gamma 90.000000
_cell_volume 2472.196952
_symmetry_space_group_name_H-M "P B A M"
_symmetry_group_IT_number 55
_symmetry_cell_setting 'orthorhombic'
loop_
_space_group_symop_operation_xyz
x,y,z
-x,-y,z
1/2+x,1/2-y,-z
1/2-x,1/2+y,-z
-x,-y,-z
x,y,-z
1/2-x,1/2+y,z
1/2+x,1/2-y,z
loop_
_atom_site_type_symbol
_atom_site_label
_atom_site_fract_x
_atom_site_fract_y
_atom_site_fract_z
Si Si1 0.735537 0.357218 0.000000
Si Si2 0.098091 0.927000 0.600085
Si Si3 0.502943 0.331974 0.746210
Si Si4 0.828874 0.693459 0.189310
Si Si5 0.445284 0.779257 0.000000
Si Si6 0.856105 0.547729 0.729597
Si Si7 0.356800 0.541961 0.148756
O O1 0.740672 0.409643 0.917477
O O2 0.877068 0.300900 0.000000
O O3 0.580113 0.308860 0.000000
O O4 0.118307 0.906429 0.500000
O O5 0.030554 0.853230 0.645768
O O6 0.261828 0.943912 0.641415
O O7 0.000000 0.000000 0.612580
O O8 0.620400 0.266451 0.760046
O O9 0.352577 0.312038 0.800740
O O10 0.574425 0.407182 0.777781
O O11 0.913479 0.626417 0.236449
O O12 0.866195 0.690526 0.087059
O O13 0.757356 0.515168 0.808167
O O14 0.000000 0.500000 0.705196
O O15 0.500000 0.500000 0.103613
#
# Coordination Sequence:
#
# PCOD8226783 Si02
#       7
#     4   8   8   8   4   8   8
#     4  12  27  35  63  87 127 166 214 268 309 370
#     4  10  20  40  68  93 121 162 204 254 316 385
#     4  11  22  41  62  92 120 163 208 257 315 380
#     4  11  24  38  64  85 126 170 207 258 309 370
#     4  12  24  41  55  96 123 167 218 255 306 372
#     4  11  23  40  64  94 128 163 207 264 314 377
#     4  12  22  43  60  87 124 164 213 258 313 378
#
# _framework density 19.415928999999998
#
# number of rings (size 3 to 8) (size 9 to 14) (size 15 to 20)
#    0.000    0.833    6.667    2.250    2.333    1.000 
#    0.000    5.000    0.000    0.000    0.000    0.000 
#    0.000    0.000    0.000    0.000    0.000    0.000 
#
# Total GULP energy -595109.416627 kJ/mol
# GULP energy per Si atom -12398.112846 kJ/mol
# Density = 1.937174 g / cm^3
# Si number density = 19.415929 Si / 1000 Ang^3
#
#
#
# Elastic Constant Matrix: (Units=GPa)
#
#
# Indices 1 2 3 4 5 6 
#
# 1 65.3922 27.5806 36.1423 0.0000 0.0000 0.0000
# 2 27.5806 97.9807 39.1381 0.0000 0.0000 0.0000
# 3 36.1423 39.1381 140.0583 0.0000 0.0000 0.0000
# 4 0.0000 0.0000 0.0000 104.5088 0.0000 0.0000
# 5 0.0000 0.0000 0.0000 0.0000 12.1772 0.0000
# 6 0.0000 0.0000 0.0000 0.0000 0.0000 29.2215
#
#
#
# Elastic Compliance Matrix: (Units=1/GPa)
#
#
# Indices 1 2 3 4 5 6 
#
# 1 0.019028 -0.003821 -0.003842 0.000000 0.000000 0.000000
# 2 -0.003821 0.012256 -0.002439 0.000000 0.000000 0.000000
# 3 -0.003842 -0.002439 0.008813 0.000000 0.000000 0.000000
# 4 0.000000 0.000000 0.000000 0.009569 0.000000 0.000000
# 5 0.000000 0.000000 0.000000 0.000000 0.082121 0.000000
# 6 0.000000 0.000000 0.000000 0.000000 0.000000 0.034221
#
#
# Mechanical properties :
#
#
# Convention : Reuss Voigt Hill
#
# Bulk Modulus (GPa) = 50.27194 56.57260 53.42227
# Shear Modulus (GPa) = 25.92790 42.55284 34.24037
#
# Velocity S-wave (km/s) = 3.65827 4.68658 4.20398
# Velocity P-wave (km/s) = 6.61757 7.64760 7.15116
#
# Compressibility (1/GPa) = 0.01989181
#
# Stress axis : x y z
#
# Youngs Moduli (GPa) = 52.55494 81.59339 113.47041
#
# Poissons Ratio (x) = 0.31179 0.43599
# Poissons Ratio (y) = 0.20083 0.27672
# Poissons Ratio (z) = 0.20193 0.19898
#
# Static dielectric constant tensor:
#      x y z
#    x 3.520540 0.000000 0.000000 
#    y 0.000000 3.756810 0.000000 
#    z 0.000000 0.000000 3.494960 
# 
# 
# High freq. dielectric constant tensor:
#      x y z
#    x 1.754950 0.000000 0.000000 
#    y 0.000000 1.769890 0.000000 
#    z 0.000000 0.000000 1.744420 
# 
# From -- ./inp_files/17406.got.cif
#   From: 2010.03.12/outbox.cif.g09.slc.cpg/sg55_9_cif.got.tgz:17406.got - 2010.04.16 15:19:21.
