data_PCOD8226992
_publ_section_title
;
Structure prediction by ZEFSAII (Michael W. Deem and Ramdas Pophale) SiO2 
 PCOD8226992
Probable space group: P B A M
;
_chemical_formula_sum "Si O2"
_cell_formula_units_Z 56
_cell_length_a 14.178206
_cell_length_b 14.116181
_cell_length_c 14.037878
_cell_angle_alpha 90.000000
_cell_angle_beta 90.000000
_cell_angle_gamma 90.000000
_cell_volume 2809.570693
_symmetry_space_group_name_H-M "P B A M"
_symmetry_group_IT_number 55
_symmetry_cell_setting 'orthorhombic'
loop_
_space_group_symop_operation_xyz
x,y,z
-x,-y,z
1/2+x,1/2-y,-z
1/2-x,1/2+y,-z
-x,-y,-z
x,y,-z
1/2-x,1/2+y,z
1/2+x,1/2-y,z
loop_
_atom_site_type_symbol
_atom_site_label
_atom_site_fract_x
_atom_site_fract_y
_atom_site_fract_z
Si Si1 0.732984 0.586816 0.805089
Si Si2 0.768483 0.516528 0.394485
Si Si3 0.362847 0.176678 0.605522
Si Si4 0.740330 0.383686 0.110376
Si Si5 0.608833 0.753813 0.805581
Si Si6 0.574866 0.163730 0.398186
Si Si7 0.390608 0.761428 0.793191
O O1 0.709829 0.556344 0.695280
O O2 0.739165 0.495273 0.871108
O O3 0.646697 0.652324 0.842773
O O4 0.830699 0.645024 0.821220
O O5 0.721785 0.535123 0.500000
O O6 0.785622 0.405031 0.380108
O O7 0.869815 0.566013 0.389447
O O8 0.348255 0.224758 0.500000
O O9 0.356746 0.249160 0.693956
O O10 0.466870 0.132073 0.612919
O O11 0.840751 0.341233 0.141980
O O12 0.655461 0.333793 0.167506
O O13 0.723734 0.363586 0.000000
O O14 0.498802 0.767283 0.828477
O O15 0.593639 0.213379 0.500000
O O16 0.607217 0.242478 0.321792
#
# Coordination Sequence:
#
# PCOD8226992 Si02
#       7
#     8   8   8   8   8   8   8
#     4  10  21  37  57  83 118 150 189 236 288 336
#     4   9  15  26  47  79 115 151 188 223 267 331
#     4   9  15  26  50  82 116 151 184 222 272 331
#     4  11  24  42  61  83 112 144 189 244 300 348
#     4  10  21  39  61  87 117 151 191 236 285 341
#     4   8  14  26  49  83 118 149 181 221 270 329
#     4   9  21  39  61  87 117 151 189 234 281 348
#
# _framework density 19.931871000000001
#
# number of rings (size 3 to 8) (size 9 to 14) (size 15 to 20)
#    0.000    2.571    1.429    0.429    0.000    6.286 
#    0.000    4.286    0.000    0.000    0.000    5.000 
#    0.000    0.000    0.000    0.000    0.000    0.000 
#
# Total GULP energy -693796.065442 kJ/mol
# GULP energy per Si atom -12389.215454 kJ/mol
# Density = 1.988651 g / cm^3
# Si number density = 19.931871 Si / 1000 Ang^3
#
#
#
# Elastic Constant Matrix: (Units=GPa)
#
#
# Indices 1 2 3 4 5 6 
#
# 1 90.0710 45.5419 29.6441 0.0000 0.0000 0.0000
# 2 45.5419 103.0249 34.9684 0.0000 0.0000 0.0000
# 3 29.6441 34.9684 74.5913 0.0000 0.0000 0.0000
# 4 0.0000 0.0000 0.0000 18.9210 0.0000 0.0000
# 5 0.0000 0.0000 0.0000 0.0000 16.0506 0.0000
# 6 0.0000 0.0000 0.0000 0.0000 0.0000 18.2064
#
#
#
# Elastic Compliance Matrix: (Units=1/GPa)
#
#
# Indices 1 2 3 4 5 6 
#
# 1 0.014986 -0.005474 -0.003389 0.000000 0.000000 0.000000
# 2 -0.005474 0.013543 -0.004173 0.000000 0.000000 0.000000
# 3 -0.003389 -0.004173 0.016710 0.000000 0.000000 0.000000
# 4 0.000000 0.000000 0.000000 0.052851 0.000000 0.000000
# 5 0.000000 0.000000 0.000000 0.000000 0.062303 0.000000
# 6 0.000000 0.000000 0.000000 0.000000 0.000000 0.054926
#
#
# Mechanical properties :
#
#
# Convention : Reuss Voigt Hill
#
# Bulk Modulus (GPa) = 52.17909 54.22177 53.20043
# Shear Modulus (GPa) = 20.17922 21.13779 20.65850
#
# Velocity S-wave (km/s) = 3.18529 3.26007 3.22290
# Velocity P-wave (km/s) = 6.30584 6.43687 6.37169
#
# Compressibility (1/GPa) = 0.01916477
#
# Stress axis : x y z
#
# Youngs Moduli (GPa) = 66.73062 73.84089 59.84487
#
# Poissons Ratio (x) = 0.40420 0.20284
# Poissons Ratio (y) = 0.36528 0.24975
# Poissons Ratio (z) = 0.22618 0.30816
#
# Static dielectric constant tensor:
#      x y z
#    x 3.433110 0.000000 0.000000 
#    y 0.000000 3.330730 0.000000 
#    z 0.000000 0.000000 3.808150 
# 
# 
# High freq. dielectric constant tensor:
#      x y z
#    x 1.756010 0.000000 0.000000 
#    y 0.000000 1.758880 0.000000 
#    z 0.000000 0.000000 1.776600 
# 
# From -- ./inp_files/18967.got.cif
#   From: 2010.03.12/outbox.cif.g09.slc.cpg/sg55_10_cif.got.tgz:18967.got - 2010.04.16 15:19:21.
