data_PCOD8226251
_publ_section_title
;
Structure prediction by ZEFSAII (Michael W. Deem and Ramdas Pophale) SiO2 
 PCOD8226251
Probable space group: P B A M
;
_chemical_formula_sum "Si O2"
_cell_formula_units_Z 64
_cell_length_a 24.685680
_cell_length_b 14.220929
_cell_length_c 8.973401
_cell_angle_alpha 90.000000
_cell_angle_beta 90.000000
_cell_angle_gamma 90.000000
_cell_volume 3150.142057
_symmetry_space_group_name_H-M "P B A M"
_symmetry_group_IT_number 55
_symmetry_cell_setting 'orthorhombic'
loop_
_space_group_symop_operation_xyz
x,y,z
-x,-y,z
1/2+x,1/2-y,-z
1/2-x,1/2+y,-z
-x,-y,-z
x,y,-z
1/2-x,1/2+y,z
1/2+x,1/2-y,z
loop_
_atom_site_type_symbol
_atom_site_label
_atom_site_fract_x
_atom_site_fract_y
_atom_site_fract_z
Si Si1 0.666528 0.981860 0.825767
Si Si2 0.297930 0.814202 0.826328
Si Si3 0.091150 0.220620 0.173700
Si Si4 0.800807 0.287431 0.324094
Si Si5 0.976305 0.285637 0.172271
Si Si6 0.057819 0.537412 0.324850
Si Si7 0.941857 0.966270 0.669180
Si Si8 0.598106 0.662455 0.669206
O O1 0.691563 0.890088 0.748325
O O2 0.607828 0.010518 0.759498
O O3 0.704436 0.073147 0.798041
O O4 0.659899 0.961179 0.000000
O O5 0.355712 0.774513 0.771121
O O6 0.254295 0.759657 0.729572
O O7 0.288308 0.792172 0.000000
O O8 0.085341 0.119409 0.246300
O O9 0.039825 0.287049 0.212196
O O10 0.093028 0.201288 0.000000
O O11 0.798896 0.302590 0.500000
O O12 0.847519 0.214376 0.276310
O O13 0.941907 0.353701 0.279678
O O14 0.951263 0.185553 0.217911
O O15 0.965789 0.309960 0.000000
O O16 0.065346 0.523350 0.500000
O O17 0.000000 0.500000 0.266319
O O18 0.951852 0.933624 0.500000
O O19 0.897151 0.049674 0.679068
O O20 0.000000 0.000000 0.735516
O O21 0.583838 0.692658 0.500000
#
# Coordination Sequence:
#
# PCOD8226251 Si02
#       8
#     8   8   8   8   8   8   8   8
#     4  11  23  42  68  94 125 164 207 257 313 373
#     4  10  24  45  65  89 125 165 208 259 312 366
#     4  10  22  39  59  88 124 161 205 259 311 366
#     4  11  24  42  66  93 125 163 210 262 309 367
#     4  11  21  34  58  88 119 157 202 251 309 371
#     4  11  23  37  57  89 127 165 205 253 311 373
#     4  10  20  35  58  87 122 165 205 247 308 374
#     4  10  21  38  58  85 122 158 199 253 306 364
#
# _framework density 20.316544
#
# number of rings (size 3 to 8) (size 9 to 14) (size 15 to 20)
#    0.000    1.500    2.500    2.250    0.000    6.250 
#    0.000    2.500    0.000    0.000    0.000    0.000 
#    0.000    0.000    0.000    0.000    0.000    0.000 
#
# Total GULP energy -793531.090015 kJ/mol
# GULP energy per Si atom -12398.923281 kJ/mol
# Density = 2.027030 g / cm^3
# Si number density = 20.316544 Si / 1000 Ang^3
#
#
#
# Elastic Constant Matrix: (Units=GPa)
#
#
# Indices 1 2 3 4 5 6 
#
# 1 106.1107 39.9047 46.1303 0.0000 0.0000 0.0000
# 2 39.9047 96.6216 32.6188 0.0000 0.0000 0.0000
# 3 46.1303 32.6188 67.9735 0.0000 0.0000 0.0000
# 4 0.0000 0.0000 0.0000 32.7487 0.0000 0.0000
# 5 0.0000 0.0000 0.0000 0.0000 33.3279 0.0000
# 6 0.0000 0.0000 0.0000 0.0000 0.0000 33.0694
#
#
#
# Elastic Compliance Matrix: (Units=1/GPa)
#
#
# Indices 1 2 3 4 5 6 
#
# 1 0.014103 -0.003095 -0.008086 0.000000 0.000000 0.000000
# 2 -0.003095 0.013030 -0.004152 0.000000 0.000000 0.000000
# 3 -0.008086 -0.004152 0.022192 0.000000 0.000000 0.000000
# 4 0.000000 0.000000 0.000000 0.030536 0.000000 0.000000
# 5 0.000000 0.000000 0.000000 0.000000 0.030005 0.000000
# 6 0.000000 0.000000 0.000000 0.000000 0.000000 0.030239
#
#
# Mechanical properties :
#
#
# Convention : Reuss Voigt Hill
#
# Bulk Modulus (GPa) = 53.59537 56.44595 55.02066
# Shear Modulus (GPa) = 28.25011 29.96600 29.10805
#
# Velocity S-wave (km/s) = 3.73298 3.84468 3.78924
# Velocity P-wave (km/s) = 6.70952 6.89582 6.80331
#
# Compressibility (1/GPa) = 0.01865833
#
# Stress axis : x y z
#
# Youngs Moduli (GPa) = 70.90530 76.74837 45.06164
#
# Poissons Ratio (x) = 0.23752 0.36437
# Poissons Ratio (y) = 0.21944 0.18711
# Poissons Ratio (z) = 0.57335 0.31868
#
# Static dielectric constant tensor:
#      x y z
#    x 3.745770 0.000000 0.000000 
#    y 0.000000 3.726890 0.000000 
#    z 0.000000 0.000000 3.582030 
# 
# 
# High freq. dielectric constant tensor:
#      x y z
#    x 1.787950 0.000000 0.000000 
#    y 0.000000 1.803670 0.000000 
#    z 0.000000 0.000000 1.790200 
# 
# From -- ./inp_files/9810.got.cif
#   From: 2010.03.12/outbox.cif.g09.slc.cpg/sg55_5_cif.got.tgz:9810.got - 2010.04.16 15:19:21.
