data_PCOD8226698
_publ_section_title
;
Structure prediction by ZEFSAII (Michael W. Deem and Ramdas Pophale) SiO2 
 PCOD8226698
Probable space group: P B A M
;
_chemical_formula_sum "Si O2"
_cell_formula_units_Z 48
_cell_length_a 14.740285
_cell_length_b 18.532354
_cell_length_c 8.864350
_cell_angle_alpha 90.000000
_cell_angle_beta 90.000000
_cell_angle_gamma 90.000000
_cell_volume 2421.493811
_symmetry_space_group_name_H-M "P B A M"
_symmetry_group_IT_number 55
_symmetry_cell_setting 'orthorhombic'
loop_
_space_group_symop_operation_xyz
x,y,z
-x,-y,z
1/2+x,1/2-y,-z
1/2-x,1/2+y,-z
-x,-y,-z
x,y,-z
1/2-x,1/2+y,z
1/2+x,1/2-y,z
loop_
_atom_site_type_symbol
_atom_site_label
_atom_site_fract_x
_atom_site_fract_y
_atom_site_fract_z
Si Si1 0.053861 0.431621 0.678930
Si Si2 0.283596 0.263024 0.177078
Si Si3 0.095504 0.034310 0.325029
Si Si4 0.959663 0.286539 0.678784
Si Si5 0.900761 0.814541 0.176752
Si Si6 0.241618 0.912944 0.675980
O O1 0.047140 0.433155 0.500000
O O2 0.158155 0.435453 0.731307
O O3 0.000000 0.500000 0.747675
O O4 0.008791 0.358349 0.740936
O O5 0.357948 0.213517 0.258646
O O6 0.185973 0.232548 0.224569
O O7 0.293482 0.344944 0.230824
O O8 0.299934 0.258639 0.000000
O O9 0.094553 0.056833 0.500000
O O10 0.115503 0.103526 0.224214
O O11 0.175279 0.978628 0.289004
O O12 0.000000 0.000000 0.277198
O O13 0.957003 0.284605 0.500000
O O14 0.012058 0.216093 0.737053
O O15 0.919266 0.810247 0.000000
O O16 0.241243 0.892000 0.500000
#
# Coordination Sequence:
#
# PCOD8226698 Si02
#       6
#     8   8   8   8   8   8
#     4   9  19  35  57  88 119 152 197 250 304 353
#     4  11  24  40  60  88 125 162 199 244 301 366
#     4  10  22  38  60  91 122 154 201 254 302 357
#     4  11  22  38  65  91 118 156 205 257 302 354
#     4  11  24  41  61  88 126 164 200 244 299 367
#     4  10  20  38  63  89 121 158 201 251 300 355
#
# _framework density 19.822474
#
# number of rings (size 3 to 8) (size 9 to 14) (size 15 to 20)
#    0.000    1.667    1.667    2.500    2.333    4.333 
#    0.000    0.000    0.000    2.500    0.000    0.000 
#    0.000    0.000    0.000    0.000    0.000    0.000 
#
# Total GULP energy -595503.167204 kJ/mol
# GULP energy per Si atom -12406.315983 kJ/mol
# Density = 1.977736 g / cm^3
# Si number density = 19.822474 Si / 1000 Ang^3
#
#
#
# Elastic Constant Matrix: (Units=GPa)
#
#
# Indices 1 2 3 4 5 6 
#
# 1 108.8257 36.8807 33.3194 0.0000 0.0000 0.0000
# 2 36.8807 107.1895 29.0483 0.0000 0.0000 0.0000
# 3 33.3194 29.0483 59.7358 0.0000 0.0000 0.0000
# 4 0.0000 0.0000 0.0000 21.8591 0.0000 0.0000
# 5 0.0000 0.0000 0.0000 0.0000 25.4303 0.0000
# 6 0.0000 0.0000 0.0000 0.0000 0.0000 38.5110
#
#
#
# Elastic Compliance Matrix: (Units=1/GPa)
#
#
# Indices 1 2 3 4 5 6 
#
# 1 0.011676 -0.002594 -0.005251 0.000000 0.000000 0.000000
# 2 -0.002594 0.011322 -0.004058 0.000000 0.000000 0.000000
# 3 -0.005251 -0.004058 0.021643 0.000000 0.000000 0.000000
# 4 0.000000 0.000000 0.000000 0.045747 0.000000 0.000000
# 5 0.000000 0.000000 0.000000 0.000000 0.039323 0.000000
# 6 0.000000 0.000000 0.000000 0.000000 0.000000 0.025967
#
#
# Mechanical properties :
#
#
# Convention : Reuss Voigt Hill
#
# Bulk Modulus (GPa) = 48.00103 52.69418 50.34760
# Shear Modulus (GPa) = 26.81977 28.92693 27.87335
#
# Velocity S-wave (km/s) = 3.68230 3.82422 3.75393
# Velocity P-wave (km/s) = 6.50747 6.79267 6.65160
#
# Compressibility (1/GPa) = 0.02083289
#
# Stress axis : x y z
#
# Youngs Moduli (GPa) = 85.64632 88.32570 46.20468
#
# Poissons Ratio (x) = 0.22914 0.24262
# Poissons Ratio (y) = 0.22219 0.18752
# Poissons Ratio (z) = 0.44973 0.35847
#
# Static dielectric constant tensor:
#      x y z
#    x 3.808050 0.000000 0.000000 
#    y 0.000000 3.648510 0.000000 
#    z 0.000000 0.000000 3.365010 
# 
# 
# High freq. dielectric constant tensor:
#      x y z
#    x 1.790620 0.000000 0.000000 
#    y 0.000000 1.780400 0.000000 
#    z 0.000000 0.000000 1.754050 
# 
# From -- ./inp_files/5580.got.cif
#   From: 2010.03.12/outbox.cif.g09.slc.cpg/sg55_3_cif.got.tgz:5580.got - 2010.04.16 15:19:21.
