data_PCOD8226632
_publ_section_title
;
Structure prediction by ZEFSAII (Michael W. Deem and Ramdas Pophale) SiO2 
 PCOD8226632
Probable space group: P B A M
;
_chemical_formula_sum "Si O2"
_cell_formula_units_Z 64
_cell_length_a 32.280937
_cell_length_b 11.177506
_cell_length_c 8.956563
_cell_angle_alpha 90.000000
_cell_angle_beta 90.000000
_cell_angle_gamma 90.000000
_cell_volume 3231.710349
_symmetry_space_group_name_H-M "P B A M"
_symmetry_group_IT_number 55
_symmetry_cell_setting 'orthorhombic'
loop_
_space_group_symop_operation_xyz
x,y,z
-x,-y,z
1/2+x,1/2-y,-z
1/2-x,1/2+y,-z
-x,-y,-z
x,y,-z
1/2-x,1/2+y,z
1/2+x,1/2-y,z
loop_
_atom_site_type_symbol
_atom_site_label
_atom_site_fract_x
_atom_site_fract_y
_atom_site_fract_z
Si Si1 0.023421 0.876909 0.175812
Si Si2 0.688052 0.770237 0.829085
Si Si3 0.770639 0.722866 0.328838
Si Si4 0.381199 0.413069 0.828560
Si Si5 0.151993 0.135189 0.326430
Si Si6 0.323329 0.966875 0.169207
Si Si7 0.013147 0.365046 0.323841
Si Si8 0.402663 0.827554 0.168752
O O1 0.071389 0.893924 0.217909
O O2 0.009341 0.751135 0.250423
O O3 0.016371 0.861306 0.000000
O O4 0.000000 0.000000 0.230404
O O5 0.727154 0.710210 0.752013
O O6 0.643949 0.708346 0.804365
O O7 0.682512 0.902031 0.765684
O O8 0.700304 0.773036 0.000000
O O9 0.759521 0.716503 0.500000
O O10 0.799228 0.839307 0.291280
O O11 0.798658 0.611705 0.285423
O O12 0.358071 0.500285 0.714674
O O13 0.378073 0.458240 0.000000
O O14 0.142630 0.161890 0.500000
O O15 0.122082 0.211501 0.221273
O O16 0.372202 0.940456 0.172001
O O17 0.306399 0.949884 0.000000
O O18 0.006267 0.354743 0.500000
O O19 0.060960 0.354090 0.283089
O O20 0.000000 0.500000 0.268548
O O21 0.419408 0.804794 0.000000
#
# Coordination Sequence:
#
# PCOD8226632 Si02
#       8
#     8   8   8   8   8   8   8   8
#     4  10  22  41  66  95 124 158 206 258 310 369
#     4  10  22  38  57  83 116 154 195 245 296 344
#     4  10  22  38  57  84 116 153 196 241 291 350
#     4  10  22  38  60  89 122 154 196 249 298 351
#     4  10  21  38  60  87 121 157 195 240 294 356
#     4   9  20  38  60  85 113 149 195 243 295 349
#     4  11  25  41  60  91 129 165 202 247 305 372
#     4  10  20  37  64  90 115 152 200 245 294 351
#
# _framework density 19.803756
#
# number of rings (size 3 to 8) (size 9 to 14) (size 15 to 20)
#    0.000    2.000    0.000    2.250    3.500    5.750 
#    0.000    0.000    0.000    0.000    0.000    0.000 
#    0.000    0.000    0.000    0.000    0.000    0.000 
#
# Total GULP energy -793231.325408 kJ/mol
# GULP energy per Si atom -12394.239460 kJ/mol
# Density = 1.975868 g / cm^3
# Si number density = 19.803756 Si / 1000 Ang^3
#
#
#
# Elastic Constant Matrix: (Units=GPa)
#
#
# Indices 1 2 3 4 5 6 
#
# 1 125.5330 44.5186 33.9666 0.0000 0.0000 0.0000
# 2 44.5186 105.1329 36.2699 0.0000 0.0000 0.0000
# 3 33.9666 36.2699 47.5698 0.0000 0.0000 0.0000
# 4 0.0000 0.0000 0.0000 27.2965 0.0000 0.0000
# 5 0.0000 0.0000 0.0000 0.0000 23.4020 0.0000
# 6 0.0000 0.0000 0.0000 0.0000 0.0000 17.0241
#
#
#
# Elastic Compliance Matrix: (Units=1/GPa)
#
#
# Indices 1 2 3 4 5 6 
#
# 1 0.010330 -0.002483 -0.005483 0.000000 0.000000 0.000000
# 2 -0.002483 0.013503 -0.008523 0.000000 0.000000 0.000000
# 3 -0.005483 -0.008523 0.031435 0.000000 0.000000 0.000000
# 4 0.000000 0.000000 0.000000 0.036635 0.000000 0.000000
# 5 0.000000 0.000000 0.000000 0.000000 0.042731 0.000000
# 6 0.000000 0.000000 0.000000 0.000000 0.000000 0.058740
#
#
# Mechanical properties :
#
#
# Convention : Reuss Voigt Hill
#
# Bulk Modulus (GPa) = 44.86082 56.41619 50.63851
# Shear Modulus (GPa) = 21.38732 24.44324 22.91528
#
# Velocity S-wave (km/s) = 3.28984 3.51703 3.40533
# Velocity P-wave (km/s) = 6.09365 6.71135 6.40994
#
# Compressibility (1/GPa) = 0.02229117
#
# Stress axis : x y z
#
# Youngs Moduli (GPa) = 96.80453 74.05521 31.81127
#
# Poissons Ratio (x) = 0.18385 0.17443
# Poissons Ratio (y) = 0.24033 0.27113
# Poissons Ratio (z) = 0.53079 0.63118
#
# Static dielectric constant tensor:
#      x y z
#    x 3.727550 0.000000 0.000000 
#    y 0.000000 3.787740 0.000000 
#    z 0.000000 0.000000 3.529690 
# 
# 
# High freq. dielectric constant tensor:
#      x y z
#    x 1.778910 0.000000 0.000000 
#    y 0.000000 1.776780 0.000000 
#    z 0.000000 0.000000 1.768350 
# 
# From -- ./inp_files/10730.got.cif
#   From: 2010.03.12/outbox.cif.g09.slc.cpg/sg55_6_cif.got.tgz:10730.got - 2010.04.16 15:19:21.
