data_PCOD8226532
_publ_section_title
;
Structure prediction by ZEFSAII (Michael W. Deem and Ramdas Pophale) SiO2 
 PCOD8226532
Probable space group: P B A M
;
_chemical_formula_sum "Si O2"
_cell_formula_units_Z 48
_cell_length_a 28.612613
_cell_length_b 9.448710
_cell_length_c 8.477360
_cell_angle_alpha 90.000000
_cell_angle_beta 90.000000
_cell_angle_gamma 90.000000
_cell_volume 2291.873626
_symmetry_space_group_name_H-M "P B A M"
_symmetry_group_IT_number 55
_symmetry_cell_setting 'orthorhombic'
loop_
_space_group_symop_operation_xyz
x,y,z
-x,-y,z
1/2+x,1/2-y,-z
1/2-x,1/2+y,-z
-x,-y,-z
x,y,-z
1/2-x,1/2+y,z
1/2+x,1/2-y,z
loop_
_atom_site_type_symbol
_atom_site_label
_atom_site_fract_x
_atom_site_fract_y
_atom_site_fract_z
Si Si1 0.297216 0.980165 0.315467
Si Si2 0.977842 0.638685 0.821259
Si Si3 0.540711 0.599696 0.178836
Si Si4 0.620830 0.215853 0.685502
Si Si5 0.136221 0.969970 0.683200
Si Si6 0.717518 0.709770 0.817439
O O1 0.299818 0.015402 0.500000
O O2 0.345764 0.910560 0.252389
O O3 0.257158 0.864383 0.286693
O O4 0.287134 0.124989 0.224408
O O5 0.932729 0.692766 0.729798
O O6 0.000000 0.500000 0.741009
O O7 0.021244 0.743497 0.816110
O O8 0.961540 0.608803 0.000000
O O9 0.500000 0.500000 0.244618
O O10 0.584103 0.588612 0.295637
O O11 0.554865 0.554573 0.000000
O O12 0.624592 0.222135 0.500000
O O13 0.638692 0.368599 0.748404
O O14 0.150498 0.959497 0.500000
O O15 0.169281 0.871035 0.786738
O O16 0.731008 0.697306 0.000000
#
# Coordination Sequence:
#
# PCOD8226532 Si02
#       6
#     8   8   8   8   8   8
#     4  11  24  45  69  95 129 167 209 260 319 381
#     4  10  22  38  58  86 123 166 208 257 314 369
#     4  10  20  37  59  87 123 165 211 260 313 372
#     4  10  23  41  63  91 123 164 210 257 311 373
#     4  11  23  40  64  93 127 168 212 262 318 378
#     4  12  26  44  68  99 129 165 210 261 318 383
#
# _framework density 20.943563999999999
#
# number of rings (size 3 to 8) (size 9 to 14) (size 15 to 20)
#    0.000    1.333    1.667    3.500    2.333    4.667 
#    0.000    0.000    0.000    0.000    0.000    0.000 
#    0.000    0.000    0.000    0.000    0.000    0.000 
#
# Total GULP energy -595293.626097 kJ/mol
# GULP energy per Si atom -12401.950544 kJ/mol
# Density = 2.089590 g / cm^3
# Si number density = 20.943564 Si / 1000 Ang^3
#
#
#
# Elastic Constant Matrix: (Units=GPa)
#
#
# Indices 1 2 3 4 5 6 
#
# 1 81.0294 32.8590 12.5364 0.0000 0.0000 0.0000
# 2 32.8590 133.8846 16.3155 0.0000 0.0000 0.0000
# 3 12.5364 16.3155 37.1375 0.0000 0.0000 0.0000
# 4 0.0000 0.0000 0.0000 -64.1957 0.0000 0.0000
# 5 0.0000 0.0000 0.0000 0.0000 546.8187 0.0000
# 6 0.0000 0.0000 0.0000 0.0000 0.0000 41.1316
#
#
#
# Elastic Compliance Matrix: (Units=1/GPa)
#
#
# Indices 1 2 3 4 5 6 
#
# 1 0.014106 -0.003045 -0.003424 0.000000 0.000000 0.000000
# 2 -0.003045 0.008549 -0.002728 0.000000 0.000000 0.000000
# 3 -0.003424 -0.002728 0.029281 0.000000 0.000000 0.000000
# 4 0.000000 0.000000 0.000000 -0.015577 0.000000 0.000000
# 5 0.000000 0.000000 0.000000 0.000000 0.001829 0.000000
# 6 0.000000 0.000000 0.000000 0.000000 0.000000 0.024312
#
#
# Mechanical properties :
#
#
# Convention : Reuss Voigt Hill
#
# Bulk Modulus (GPa) = 29.81295 41.71926 35.76610
# Shear Modulus (GPa) = 54.30458 117.44030 85.87244
#
# Velocity S-wave (km/s) = 5.09758 7.49642 6.41021
# Velocity P-wave (km/s) = 6.99377 9.74123 8.47952
#
# Compressibility (1/GPa) = 0.03354247
#
# Stress axis : x y z
#
# Youngs Moduli (GPa) = 70.89377 116.97557 34.15153
#
# Poissons Ratio (x) = 0.35615 0.11694
# Poissons Ratio (y) = 0.21585 0.09316
# Poissons Ratio (z) = 0.24274 0.31910
#
# Static dielectric constant tensor:
#      x y z
#    x 3.848900 0.000000 0.000000 
#    y 0.000000 4.050810 0.000000 
#    z 0.000000 0.000000 3.647630 
# 
# 
# High freq. dielectric constant tensor:
#      x y z
#    x 1.826530 0.000000 0.000000 
#    y 0.000000 1.837290 0.000000 
#    z 0.000000 0.000000 1.807910 
# 
# From -- ./inp_files/10511.got.cif
#   From: 2010.03.12/outbox.cif.g09.slc.cpg/sg55_6_cif.got.tgz:10511.got - 2010.04.16 15:19:21.
