data_PCOD8226158
_publ_section_title
;
Structure prediction by ZEFSAII (Michael W. Deem and Ramdas Pophale) SiO2 
 PCOD8226158
Probable space group: P B A M
;
_chemical_formula_sum "Si O2"
_cell_formula_units_Z 64
_cell_length_a 19.271436
_cell_length_b 9.240705
_cell_length_c 17.877399
_cell_angle_alpha 90.000000
_cell_angle_beta 90.000000
_cell_angle_gamma 90.000000
_cell_volume 3183.636801
_symmetry_space_group_name_H-M "P B A M"
_symmetry_group_IT_number 55
_symmetry_cell_setting 'orthorhombic'
loop_
_space_group_symop_operation_xyz
x,y,z
-x,-y,z
1/2+x,1/2-y,-z
1/2-x,1/2+y,-z
-x,-y,-z
x,y,-z
1/2-x,1/2+y,z
1/2+x,1/2-y,z
loop_
_atom_site_type_symbol
_atom_site_label
_atom_site_fract_x
_atom_site_fract_y
_atom_site_fract_z
Si Si1 0.182903 0.466108 0.738180
Si Si2 0.752084 0.283449 0.174640
Si Si3 0.552316 0.886333 0.696572
Si Si4 0.764276 0.516265 0.416612
Si Si5 0.345100 0.263190 0.417290
Si Si6 0.875142 0.842561 0.914718
Si Si7 0.118410 0.829899 0.915358
Si Si8 0.994610 0.669470 0.845831
O O1 0.201992 0.336082 0.790916
O O2 0.231548 0.601967 0.760169
O O3 0.103234 0.513389 0.747450
O O4 0.190721 0.418986 0.651058
O O5 0.706116 0.349948 0.108250
O O6 0.822716 0.217982 0.142773
O O7 0.594251 0.782137 0.640133
O O8 0.511604 0.791438 0.758418
O O9 0.500000 0.000000 0.654719
O O10 0.787665 0.570406 0.500000
O O11 0.684768 0.573740 0.402829
O O12 0.777187 0.342626 0.412140
O O13 0.378453 0.254186 0.500000
O O14 0.918598 0.731417 0.863997
O O15 0.903464 0.004071 0.903603
O O16 0.879981 0.790061 0.000000
O O17 0.048936 0.741325 0.901968
O O18 0.144925 0.803494 0.000000
O O19 0.000000 0.500000 0.860731
#
# Coordination Sequence:
#
# PCOD8226158 Si02
#       8
#     8   8   8   8   8   8   8   8
#     4  11  21  36  61  85 120 156 193 246 300 356
#     4  12  22  40  58  90 117 152 196 250 307 363
#     4  10  20  35  55  84 118 153 198 245 289 352
#     4   9  18  33  54  86 120 150 190 236 289 348
#     4   9  18  33  56  87 121 157 195 239 296 353
#     4  11  25  42  61  85 118 157 200 252 311 369
#     4  11  24  42  60  83 117 153 196 251 307 365
#     4  11  23  41  61  86 115 155 205 252 298 359
#
# _framework density 20.102795
#
# number of rings (size 3 to 8) (size 9 to 14) (size 15 to 20)
#    0.000    1.500    2.500    4.125    0.000    2.250 
#    0.000    0.000    0.000    0.000    0.000    0.875 
#    0.000   38.000    0.000    0.000    0.000    0.000 
#
# Total GULP energy -793028.432120 kJ/mol
# GULP energy per Si atom -12391.069252 kJ/mol
# Density = 2.005704 g / cm^3
# Si number density = 20.102795 Si / 1000 Ang^3
#
#
#
# Elastic Constant Matrix: (Units=GPa)
#
#
# Indices 1 2 3 4 5 6 
#
# 1 88.8944 25.3898 28.8624 0.0000 0.0000 0.0000
# 2 25.3898 67.6203 29.7304 0.0000 0.0000 0.0000
# 3 28.8624 29.7304 102.1950 0.0000 0.0000 0.0000
# 4 0.0000 0.0000 0.0000 25.0339 0.0000 0.0000
# 5 0.0000 0.0000 0.0000 0.0000 30.3075 0.0000
# 6 0.0000 0.0000 0.0000 0.0000 0.0000 26.7462
#
#
#
# Elastic Compliance Matrix: (Units=1/GPa)
#
#
# Indices 1 2 3 4 5 6 
#
# 1 0.013185 -0.003799 -0.002618 0.000000 0.000000 0.000000
# 2 -0.003799 0.018052 -0.004179 0.000000 0.000000 0.000000
# 3 -0.002618 -0.004179 0.011740 0.000000 0.000000 0.000000
# 4 0.000000 0.000000 0.000000 0.039946 0.000000 0.000000
# 5 0.000000 0.000000 0.000000 0.000000 0.032995 0.000000
# 6 0.000000 0.000000 0.000000 0.000000 0.000000 0.037389
#
#
# Mechanical properties :
#
#
# Convention : Reuss Voigt Hill
#
# Bulk Modulus (GPa) = 45.90430 47.40833 46.65632
# Shear Modulus (GPa) = 27.50866 28.06598 27.78732
#
# Velocity S-wave (km/s) = 3.70320 3.74053 3.72191
# Velocity P-wave (km/s) = 6.41633 6.50304 6.45983
#
# Compressibility (1/GPa) = 0.02178445
#
# Stress axis : x y z
#
# Youngs Moduli (GPa) = 75.84621 55.39485 85.17619
#
# Poissons Ratio (x) = 0.21046 0.22302
# Poissons Ratio (y) = 0.28816 0.35593
# Poissons Ratio (z) = 0.19859 0.23148
#
# Static dielectric constant tensor:
#      x y z
#    x 3.558190 0.000000 0.000000 
#    y 0.000000 3.630500 0.000000 
#    z 0.000000 0.000000 3.750250 
# 
# 
# High freq. dielectric constant tensor:
#      x y z
#    x 1.773520 0.000000 0.000000 
#    y 0.000000 1.774940 0.000000 
#    z 0.000000 0.000000 1.795060 
# 
# From -- ./inp_files/21940.got.cif
#   From: 2010.03.12/outbox.cif.g09.slc.cpg/sg55_11_cif.got.tgz:21940.got - 2010.04.16 15:19:21.
