data_PCOD8226099
_publ_section_title
;
Structure prediction by ZEFSAII (Michael W. Deem and Ramdas Pophale) SiO2 
 PCOD8226099
Probable space group: P B A M
;
_chemical_formula_sum "Si O2"
_cell_formula_units_Z 56
_cell_length_a 21.946350
_cell_length_b 14.671514
_cell_length_c 8.985282
_cell_angle_alpha 90.000000
_cell_angle_beta 90.000000
_cell_angle_gamma 90.000000
_cell_volume 2893.136639
_symmetry_space_group_name_H-M "P B A M"
_symmetry_group_IT_number 55
_symmetry_cell_setting 'orthorhombic'
loop_
_space_group_symop_operation_xyz
x,y,z
-x,-y,z
1/2+x,1/2-y,-z
1/2-x,1/2+y,-z
-x,-y,-z
x,y,-z
1/2-x,1/2+y,z
1/2+x,1/2-y,z
loop_
_atom_site_type_symbol
_atom_site_label
_atom_site_fract_x
_atom_site_fract_y
_atom_site_fract_z
Si Si1 0.680571 0.557717 0.324439
Si Si2 0.985797 0.272781 0.177450
Si Si3 0.400600 0.887403 0.823422
Si Si4 0.885433 0.411100 0.823374
Si Si5 0.727300 0.187081 0.826858
Si Si6 0.041401 0.914964 0.325563
Si Si7 0.248552 0.105260 0.826909
O O1 0.687974 0.556518 0.500000
O O2 0.715950 0.644742 0.260226
O O3 0.610423 0.565854 0.275708
O O4 0.705855 0.463589 0.260721
O O5 0.927963 0.330254 0.238554
O O6 0.984712 0.171898 0.240554
O O7 0.046313 0.322792 0.239303
O O8 0.985791 0.268642 0.000000
O O9 0.334977 0.855461 0.762946
O O10 0.412186 0.991318 0.771429
O O11 0.400217 0.880977 0.000000
O O12 0.817054 0.399545 0.762267
O O13 0.884535 0.405453 0.000000
O O14 0.723006 0.294378 0.799543
O O15 0.736702 0.164016 0.000000
O O16 0.036816 0.895796 0.500000
O O17 0.000000 0.000000 0.277685
O O18 0.247696 0.077810 0.000000
#
# Coordination Sequence:
#
# PCOD8226099 Si02
#       7
#     8   8   8   8   8   8   8
#     4  11  23  39  59  83 112 150 193 236 282 339
#     4  10  20  34  59  90 112 142 192 237 275 330
#     4   9  17  31  54  86 119 146 179 230 283 333
#     4   9  16  31  54  84 118 148 175 218 285 341
#     4  10  20  36  59  87 118 150 188 236 290 341
#     4  10  24  44  59  75 110 156 191 229 290 345
#     4  10  20  34  58  85 113 149 186 231 288 340
#
# _framework density 19.356155000000001
#
# number of rings (size 3 to 8) (size 9 to 14) (size 15 to 20)
#    0.000    2.143    1.429    1.714    2.000    4.857 
#    0.000    1.429    0.000    0.857    0.000    0.000 
#    0.000    0.000    0.000    0.000    0.000    0.000 
#
# Total GULP energy -694490.384804 kJ/mol
# GULP energy per Si atom -12401.614014 kJ/mol
# Density = 1.931210 g / cm^3
# Si number density = 19.356155 Si / 1000 Ang^3
#
#
#
# Elastic Constant Matrix: (Units=GPa)
#
#
# Indices 1 2 3 4 5 6 
#
# 1 118.9384 51.9018 23.0175 0.0000 0.0000 0.0000
# 2 51.9018 127.6997 26.3472 0.0000 0.0000 0.0000
# 3 23.0175 26.3472 31.2054 0.0000 0.0000 0.0000
# 4 0.0000 0.0000 0.0000 11.3895 0.0000 0.0000
# 5 0.0000 0.0000 0.0000 0.0000 22.4354 0.0000
# 6 0.0000 0.0000 0.0000 0.0000 0.0000 37.8863
#
#
#
# Elastic Compliance Matrix: (Units=1/GPa)
#
#
# Indices 1 2 3 4 5 6 
#
# 1 0.010874 -0.003348 -0.005194 0.000000 0.000000 0.000000
# 2 -0.003348 0.010514 -0.006407 0.000000 0.000000 0.000000
# 3 -0.005194 -0.006407 0.041287 0.000000 0.000000 0.000000
# 4 0.000000 0.000000 0.000000 0.087800 0.000000 0.000000
# 5 0.000000 0.000000 0.000000 0.000000 0.044572 0.000000
# 6 0.000000 0.000000 0.000000 0.000000 0.000000 0.026395
#
#
# Mechanical properties :
#
#
# Convention : Reuss Voigt Hill
#
# Bulk Modulus (GPa) = 30.51045 53.37519 41.94282
# Shear Modulus (GPa) = 19.06471 26.11404 22.58937
#
# Velocity S-wave (km/s) = 3.14178 3.67704 3.41990
# Velocity P-wave (km/s) = 5.38126 6.75742 6.10822
#
# Compressibility (1/GPa) = 0.03277566
#
# Stress axis : x y z
#
# Youngs Moduli (GPa) = 91.96405 95.11546 24.22089
#
# Poissons Ratio (x) = 0.31844 0.12580
# Poissons Ratio (y) = 0.30788 0.15519
# Poissons Ratio (z) = 0.47766 0.60943
#
# Static dielectric constant tensor:
#      x y z
#    x 3.828400 0.000000 0.000000 
#    y 0.000000 3.611570 0.000000 
#    z 0.000000 0.000000 3.119830 
# 
# 
# High freq. dielectric constant tensor:
#      x y z
#    x 1.768060 0.000000 0.000000 
#    y 0.000000 1.770440 0.000000 
#    z 0.000000 0.000000 1.708130 
# 
# From -- ./inp_files/8808.got.cif
#   From: 2010.03.12/outbox.cif.g09.slc.cpg/sg55_5_cif.got.tgz:8808.got - 2010.04.16 15:19:21.
