data_PCOD8226337
_publ_section_title
;
Structure prediction by ZEFSAII (Michael W. Deem and Ramdas Pophale) SiO2 
 PCOD8226337
Probable space group: P B A M
;
_chemical_formula_sum "Si O2"
_cell_formula_units_Z 32
_cell_length_a 23.565541
_cell_length_b 9.602652
_cell_length_c 7.755240
_cell_angle_alpha 90.000000
_cell_angle_beta 90.000000
_cell_angle_gamma 90.000000
_cell_volume 1754.946361
_symmetry_space_group_name_H-M "P B A M"
_symmetry_group_IT_number 55
_symmetry_cell_setting 'orthorhombic'
loop_
_space_group_symop_operation_xyz
x,y,z
-x,-y,z
1/2+x,1/2-y,-z
1/2-x,1/2+y,-z
-x,-y,-z
x,y,-z
1/2-x,1/2+y,z
1/2+x,1/2-y,z
loop_
_atom_site_type_symbol
_atom_site_label
_atom_site_fract_x
_atom_site_fract_y
_atom_site_fract_z
Si Si1 0.604974 0.160004 0.802421
Si Si2 0.909080 0.358637 0.691219
Si Si3 0.802918 0.344581 0.500000
Si Si4 0.498075 0.653442 0.199022
Si Si5 0.307441 0.839476 0.500000
O O1 0.553564 0.254194 0.728677
O O2 0.657002 0.188268 0.673861
O O3 0.584827 0.999055 0.802111
O O4 0.621804 0.198100 0.000000
O O5 0.933877 0.390722 0.500000
O O6 0.842303 0.315584 0.669992
O O7 0.942184 0.231145 0.776241
O O8 0.746790 0.256814 0.500000
O O9 0.784189 0.504760 0.500000
O O10 0.500000 0.500000 0.288294
O O11 0.486211 0.632067 0.000000
#
# Coordination Sequence:
#
# PCOD8226337 Si02
#       5
#     8   8   4   8   4
#     4  10  20  36  58  80 107 147 181 219 269 321
#     4   9  19  35  55  80 106 141 184 219 264 325
#     4   8  20  35  54  77 103 136 178 228 267 306
#     4  10  21  34  50  81 117 142 178 225 270 326
#     4  10  20  39  56  77 109 138 182 232 259 326
#
# _framework density 18.234175
#
# number of rings (size 3 to 8) (size 9 to 14) (size 15 to 20)
#    0.750    1.750    1.250    1.500    1.750    5.500 
#    0.000    6.250    0.000    0.000    0.000    0.000 
#    0.000    0.000    0.000    0.000    0.000    0.000 
#
# Total GULP energy -396497.751606 kJ/mol
# GULP energy per Si atom -12390.554738 kJ/mol
# Density = 1.819267 g / cm^3
# Si number density = 18.234175 Si / 1000 Ang^3
#
#
#
# Elastic Constant Matrix: (Units=GPa)
#
#
# Indices 1 2 3 4 5 6 
#
# 1 133.3948 102.5469 35.7284 0.0000 0.0000 0.0000
# 2 102.5469 138.2978 32.0097 0.0000 0.0000 0.0000
# 3 35.7284 32.0097 49.6585 0.0000 0.0000 0.0000
# 4 0.0000 0.0000 0.0000 16.2527 0.0000 0.0000
# 5 0.0000 0.0000 0.0000 0.0000 16.3946 0.0000
# 6 0.0000 0.0000 0.0000 0.0000 0.0000 43.5204
#
#
#
# Elastic Compliance Matrix: (Units=1/GPa)
#
#
# Indices 1 2 3 4 5 6 
#
# 1 0.018535 -0.012526 -0.005261 0.000000 0.000000 0.000000
# 2 -0.012526 0.016963 -0.001923 0.000000 0.000000 0.000000
# 3 -0.005261 -0.001923 0.025162 0.000000 0.000000 0.000000
# 4 0.000000 0.000000 0.000000 0.061528 0.000000 0.000000
# 5 0.000000 0.000000 0.000000 0.000000 0.060996 0.000000
# 6 0.000000 0.000000 0.000000 0.000000 0.000000 0.022978
#
#
# Mechanical properties :
#
#
# Convention : Reuss Voigt Hill
#
# Bulk Modulus (GPa) = 47.07836 73.54679 60.31257
# Shear Modulus (GPa) = 19.78926 25.30462 22.54694
#
# Velocity S-wave (km/s) = 3.29794 3.72930 3.52023
# Velocity P-wave (km/s) = 6.35426 7.67892 7.04778
#
# Compressibility (1/GPa) = 0.02124118
#
# Stress axis : x y z
#
# Youngs Moduli (GPa) = 53.95249 58.95022 39.74188
#
# Poissons Ratio (x) = 0.73839 0.20910
# Poissons Ratio (y) = 0.67579 0.07641
# Poissons Ratio (z) = 0.28387 0.11334
#
# Static dielectric constant tensor:
#      x y z
#    x 3.166100 0.000000 0.000000 
#    y 0.000000 3.502840 0.000000 
#    z 0.000000 0.000000 3.205260 
# 
# 
# High freq. dielectric constant tensor:
#      x y z
#    x 1.691150 0.000000 0.000000 
#    y 0.000000 1.708740 0.000000 
#    z 0.000000 0.000000 1.697780 
# 
# From -- ./inp_files/2249.got.cif
#   From: 2010.03.12/outbox.cif.g09.slc.cpg/sg55_2_cif.got.tgz:2249.got - 2010.04.16 15:19:21.
