data_PCOD8226730
_publ_section_title
;
Structure prediction by ZEFSAII (Michael W. Deem and Ramdas Pophale) SiO2 
 PCOD8226730
Probable space group: P B A M
;
_chemical_formula_sum "Si O2"
_cell_formula_units_Z 56
_cell_length_a 9.295120
_cell_length_b 13.534591
_cell_length_c 21.543166
_cell_angle_alpha 90.000000
_cell_angle_beta 90.000000
_cell_angle_gamma 90.000000
_cell_volume 2710.251948
_symmetry_space_group_name_H-M "P B A M"
_symmetry_group_IT_number 55
_symmetry_cell_setting 'orthorhombic'
loop_
_space_group_symop_operation_xyz
x,y,z
-x,-y,z
1/2+x,1/2-y,-z
1/2-x,1/2+y,-z
-x,-y,-z
x,y,-z
1/2-x,1/2+y,z
1/2+x,1/2-y,z
loop_
_atom_site_type_symbol
_atom_site_label
_atom_site_fract_x
_atom_site_fract_y
_atom_site_fract_z
Si Si1 0.898809 0.766563 0.662337
Si Si2 0.103869 0.413943 0.572331
Si Si3 0.839974 0.983125 0.641331
Si Si4 0.831409 0.839092 0.929762
Si Si5 0.328839 0.347691 0.271026
Si Si6 0.645051 0.683912 0.870589
Si Si7 0.155157 0.469143 0.930284
O O1 0.916855 0.692279 0.604581
O O2 0.806948 0.865624 0.645266
O O3 0.820394 0.710105 0.718981
O O4 0.056063 0.797790 0.683597
O O5 0.080431 0.395396 0.500000
O O6 0.258323 0.459680 0.586786
O O7 0.000000 0.500000 0.598656
O O8 0.810852 0.037052 0.708457
O O9 0.000000 0.000000 0.619521
O O10 0.709197 0.791422 0.885512
O O11 0.994932 0.832604 0.905650
O O12 0.782565 0.951626 0.930208
O O13 0.826495 0.795480 0.000000
O O14 0.383507 0.337466 0.201254
O O15 0.781351 0.619265 0.890901
O O16 0.000000 0.500000 0.901301
O O17 0.124588 0.431696 0.000000
#
# Coordination Sequence:
#
# PCOD8226730 Si02
#       7
#     8   8   8   8   8   8   8
#     4  10  20  39  59  82 119 156 190 240 300 344
#     4  10  21  37  59  88 118 153 198 240 286 350
#     4   9  20  38  58  81 114 152 190 238 292 344
#     4  11  23  38  59  85 116 153 192 245 306 362
#     4  10  22  37  58  84 112 152 195 239 291 353
#     4  12  23  38  60  88 117 153 202 248 297 363
#     4  10  22  40  59  81 113 151 192 244 306 365
#
# _framework density 20.662285000000001
#
# number of rings (size 3 to 8) (size 9 to 14) (size 15 to 20)
#    0.000    1.714    0.000    4.286    0.000    7.714 
#    0.000   11.429    0.000    0.000    0.000    0.000 
#    0.000    0.000    0.000    0.000    0.000    0.000 
#
# Total GULP energy -694115.750687 kJ/mol
# GULP energy per Si atom -12394.924119 kJ/mol
# Density = 2.061526 g / cm^3
# Si number density = 20.662285 Si / 1000 Ang^3
#
#
#
# Elastic Constant Matrix: (Units=GPa)
#
#
# Indices 1 2 3 4 5 6 
#
# 1 89.8960 17.0542 17.2308 0.0000 0.0000 0.0000
# 2 17.0542 120.5209 42.7811 0.0000 0.0000 0.0000
# 3 17.2308 42.7811 92.6764 0.0000 0.0000 0.0000
# 4 0.0000 0.0000 0.0000 39.6454 0.0000 0.0000
# 5 0.0000 0.0000 0.0000 0.0000 21.4394 0.0000
# 6 0.0000 0.0000 0.0000 0.0000 0.0000 36.5638
#
#
#
# Elastic Compliance Matrix: (Units=1/GPa)
#
#
# Indices 1 2 3 4 5 6 
#
# 1 0.011645 -0.001052 -0.001680 0.000000 0.000000 0.000000
# 2 -0.001052 0.010018 -0.004429 0.000000 0.000000 0.000000
# 3 -0.001680 -0.004429 0.013147 0.000000 0.000000 0.000000
# 4 0.000000 0.000000 0.000000 0.025224 0.000000 0.000000
# 5 0.000000 0.000000 0.000000 0.000000 0.046643 0.000000
# 6 0.000000 0.000000 0.000000 0.000000 0.000000 0.027349
#
#
# Mechanical properties :
#
#
# Convention : Reuss Voigt Hill
#
# Bulk Modulus (GPa) = 48.80449 50.80284 49.80366
# Shear Modulus (GPa) = 32.22107 34.59819 33.40963
#
# Velocity S-wave (km/s) = 3.95323 4.09646 4.02548
# Velocity P-wave (km/s) = 6.67148 6.85676 6.76476
#
# Compressibility (1/GPa) = 0.02048992
#
# Stress axis : x y z
#
# Youngs Moduli (GPa) = 85.87054 99.81711 76.06238
#
# Poissons Ratio (x) = 0.10497 0.12776
# Poissons Ratio (y) = 0.09030 0.33689
# Poissons Ratio (z) = 0.14424 0.44210
#
# Static dielectric constant tensor:
#      x y z
#    x 3.796880 0.000000 0.000000 
#    y 0.000000 4.035770 0.000000 
#    z 0.000000 0.000000 3.489240 
# 
# 
# High freq. dielectric constant tensor:
#      x y z
#    x 1.822260 0.000000 0.000000 
#    y 0.000000 1.821360 0.000000 
#    z 0.000000 0.000000 1.785940 
# 
# From -- ./inp_files/22611.got.cif
#   From: 2010.03.12/outbox.cif.g09.slc.cpg/sg55_12_cif.got.tgz:22611.got - 2010.04.16 15:19:21.
