data_PCOD8226298
_publ_section_title
;
Structure prediction by ZEFSAII (Michael W. Deem and Ramdas Pophale) SiO2 
 PCOD8226298
Probable space group: P B A M
;
_chemical_formula_sum "Si O2"
_cell_formula_units_Z 48
_cell_length_a 30.948612
_cell_length_b 9.391212
_cell_length_c 8.403872
_cell_angle_alpha 90.000000
_cell_angle_beta 90.000000
_cell_angle_gamma 90.000000
_cell_volume 2442.543179
_symmetry_space_group_name_H-M "P B A M"
_symmetry_group_IT_number 55
_symmetry_cell_setting 'orthorhombic'
loop_
_space_group_symop_operation_xyz
x,y,z
-x,-y,z
1/2+x,1/2-y,-z
1/2-x,1/2+y,-z
-x,-y,-z
x,y,-z
1/2-x,1/2+y,z
1/2+x,1/2-y,z
loop_
_atom_site_type_symbol
_atom_site_label
_atom_site_fract_x
_atom_site_fract_y
_atom_site_fract_z
Si Si1 0.380181 0.092897 0.687679
Si Si2 0.459522 0.589572 0.689576
Si Si3 0.716440 0.912446 0.316264
Si Si4 0.622305 0.586743 0.689171
Si Si5 0.459028 0.910979 0.310058
Si Si6 0.287567 0.392259 0.817396
O O1 0.385357 0.095492 0.500000
O O2 0.415768 0.985544 0.759665
O O3 0.332110 0.040745 0.734192
O O4 0.388345 0.253359 0.749802
O O5 0.500000 0.500000 0.756920
O O6 0.460918 0.589836 0.500000
O O7 0.415409 0.517064 0.750152
O O8 0.461727 0.750300 0.756386
O O9 0.725694 0.948034 0.500000
O O10 0.721724 0.743976 0.292079
O O11 0.749675 0.994374 0.205164
O O12 0.627090 0.581645 0.500000
O O13 0.667248 0.534874 0.766230
O O14 0.458263 0.908590 0.500000
O O15 0.500000 0.000000 0.247705
O O16 0.289418 0.344721 0.000000
#
# Coordination Sequence:
#
# PCOD8226298 Si02
#       6
#     8   8   8   8   8   8
#     4   8  15  27  43  64  91 126 166 207 249 299
#     4   9  16  25  41  68 100 133 169 212 261 312
#     4  10  20  36  56  77 104 140 181 222 268 323
#     4   9  17  31  49  69  98 135 173 212 259 316
#     4   9  15  23  38  64  98 129 157 198 254 307
#     4  11  22  36  54  79 109 139 176 223 275 326
#
# _framework density 19.651648000000002
#
# number of rings (size 3 to 8) (size 9 to 14) (size 15 to 20)
#    0.000    2.667    0.000    4.000    0.000    5.333 
#    0.000    3.333    0.000    0.500    0.000    0.000 
#    0.000   22.667    0.000    0.000    0.000    0.000 
#
# Total GULP energy -595153.882612 kJ/mol
# GULP energy per Si atom -12399.039221 kJ/mol
# Density = 1.960692 g / cm^3
# Si number density = 19.651648 Si / 1000 Ang^3
#
#
#
# Elastic Constant Matrix: (Units=GPa)
#
#
# Indices 1 2 3 4 5 6 
#
# 1 177.4769 95.6439 20.2692 0.0000 0.0000 0.0000
# 2 95.6439 128.7119 10.0445 0.0000 0.0000 0.0000
# 3 20.2692 10.0445 31.4001 0.0000 0.0000 0.0000
# 4 0.0000 0.0000 0.0000 11.2938 0.0000 0.0000
# 5 0.0000 0.0000 0.0000 0.0000 4.6732 0.0000
# 6 0.0000 0.0000 0.0000 0.0000 0.0000 42.5901
#
#
#
# Elastic Compliance Matrix: (Units=1/GPa)
#
#
# Indices 1 2 3 4 5 6 
#
# 1 0.009896 -0.007031 -0.004139 0.000000 0.000000 0.000000
# 2 -0.007031 0.012963 0.000392 0.000000 0.000000 0.000000
# 3 -0.004139 0.000392 0.034394 0.000000 0.000000 0.000000
# 4 0.000000 0.000000 0.000000 0.088544 0.000000 0.000000
# 5 0.000000 0.000000 0.000000 0.000000 0.213986 0.000000
# 6 0.000000 0.000000 0.000000 0.000000 0.000000 0.023480
#
#
# Mechanical properties :
#
#
# Convention : Reuss Voigt Hill
#
# Bulk Modulus (GPa) = 28.01384 65.50044 46.75714
# Shear Modulus (GPa) = 11.99853 25.82018 18.90935
#
# Velocity S-wave (km/s) = 2.47363 3.62870 3.10534
# Velocity P-wave (km/s) = 4.73758 7.13861 6.05823
#
# Compressibility (1/GPa) = 0.03569664
#
# Stress axis : x y z
#
# Youngs Moduli (GPa) = 101.04944 77.14190 29.07525
#
# Poissons Ratio (x) = 0.54236 0.12034
# Poissons Ratio (y) = 0.71045 -0.01139
# Poissons Ratio (z) = 0.41825 -0.03021
#
# Static dielectric constant tensor:
#      x y z
#    x 3.850550 0.000000 0.000000 
#    y 0.000000 3.675180 0.000000 
#    z 0.000000 0.000000 2.951480 
# 
# 
# High freq. dielectric constant tensor:
#      x y z
#    x 1.780790 0.000000 0.000000 
#    y 0.000000 1.761520 0.000000 
#    z 0.000000 0.000000 1.711620 
# 
# From -- ./inp_files/10527.got.cif
#   From: 2010.03.12/outbox.cif.g09.slc.cpg/sg55_6_cif.got.tgz:10527.got - 2010.04.16 15:19:21.
