data_PCOD8226709
_publ_section_title
;
Structure prediction by ZEFSAII (Michael W. Deem and Ramdas Pophale) SiO2 
 PCOD8226709
Probable space group: P B A M
;
_chemical_formula_sum "Si O2"
_cell_formula_units_Z 48
_cell_length_a 20.088268
_cell_length_b 14.014724
_cell_length_c 8.626050
_cell_angle_alpha 90.000000
_cell_angle_beta 90.000000
_cell_angle_gamma 90.000000
_cell_volume 2428.505069
_symmetry_space_group_name_H-M "P B A M"
_symmetry_group_IT_number 55
_symmetry_cell_setting 'orthorhombic'
loop_
_space_group_symop_operation_xyz
x,y,z
-x,-y,z
1/2+x,1/2-y,-z
1/2-x,1/2+y,-z
-x,-y,-z
x,y,-z
1/2-x,1/2+y,z
1/2+x,1/2-y,z
loop_
_atom_site_type_symbol
_atom_site_label
_atom_site_fract_x
_atom_site_fract_y
_atom_site_fract_z
Si Si1 0.065841 0.049427 0.682524
Si Si2 0.929458 0.547779 0.179675
Si Si3 0.695953 0.957359 0.321954
Si Si4 0.608297 0.243903 0.315950
Si Si5 0.237586 0.755512 0.321251
Si Si6 0.685178 0.563477 0.177932
O O1 0.058455 0.055947 0.500000
O O2 0.076093 0.157072 0.746099
O O3 0.129063 0.984950 0.718915
O O4 0.000000 0.000000 0.755657
O O5 0.878643 0.486738 0.281992
O O6 0.930525 0.657798 0.233870
O O7 0.000000 0.500000 0.211283
O O8 0.909503 0.542823 0.000000
O O9 0.711771 0.983757 0.500000
O O10 0.705507 0.846481 0.291183
O O11 0.744214 0.015530 0.210716
O O12 0.601112 0.234457 0.500000
O O13 0.685753 0.242582 0.266595
O O14 0.233129 0.785970 0.500000
O O15 0.192186 0.825649 0.220179
O O16 0.665288 0.551781 0.000000
#
# Coordination Sequence:
#
# PCOD8226709 Si02
#       6
#     8   8   8   8   8   8
#     4  10  22  42  66  91 123 161 206 257 303 357
#     4  11  25  42  60  89 129 165 199 249 309 367
#     4  11  22  40  65  90 118 156 208 257 297 354
#     4  10  20  38  64  90 118 160 207 250 304 363
#     4  10  21  38  63  91 121 158 204 256 302 354
#     4  12  24  37  60  92 126 160 198 247 305 366
#
# _framework density 19.765246999999999
#
# number of rings (size 3 to 8) (size 9 to 14) (size 15 to 20)
#    0.000    1.333    3.333    2.500    0.000    5.000 
#    0.000    5.000    0.000    0.000    0.000    0.000 
#    0.000    0.000    0.000    0.000    0.000    0.000 
#
# Total GULP energy -595405.321118 kJ/mol
# GULP energy per Si atom -12404.277523 kJ/mol
# Density = 1.972026 g / cm^3
# Si number density = 19.765247 Si / 1000 Ang^3
#
#
#
# Elastic Constant Matrix: (Units=GPa)
#
#
# Indices 1 2 3 4 5 6 
#
# 1 92.5597 63.8291 10.1140 0.0000 0.0000 0.0000
# 2 63.8291 159.2300 31.6410 0.0000 0.0000 0.0000
# 3 10.1140 31.6410 28.5832 0.0000 0.0000 0.0000
# 4 0.0000 0.0000 0.0000 1.8982 0.0000 0.0000
# 5 0.0000 0.0000 0.0000 0.0000 23.6798 0.0000
# 6 0.0000 0.0000 0.0000 0.0000 0.0000 33.3728
#
#
#
# Elastic Compliance Matrix: (Units=1/GPa)
#
#
# Indices 1 2 3 4 5 6 
#
# 1 0.014998 -0.006355 0.001729 0.000000 0.000000 0.000000
# 2 -0.006355 0.010744 -0.009645 0.000000 0.000000 0.000000
# 3 0.001729 -0.009645 0.045051 0.000000 0.000000 0.000000
# 4 0.000000 0.000000 0.000000 0.526816 0.000000 0.000000
# 5 0.000000 0.000000 0.000000 0.000000 0.042230 0.000000
# 6 0.000000 0.000000 0.000000 0.000000 0.000000 0.029964
#
#
# Mechanical properties :
#
#
# Convention : Reuss Voigt Hill
#
# Bulk Modulus (GPa) = 23.66922 54.61568 39.14245
# Shear Modulus (GPa) = 7.01822 23.44274 15.23048
#
# Velocity S-wave (km/s) = 1.88640 3.44766 2.77892
# Velocity P-wave (km/s) = 4.09217 6.59853 5.49028
#
# Compressibility (1/GPa) = 0.04224895
#
# Stress axis : x y z
#
# Youngs Moduli (GPa) = 66.67690 93.07101 22.19716
#
# Poissons Ratio (x) = 0.59151 -0.03837
# Poissons Ratio (y) = 0.42376 0.21409
# Poissons Ratio (z) = -0.11525 0.89768
#
# Static dielectric constant tensor:
#      x y z
#    x 4.460990 0.000000 0.000000 
#    y 0.000000 3.751080 0.000000 
#    z 0.000000 0.000000 3.459920 
# 
# 
# High freq. dielectric constant tensor:
#      x y z
#    x 1.765630 0.000000 0.000000 
#    y 0.000000 1.789570 0.000000 
#    z 0.000000 0.000000 1.760750 
# 
# From -- ./inp_files/7439.got.cif
#   From: 2010.03.12/outbox.cif.g09.slc.cpg/sg55_4_cif.got.tgz:7439.got - 2010.04.16 15:19:21.
