data_PCOD8226971
_publ_section_title
;
Structure prediction by ZEFSAII (Michael W. Deem and Ramdas Pophale) SiO2 
 PCOD8226971
Probable space group: P B A M
;
_chemical_formula_sum "Si O2"
_cell_formula_units_Z 48
_cell_length_a 11.656401
_cell_length_b 23.921903
_cell_length_c 8.918664
_cell_angle_alpha 90.000000
_cell_angle_beta 90.000000
_cell_angle_gamma 90.000000
_cell_volume 2486.909648
_symmetry_space_group_name_H-M "P B A M"
_symmetry_group_IT_number 55
_symmetry_cell_setting 'orthorhombic'
loop_
_space_group_symop_operation_xyz
x,y,z
-x,-y,z
1/2+x,1/2-y,-z
1/2-x,1/2+y,-z
-x,-y,-z
x,y,-z
1/2-x,1/2+y,z
1/2+x,1/2-y,z
loop_
_atom_site_type_symbol
_atom_site_label
_atom_site_fract_x
_atom_site_fract_y
_atom_site_fract_z
Si Si1 0.337612 0.201068 0.824709
Si Si2 0.758563 0.965840 0.674481
Si Si3 0.202790 0.421798 0.177864
Si Si4 0.871610 0.174186 0.177774
Si Si5 0.115657 0.131086 0.824664
Si Si6 0.966181 0.395102 0.325564
O O1 0.343258 0.264016 0.761262
O O2 0.210959 0.178030 0.791054
O O3 0.433807 0.165393 0.739298
O O4 0.367437 0.198253 0.000000
O O5 0.778362 0.976937 0.500000
O O6 0.857984 0.925407 0.734872
O O7 0.635301 0.938521 0.706414
O O8 0.768028 0.023644 0.762969
O O9 0.273934 0.368062 0.234946
O O10 0.076083 0.419605 0.243582
O O11 0.196005 0.424339 0.000000
O O12 0.995687 0.154734 0.236868
O O13 0.873256 0.175406 0.000000
O O14 0.110895 0.116377 0.000000
O O15 0.993058 0.389140 0.500000
#
# Coordination Sequence:
#
# PCOD8226971 Si02
#       6
#     8   8   8   8   8   8
#     4   9  18  34  59  83 106 141 183 224 272 327
#     4  10  21  38  57  78 111 148 185 229 278 329
#     4  11  22  35  56  85 114 144 186 231 276 328
#     4   9  20  35  55  85 113 142 181 231 278 320
#     4   9  18  35  58  81 108 143 183 225 274 330
#     4  10  21  37  56  81 112 147 183 228 280 324
#
# _framework density 19.301062999999999
#
# number of rings (size 3 to 8) (size 9 to 14) (size 15 to 20)
#    0.000    2.333    0.000    2.000    2.333    4.667 
#    0.000    7.500    0.000    0.000    0.000    0.000 
#    0.000    0.000    0.000    0.000    0.000    0.000 
#
# Total GULP energy -595379.122709 kJ/mol
# GULP energy per Si atom -12403.731723 kJ/mol
# Density = 1.925713 g / cm^3
# Si number density = 19.301063 Si / 1000 Ang^3
#
#
#
# Elastic Constant Matrix: (Units=GPa)
#
#
# Indices 1 2 3 4 5 6 
#
# 1 44.4523 9.7394 18.0464 0.0000 0.0000 0.0000
# 2 9.7394 129.4891 37.6628 0.0000 0.0000 0.0000
# 3 18.0464 37.6628 60.5879 0.0000 0.0000 0.0000
# 4 0.0000 0.0000 0.0000 8.0798 0.0000 0.0000
# 5 0.0000 0.0000 0.0000 0.0000 16.7234 0.0000
# 6 0.0000 0.0000 0.0000 0.0000 0.0000 22.0623
#
#
#
# Elastic Compliance Matrix: (Units=1/GPa)
#
#
# Indices 1 2 3 4 5 6 
#
# 1 0.025604 0.000357 -0.007848 0.000000 0.000000 0.000000
# 2 0.000357 0.009432 -0.005970 0.000000 0.000000 0.000000
# 3 -0.007848 -0.005970 0.022553 0.000000 0.000000 0.000000
# 4 0.000000 0.000000 0.000000 0.123765 0.000000 0.000000
# 5 0.000000 0.000000 0.000000 0.000000 0.059796 0.000000
# 6 0.000000 0.000000 0.000000 0.000000 0.000000 0.045326
#
#
# Mechanical properties :
#
#
# Convention : Reuss Voigt Hill
#
# Bulk Modulus (GPa) = 32.60738 40.60296 36.60517
# Shear Modulus (GPa) = 15.45018 20.64517 18.04767
#
# Velocity S-wave (km/s) = 2.83235 3.27408 3.06119
# Velocity P-wave (km/s) = 5.25614 5.94770 5.61258
#
# Compressibility (1/GPa) = 0.03066790
#
# Stress axis : x y z
#
# Youngs Moduli (GPa) = 39.05647 106.02112 44.33934
#
# Poissons Ratio (x) = -0.03784 0.34798
# Poissons Ratio (y) = -0.01394 0.26468
# Poissons Ratio (z) = 0.30652 0.63289
#
# Static dielectric constant tensor:
#      x y z
#    x 3.531560 0.000000 0.000000 
#    y 0.000000 3.771140 0.000000 
#    z 0.000000 0.000000 3.352390 
# 
# 
# High freq. dielectric constant tensor:
#      x y z
#    x 1.750960 0.000000 0.000000 
#    y 0.000000 1.762120 0.000000 
#    z 0.000000 0.000000 1.734380 
# 
# From -- ./inp_files/4045.got.cif
#   From: 2010.03.12/outbox.cif.g09.slc.cpg/sg55_3_cif.got.tgz:4045.got - 2010.04.16 15:19:21.
