data_PCOD8226182
_publ_section_title
;
Structure prediction by ZEFSAII (Michael W. Deem and Ramdas Pophale) SiO2 
 PCOD8226182
Probable space group: P B A M
;
_chemical_formula_sum "Si O2"
_cell_formula_units_Z 64
_cell_length_a 16.093730
_cell_length_b 22.652448
_cell_length_c 8.889892
_cell_angle_alpha 90.000000
_cell_angle_beta 90.000000
_cell_angle_gamma 90.000000
_cell_volume 3240.920203
_symmetry_space_group_name_H-M "P B A M"
_symmetry_group_IT_number 55
_symmetry_cell_setting 'orthorhombic'
loop_
_space_group_symop_operation_xyz
x,y,z
-x,-y,z
1/2+x,1/2-y,-z
1/2-x,1/2+y,-z
-x,-y,-z
x,y,-z
1/2-x,1/2+y,z
1/2+x,1/2-y,z
loop_
_atom_site_type_symbol
_atom_site_label
_atom_site_fract_x
_atom_site_fract_y
_atom_site_fract_z
Si Si1 0.566172 0.151296 0.328001
Si Si2 0.387572 0.344033 0.173610
Si Si3 0.775523 0.598916 0.821520
Si Si4 0.733848 0.964014 0.175554
Si Si5 0.853668 0.870867 0.665180
Si Si6 0.454930 0.724755 0.178655
Si Si7 0.937863 0.449052 0.671651
Si Si8 0.477735 0.437610 0.334909
O O1 0.583116 0.169992 0.500000
O O2 0.641222 0.111154 0.269452
O O3 0.556598 0.208234 0.224884
O O4 0.481891 0.114240 0.315095
O O5 0.291622 0.349880 0.229217
O O6 0.453846 0.297250 0.244910
O O7 0.420293 0.409263 0.208791
O O8 0.385908 0.330960 0.000000
O O9 0.745626 0.532147 0.779562
O O10 0.792159 0.602714 0.000000
O O11 0.792077 0.916428 0.255870
O O12 0.639931 0.948682 0.218641
O O13 0.745799 0.954278 0.000000
O O14 0.817234 0.853419 0.500000
O O15 0.875109 0.811960 0.760860
O O16 0.940115 0.901486 0.640510
O O17 0.454495 0.718353 0.000000
O O18 0.909435 0.461378 0.500000
O O19 0.000000 0.500000 0.726466
O O20 0.500000 0.500000 0.264608
O O21 0.433524 0.443251 0.500000
#
# Coordination Sequence:
#
# PCOD8226182 Si02
#       8
#     8   8   8   8   8   8   8   8
#     4  11  23  40  63  86 111 152 199 244 300 354
#     4   9  19  35  55  80 111 150 190 232 283 339
#     4  10  21  37  58  87 121 153 191 242 296 355
#     4  11  22  35  58  91 123 154 193 241 299 357
#     4  10  20  35  56  82 117 156 193 236 285 342
#     4  10  21  40  62  83 115 156 199 244 292 347
#     4  10  21  40  62  84 114 151 193 244 300 356
#     4   9  17  29  48  77 111 148 187 228 277 330
#
# _framework density 19.747478999999998
#
# number of rings (size 3 to 8) (size 9 to 14) (size 15 to 20)
#    0.000    2.000    1.250    2.250    0.000    3.500 
#    2.250    0.000    0.000    0.000    0.000    0.000 
#    0.000    0.000    0.000    0.000    0.000    0.000 
#
# Total GULP energy -792954.012334 kJ/mol
# GULP energy per Si atom -12389.906443 kJ/mol
# Density = 1.970253 g / cm^3
# Si number density = 19.747479 Si / 1000 Ang^3
#
#
#
# Elastic Constant Matrix: (Units=GPa)
#
#
# Indices 1 2 3 4 5 6 
#
# 1 73.3377 17.2030 35.4545 0.0000 0.0000 0.0000
# 2 17.2030 90.3640 31.0194 0.0000 0.0000 0.0000
# 3 35.4545 31.0194 58.5544 0.0000 0.0000 0.0000
# 4 0.0000 0.0000 0.0000 32.1542 0.0000 0.0000
# 5 0.0000 0.0000 0.0000 0.0000 28.7731 0.0000
# 6 0.0000 0.0000 0.0000 0.0000 0.0000 26.1871
#
#
#
# Elastic Compliance Matrix: (Units=1/GPa)
#
#
# Indices 1 2 3 4 5 6 
#
# 1 0.019291 0.000412 -0.011899 0.000000 0.000000 0.000000
# 2 0.000412 0.013535 -0.007420 0.000000 0.000000 0.000000
# 3 -0.011899 -0.007420 0.028214 0.000000 0.000000 0.000000
# 4 0.000000 0.000000 0.000000 0.031100 0.000000 0.000000
# 5 0.000000 0.000000 0.000000 0.000000 0.034755 0.000000
# 6 0.000000 0.000000 0.000000 0.000000 0.000000 0.038187
#
#
# Mechanical properties :
#
#
# Convention : Reuss Voigt Hill
#
# Bulk Modulus (GPa) = 43.05448 43.29001 43.17224
# Shear Modulus (GPa) = 23.73748 26.66149 25.19948
#
# Velocity S-wave (km/s) = 3.47082 3.67839 3.57611
# Velocity P-wave (km/s) = 6.15727 6.32535 6.24188
#
# Compressibility (1/GPa) = 0.02322638
#
# Stress axis : x y z
#
# Youngs Moduli (GPa) = 51.83637 73.88327 35.44384
#
# Poissons Ratio (x) = -0.03044 0.42175
# Poissons Ratio (y) = -0.02136 0.26298
# Poissons Ratio (z) = 0.61681 0.54819
#
# Static dielectric constant tensor:
#      x y z
#    x 3.670400 0.000000 0.000000 
#    y 0.000000 3.484740 0.000000 
#    z 0.000000 0.000000 3.796500 
# 
# 
# High freq. dielectric constant tensor:
#      x y z
#    x 1.766660 0.000000 0.000000 
#    y 0.000000 1.764370 0.000000 
#    z 0.000000 0.000000 1.768640 
# 
# From -- ./inp_files/6567.got.cif
#   From: 2010.03.12/outbox.cif.g09.slc.cpg/sg55_4_cif.got.tgz:6567.got - 2010.04.16 15:19:21.
