data_PCOD8226088
_publ_section_title
;
Structure prediction by ZEFSAII (Michael W. Deem and Ramdas Pophale) SiO2 
 PCOD8226088
Probable space group: P B A M
;
_chemical_formula_sum "Si O2"
_cell_formula_units_Z 64
_cell_length_a 23.368984
_cell_length_b 15.291880
_cell_length_c 9.267454
_cell_angle_alpha 90.000000
_cell_angle_beta 90.000000
_cell_angle_gamma 90.000000
_cell_volume 3311.777503
_symmetry_space_group_name_H-M "P B A M"
_symmetry_group_IT_number 55
_symmetry_cell_setting 'orthorhombic'
loop_
_space_group_symop_operation_xyz
x,y,z
-x,-y,z
1/2+x,1/2-y,-z
1/2-x,1/2+y,-z
-x,-y,-z
x,y,-z
1/2-x,1/2+y,z
1/2+x,1/2-y,z
loop_
_atom_site_type_symbol
_atom_site_label
_atom_site_fract_x
_atom_site_fract_y
_atom_site_fract_z
Si Si1 0.051855 0.940558 0.170787
Si Si2 0.312383 0.691911 0.660831
Si Si3 0.828525 0.978300 0.829036
Si Si4 0.619756 0.135807 0.662337
Si Si5 0.686493 0.808429 0.663986
Si Si6 0.922009 0.252623 0.829342
Si Si7 0.508438 0.098627 0.829185
Si Si8 0.716379 0.006562 0.668327
O O1 0.047685 0.838527 0.219761
O O2 0.112890 0.976879 0.224271
O O3 0.048425 0.947020 0.000000
O O4 0.000000 0.000000 0.236750
O O5 0.309348 0.647991 0.500000
O O6 0.330473 0.622121 0.779923
O O7 0.359518 0.765535 0.663248
O O8 0.249419 0.732732 0.692398
O O9 0.774753 0.025969 0.754554
O O10 0.821330 0.983307 0.000000
O O11 0.602553 0.106647 0.500000
O O12 0.566931 0.134472 0.768068
O O13 0.668825 0.073393 0.725344
O O14 0.666078 0.795040 0.500000
O O15 0.641352 0.759657 0.764830
O O16 0.691778 0.910805 0.702123
O O17 0.958494 0.336208 0.774847
O O18 0.915085 0.253393 0.000000
O O19 0.500000 0.000000 0.770896
O O20 0.512012 0.099978 0.000000
O O21 0.728985 0.021270 0.500000
#
# Coordination Sequence:
#
# PCOD8226088 Si02
#       8
#     8   8   8   8   8   8   8   8
#     4   9  20  37  55  76 106 144 187 230 273 328
#     4   9  20  37  55  80 114 146 178 224 281 336
#     4  10  20  34  57  83 106 141 188 230 274 327
#     4  10  21  36  58  83 109 147 189 225 272 337
#     4   9  18  34  55  80 110 142 178 220 270 329
#     4  10  21  36  57  81 110 148 185 227 278 326
#     4  10  22  38  56  83 116 148 182 229 284 331
#     4   9  19  36  57  81 113 149 177 218 281 334
#
# _framework density 19.324968999999999
#
# number of rings (size 3 to 8) (size 9 to 14) (size 15 to 20)
#    0.000    2.500    0.000    1.875    3.500    3.750 
#    0.000    0.625    0.000    1.875    0.000    0.000 
#    0.000    0.000    0.000    0.000    0.000    0.000 
#
# Total GULP energy -793501.435895 kJ/mol
# GULP energy per Si atom -12398.459936 kJ/mol
# Density = 1.928098 g / cm^3
# Si number density = 19.324969 Si / 1000 Ang^3
#
#
#
# Elastic Constant Matrix: (Units=GPa)
#
#
# Indices 1 2 3 4 5 6 
#
# 1 121.2057 52.0064 35.1742 0.0000 0.0000 0.0000
# 2 52.0064 84.8669 23.8130 0.0000 0.0000 0.0000
# 3 35.1742 23.8130 34.4726 0.0000 0.0000 0.0000
# 4 0.0000 0.0000 0.0000 10.3414 0.0000 0.0000
# 5 0.0000 0.0000 0.0000 0.0000 29.9162 0.0000
# 6 0.0000 0.0000 0.0000 0.0000 0.0000 34.2276
#
#
#
# Elastic Compliance Matrix: (Units=1/GPa)
#
#
# Indices 1 2 3 4 5 6 
#
# 1 0.013496 -0.005466 -0.009995 0.000000 0.000000 0.000000
# 2 -0.005466 0.016830 -0.006049 0.000000 0.000000 0.000000
# 3 -0.009995 -0.006049 0.043385 0.000000 0.000000 0.000000
# 4 0.000000 0.000000 0.000000 0.096699 0.000000 0.000000
# 5 0.000000 0.000000 0.000000 0.000000 0.033427 0.000000
# 6 0.000000 0.000000 0.000000 0.000000 0.000000 0.029216
#
#
# Mechanical properties :
#
#
# Convention : Reuss Voigt Hill
#
# Bulk Modulus (GPa) = 32.58162 51.39248 41.98705
# Shear Modulus (GPa) = 17.46396 23.53381 20.49888
#
# Velocity S-wave (km/s) = 3.00942 3.49347 3.26044
# Velocity P-wave (km/s) = 5.38256 6.55164 5.99566
#
# Compressibility (1/GPa) = 0.03069215
#
# Stress axis : x y z
#
# Youngs Moduli (GPa) = 74.09376 59.41806 23.04918
#
# Poissons Ratio (x) = 0.32478 0.23038
# Poissons Ratio (y) = 0.40500 0.13941
# Poissons Ratio (z) = 0.74059 0.35939
#
# Static dielectric constant tensor:
#      x y z
#    x 3.606350 0.000000 0.000000 
#    y 0.000000 3.730520 0.000000 
#    z 0.000000 0.000000 3.301550 
# 
# 
# High freq. dielectric constant tensor:
#      x y z
#    x 1.758150 0.000000 0.000000 
#    y 0.000000 1.756450 0.000000 
#    z 0.000000 0.000000 1.729140 
# 
# From -- ./inp_files/9637.got.cif
#   From: 2010.03.12/outbox.cif.g09.slc.cpg/sg55_5_cif.got.tgz:9637.got - 2010.04.16 15:19:21.
