data_PCOD8226434
_publ_section_title
;
Structure prediction by ZEFSAII (Michael W. Deem and Ramdas Pophale) SiO2 
 PCOD8226434
Probable space group: P B A M
;
_chemical_formula_sum "Si O2"
_cell_formula_units_Z 48
_cell_length_a 10.253934
_cell_length_b 28.038043
_cell_length_c 8.621101
_cell_angle_alpha 90.000000
_cell_angle_beta 90.000000
_cell_angle_gamma 90.000000
_cell_volume 2478.568627
_symmetry_space_group_name_H-M "P B A M"
_symmetry_group_IT_number 55
_symmetry_cell_setting 'orthorhombic'
loop_
_space_group_symop_operation_xyz
x,y,z
-x,-y,z
1/2+x,1/2-y,-z
1/2-x,1/2+y,-z
-x,-y,-z
x,y,-z
1/2-x,1/2+y,z
1/2+x,1/2-y,z
loop_
_atom_site_type_symbol
_atom_site_label
_atom_site_fract_x
_atom_site_fract_y
_atom_site_fract_z
Si Si1 0.491676 0.690680 0.180499
Si Si2 0.739990 0.139926 0.819421
Si Si3 0.647092 0.047305 0.318728
Si Si4 0.634111 0.948631 0.818481
Si Si5 0.245965 0.642276 0.679977
Si Si6 0.487578 0.199397 0.181595
O O1 0.631608 0.669175 0.222595
O O2 0.385890 0.664203 0.283752
O O3 0.492328 0.745879 0.226619
O O4 0.456975 0.684047 0.000000
O O5 0.742936 0.090377 0.725821
O O6 0.616819 0.171381 0.767616
O O7 0.732201 0.127671 0.000000
O O8 0.652440 0.037317 0.500000
O O9 0.500989 0.061285 0.269658
O O10 0.694080 0.999433 0.231444
O O11 0.733703 0.906797 0.775669
O O12 0.604970 0.948491 0.000000
O O13 0.235494 0.630102 0.500000
O O14 0.134920 0.679779 0.724982
O O15 0.457786 0.193353 0.000000
#
# Coordination Sequence:
#
# PCOD8226434 Si02
#       6
#     8   8   8   8   8   8
#     4  10  22  40  61  86 118 160 204 244 287 345
#     4  10  20  36  60  88 118 155 201 244 288 347
#     4  11  21  35  58  89 121 149 187 242 301 353
#     4  11  21  37  61  86 114 151 198 244 286 346
#     4  12  24  38  58  89 124 157 193 243 302 351
#     4  10  20  38  64  88 113 154 205 249 286 342
#
# _framework density 19.366015999999998
#
# number of rings (size 3 to 8) (size 9 to 14) (size 15 to 20)
#    0.000    1.333    1.667    6.500    0.000    4.000 
#    0.000    2.500    0.000    5.000    0.000    0.000 
#    0.000    0.000    0.000    0.000    0.000    0.000 
#
# Total GULP energy -595494.927369 kJ/mol
# GULP energy per Si atom -12406.144320 kJ/mol
# Density = 1.932194 g / cm^3
# Si number density = 19.366016 Si / 1000 Ang^3
#
#
#
# Elastic Constant Matrix: (Units=GPa)
#
#
# Indices 1 2 3 4 5 6 
#
# 1 71.3385 30.6204 8.8004 0.0000 0.0000 0.0000
# 2 30.6204 136.4699 22.0180 0.0000 0.0000 0.0000
# 3 8.8004 22.0180 58.3105 0.0000 0.0000 0.0000
# 4 0.0000 0.0000 0.0000 15.2703 0.0000 0.0000
# 5 0.0000 0.0000 0.0000 0.0000 22.9639 0.0000
# 6 0.0000 0.0000 0.0000 0.0000 0.0000 0.2061
#
#
#
# Elastic Compliance Matrix: (Units=1/GPa)
#
#
# Indices 1 2 3 4 5 6 
#
# 1 0.015577 -0.003318 -0.001098 0.000000 0.000000 0.000000
# 2 -0.003318 0.008510 -0.002713 0.000000 0.000000 0.000000
# 3 -0.001098 -0.002713 0.018340 0.000000 0.000000 0.000000
# 4 0.000000 0.000000 0.000000 0.065487 0.000000 0.000000
# 5 0.000000 0.000000 0.000000 0.000000 0.043547 0.000000
# 6 0.000000 0.000000 0.000000 0.000000 0.000000 4.852861
#
#
# Mechanical properties :
#
#
# Convention : Reuss Voigt Hill
#
# Bulk Modulus (GPa) = 35.49955 43.22182 39.36069
# Shear Modulus (GPa) = 0.99444 21.33341 11.16392
#
# Velocity S-wave (km/s) = 0.71736 3.32262 2.40358
# Velocity P-wave (km/s) = 4.36541 6.08988 5.29827
#
# Compressibility (1/GPa) = 0.02816937
#
# Stress axis : x y z
#
# Youngs Moduli (GPa) = 64.19597 117.51253 54.52704
#
# Poissons Ratio (x) = 0.38990 0.05988
# Poissons Ratio (y) = 0.21300 0.14790
# Poissons Ratio (z) = 0.07049 0.31875
#
# Static dielectric constant tensor:
#      x y z
#    x 3.376090 0.000000 0.000000 
#    y 0.000000 3.780320 0.000000 
#    z 0.000000 0.000000 3.533600 
# 
# 
# High freq. dielectric constant tensor:
#      x y z
#    x 1.735170 0.000000 0.000000 
#    y 0.000000 1.773390 0.000000 
#    z 0.000000 0.000000 1.752600 
# 
# From -- ./inp_files/2865.got.cif
#   From: 2010.03.12/outbox.cif.g09.slc.cpg/sg55_2_cif.got.tgz:2865.got - 2010.04.16 15:19:21.
