data_PCOD8226072
_publ_section_title
;
Structure prediction by ZEFSAII (Michael W. Deem and Ramdas Pophale) SiO2 
 PCOD8226072
Probable space group: P B A M
;
_chemical_formula_sum "Si O2"
_cell_formula_units_Z 40
_cell_length_a 10.179862
_cell_length_b 23.635561
_cell_length_c 9.359225
_cell_angle_alpha 90.000000
_cell_angle_beta 90.000000
_cell_angle_gamma 90.000000
_cell_volume 2251.892703
_symmetry_space_group_name_H-M "P B A M"
_symmetry_group_IT_number 55
_symmetry_cell_setting 'orthorhombic'
loop_
_space_group_symop_operation_xyz
x,y,z
-x,-y,z
1/2+x,1/2-y,-z
1/2-x,1/2+y,-z
-x,-y,-z
x,y,-z
1/2-x,1/2+y,z
1/2+x,1/2-y,z
loop_
_atom_site_type_symbol
_atom_site_label
_atom_site_fract_x
_atom_site_fract_y
_atom_site_fract_z
Si Si1 0.754414 0.864799 0.167818
Si Si2 0.989796 0.065019 0.166312
Si Si3 0.186136 0.735897 0.339291
Si Si4 0.215698 0.862164 0.668781
Si Si5 0.012680 0.637180 0.339664
O O1 0.780578 0.802831 0.238600
O O2 0.620763 0.892232 0.235673
O O3 0.874191 0.905279 0.207782
O O4 0.735168 0.857770 0.000000
O O5 0.871107 0.091705 0.253340
O O6 0.958050 0.072234 0.000000
O O7 0.000000 0.000000 0.210992
O O8 0.245891 0.737527 0.500000
O O9 0.173502 0.799384 0.279415
O O10 0.042518 0.705298 0.340302
O O11 0.197219 0.868548 0.500000
O O12 0.365986 0.873230 0.715788
O O13 0.030086 0.612751 0.500000
#
# Coordination Sequence:
#
# PCOD8226072 Si02
#       5
#     8   8   8   8   8
#     4   9  18  33  54  77 104 141 184 221 265 328
#     4  10  23  41  56  76 110 150 190 232 274 317
#     4   8  17  31  52  79 112 141 168 217 278 325
#     4  10  20  34  56  83 108 140 184 224 270 331
#     4   8  17  33  52  79 110 137 170 219 274 324
#
# _framework density 17.762834999999999
#
# number of rings (size 3 to 8) (size 9 to 14) (size 15 to 20)
#    1.200    1.800    0.000    0.000    2.800    3.600 
#    0.000    1.000    0.000    6.000    0.000    0.000 
#    0.000    0.000    0.000    0.000    0.000    0.000 
#
# Total GULP energy -495604.475850 kJ/mol
# GULP energy per Si atom -12390.111896 kJ/mol
# Density = 1.772241 g / cm^3
# Si number density = 17.762835 Si / 1000 Ang^3
#
#
#
# Elastic Constant Matrix: (Units=GPa)
#
#
# Indices 1 2 3 4 5 6 
#
# 1 111.4663 42.0732 43.3466 0.0000 0.0000 0.0000
# 2 42.0732 91.0057 31.0326 0.0000 0.0000 0.0000
# 3 43.3466 31.0326 57.1660 0.0000 0.0000 0.0000
# 4 0.0000 0.0000 0.0000 23.7090 0.0000 0.0000
# 5 0.0000 0.0000 0.0000 0.0000 31.1486 0.0000
# 6 0.0000 0.0000 0.0000 0.0000 0.0000 23.8731
#
#
#
# Elastic Compliance Matrix: (Units=1/GPa)
#
#
# Indices 1 2 3 4 5 6 
#
# 1 0.013520 -0.003381 -0.008417 0.000000 0.000000 0.000000
# 2 -0.003381 0.014330 -0.005216 0.000000 0.000000 0.000000
# 3 -0.008417 -0.005216 0.026706 0.000000 0.000000 0.000000
# 4 0.000000 0.000000 0.000000 0.042178 0.000000 0.000000
# 5 0.000000 0.000000 0.000000 0.000000 0.032104 0.000000
# 6 0.000000 0.000000 0.000000 0.000000 0.000000 0.041888
#
#
# Mechanical properties :
#
#
# Convention : Reuss Voigt Hill
#
# Bulk Modulus (GPa) = 48.70795 54.72699 51.71747
# Shear Modulus (GPa) = 23.62993 25.29186 24.46089
#
# Velocity S-wave (km/s) = 3.65129 3.77751 3.71493
# Velocity P-wave (km/s) = 6.72731 7.06419 6.89781
#
# Compressibility (1/GPa) = 0.02053053
#
# Stress axis : x y z
#
# Youngs Moduli (GPa) = 73.96214 69.78521 37.44437
#
# Poissons Ratio (x) = 0.23591 0.31516
# Poissons Ratio (y) = 0.25003 0.19529
# Poissons Ratio (z) = 0.62253 0.36397
#
# Static dielectric constant tensor:
#      x y z
#    x 3.192570 0.000000 0.000000 
#    y 0.000000 3.076360 0.000000 
#    z 0.000000 0.000000 3.179520 
# 
# 
# High freq. dielectric constant tensor:
#      x y z
#    x 1.683760 0.000000 0.000000 
#    y 0.000000 1.661710 0.000000 
#    z 0.000000 0.000000 1.682380 
# 
# From -- ./inp_files/12297.got.cif
#   From: 2010.03.12/outbox.cif.g09.slc.cpg/sg55_7_cif.got.tgz:12297.got - 2010.04.16 15:19:21.
