data_PCOD8226466
_publ_section_title
;
Structure prediction by ZEFSAII (Michael W. Deem and Ramdas Pophale) SiO2 
 PCOD8226466
Probable space group: P B A M
;
_chemical_formula_sum "Si O2"
_cell_formula_units_Z 48
_cell_length_a 9.559155
_cell_length_b 15.997958
_cell_length_c 15.345942
_cell_angle_alpha 90.000000
_cell_angle_beta 90.000000
_cell_angle_gamma 90.000000
_cell_volume 2346.808262
_symmetry_space_group_name_H-M "P B A M"
_symmetry_group_IT_number 55
_symmetry_cell_setting 'orthorhombic'
loop_
_space_group_symop_operation_xyz
x,y,z
-x,-y,z
1/2+x,1/2-y,-z
1/2-x,1/2+y,-z
-x,-y,-z
x,y,-z
1/2-x,1/2+y,z
1/2+x,1/2-y,z
loop_
_atom_site_type_symbol
_atom_site_label
_atom_site_fract_x
_atom_site_fract_y
_atom_site_fract_z
Si Si1 0.640797 0.345269 0.000000
Si Si2 0.523853 0.816246 0.811304
Si Si3 0.853106 0.968137 0.346920
Si Si4 0.342702 0.651137 0.809729
Si Si5 0.466325 0.806586 0.500000
Si Si6 0.057462 0.701146 0.000000
Si Si7 0.904093 0.577753 0.659504
Si Si8 0.221935 0.150506 0.500000
O O1 0.648098 0.392851 0.906627
O O2 0.498026 0.294810 0.000000
O O3 0.775944 0.284469 0.000000
O O4 0.454030 0.725779 0.797452
O O5 0.688956 0.811257 0.789311
O O6 0.505161 0.845896 0.912307
O O7 0.452515 0.885947 0.751883
O O8 0.881080 0.921747 0.256338
O O9 0.779803 0.906426 0.414660
O O10 0.755077 0.047988 0.330868
O O11 0.000000 0.000000 0.385309
O O12 0.410921 0.852294 0.414239
O O13 0.633595 0.798382 0.500000
O O14 0.408457 0.712876 0.500000
O O15 0.000000 0.500000 0.631765
#
# Coordination Sequence:
#
# PCOD8226466 Si02
#       8
#     4   8   8   8   4   4   8   4
#     4   8  16  32  58  82 118 153 197 249 291 341
#     4  10  20  36  62  87 120 157 204 247 296 352
#     4  12  27  42  62  88 126 158 199 244 300 354
#     4  10  20  38  60  90 118 158 204 247 294 353
#     4  12  26  43  70  91 119 154 199 243 293 354
#     4   8  16  32  54  87 114 153 199 248 291 345
#     4  12  23  43  62  86 122 161 191 240 301 356
#     4  12  26  46  66  95 117 153 201 243 291 356
#
# _framework density 20.453312
#
# number of rings (size 3 to 8) (size 9 to 14) (size 15 to 20)
#    0.000    1.333    3.333    2.000    4.667    0.000 
#    0.000    1.667    0.000    0.000    0.000    0.000 
#    0.000    0.000    0.000    0.000    0.000    0.000 
#
# Total GULP energy -595068.102124 kJ/mol
# GULP energy per Si atom -12397.252128 kJ/mol
# Density = 2.040676 g / cm^3
# Si number density = 20.453312 Si / 1000 Ang^3
#
#
#
# Elastic Constant Matrix: (Units=GPa)
#
#
# Indices 1 2 3 4 5 6 
#
# 1 96.4654 20.2077 8.7021 0.0000 0.0000 0.0000
# 2 20.2077 49.4783 27.6261 0.0000 0.0000 0.0000
# 3 8.7021 27.6261 113.2662 0.0000 0.0000 0.0000
# 4 0.0000 0.0000 0.0000 -41.1572 0.0000 0.0000
# 5 0.0000 0.0000 0.0000 0.0000 25.5420 0.0000
# 6 0.0000 0.0000 0.0000 0.0000 0.0000 35.8197
#
#
#
# Elastic Compliance Matrix: (Units=1/GPa)
#
#
# Indices 1 2 3 4 5 6 
#
# 1 0.011345 -0.004801 0.000299 0.000000 0.000000 0.000000
# 2 -0.004801 0.025429 -0.005833 0.000000 0.000000 0.000000
# 3 0.000299 -0.005833 0.010229 0.000000 0.000000 0.000000
# 4 0.000000 0.000000 0.000000 -0.024297 0.000000 0.000000
# 5 0.000000 0.000000 0.000000 0.000000 0.039151 0.000000
# 6 0.000000 0.000000 0.000000 0.000000 0.000000 0.027918
#
#
# Mechanical properties :
#
#
# Convention : Reuss Voigt Hill
#
# Bulk Modulus (GPa) = 37.97536 41.36463 39.66999
# Shear Modulus (GPa) = 41.93900 17.55249 29.74575
#
# Velocity S-wave (km/s) = 4.53313 2.93264 3.81770
# Velocity P-wave (km/s) = 6.78279 5.63338 6.23463
#
# Compressibility (1/GPa) = 0.02633286
#
# Stress axis : x y z
#
# Youngs Moduli (GPa) = 88.14423 39.32590 97.76567
#
# Poissons Ratio (x) = 0.18879 -0.02926
# Poissons Ratio (y) = 0.42314 0.57030
# Poissons Ratio (z) = -0.02638 0.22940
#
# Static dielectric constant tensor:
#      x y z
#    x 3.859450 0.000000 0.000000 
#    y 0.000000 3.339300 0.000000 
#    z 0.000000 0.000000 4.115210 
# 
# 
# High freq. dielectric constant tensor:
#      x y z
#    x 1.814420 0.000000 0.000000 
#    y 0.000000 1.760910 0.000000 
#    z 0.000000 0.000000 1.823920 
# 
# From -- ./inp_files/17439.got.cif
#   From: 2010.03.12/outbox.cif.g09.slc.cpg/sg55_9_cif.got.tgz:17439.got - 2010.04.16 15:19:21.
