data_PCOD8226715
_publ_section_title
;
Structure prediction by ZEFSAII (Michael W. Deem and Ramdas Pophale) SiO2 
 PCOD8226715
Probable space group: P B A M
;
_chemical_formula_sum "Si O2"
_cell_formula_units_Z 40
_cell_length_a 12.261983
_cell_length_b 18.169977
_cell_length_c 8.989059
_cell_angle_alpha 90.000000
_cell_angle_beta 90.000000
_cell_angle_gamma 90.000000
_cell_volume 2002.761888
_symmetry_space_group_name_H-M "P B A M"
_symmetry_group_IT_number 55
_symmetry_cell_setting 'orthorhombic'
loop_
_space_group_symop_operation_xyz
x,y,z
-x,-y,z
1/2+x,1/2-y,-z
1/2-x,1/2+y,-z
-x,-y,-z
x,y,-z
1/2-x,1/2+y,z
1/2+x,1/2-y,z
loop_
_atom_site_type_symbol
_atom_site_label
_atom_site_fract_x
_atom_site_fract_y
_atom_site_fract_z
Si Si1 0.314625 0.879948 0.173174
Si Si2 0.059767 0.073749 0.326426
Si Si3 0.959143 0.356740 0.672786
Si Si4 0.280237 0.048811 0.173610
Si Si5 0.881323 0.193070 0.328946
O O1 0.419584 0.857761 0.265779
O O2 0.217725 0.826464 0.221603
O O3 0.278449 0.962640 0.210167
O O4 0.339793 0.869231 0.000000
O O5 0.086873 0.067212 0.500000
O O6 0.172782 0.085935 0.241378
O O7 0.986025 0.143902 0.288821
O O8 0.000000 0.000000 0.269083
O O9 0.961690 0.376432 0.500000
O O10 0.888460 0.417839 0.755347
O O11 0.908860 0.277124 0.702122
O O12 0.282977 0.065213 0.000000
O O13 0.847115 0.179213 0.500000
#
# Coordination Sequence:
#
# PCOD8226715 Si02
#       5
#     8   8   8   8   8
#     4  11  24  42  64  91 126 163 204 256 310 368
#     4  10  20  38  65  92 120 160 207 254 304 362
#     4  11  25  42  64  91 125 166 209 257 307 365
#     4  11  24  41  63  93 127 162 207 257 309 369
#     4  10  23  42  63  91 124 160 206 256 306 367
#
# _framework density 19.972421000000001
#
# number of rings (size 3 to 8) (size 9 to 14) (size 15 to 20)
#    0.000    1.400    2.000    2.400    2.800    7.600 
#    0.000    0.000    0.000    0.000    0.000    0.000 
#    0.000    0.000    0.000    0.000    0.000    0.000 
#
# Total GULP energy -496317.290796 kJ/mol
# GULP energy per Si atom -12407.932270 kJ/mol
# Density = 1.992696 g / cm^3
# Si number density = 19.972421 Si / 1000 Ang^3
#
#
#
# Elastic Constant Matrix: (Units=GPa)
#
#
# Indices 1 2 3 4 5 6 
#
# 1 119.0880 39.6404 58.8927 0.0000 0.0000 0.0000
# 2 39.6404 19.0349 39.5892 0.0000 0.0000 0.0000
# 3 58.8927 39.5892 87.0594 0.0000 0.0000 0.0000
# 4 0.0000 0.0000 0.0000 23.1242 0.0000 0.0000
# 5 0.0000 0.0000 0.0000 0.0000 -108.0311 0.0000
# 6 0.0000 0.0000 0.0000 0.0000 0.0000 30.8508
#
#
#
# Elastic Compliance Matrix: (Units=1/GPa)
#
#
# Indices 1 2 3 4 5 6 
#
# 1 -0.012351 0.153877 -0.061619 0.000000 0.000000 0.000000
# 2 0.153877 -0.948281 0.327126 0.000000 0.000000 0.000000
# 3 -0.061619 0.327126 -0.095587 0.000000 0.000000 0.000000
# 4 0.000000 0.000000 0.000000 0.043245 0.000000 0.000000
# 5 0.000000 0.000000 0.000000 0.000000 -0.009257 0.000000
# 6 0.000000 0.000000 0.000000 0.000000 0.000000 0.032414
#
#
# Mechanical properties :
#
#
# Convention : Reuss Voigt Hill
#
# Bulk Modulus (GPa) = -4.59876 55.71410 25.55767
# Shear Modulus (GPa) = -2.63010 -5.00720 -3.81865
#
# Velocity S-wave (km/s) = -1.14879 -1.58509 -1.38424
# Velocity P-wave (km/s) = 2.01673 4.96045 3.20460
#
# Compressibility (1/GPa) = -0.21744969
#
# Stress axis : x y z
#
# Youngs Moduli (GPa) = -80.96469 -1.05454 -10.46162
#
# Poissons Ratio (x) = 0.16227 -0.64463
# Poissons Ratio (y) = 12.45860 3.42227
# Poissons Ratio (z) = -4.98893 0.34497
#
# Static dielectric constant tensor:
#      x y z
#    x 3.746960 0.000000 0.000000 
#    y 0.000000 3.724740 0.000000 
#    z 0.000000 0.000000 3.630320 
# 
# 
# High freq. dielectric constant tensor:
#      x y z
#    x 1.792660 0.000000 0.000000 
#    y 0.000000 1.786480 0.000000 
#    z 0.000000 0.000000 1.782400 
# 
# From -- ./inp_files/3602.got.cif
#   From: 2010.03.12/outbox.cif.g09.slc.cpg/sg55_2_cif.got.tgz:3602.got - 2010.04.16 15:19:21.
