data_PCOD8226208
_publ_section_title
;
Structure prediction by ZEFSAII (Michael W. Deem and Ramdas Pophale) SiO2 
 PCOD8226208
Probable space group: P B A M
;
_chemical_formula_sum "Si O2"
_cell_formula_units_Z 64
_cell_length_a 15.094494
_cell_length_b 24.745858
_cell_length_c 8.606479
_cell_angle_alpha 90.000000
_cell_angle_beta 90.000000
_cell_angle_gamma 90.000000
_cell_volume 3214.745440
_symmetry_space_group_name_H-M "P B A M"
_symmetry_group_IT_number 55
_symmetry_cell_setting 'orthorhombic'
loop_
_space_group_symop_operation_xyz
x,y,z
-x,-y,z
1/2+x,1/2-y,-z
1/2-x,1/2+y,-z
-x,-y,-z
x,y,-z
1/2-x,1/2+y,z
1/2+x,1/2-y,z
loop_
_atom_site_type_symbol
_atom_site_label
_atom_site_fract_x
_atom_site_fract_y
_atom_site_fract_z
Si Si1 0.351096 0.070395 0.822293
Si Si2 0.800676 0.318414 0.682322
Si Si3 0.689936 0.041244 0.321026
Si Si4 0.371175 0.465067 0.816451
Si Si5 0.042279 0.387098 0.176568
Si Si6 0.880639 0.806624 0.817152
Si Si7 0.008968 0.721238 0.679526
Si Si8 0.056040 0.078603 0.817271
O O1 0.301554 0.124938 0.772776
O O2 0.456053 0.076057 0.801633
O O3 0.320473 0.021925 0.713742
O O4 0.324667 0.057577 0.000000
O O5 0.801870 0.329875 0.500000
O O6 0.710778 0.287601 0.733915
O O7 0.887081 0.282733 0.727993
O O8 0.669799 0.052937 0.500000
O O9 0.789083 0.059358 0.277677
O O10 0.625469 0.076271 0.215556
O O11 0.379627 0.528863 0.775431
O O12 0.457348 0.433371 0.753919
O O13 0.357279 0.457284 0.000000
O O14 0.038567 0.335840 0.289668
O O15 0.049555 0.366082 0.000000
O O16 0.961529 0.766842 0.780662
O O17 0.906104 0.865649 0.748463
O O18 0.864049 0.807652 0.000000
O O19 0.998244 0.736232 0.500000
O O20 0.047196 0.084067 0.000000
#
# Coordination Sequence:
#
# PCOD8226208 Si02
#       8
#     8   8   8   8   8   8   8   8
#     4  10  20  35  57  83 111 145 191 240 282 337
#     4  10  21  38  60  86 116 151 190 238 296 348
#     4  12  23  33  50  82 118 153 188 225 279 347
#     4   9  17  35  58  79 111 149 187 232 281 331
#     4  10  21  38  58  79 107 146 190 237 287 337
#     4  11  21  36  61  90 116 149 197 242 285 343
#     4  10  22  41  60  82 115 152 190 240 295 344
#     4   8  17  34  58  84 108 142 187 238 282 324
#
# _framework density 19.908265
#
# number of rings (size 3 to 8) (size 9 to 14) (size 15 to 20)
#    0.000    2.000    0.000    4.875    0.000    5.500 
#    2.250    3.125    0.000    0.000    0.000    0.000 
#    0.000    0.000    0.000    0.000    0.000    0.000 
#
# Total GULP energy -793747.335240 kJ/mol
# GULP energy per Si atom -12402.302113 kJ/mol
# Density = 1.986295 g / cm^3
# Si number density = 19.908265 Si / 1000 Ang^3
#
#
#
# Elastic Constant Matrix: (Units=GPa)
#
#
# Indices 1 2 3 4 5 6 
#
# 1 116.9699 42.7276 29.6175 0.0000 0.0000 0.0000
# 2 42.7276 56.8703 12.1097 0.0000 0.0000 0.0000
# 3 29.6175 12.1097 56.5041 0.0000 0.0000 0.0000
# 4 0.0000 0.0000 0.0000 27.4114 0.0000 0.0000
# 5 0.0000 0.0000 0.0000 0.0000 28.8387 0.0000
# 6 0.0000 0.0000 0.0000 0.0000 0.0000 25.7329
#
#
#
# Elastic Compliance Matrix: (Units=1/GPa)
#
#
# Indices 1 2 3 4 5 6 
#
# 1 0.012977 -0.008698 -0.004938 0.000000 0.000000 0.000000
# 2 -0.008698 0.024255 -0.000639 0.000000 0.000000 0.000000
# 3 -0.004938 -0.000639 0.020423 0.000000 0.000000 0.000000
# 4 0.000000 0.000000 0.000000 0.036481 0.000000 0.000000
# 5 0.000000 0.000000 0.000000 0.000000 0.034676 0.000000
# 6 0.000000 0.000000 0.000000 0.000000 0.000000 0.038861
#
#
# Mechanical properties :
#
#
# Convention : Reuss Voigt Hill
#
# Bulk Modulus (GPa) = 34.35848 44.36155 39.36002
# Shear Modulus (GPa) = 24.28076 26.12255 25.20165
#
# Velocity S-wave (km/s) = 3.49611 3.62629 3.56179
# Velocity P-wave (km/s) = 5.79594 6.31384 6.06043
#
# Compressibility (1/GPa) = 0.02910489
#
# Stress axis : x y z
#
# Youngs Moduli (GPa) = 77.06008 41.22842 48.96438
#
# Poissons Ratio (x) = 0.35862 0.24178
# Poissons Ratio (y) = 0.67029 0.03128
# Poissons Ratio (z) = 0.38051 0.02634
#
# Static dielectric constant tensor:
#      x y z
#    x 3.814660 0.000000 0.000000 
#    y 0.000000 3.527250 0.000000 
#    z 0.000000 0.000000 3.442080 
# 
# 
# High freq. dielectric constant tensor:
#      x y z
#    x 1.792010 0.000000 0.000000 
#    y 0.000000 1.755860 0.000000 
#    z 0.000000 0.000000 1.767450 
# 
# From -- ./inp_files/6642.got.cif
#   From: 2010.03.12/outbox.cif.g09.slc.cpg/sg55_4_cif.got.tgz:6642.got - 2010.04.16 15:19:21.
