data_PCOD8226835
_publ_section_title
;
Structure prediction by ZEFSAII (Michael W. Deem and Ramdas Pophale) SiO2 
 PCOD8226835
Probable space group: P B A M
;
_chemical_formula_sum "Si O2"
_cell_formula_units_Z 64
_cell_length_a 22.877543
_cell_length_b 15.623584
_cell_length_c 9.384054
_cell_angle_alpha 90.000000
_cell_angle_beta 90.000000
_cell_angle_gamma 90.000000
_cell_volume 3354.135053
_symmetry_space_group_name_H-M "P B A M"
_symmetry_group_IT_number 55
_symmetry_cell_setting 'orthorhombic'
loop_
_space_group_symop_operation_xyz
x,y,z
-x,-y,z
1/2+x,1/2-y,-z
1/2-x,1/2+y,-z
-x,-y,-z
x,y,-z
1/2-x,1/2+y,z
1/2+x,1/2-y,z
loop_
_atom_site_type_symbol
_atom_site_label
_atom_site_fract_x
_atom_site_fract_y
_atom_site_fract_z
Si Si1 0.937143 0.762884 0.166397
Si Si2 0.645503 0.967217 0.338411
Si Si3 0.989086 0.096065 0.666243
Si Si4 0.946912 0.565418 0.836032
Si Si5 0.760182 0.594836 0.343846
Si Si6 0.317618 0.189181 0.167026
Si Si7 0.138918 0.845224 0.338752
Si Si8 0.305357 0.753764 0.833747
O O1 0.960600 0.665766 0.197545
O O2 0.869559 0.776243 0.216991
O O3 0.974430 0.831904 0.252141
O O4 0.943849 0.783495 0.000000
O O5 0.625237 0.947287 0.500000
O O6 0.645102 0.883068 0.244339
O O7 0.603984 0.038623 0.270756
O O8 0.711916 0.001151 0.334087
O O9 0.004970 0.103717 0.500000
O O10 0.921241 0.109950 0.697963
O O11 0.000000 0.000000 0.722987
O O12 0.000000 0.500000 0.806856
O O13 0.926143 0.557596 0.000000
O O14 0.772805 0.635258 0.500000
O O15 0.690551 0.584620 0.322262
O O16 0.791014 0.654608 0.230140
O O17 0.347933 0.274678 0.221101
O O18 0.247844 0.188271 0.204749
O O19 0.328024 0.179796 0.000000
O O20 0.138166 0.806763 0.500000
O O21 0.307468 0.770291 0.000000
#
# Coordination Sequence:
#
# PCOD8226835 Si02
#       8
#     8   8   8   8   8   8   8   8
#     4  10  21  38  61  86 118 155 195 244 291 340
#     4  11  22  35  55  87 120 150 188 233 284 343
#     4  10  23  41  60  84 114 152 196 240 291 345
#     4  10  22  39  59  85 118 159 198 239 291 348
#     4   9  18  33  55  80 109 144 182 228 280 334
#     4  10  21  35  55  83 114 149 187 230 286 348
#     4   9  19  38  59  80 111 148 189 236 285 339
#     4   9  18  35  56  80 108 143 186 231 282 336
#
# _framework density 19.080924
#
# number of rings (size 3 to 8) (size 9 to 14) (size 15 to 20)
#    0.000    2.250    1.250    0.750    1.750    4.000 
#    0.000    1.250    0.000    0.000    0.000    0.000 
#    0.000    0.000    0.000    0.000    0.000    0.000 
#
# Total GULP energy -793191.803650 kJ/mol
# GULP energy per Si atom -12393.621932 kJ/mol
# Density = 1.903750 g / cm^3
# Si number density = 19.080924 Si / 1000 Ang^3
#
#
#
# Elastic Constant Matrix: (Units=GPa)
#
#
# Indices 1 2 3 4 5 6 
#
# 1 119.1982 58.8551 49.9388 0.0000 0.0000 0.0000
# 2 58.8551 109.4782 50.0673 0.0000 0.0000 0.0000
# 3 49.9388 50.0673 73.6811 0.0000 0.0000 0.0000
# 4 0.0000 0.0000 0.0000 23.9775 0.0000 0.0000
# 5 0.0000 0.0000 0.0000 0.0000 29.2016 0.0000
# 6 0.0000 0.0000 0.0000 0.0000 0.0000 24.3868
#
#
#
# Elastic Compliance Matrix: (Units=1/GPa)
#
#
# Indices 1 2 3 4 5 6 
#
# 1 0.012967 -0.004283 -0.005878 0.000000 0.000000 0.000000
# 2 -0.004283 0.014667 -0.007064 0.000000 0.000000 0.000000
# 3 -0.005878 -0.007064 0.022356 0.000000 0.000000 0.000000
# 4 0.000000 0.000000 0.000000 0.041706 0.000000 0.000000
# 5 0.000000 0.000000 0.000000 0.000000 0.034245 0.000000
# 6 0.000000 0.000000 0.000000 0.000000 0.000000 0.041006
#
#
# Mechanical properties :
#
#
# Convention : Reuss Voigt Hill
#
# Bulk Modulus (GPa) = 64.34870 68.89776 66.62323
# Shear Modulus (GPa) = 24.20419 25.07960 24.64189
#
# Velocity S-wave (km/s) = 3.56547 3.62937 3.59756
# Velocity P-wave (km/s) = 7.12372 7.33142 7.22832
#
# Compressibility (1/GPa) = 0.01554033
#
# Stress axis : x y z
#
# Youngs Moduli (GPa) = 77.12056 68.18023 44.73030
#
# Poissons Ratio (x) = 0.29198 0.26294
# Poissons Ratio (y) = 0.33027 0.31597
# Poissons Ratio (z) = 0.45335 0.48162
#
# Static dielectric constant tensor:
#      x y z
#    x 3.742120 0.000000 0.000000 
#    y 0.000000 3.337250 0.000000 
#    z 0.000000 0.000000 3.528210 
# 
# 
# High freq. dielectric constant tensor:
#      x y z
#    x 1.750100 0.000000 0.000000 
#    y 0.000000 1.726390 0.000000 
#    z 0.000000 0.000000 1.744050 
# 
# From -- ./inp_files/9799.got.cif
#   From: 2010.03.12/outbox.cif.g09.slc.cpg/sg55_5_cif.got.tgz:9799.got - 2010.04.16 15:19:21.
