data_PCOD8226791
_publ_section_title
;
Structure prediction by ZEFSAII (Michael W. Deem and Ramdas Pophale) SiO2 
 PCOD8226791
Probable space group: P B A M
;
_chemical_formula_sum "Si O2"
_cell_formula_units_Z 48
_cell_length_a 9.208051
_cell_length_b 28.233992
_cell_length_c 8.503094
_cell_angle_alpha 90.000000
_cell_angle_beta 90.000000
_cell_angle_gamma 90.000000
_cell_volume 2210.634704
_symmetry_space_group_name_H-M "P B A M"
_symmetry_group_IT_number 55
_symmetry_cell_setting 'orthorhombic'
loop_
_space_group_symop_operation_xyz
x,y,z
-x,-y,z
1/2+x,1/2-y,-z
1/2-x,1/2+y,-z
-x,-y,-z
x,y,-z
1/2-x,1/2+y,z
1/2+x,1/2-y,z
loop_
_atom_site_type_symbol
_atom_site_label
_atom_site_fract_x
_atom_site_fract_y
_atom_site_fract_z
Si Si1 0.044792 0.615851 0.252689
Si Si2 0.745952 0.966920 0.171791
Si Si3 0.228785 0.437408 0.331016
Si Si4 0.554842 0.186690 0.000000
Si Si5 0.809403 0.823659 0.324994
Si Si6 0.744062 0.769187 0.000000
Si Si7 0.002880 0.100289 0.818496
O O1 0.128716 0.575184 0.157017
O O2 0.164607 0.644882 0.349790
O O3 0.922239 0.590339 0.354731
O O4 0.957306 0.653003 0.148144
O O5 0.901025 0.945757 0.225559
O O6 0.694544 0.008317 0.286725
O O7 0.761727 0.990096 0.000000
O O8 0.307128 0.437353 0.500000
O O9 0.334531 0.412140 0.206704
O O10 0.429681 0.227122 0.000000
O O11 0.708189 0.214302 0.000000
O O12 0.831574 0.798684 0.500000
O O13 0.798615 0.791089 0.167906
O O14 0.949263 0.856524 0.293256
O O15 0.029728 0.114577 0.000000
#
# Coordination Sequence:
#
# PCOD8226791 Si02
#       7
#     8   8   8   4   8   4   8
#     4  10  22  39  63  89 119 161 208 250 307 371
#     4  10  21  38  59  82 117 164 217 254 298 366
#     4  12  25  35  52  89 128 164 212 264 309 353
#     4  10  22  42  67  93 122 156 199 257 312 376
#     4  10  20  41  68  91 125 165 202 252 310 375
#     4  10  22  42  66  99 121 154 206 245 311 392
#     4  10  21  38  59  87 123 166 217 261 302 365
#
# _framework density 21.713221999999998
#
# number of rings (size 3 to 8) (size 9 to 14) (size 15 to 20)
#    0.000    1.667    1.667    2.500    2.333    8.667 
#    0.000    4.167    0.000    0.000    0.000    0.000 
#    0.000    0.000    0.000    0.000    0.000    0.000 
#
# Total GULP energy -594677.170294 kJ/mol
# GULP energy per Si atom -12389.107714 kJ/mol
# Density = 2.166380 g / cm^3
# Si number density = 21.713222 Si / 1000 Ang^3
#
#
#
# Elastic Constant Matrix: (Units=GPa)
#
#
# Indices 1 2 3 4 5 6 
#
# 1 77.9943 22.4628 8.9115 0.0000 0.0000 0.0000
# 2 22.4628 52.5847 20.8933 0.0000 0.0000 0.0000
# 3 8.9115 20.8933 124.8636 0.0000 0.0000 0.0000
# 4 0.0000 0.0000 0.0000 8.2577 0.0000 0.0000
# 5 0.0000 0.0000 0.0000 0.0000 12.1957 0.0000
# 6 0.0000 0.0000 0.0000 0.0000 0.0000 38.3009
#
#
#
# Elastic Compliance Matrix: (Units=1/GPa)
#
#
# Indices 1 2 3 4 5 6 
#
# 1 0.014620 -0.006246 0.000002 0.000000 0.000000 0.000000
# 2 -0.006246 0.023040 -0.003409 0.000000 0.000000 0.000000
# 3 0.000002 -0.003409 0.008579 0.000000 0.000000 0.000000
# 4 0.000000 0.000000 0.000000 0.121099 0.000000 0.000000
# 5 0.000000 0.000000 0.000000 0.000000 0.081996 0.000000
# 6 0.000000 0.000000 0.000000 0.000000 0.000000 0.026109
#
#
# Mechanical properties :
#
#
# Convention : Reuss Voigt Hill
#
# Bulk Modulus (GPa) = 37.13126 39.99754 38.56440
# Shear Modulus (GPa) = 16.46208 25.29584 20.87896
#
# Velocity S-wave (km/s) = 2.75646 3.41691 3.10430
# Velocity P-wave (km/s) = 5.22194 5.83334 5.53608
#
# Compressibility (1/GPa) = 0.02693148
#
# Stress axis : x y z
#
# Youngs Moduli (GPa) = 68.39873 43.40323 116.56212
#
# Poissons Ratio (x) = 0.27110 -0.00020
# Poissons Ratio (y) = 0.42722 0.39741
# Poissons Ratio (z) = -0.00012 0.14798
#
# Static dielectric constant tensor:
#      x y z
#    x 3.798600 0.000000 0.000000 
#    y 0.000000 3.638040 0.000000 
#    z 0.000000 0.000000 4.525500 
# 
# 
# High freq. dielectric constant tensor:
#      x y z
#    x 1.849570 0.000000 0.000000 
#    y 0.000000 1.829490 0.000000 
#    z 0.000000 0.000000 1.854860 
# 
# From -- ./inp_files/2915.got.cif
#   From: 2010.03.12/outbox.cif.g09.slc.cpg/sg55_2_cif.got.tgz:2915.got - 2010.04.16 15:19:21.
