data_PCOD8226840
_publ_section_title
;
Structure prediction by ZEFSAII (Michael W. Deem and Ramdas Pophale) SiO2 
 PCOD8226840
Probable space group: P B A M
;
_chemical_formula_sum "Si O2"
_cell_formula_units_Z 48
_cell_length_a 11.999666
_cell_length_b 24.025681
_cell_length_c 8.831865
_cell_angle_alpha 90.000000
_cell_angle_beta 90.000000
_cell_angle_gamma 90.000000
_cell_volume 2546.227982
_symmetry_space_group_name_H-M "P B A M"
_symmetry_group_IT_number 55
_symmetry_cell_setting 'orthorhombic'
loop_
_space_group_symop_operation_xyz
x,y,z
-x,-y,z
1/2+x,1/2-y,-z
1/2-x,1/2+y,-z
-x,-y,-z
x,y,-z
1/2-x,1/2+y,z
1/2+x,1/2-y,z
loop_
_atom_site_type_symbol
_atom_site_label
_atom_site_fract_x
_atom_site_fract_y
_atom_site_fract_z
Si Si1 0.593649 0.164779 0.321624
Si Si2 0.217853 0.921028 0.679810
Si Si3 0.018425 0.114425 0.676383
Si Si4 0.268823 0.545777 0.677013
Si Si5 0.668625 0.287411 0.321211
Si Si6 0.642241 0.855285 0.178371
O O1 0.568760 0.161351 0.500000
O O2 0.684166 0.119689 0.268721
O O3 0.640970 0.224818 0.275399
O O4 0.483631 0.152934 0.228884
O O5 0.206349 0.923025 0.500000
O O6 0.100910 0.899503 0.752080
O O7 0.244918 0.983078 0.738471
O O8 0.998026 0.122495 0.500000
O O9 0.104073 0.064261 0.708508
O O10 0.070026 0.172146 0.740137
O O11 0.240208 0.550944 0.500000
O O12 0.182899 0.584556 0.765588
O O13 0.683837 0.294846 0.500000
O O14 0.784923 0.305101 0.246597
O O15 0.650904 0.852896 0.000000
#
# Coordination Sequence:
#
# PCOD8226840 Si02
#       6
#     8   8   8   8   8   8
#     4  10  21  35  56  84 110 140 182 230 274 321
#     4   9  17  29  52  85 112 135 174 230 280 323
#     4   8  14  27  51  83 108 133 171 221 278 322
#     4   9  17  33  56  80 108 141 181 227 274 324
#     4   9  19  35  59  83 107 139 179 229 275 324
#     4  11  23  38  55  75 109 150 185 220 267 329
#
# _framework density 18.851413999999998
#
# number of rings (size 3 to 8) (size 9 to 14) (size 15 to 20)
#    0.000    2.667    0.000    3.000    2.333    3.333 
#    0.000    4.167    0.000    9.000    0.000    0.000 
#    0.000    0.000    0.000    0.000    0.000    0.000 
#
# Total GULP energy -595151.106237 kJ/mol
# GULP energy per Si atom -12398.981380 kJ/mol
# Density = 1.880851 g / cm^3
# Si number density = 18.851414 Si / 1000 Ang^3
#
#
#
# Elastic Constant Matrix: (Units=GPa)
#
#
# Indices 1 2 3 4 5 6 
#
# 1 141.8090 78.0855 43.3541 0.0000 0.0000 0.0000
# 2 78.0855 146.8852 35.2138 0.0000 0.0000 0.0000
# 3 43.3541 35.2138 45.7813 0.0000 0.0000 0.0000
# 4 0.0000 0.0000 0.0000 6.3147 0.0000 0.0000
# 5 0.0000 0.0000 0.0000 0.0000 4.5694 0.0000
# 6 0.0000 0.0000 0.0000 0.0000 0.0000 21.8982
#
#
#
# Elastic Compliance Matrix: (Units=1/GPa)
#
#
# Indices 1 2 3 4 5 6 
#
# 1 0.011898 -0.004443 -0.007850 0.000000 0.000000 0.000000
# 2 -0.004443 0.010007 -0.003489 0.000000 0.000000 0.000000
# 3 -0.007850 -0.003489 0.031960 0.000000 0.000000 0.000000
# 4 0.000000 0.000000 0.000000 0.158361 0.000000 0.000000
# 5 0.000000 0.000000 0.000000 0.000000 0.218847 0.000000
# 6 0.000000 0.000000 0.000000 0.000000 0.000000 0.045666
#
#
# Mechanical properties :
#
#
# Convention : Reuss Voigt Hill
#
# Bulk Modulus (GPa) = 44.84137 71.97582 58.40859
# Shear Modulus (GPa) = 9.69486 18.41125 14.05305
#
# Velocity S-wave (km/s) = 2.27023 3.12853 2.73328
# Velocity P-wave (km/s) = 5.54169 7.16336 6.40406
#
# Compressibility (1/GPa) = 0.02230084
#
# Stress axis : x y z
#
# Youngs Moduli (GPa) = 84.04591 99.93389 31.28883
#
# Poissons Ratio (x) = 0.44404 0.24561
# Poissons Ratio (y) = 0.37344 0.10917
# Poissons Ratio (z) = 0.65974 0.34868
#
# Static dielectric constant tensor:
#      x y z
#    x 3.548050 0.000000 0.000000 
#    y 0.000000 3.925770 0.000000 
#    z 0.000000 0.000000 2.966630 
# 
# 
# High freq. dielectric constant tensor:
#      x y z
#    x 1.738630 0.000000 0.000000 
#    y 0.000000 1.744740 0.000000 
#    z 0.000000 0.000000 1.681500 
# 
# From -- ./inp_files/4035.got.cif
#   From: 2010.03.12/outbox.cif.g09.slc.cpg/sg55_3_cif.got.tgz:4035.got - 2010.04.16 15:19:21.
