data_PCOD8226221
_publ_section_title
;
Structure prediction by ZEFSAII (Michael W. Deem and Ramdas Pophale) SiO2 
 PCOD8226221
Probable space group: P B A M
;
_chemical_formula_sum "Si O2"
_cell_formula_units_Z 64
_cell_length_a 31.542715
_cell_length_b 8.616668
_cell_length_c 12.408090
_cell_angle_alpha 90.000000
_cell_angle_beta 90.000000
_cell_angle_gamma 90.000000
_cell_volume 3372.433283
_symmetry_space_group_name_H-M "P B A M"
_symmetry_group_IT_number 55
_symmetry_cell_setting 'orthorhombic'
loop_
_space_group_symop_operation_xyz
x,y,z
-x,-y,z
1/2+x,1/2-y,-z
1/2-x,1/2+y,-z
-x,-y,-z
x,y,-z
1/2-x,1/2+y,z
1/2+x,1/2-y,z
loop_
_atom_site_type_symbol
_atom_site_label
_atom_site_fract_x
_atom_site_fract_y
_atom_site_fract_z
Si Si1 0.552285 0.654639 0.126707
Si Si2 0.889314 0.376431 0.266668
Si Si3 0.750846 0.080116 0.256522
Si Si4 0.043679 0.415636 0.377526
Si Si5 0.959126 0.805063 0.186641
Si Si6 0.796757 0.829548 0.125092
Si Si7 0.803673 0.328789 0.626899
Si Si8 0.377175 0.848330 0.882106
O O1 0.586852 0.755632 0.189066
O O2 0.551694 0.486408 0.182194
O O3 0.505710 0.730308 0.139201
O O4 0.563819 0.643185 0.000000
O O5 0.920628 0.457999 0.350780
O O6 0.851323 0.294142 0.331067
O O7 0.868043 0.509670 0.195637
O O8 0.730359 0.181973 0.162389
O O9 0.774420 0.182070 0.346322
O O10 0.785925 0.976350 0.197776
O O11 0.714907 0.982133 0.316950
O O12 0.048796 0.361650 0.500000
O O13 0.045616 0.257166 0.308745
O O14 0.000000 0.500000 0.354142
O O15 0.925691 0.708439 0.116562
O O16 0.846413 0.795377 0.146466
O O17 0.786974 0.863164 0.000000
O O18 0.804664 0.355478 0.500000
O O19 0.365690 0.911168 0.000000
#
# Coordination Sequence:
#
# PCOD8226221 Si02
#       8
#     8   8   8   8   8   8   8   8
#     4  11  22  38  59  88 122 157 191 241 298 348
#     4  11  22  38  59  90 117 152 195 246 289 353
#     4  10  22  40  62  87 116 151 194 238 292 359
#     4  10  20  39  61  83 116 159 201 244 292 339
#     4  10  21  38  59  84 119 158 202 242 286 345
#     4  10  20  37  59  89 121 153 185 231 292 355
#     4  11  23  42  64  86 115 152 196 248 296 343
#     4  10  20  35  57  86 119 155 192 235 287 350
#
# _framework density 18.977394
#
# number of rings (size 3 to 8) (size 9 to 14) (size 15 to 20)
#    0.000    1.625    2.500    3.000    1.750    0.000 
#    0.000    5.625    0.000    0.000    0.000    0.000 
#    0.000    0.000    0.000    0.000    0.000    0.000 
#
# Total GULP energy -793632.592250 kJ/mol
# GULP energy per Si atom -12400.509254 kJ/mol
# Density = 1.893420 g / cm^3
# Si number density = 18.977394 Si / 1000 Ang^3
#
#
#
# Elastic Constant Matrix: (Units=GPa)
#
#
# Indices 1 2 3 4 5 6 
#
# 1 95.6119 27.3762 39.0620 0.0000 0.0000 0.0000
# 2 27.3762 76.6128 40.9804 0.0000 0.0000 0.0000
# 3 39.0620 40.9804 96.9117 0.0000 0.0000 0.0000
# 4 0.0000 0.0000 0.0000 52.4229 0.0000 0.0000
# 5 0.0000 0.0000 0.0000 0.0000 25.8276 0.0000
# 6 0.0000 0.0000 0.0000 0.0000 0.0000 27.4915
#
#
#
# Elastic Compliance Matrix: (Units=1/GPa)
#
#
# Indices 1 2 3 4 5 6 
#
# 1 0.012841 -0.002352 -0.004181 0.000000 0.000000 0.000000
# 2 -0.002352 0.017299 -0.006367 0.000000 0.000000 0.000000
# 3 -0.004181 -0.006367 0.014696 0.000000 0.000000 0.000000
# 4 0.000000 0.000000 0.000000 0.019076 0.000000 0.000000
# 5 0.000000 0.000000 0.000000 0.000000 0.038718 0.000000
# 6 0.000000 0.000000 0.000000 0.000000 0.000000 0.036375
#
#
# Mechanical properties :
#
#
# Convention : Reuss Voigt Hill
#
# Bulk Modulus (GPa) = 52.53305 53.77484 53.15394
# Shear Modulus (GPa) = 29.21422 31.92960 30.57191
#
# Velocity S-wave (km/s) = 3.92780 4.10629 4.01804
# Velocity P-wave (km/s) = 6.95070 7.13301 7.04245
#
# Compressibility (1/GPa) = 0.01903563
#
# Stress axis : x y z
#
# Youngs Moduli (GPa) = 77.87848 57.80751 68.04416
#
# Poissons Ratio (x) = 0.13595 0.28450
# Poissons Ratio (y) = 0.18316 0.43324
# Poissons Ratio (z) = 0.32562 0.36806
#
# Static dielectric constant tensor:
#      x y z
#    x 3.706290 0.000000 0.000000 
#    y 0.000000 3.397210 0.000000 
#    z 0.000000 0.000000 3.429740 
# 
# 
# High freq. dielectric constant tensor:
#      x y z
#    x 1.749720 0.000000 0.000000 
#    y 0.000000 1.731690 0.000000 
#    z 0.000000 0.000000 1.739760 
# 
# From -- ./inp_files/12606.got.cif
#   From: 2010.03.12/outbox.cif.g09.slc.cpg/sg55_7_cif.got.tgz:12606.got - 2010.04.16 15:19:21.
