data_PCOD8226866
_publ_section_title
;
Structure prediction by ZEFSAII (Michael W. Deem and Ramdas Pophale) SiO2 
 PCOD8226866
Probable space group: P B A M
;
_chemical_formula_sum "Si O2"
_cell_formula_units_Z 64
_cell_length_a 20.152344
_cell_length_b 9.134714
_cell_length_c 19.703262
_cell_angle_alpha 90.000000
_cell_angle_beta 90.000000
_cell_angle_gamma 90.000000
_cell_volume 3627.092696
_symmetry_space_group_name_H-M "P B A M"
_symmetry_group_IT_number 55
_symmetry_cell_setting 'orthorhombic'
loop_
_space_group_symop_operation_xyz
x,y,z
-x,-y,z
1/2+x,1/2-y,-z
1/2-x,1/2+y,-z
-x,-y,-z
x,y,-z
1/2-x,1/2+y,z
1/2+x,1/2-y,z
loop_
_atom_site_type_symbol
_atom_site_label
_atom_site_fract_x
_atom_site_fract_y
_atom_site_fract_z
Si Si1 0.426523 0.172600 0.319954
Si Si2 0.422970 0.830051 0.833226
Si Si3 0.316972 0.169547 0.422548
Si Si4 0.815943 0.171019 0.920974
Si Si5 0.427385 0.825679 0.319954
Si Si6 0.577742 0.831653 0.833238
Si Si7 0.316722 0.669909 0.079022
Si Si8 0.317859 0.825836 0.577445
O O1 0.374367 0.235056 0.374389
O O2 0.499410 0.238657 0.336110
O O3 0.404825 0.215056 0.243819
O O4 0.430620 0.999184 0.326021
O O5 0.405825 0.782850 0.756170
O O6 0.500409 0.803932 0.848226
O O7 0.381097 0.729091 0.882909
O O8 0.404256 0.999011 0.845718
O O9 0.336157 0.206642 0.500000
O O10 0.249314 0.246678 0.400927
O O11 0.307497 0.997576 0.411647
O O12 0.880052 0.231647 0.882987
O O13 0.749428 0.249810 0.894250
O O14 0.808331 0.000473 0.905602
O O15 0.826652 0.203799 0.000000
O O16 0.375580 0.761834 0.374385
O O17 0.327650 0.702349 0.000000
O O18 0.337275 0.789381 0.500000
#
# Coordination Sequence:
#
# PCOD8226866 Si02
#       8
#     8   8   8   8   8   8   8   8
#     4   8  15  29  48  70  95 122 156 197 235 273
#     4   9  18  33  52  73  99 130 161 196 240 289
#     4   9  17  29  46  68  94 124 157 194 235 278
#     4  10  21  36  53  73  98 127 160 200 242 285
#     4   8  15  29  48  70  95 122 156 197 235 273
#     4   9  18  33  52  73  99 130 161 196 240 289
#     4  10  21  36  53  73  98 127 160 200 242 285
#     4   9  17  29  46  68  94 124 157 194 235 278
#
# _framework density 17.644987
#
# number of rings (size 3 to 8) (size 9 to 14) (size 15 to 20)
#    0.000    3.000    0.000    2.250    0.000    4.000 
#    0.000    8.750    0.000    2.250    0.000    3.500 
#    0.000    0.000    0.000    0.000    0.000    0.000 
#
# Total GULP energy -793530.124425 kJ/mol
# GULP energy per Si atom -12398.908194 kJ/mol
# Density = 1.760483 g / cm^3
# Si number density = 17.644987 Si / 1000 Ang^3
#
#
#
# Elastic Constant Matrix: (Units=GPa)
#
#
# Indices 1 2 3 4 5 6 
#
# 1 124.1795 50.7882 81.2247 0.0000 0.0000 0.0000
# 2 50.7882 53.8923 44.1493 0.0000 0.0000 0.0000
# 3 81.2247 44.1493 93.2844 0.0000 0.0000 0.0000
# 4 0.0000 0.0000 0.0000 19.7870 0.0000 0.0000
# 5 0.0000 0.0000 0.0000 0.0000 36.6333 0.0000
# 6 0.0000 0.0000 0.0000 0.0000 0.0000 31.5433
#
#
#
# Elastic Compliance Matrix: (Units=1/GPa)
#
#
# Indices 1 2 3 4 5 6 
#
# 1 0.020477 -0.007662 -0.014203 0.000000 0.000000 0.000000
# 2 -0.007662 0.033172 -0.009028 0.000000 0.000000 0.000000
# 3 -0.014203 -0.009028 0.027360 0.000000 0.000000 0.000000
# 4 0.000000 0.000000 0.000000 0.050538 0.000000 0.000000
# 5 0.000000 0.000000 0.000000 0.000000 0.027298 0.000000
# 6 0.000000 0.000000 0.000000 0.000000 0.000000 0.031702
#
#
# Mechanical properties :
#
#
# Convention : Reuss Voigt Hill
#
# Bulk Modulus (GPa) = 52.02402 69.29784 60.66093
# Shear Modulus (GPa) = 19.32428 23.93896 21.63162
#
# Velocity S-wave (km/s) = 3.31293 3.68734 3.50514
# Velocity P-wave (km/s) = 6.64693 7.58203 7.12983
#
# Compressibility (1/GPa) = 0.01922189
#
# Stress axis : x y z
#
# Youngs Moduli (GPa) = 48.83583 30.14579 36.54956
#
# Poissons Ratio (x) = 0.23097 0.51913
# Poissons Ratio (y) = 0.37416 0.32998
# Poissons Ratio (z) = 0.69364 0.27217
#
# Static dielectric constant tensor:
#      x y z
#    x 3.529350 0.000000 0.000000 
#    y 0.000000 3.002370 0.000000 
#    z 0.000000 0.000000 3.355960 
# 
# 
# High freq. dielectric constant tensor:
#      x y z
#    x 1.688920 0.000000 0.000000 
#    y 0.000000 1.655400 0.000000 
#    z 0.000000 0.000000 1.683390 
# 
# From -- ./inp_files/23088.got.cif
#   From: 2010.03.12/outbox.cif.g09.slc.cpg/sg55_12_cif.got.tgz:23088.got - 2010.04.16 15:19:21.
