data_PCOD8226110
_publ_section_title
;
Structure prediction by ZEFSAII (Michael W. Deem and Ramdas Pophale) SiO2 
 PCOD8226110
Probable space group: P B A M
;
_chemical_formula_sum "Si O2"
_cell_formula_units_Z 64
_cell_length_a 13.655057
_cell_length_b 20.192276
_cell_length_c 13.585874
_cell_angle_alpha 90.000000
_cell_angle_beta 90.000000
_cell_angle_gamma 90.000000
_cell_volume 3745.987929
_symmetry_space_group_name_H-M "P B A M"
_symmetry_group_IT_number 55
_symmetry_cell_setting 'orthorhombic'
loop_
_space_group_symop_operation_xyz
x,y,z
-x,-y,z
1/2+x,1/2-y,-z
1/2-x,1/2+y,-z
-x,-y,-z
x,y,-z
1/2-x,1/2+y,z
1/2+x,1/2-y,z
loop_
_atom_site_type_symbol
_atom_site_label
_atom_site_fract_x
_atom_site_fract_y
_atom_site_fract_z
Si Si1 0.411182 0.048968 0.890412
Si Si2 0.990290 0.621287 0.616930
Si Si3 0.218483 0.427996 0.614982
Si Si4 0.314888 0.062240 0.696927
Si Si5 0.638890 0.684566 0.616251
Si Si6 0.095416 0.700344 0.888146
Si Si7 0.524918 0.257663 0.727923
Si Si8 0.251476 0.703662 0.723555
O O1 0.325386 0.038929 0.810733
O O2 0.446095 0.125395 0.882669
O O3 0.500000 0.000000 0.866582
O O4 0.369325 0.034636 0.000000
O O5 0.992414 0.629454 0.500000
O O6 0.888979 0.590001 0.656182
O O7 0.002079 0.692644 0.665500
O O8 0.077409 0.573204 0.650888
O O9 0.217633 0.417536 0.500000
O O10 0.242771 0.503837 0.641505
O O11 0.301049 0.378798 0.657377
O O12 0.250538 0.128242 0.684999
O O13 0.620856 0.681982 0.500000
O O14 0.534668 0.683763 0.672867
O O15 0.699804 0.750598 0.642408
O O16 0.197378 0.707903 0.828889
O O17 0.014164 0.747741 0.839039
O O18 0.113651 0.723166 0.000000
O O19 0.637809 0.273801 0.734841
#
# Coordination Sequence:
#
# PCOD8226110 Si02
#       8
#     8   8   8   8   8   8   8   8
#     4   9  16  27  47  74 103 134 163 201 261 320
#     4  11  19  30  51  79 106 134 169 216 268 318
#     4  10  21  33  50  76 107 140 175 218 269 313
#     4  11  20  33  50  75 107 144 173 222 265 318
#     4  10  20  35  52  74 107 142 176 219 259 307
#     4   9  19  35  52  78 108 132 169 218 269 320
#     4  11  20  34  54  78 103 138 178 217 259 314
#     4  10  21  34  53  77 103 141 181 212 259 319
#
# _framework density 17.084944
#
# number of rings (size 3 to 8) (size 9 to 14) (size 15 to 20)
#    0.000    1.875    5.000    1.875    0.000    2.500 
#    0.000    0.625    0.000    4.500    0.000    0.000 
#    0.000    8.000    0.000    0.000    0.000    0.000 
#
# Total GULP energy -793475.439479 kJ/mol
# GULP energy per Si atom -12398.053742 kJ/mol
# Density = 1.704606 g / cm^3
# Si number density = 17.084944 Si / 1000 Ang^3
#
#
#
# Elastic Constant Matrix: (Units=GPa)
#
#
# Indices 1 2 3 4 5 6 
#
# 1 84.1077 22.9492 23.9855 0.0000 0.0000 0.0000
# 2 22.9492 66.0053 11.7991 0.0000 0.0000 0.0000
# 3 23.9855 11.7991 62.0674 0.0000 0.0000 0.0000
# 4 0.0000 0.0000 0.0000 21.6940 0.0000 0.0000
# 5 0.0000 0.0000 0.0000 0.0000 15.0509 0.0000
# 6 0.0000 0.0000 0.0000 0.0000 0.0000 31.5359
#
#
#
# Elastic Compliance Matrix: (Units=1/GPa)
#
#
# Indices 1 2 3 4 5 6 
#
# 1 0.014381 -0.004148 -0.004769 0.000000 0.000000 0.000000
# 2 -0.004148 0.016879 -0.001606 0.000000 0.000000 0.000000
# 3 -0.004769 -0.001606 0.018260 0.000000 0.000000 0.000000
# 4 0.000000 0.000000 0.000000 0.046096 0.000000 0.000000
# 5 0.000000 0.000000 0.000000 0.000000 0.066441 0.000000
# 6 0.000000 0.000000 0.000000 0.000000 0.000000 0.031710
#
#
# Mechanical properties :
#
#
# Convention : Reuss Voigt Hill
#
# Bulk Modulus (GPa) = 35.11840 36.62756 35.87298
# Shear Modulus (GPa) = 22.29115 23.88594 23.08855
#
# Velocity S-wave (km/s) = 3.61602 3.74313 3.68012
# Velocity P-wave (km/s) = 6.16716 6.33770 6.25301
#
# Compressibility (1/GPa) = 0.02847510
#
# Stress axis : x y z
#
# Youngs Moduli (GPa) = 69.53497 59.24360 54.76518
#
# Poissons Ratio (x) = 0.24572 0.26118
# Poissons Ratio (y) = 0.28841 0.08795
# Poissons Ratio (z) = 0.33162 0.09514
#
# Static dielectric constant tensor:
#      x y z
#    x 3.130320 0.000000 0.000000 
#    y 0.000000 3.213770 0.000000 
#    z 0.000000 0.000000 3.329190 
# 
# 
# High freq. dielectric constant tensor:
#      x y z
#    x 1.633780 0.000000 0.000000 
#    y 0.000000 1.654940 0.000000 
#    z 0.000000 0.000000 1.661720 
# 
# From -- ./inp_files/19131.got.cif
#   From: 2010.03.12/outbox.cif.g09.slc.cpg/sg55_10_cif.got.tgz:19131.got - 2010.04.16 15:19:21.
