data_PCOD8226135
_publ_section_title
;
Structure prediction by ZEFSAII (Michael W. Deem and Ramdas Pophale) SiO2 
 PCOD8226135
Probable space group: P B A M
;
_chemical_formula_sum "Si O2"
_cell_formula_units_Z 64
_cell_length_a 28.798261
_cell_length_b 12.638033
_cell_length_c 8.886396
_cell_angle_alpha 90.000000
_cell_angle_beta 90.000000
_cell_angle_gamma 90.000000
_cell_volume 3234.233797
_symmetry_space_group_name_H-M "P B A M"
_symmetry_group_IT_number 55
_symmetry_cell_setting 'orthorhombic'
loop_
_space_group_symop_operation_xyz
x,y,z
-x,-y,z
1/2+x,1/2-y,-z
1/2-x,1/2+y,-z
-x,-y,-z
x,y,-z
1/2-x,1/2+y,z
1/2+x,1/2-y,z
loop_
_atom_site_type_symbol
_atom_site_label
_atom_site_fract_x
_atom_site_fract_y
_atom_site_fract_z
Si Si1 0.941846 0.252868 0.175281
Si Si2 0.883228 0.842743 0.825189
Si Si3 0.338876 0.283939 0.177626
Si Si4 0.052953 0.530392 0.670159
Si Si5 0.874274 0.601410 0.174174
Si Si6 0.018559 0.112766 0.677800
Si Si7 0.697534 0.495449 0.179597
Si Si8 0.701968 0.934330 0.821343
O O1 0.892990 0.198352 0.218080
O O2 0.936012 0.375298 0.215953
O O3 0.983376 0.203112 0.269569
O O4 0.953523 0.241043 0.000000
O O5 0.864197 0.724596 0.798095
O O6 0.930628 0.864598 0.739297
O O7 0.843541 0.920071 0.760993
O O8 0.892947 0.864343 0.000000
O O9 0.311004 0.385313 0.239920
O O10 0.318169 0.175352 0.247815
O O11 0.333506 0.275233 0.000000
O O12 0.066870 0.561555 0.500000
O O13 0.081715 0.428994 0.724790
O O14 0.000000 0.500000 0.679913
O O15 0.830118 0.532770 0.227593
O O16 0.885907 0.578970 0.000000
O O17 0.020930 0.115238 0.500000
O O18 0.000000 0.000000 0.737712
O O19 0.746567 0.454385 0.244358
O O20 0.698032 0.494258 0.000000
O O21 0.704206 0.927037 0.000000
#
# Coordination Sequence:
#
# PCOD8226135 Si02
#       8
#     8   8   8   8   8   8   8   8
#     4  11  21  36  59  85 115 148 189 243 291 342
#     4  10  21  36  56  86 117 151 193 241 290 340
#     4   9  17  30  50  79 113 147 182 226 284 339
#     4  11  23  37  54  79 111 148 190 233 285 348
#     4  10  20  35  54  80 114 147 186 235 289 342
#     4  11  24  40  58  82 115 157 199 238 287 345
#     4   9  18  30  51  82 115 148 186 231 285 344
#     4   9  17  30  50  79 113 148 184 231 288 342
#
# _framework density 19.788302000000002
#
# number of rings (size 3 to 8) (size 9 to 14) (size 15 to 20)
#    0.000    2.000    1.250    2.625    1.750    5.500 
#    0.000    0.000    0.000    0.750    0.000    0.000 
#    0.000    0.000    0.000    0.000    0.000    0.000 
#
# Total GULP energy -793690.231527 kJ/mol
# GULP energy per Si atom -12401.409868 kJ/mol
# Density = 1.974326 g / cm^3
# Si number density = 19.788302 Si / 1000 Ang^3
#
#
#
# Elastic Constant Matrix: (Units=GPa)
#
#
# Indices 1 2 3 4 5 6 
#
# 1 151.0952 70.5283 36.2623 0.0000 0.0000 0.0000
# 2 70.5283 135.7941 23.5281 0.0000 0.0000 0.0000
# 3 36.2623 23.5281 32.3228 0.0000 0.0000 0.0000
# 4 0.0000 0.0000 0.0000 17.3412 0.0000 0.0000
# 5 0.0000 0.0000 0.0000 0.0000 -1.5015 0.0000
# 6 0.0000 0.0000 0.0000 0.0000 0.0000 36.2966
#
#
#
# Elastic Compliance Matrix: (Units=1/GPa)
#
#
# Indices 1 2 3 4 5 6 
#
# 1 0.010638 -0.003956 -0.009055 0.000000 0.000000 0.000000
# 2 -0.003956 0.009898 -0.002766 0.000000 0.000000 0.000000
# 3 -0.009055 -0.002766 0.043110 0.000000 0.000000 0.000000
# 4 0.000000 0.000000 0.000000 0.057666 0.000000 0.000000
# 5 0.000000 0.000000 0.000000 0.000000 -0.666023 0.000000
# 6 0.000000 0.000000 0.000000 0.000000 0.000000 0.027551
#
#
# Mechanical properties :
#
#
# Convention : Reuss Voigt Hill
#
# Bulk Modulus (GPa) = 31.16123 64.42772 47.79447
# Shear Modulus (GPa) = -10.52840 23.02015 6.24588
#
# Velocity S-wave (km/s) = -2.30913 3.41445 1.77854
# Velocity P-wave (km/s) = 2.94484 6.94073 5.33132
#
# Compressibility (1/GPa) = 0.03209116
#
# Stress axis : x y z
#
# Youngs Moduli (GPa) = 94.00036 101.02777 23.19632
#
# Poissons Ratio (x) = 0.39970 0.21004
# Poissons Ratio (y) = 0.37190 0.06417
# Poissons Ratio (z) = 0.85117 0.27949
#
# Static dielectric constant tensor:
#      x y z
#    x 3.759660 0.000000 0.000000 
#    y 0.000000 5.347910 0.000000 
#    z 0.000000 0.000000 3.210930 
# 
# 
# High freq. dielectric constant tensor:
#      x y z
#    x 1.782590 0.000000 0.000000 
#    y 0.000000 1.786250 0.000000 
#    z 0.000000 0.000000 1.725010 
# 
# From -- ./inp_files/10796.got.cif
#   From: 2010.03.12/outbox.cif.g09.slc.cpg/sg55_6_cif.got.tgz:10796.got - 2010.04.16 15:19:21.
