data_PCOD8226650
_publ_section_title
;
Structure prediction by ZEFSAII (Michael W. Deem and Ramdas Pophale) SiO2 
 PCOD8226650
Probable space group: P B A M
;
_chemical_formula_sum "Si O2"
_cell_formula_units_Z 56
_cell_length_a 8.673751
_cell_length_b 24.738737
_cell_length_c 13.659809
_cell_angle_alpha 90.000000
_cell_angle_beta 90.000000
_cell_angle_gamma 90.000000
_cell_volume 2931.089644
_symmetry_space_group_name_H-M "P B A M"
_symmetry_group_IT_number 55
_symmetry_cell_setting 'orthorhombic'
loop_
_space_group_symop_operation_xyz
x,y,z
-x,-y,z
1/2+x,1/2-y,-z
1/2-x,1/2+y,-z
-x,-y,-z
x,y,-z
1/2-x,1/2+y,z
1/2+x,1/2-y,z
loop_
_atom_site_type_symbol
_atom_site_label
_atom_site_fract_x
_atom_site_fract_y
_atom_site_fract_z
Si Si1 0.837523 0.116575 0.301747
Si Si2 0.324164 0.324820 0.890456
Si Si3 0.514586 0.783334 0.889959
Si Si4 0.834274 0.910241 0.387068
Si Si5 0.171288 0.282234 0.386181
Si Si6 0.845975 0.314577 0.303010
Si Si7 0.666186 0.019983 0.387459
O O1 0.848454 0.126363 0.185146
O O2 0.791172 0.171499 0.355959
O O3 0.710699 0.070664 0.320552
O O4 0.999356 0.096531 0.341020
O O5 0.459482 0.280874 0.876857
O O6 0.163968 0.294295 0.868399
O O7 0.325964 0.349312 0.000000
O O8 0.618035 0.816298 0.812819
O O9 0.562185 0.801378 0.000000
O O10 0.838177 0.892879 0.500000
O O11 0.707556 0.874141 0.332449
O O12 0.790047 0.972625 0.374781
O O13 0.189733 0.269893 0.500000
O O14 0.210595 0.227939 0.326464
O O15 0.997261 0.298841 0.363722
O O16 0.659129 0.039736 0.500000
O O17 0.500000 0.000000 0.351932
#
# Coordination Sequence:
#
# PCOD8226650 Si02
#       7
#     8   8   8   8   8   8   8
#     4  12  22  38  61  86 117 153 198 247 299 350
#     4  10  22  39  61  88 119 156 198 249 298 353
#     4  10  20  38  59  84 117 154 199 243 290 348
#     4  11  24  39  59  86 121 160 201 242 289 354
#     4  12  23  34  53  82 121 160 192 235 296 359
#     4  12  22  38  54  84 119 159 194 242 294 355
#     4  10  22  41  63  87 115 155 204 246 289 351
#
# _framework density 19.105522000000001
#
# number of rings (size 3 to 8) (size 9 to 14) (size 15 to 20)
#    0.000    1.000    2.857    4.714    2.000    2.286 
#    0.000    0.000    0.000    3.000    0.000    0.000 
#    0.000    0.000    0.000    0.000    0.000    0.000 
#
# Total GULP energy -694722.859207 kJ/mol
# GULP energy per Si atom -12405.765343 kJ/mol
# Density = 1.906204 g / cm^3
# Si number density = 19.105522 Si / 1000 Ang^3
#
#
#
# Elastic Constant Matrix: (Units=GPa)
#
#
# Indices 1 2 3 4 5 6 
#
# 1 55.9350 7.3132 7.5188 0.0000 0.0000 0.0000
# 2 7.3132 61.0347 39.6300 0.0000 0.0000 0.0000
# 3 7.5188 39.6300 102.5237 0.0000 0.0000 0.0000
# 4 0.0000 0.0000 0.0000 26.1580 0.0000 0.0000
# 5 0.0000 0.0000 0.0000 0.0000 27.9118 0.0000
# 6 0.0000 0.0000 0.0000 0.0000 0.0000 32.8594
#
#
#
# Elastic Compliance Matrix: (Units=1/GPa)
#
#
# Indices 1 2 3 4 5 6 
#
# 1 0.018195 -0.001754 -0.000656 0.000000 0.000000 0.000000
# 2 -0.001754 0.022043 -0.008392 0.000000 0.000000 0.000000
# 3 -0.000656 -0.008392 0.013046 0.000000 0.000000 0.000000
# 4 0.000000 0.000000 0.000000 0.038229 0.000000 0.000000
# 5 0.000000 0.000000 0.000000 0.000000 0.035827 0.000000
# 6 0.000000 0.000000 0.000000 0.000000 0.000000 0.030433
#
#
# Mechanical properties :
#
#
# Convention : Reuss Voigt Hill
#
# Bulk Modulus (GPa) = 31.56597 36.49082 34.02839
# Shear Modulus (GPa) = 26.32431 28.38794 27.35613
#
# Velocity S-wave (km/s) = 3.71595 3.85885 3.78808
# Velocity P-wave (km/s) = 5.91345 6.24463 6.08129
#
# Compressibility (1/GPa) = 0.03167968
#
# Stress axis : x y z
#
# Youngs Moduli (GPa) = 54.95879 45.36527 76.65246
#
# Poissons Ratio (x) = 0.07957 0.05032
# Poissons Ratio (y) = 0.09640 0.64327
# Poissons Ratio (z) = 0.03608 0.38071
#
# Static dielectric constant tensor:
#      x y z
#    x 3.601510 0.000000 0.000000 
#    y 0.000000 3.396760 0.000000 
#    z 0.000000 0.000000 3.701620 
# 
# 
# High freq. dielectric constant tensor:
#      x y z
#    x 1.758910 0.000000 0.000000 
#    y 0.000000 1.721870 0.000000 
#    z 0.000000 0.000000 1.744810 
# 
# From -- ./inp_files/17642.got.cif
#   From: 2010.03.12/outbox.cif.g09.slc.cpg/sg55_9_cif.got.tgz:17642.got - 2010.04.16 15:19:21.
