data_PCOD8226794
_publ_section_title
;
Structure prediction by ZEFSAII (Michael W. Deem and Ramdas Pophale) SiO2 
 PCOD8226794
Probable space group: P B A M
;
_chemical_formula_sum "Si O2"
_cell_formula_units_Z 64
_cell_length_a 14.744627
_cell_length_b 8.839332
_cell_length_c 22.774720
_cell_angle_alpha 90.000000
_cell_angle_beta 90.000000
_cell_angle_gamma 90.000000
_cell_volume 2968.289685
_symmetry_space_group_name_H-M "P B A M"
_symmetry_group_IT_number 55
_symmetry_cell_setting 'orthorhombic'
loop_
_space_group_symop_operation_xyz
x,y,z
-x,-y,z
1/2+x,1/2-y,-z
1/2-x,1/2+y,-z
-x,-y,-z
x,y,-z
1/2-x,1/2+y,z
1/2+x,1/2-y,z
loop_
_atom_site_type_symbol
_atom_site_label
_atom_site_fract_x
_atom_site_fract_y
_atom_site_fract_z
Si Si1 0.740885 0.536394 0.397281
Si Si2 0.344364 0.722808 0.326596
Si Si3 0.292035 0.206504 0.230500
Si Si4 0.401659 0.068261 0.933631
Si Si5 0.749294 0.541500 0.852123
Si Si6 0.406496 0.424162 0.068192
Si Si7 0.372523 0.198363 0.563367
Si Si8 0.464775 0.164050 0.687159
O O1 0.688099 0.443509 0.346534
O O2 0.820422 0.645367 0.372924
O O3 0.788424 0.417565 0.440364
O O4 0.665471 0.631617 0.431587
O O5 0.288920 0.769617 0.269551
O O6 0.451278 0.718998 0.311461
O O7 0.266715 0.038509 0.210243
O O8 0.287983 0.294846 0.168528
O O9 0.386382 0.215817 0.267493
O O10 0.340489 0.966945 0.890328
O O11 0.404846 0.245456 0.917495
O O12 0.500000 0.000000 0.926039
O O13 0.365950 0.046311 0.000000
O O14 0.668802 0.483660 0.894560
O O15 0.500000 0.500000 0.087588
O O16 0.386956 0.454280 0.000000
O O17 0.424480 0.187844 0.500000
O O18 0.432253 0.157826 0.619655
O O19 0.500000 0.000000 0.706675
#
# Coordination Sequence:
#
# PCOD8226794 Si02
#       8
#     8   8   8   8   8   8   8   8
#     4  10  20  43  68  95 131 170 214 266 336 405
#     4  11  22  44  69  91 130 177 218 271 331 403
#     4  12  26  43  69  95 136 176 231 275 336 403
#     4  10  23  44  71 100 137 182 224 274 341 405
#     4  12  25  44  65 103 133 178 226 284 327 400
#     4  10  23  44  69 100 139 178 224 279 337 399
#     4  11  23  41  68 102 132 168 222 276 335 410
#     4  12  24  44  69  97 131 181 220 278 342 404
#
# _framework density 21.561236999999998
#
# number of rings (size 3 to 8) (size 9 to 14) (size 15 to 20)
#    0.000    1.000    5.000    2.250    1.750    3.250 
#    0.000    1.875    0.000    0.000    0.000    0.000 
#    0.000    0.000    0.000    0.000    0.000    0.000 
#
# Total GULP energy -793141.234625 kJ/mol
# GULP energy per Si atom -12392.831791 kJ/mol
# Density = 2.151216 g / cm^3
# Si number density = 21.561237 Si / 1000 Ang^3
#
#
#
# Elastic Constant Matrix: (Units=GPa)
#
#
# Indices 1 2 3 4 5 6 
#
# 1 119.4104 34.2241 59.1790 0.0000 0.0000 0.0000
# 2 34.2241 76.1028 35.2756 0.0000 0.0000 0.0000
# 3 59.1790 35.2756 116.9761 0.0000 0.0000 0.0000
# 4 0.0000 0.0000 0.0000 16.8922 0.0000 0.0000
# 5 0.0000 0.0000 0.0000 0.0000 13.1159 0.0000
# 6 0.0000 0.0000 0.0000 0.0000 0.0000 28.7486
#
#
#
# Elastic Compliance Matrix: (Units=1/GPa)
#
#
# Indices 1 2 3 4 5 6 
#
# 1 0.011713 -0.002930 -0.005042 0.000000 0.000000 0.000000
# 2 -0.002930 0.016008 -0.003345 0.000000 0.000000 0.000000
# 3 -0.005042 -0.003345 0.012108 0.000000 0.000000 0.000000
# 4 0.000000 0.000000 0.000000 0.059199 0.000000 0.000000
# 5 0.000000 0.000000 0.000000 0.000000 0.076243 0.000000
# 6 0.000000 0.000000 0.000000 0.000000 0.000000 0.034784
#
#
# Mechanical properties :
#
#
# Convention : Reuss Voigt Hill
#
# Bulk Modulus (GPa) = 58.15671 63.31631 60.73651
# Shear Modulus (GPa) = 20.97111 24.00537 22.48824
#
# Velocity S-wave (km/s) = 3.12209 3.34032 3.23305
# Velocity P-wave (km/s) = 6.32676 6.65632 6.49363
#
# Compressibility (1/GPa) = 0.01719492
#
# Stress axis : x y z
#
# Youngs Moduli (GPa) = 85.37385 62.46703 82.58786
#
# Poissons Ratio (x) = 0.18305 0.41642
# Poissons Ratio (y) = 0.25018 0.27626
# Poissons Ratio (z) = 0.43046 0.20895
#
# Static dielectric constant tensor:
#      x y z
#    x 3.823320 0.000000 0.000000 
#    y 0.000000 3.924990 0.000000 
#    z 0.000000 0.000000 3.881420 
# 
# 
# High freq. dielectric constant tensor:
#      x y z
#    x 1.839170 0.000000 0.000000 
#    y 0.000000 1.849560 0.000000 
#    z 0.000000 0.000000 1.852880 
# 
# From -- ./inp_files/23486.got.cif
#   From: 2010.03.12/outbox.cif.g09.slc.cpg/sg55_12_cif.got.tgz:23486.got - 2010.04.16 15:19:21.
