data_PCOD8226675
_publ_section_title
;
Structure prediction by ZEFSAII (Michael W. Deem and Ramdas Pophale) SiO2 
 PCOD8226675
Probable space group: P B A M
;
_chemical_formula_sum "Si O2"
_cell_formula_units_Z 48
_cell_length_a 8.727270
_cell_length_b 14.849650
_cell_length_c 17.279350
_cell_angle_alpha 90.000000
_cell_angle_beta 90.000000
_cell_angle_gamma 90.000000
_cell_volume 2239.350280
_symmetry_space_group_name_H-M "P B A M"
_symmetry_group_IT_number 55
_symmetry_cell_setting 'orthorhombic'
loop_
_space_group_symop_operation_xyz
x,y,z
-x,-y,z
1/2+x,1/2-y,-z
1/2-x,1/2+y,-z
-x,-y,-z
x,y,-z
1/2-x,1/2+y,z
1/2+x,1/2-y,z
loop_
_atom_site_type_symbol
_atom_site_label
_atom_site_fract_x
_atom_site_fract_y
_atom_site_fract_z
Si Si1 0.323058 0.526520 0.914535
Si Si2 0.672526 0.149400 0.659615
Si Si3 0.736789 0.145552 0.162281
Si Si4 0.352193 0.190877 0.411049
Si Si5 0.546654 0.292807 0.090082
Si Si6 0.327932 0.514198 0.589515
O O1 0.500000 0.500000 0.915276
O O2 0.230815 0.461988 0.855430
O O3 0.319623 0.632517 0.891481
O O4 0.252269 0.512155 0.000000
O O5 0.700046 0.165382 0.749452
O O6 0.784149 0.212734 0.610188
O O7 0.496291 0.168901 0.642201
O O8 0.710875 0.047080 0.637445
O O9 0.609847 0.194422 0.109704
O O10 0.901444 0.186599 0.143011
O O11 0.406942 0.191835 0.500000
O O12 0.219175 0.117475 0.397245
O O13 0.498344 0.298293 0.000000
O O14 0.500000 0.500000 0.621168
O O15 0.317141 0.486391 0.500000
#
# Coordination Sequence:
#
# PCOD8226675 Si02
#       6
#     8   8   8   8   8   8
#     4   8  16  33  57  81 108 149 193 229 280 354
#     4  12  24  38  59  90 125 159 199 254 313 360
#     4  11  22  36  57  87 119 150 190 246 301 350
#     4  11  23  41  64  87 120 165 209 249 294 360
#     4  10  20  38  62  84 113 155 199 238 286 357
#     4  10  22  41  65  90 116 155 208 258 305 364
#
# _framework density 21.434788000000001
#
# number of rings (size 3 to 8) (size 9 to 14) (size 15 to 20)
#    0.000    1.667    0.000    6.500    0.000    6.000 
#    0.000    2.500    0.000    3.000    0.000    0.000 
#    0.000    0.000    0.000    0.000    0.000    0.000 
#
# Total GULP energy -595329.042069 kJ/mol
# GULP energy per Si atom -12402.688376 kJ/mol
# Density = 2.138600 g / cm^3
# Si number density = 21.434788 Si / 1000 Ang^3
#
#
#
# Elastic Constant Matrix: (Units=GPa)
#
#
# Indices 1 2 3 4 5 6 
#
# 1 76.2846 3.5461 45.6849 0.0000 0.0000 0.0000
# 2 3.5461 49.8799 45.6507 0.0000 0.0000 0.0000
# 3 45.6849 45.6507 112.1630 0.0000 0.0000 0.0000
# 4 0.0000 0.0000 0.0000 10.6271 0.0000 0.0000
# 5 0.0000 0.0000 0.0000 0.0000 24.4841 0.0000
# 6 0.0000 0.0000 0.0000 0.0000 0.0000 35.7221
#
#
#
# Elastic Compliance Matrix: (Units=1/GPa)
#
#
# Indices 1 2 3 4 5 6 
#
# 1 0.019825 0.009531 -0.011954 0.000000 0.000000 0.000000
# 2 0.009531 0.036531 -0.018750 0.000000 0.000000 0.000000
# 3 -0.011954 -0.018750 0.021416 0.000000 0.000000 0.000000
# 4 0.000000 0.000000 0.000000 0.094099 0.000000 0.000000
# 5 0.000000 0.000000 0.000000 0.000000 0.040843 0.000000
# 6 0.000000 0.000000 0.000000 0.000000 0.000000 0.027994
#
#
# Mechanical properties :
#
#
# Convention : Reuss Voigt Hill
#
# Bulk Modulus (GPa) = 28.22852 47.56564 37.89708
# Shear Modulus (GPa) = 16.95712 23.72973 20.34342
#
# Velocity S-wave (km/s) = 2.81571 3.33087 3.08406
# Velocity P-wave (km/s) = 4.87535 6.08539 5.51366
#
# Compressibility (1/GPa) = 0.03542516
#
# Stress axis : x y z
#
# Youngs Moduli (GPa) = 50.44244 27.37400 46.69438
#
# Poissons Ratio (x) = -0.26090 0.55817
# Poissons Ratio (y) = -0.48076 0.87553
# Poissons Ratio (z) = 0.60298 0.51327
#
# Static dielectric constant tensor:
#      x y z
#    x 3.647610 0.000000 0.000000 
#    y 0.000000 4.240300 0.000000 
#    z 0.000000 0.000000 3.711550 
# 
# 
# High freq. dielectric constant tensor:
#      x y z
#    x 1.826510 0.000000 0.000000 
#    y 0.000000 1.855200 0.000000 
#    z 0.000000 0.000000 1.833200 
# 
# From -- ./inp_files/20776.got.cif
#   From: 2010.03.12/outbox.cif.g09.slc.cpg/sg55_11_cif.got.tgz:20776.got - 2010.04.16 15:19:21.
