data_PCOD8226030
_publ_section_title
;
Structure prediction by ZEFSAII (Michael W. Deem and Ramdas Pophale) SiO2 
 PCOD8226030
Probable space group: P B A M
;
_chemical_formula_sum "Si O2"
_cell_formula_units_Z 64
_cell_length_a 20.878464
_cell_length_b 16.558752
_cell_length_c 9.408964
_cell_angle_alpha 90.000000
_cell_angle_beta 90.000000
_cell_angle_gamma 90.000000
_cell_volume 3252.879336
_symmetry_space_group_name_H-M "P B A M"
_symmetry_group_IT_number 55
_symmetry_cell_setting 'orthorhombic'
loop_
_space_group_symop_operation_xyz
x,y,z
-x,-y,z
1/2+x,1/2-y,-z
1/2-x,1/2+y,-z
-x,-y,-z
x,y,-z
1/2-x,1/2+y,z
1/2+x,1/2-y,z
loop_
_atom_site_type_symbol
_atom_site_label
_atom_site_fract_x
_atom_site_fract_y
_atom_site_fract_z
Si Si1 0.505344 0.410591 0.160652
Si Si2 0.574621 0.995434 0.833743
Si Si3 0.640526 0.851316 0.337819
Si Si4 0.685759 0.112866 0.164522
Si Si5 0.757581 0.783706 0.161534
Si Si6 0.090726 0.816044 0.657344
Si Si7 0.197687 0.935391 0.665033
Si Si8 0.145848 0.072896 0.843368
O O1 0.500000 0.500000 0.228297
O O2 0.463672 0.344976 0.238862
O O3 0.578270 0.381712 0.172861
O O4 0.479720 0.413529 0.000000
O O5 0.612974 0.080304 0.805062
O O6 0.500000 0.000000 0.783314
O O7 0.612405 0.926282 0.748831
O O8 0.576803 0.972863 0.000000
O O9 0.657319 0.877918 0.500000
O O10 0.700491 0.806463 0.266313
O O11 0.587655 0.780751 0.339639
O O12 0.699329 0.205986 0.208733
O O13 0.734833 0.058283 0.254033
O O14 0.701545 0.099236 0.000000
O O15 0.801733 0.860253 0.173240
O O16 0.732108 0.771252 0.000000
O O17 0.075274 0.849015 0.500000
O O18 0.161285 0.851059 0.699141
O O19 0.211684 0.948161 0.500000
O O20 0.152081 0.006018 0.721995
O O21 0.149834 0.031653 0.000000
#
# Coordination Sequence:
#
# PCOD8226030 Si02
#       8
#     8   8   8   8   8   8   8   8
#     4  10  20  34  54  81 112 150 192 231 278 338
#     4  10  23  43  66  92 122 159 205 254 307 368
#     4  11  23  41  62  88 121 154 199 252 300 355
#     4  10  21  38  61  87 115 150 196 248 302 357
#     4  10  21  37  59  86 117 153 192 242 301 353
#     4  10  22  37  55  81 115 154 194 239 288 345
#     4  11  21  35  56  83 114 153 194 235 289 347
#     4  10  21  36  54  82 118 149 187 235 281 340
#
# _framework density 19.674876999999999
#
# number of rings (size 3 to 8) (size 9 to 14) (size 15 to 20)
#    0.000    1.750    2.500    1.500    0.000    7.500 
#    0.000    2.500    0.000    0.000    0.000    0.000 
#    0.000    0.000    0.000    0.000    0.000    0.000 
#
# Total GULP energy -793256.285278 kJ/mol
# GULP energy per Si atom -12394.629457 kJ/mol
# Density = 1.963010 g / cm^3
# Si number density = 19.674877 Si / 1000 Ang^3
#
#
#
# Elastic Constant Matrix: (Units=GPa)
#
#
# Indices 1 2 3 4 5 6 
#
# 1 73.0686 31.7845 41.6624 0.0000 0.0000 0.0000
# 2 31.7845 68.4784 39.6277 0.0000 0.0000 0.0000
# 3 41.6624 39.6277 81.7662 0.0000 0.0000 0.0000
# 4 0.0000 0.0000 0.0000 25.4274 0.0000 0.0000
# 5 0.0000 0.0000 0.0000 0.0000 -23.2166 0.0000
# 6 0.0000 0.0000 0.0000 0.0000 0.0000 25.7644
#
#
#
# Elastic Compliance Matrix: (Units=1/GPa)
#
#
# Indices 1 2 3 4 5 6 
#
# 1 0.020361 -0.004791 -0.008053 0.000000 0.000000 0.000000
# 2 -0.004791 0.021422 -0.007941 0.000000 0.000000 0.000000
# 3 -0.008053 -0.007941 0.020182 0.000000 0.000000 0.000000
# 4 0.000000 0.000000 0.000000 0.039328 0.000000 0.000000
# 5 0.000000 0.000000 0.000000 0.000000 -0.043073 0.000000
# 6 0.000000 0.000000 0.000000 0.000000 0.000000 0.038813
#
#
# Mechanical properties :
#
#
# Convention : Reuss Voigt Hill
#
# Bulk Modulus (GPa) = 49.02963 49.94025 49.48494
# Shear Modulus (GPa) = 34.38744 12.94429 23.66586
#
# Velocity S-wave (km/s) = 4.18519 2.56776 3.47197
# Velocity P-wave (km/s) = 6.95186 5.85056 6.42485
#
# Compressibility (1/GPa) = 0.02039583
#
# Stress axis : x y z
#
# Youngs Moduli (GPa) = 49.11269 46.68049 49.54935
#
# Poissons Ratio (x) = 0.22363 0.39902
# Poissons Ratio (y) = 0.23528 0.39348
# Poissons Ratio (z) = 0.39550 0.37070
#
# Static dielectric constant tensor:
#      x y z
#    x 3.658530 0.000000 0.000000 
#    y 0.000000 3.592590 0.000000 
#    z 0.000000 0.000000 3.639300 
# 
# 
# High freq. dielectric constant tensor:
#      x y z
#    x 1.764250 0.000000 0.000000 
#    y 0.000000 1.764780 0.000000 
#    z 0.000000 0.000000 1.763740 
# 
# From -- ./inp_files/8981.got.cif
#   From: 2010.03.12/outbox.cif.g09.slc.cpg/sg55_5_cif.got.tgz:8981.got - 2010.04.16 15:19:21.
