data_PCOD8226194
_publ_section_title
;
Structure prediction by ZEFSAII (Michael W. Deem and Ramdas Pophale) SiO2 
 PCOD8226194
Probable space group: P B A M
;
_chemical_formula_sum "Si O2"
_cell_formula_units_Z 64
_cell_length_a 23.033346
_cell_length_b 15.520522
_cell_length_c 9.164452
_cell_angle_alpha 90.000000
_cell_angle_beta 90.000000
_cell_angle_gamma 90.000000
_cell_volume 3276.195852
_symmetry_space_group_name_H-M "P B A M"
_symmetry_group_IT_number 55
_symmetry_cell_setting 'orthorhombic'
loop_
_space_group_symop_operation_xyz
x,y,z
-x,-y,z
1/2+x,1/2-y,-z
1/2-x,1/2+y,-z
-x,-y,-z
x,y,-z
1/2-x,1/2+y,z
1/2+x,1/2-y,z
loop_
_atom_site_type_symbol
_atom_site_label
_atom_site_fract_x
_atom_site_fract_y
_atom_site_fract_z
Si Si1 0.687625 0.307322 0.837577
Si Si2 0.630896 0.126326 0.164884
Si Si3 0.817912 0.322205 0.828494
Si Si4 0.794351 0.494677 0.671801
Si Si5 0.516175 0.099384 0.333645
Si Si6 0.336120 0.529145 0.670958
Si Si7 0.924959 0.252883 0.329869
Si Si8 0.449975 0.437143 0.672643
O O1 0.647631 0.225088 0.830779
O O2 0.753897 0.285291 0.791008
O O3 0.656866 0.375367 0.733204
O O4 0.689635 0.346888 0.000000
O O5 0.673230 0.079377 0.276629
O O6 0.565533 0.119849 0.218515
O O7 0.636132 0.089541 0.000000
O O8 0.824090 0.415545 0.754871
O O9 0.865122 0.258309 0.759364
O O10 0.829603 0.330057 0.000000
O O11 0.802910 0.480638 0.500000
O O12 0.726982 0.507401 0.715310
O O13 0.536702 0.116528 0.500000
O O14 0.463355 0.163162 0.294021
O O15 0.500000 0.000000 0.313637
O O16 0.342136 0.538005 0.500000
O O17 0.387156 0.468333 0.732821
O O18 0.908855 0.248957 0.500000
O O19 0.957712 0.163707 0.283235
O O20 0.500000 0.500000 0.739668
O O21 0.451945 0.446256 0.500000
#
# Coordination Sequence:
#
# PCOD8226194 Si02
#       8
#     8   8   8   8   8   8   8   8
#     4   9  21  38  55  81 116 151 185 228 283 342
#     4  11  23  37  57  84 115 151 190 232 282 344
#     4  10  20  37  59  83 115 153 189 229 283 345
#     4  10  20  35  56  86 117 147 186 237 287 340
#     4  10  22  39  58  84 116 151 192 239 290 344
#     4   9  19  35  58  84 110 145 190 235 282 336
#     4  10  21  36  59  87 117 153 191 241 293 339
#     4   9  19  35  56  83 114 147 191 241 288 341
#
# _framework density 19.534851
#
# number of rings (size 3 to 8) (size 9 to 14) (size 15 to 20)
#    0.000    2.250    0.000    1.875    3.500    3.750 
#    0.000    0.625    0.000    0.750    0.000    0.000 
#    0.000    0.000    0.000    0.000    0.000    0.000 
#
# Total GULP energy -793556.957355 kJ/mol
# GULP energy per Si atom -12399.327459 kJ/mol
# Density = 1.949039 g / cm^3
# Si number density = 19.534851 Si / 1000 Ang^3
#
#
#
# Elastic Constant Matrix: (Units=GPa)
#
#
# Indices 1 2 3 4 5 6 
#
# 1 101.9329 57.7482 36.4583 0.0000 0.0000 0.0000
# 2 57.7482 105.8858 28.8762 0.0000 0.0000 0.0000
# 3 36.4583 28.8762 53.0533 0.0000 0.0000 0.0000
# 4 0.0000 0.0000 0.0000 21.9180 0.0000 0.0000
# 5 0.0000 0.0000 0.0000 0.0000 27.2767 0.0000
# 6 0.0000 0.0000 0.0000 0.0000 0.0000 35.0368
#
#
#
# Elastic Compliance Matrix: (Units=1/GPa)
#
#
# Indices 1 2 3 4 5 6 
#
# 1 0.016408 -0.006898 -0.007522 0.000000 0.000000 0.000000
# 2 -0.006898 0.013990 -0.002874 0.000000 0.000000 0.000000
# 3 -0.007522 -0.002874 0.025582 0.000000 0.000000 0.000000
# 4 0.000000 0.000000 0.000000 0.045625 0.000000 0.000000
# 5 0.000000 0.000000 0.000000 0.000000 0.036661 0.000000
# 6 0.000000 0.000000 0.000000 0.000000 0.000000 0.028541
#
#
# Mechanical properties :
#
#
# Convention : Reuss Voigt Hill
#
# Bulk Modulus (GPa) = 46.74364 56.33748 51.54056
# Shear Modulus (GPa) = 23.97782 26.03226 25.00504
#
# Velocity S-wave (km/s) = 3.50728 3.65445 3.58162
# Velocity P-wave (km/s) = 6.35466 6.83438 6.59888
#
# Compressibility (1/GPa) = 0.02139329
#
# Stress axis : x y z
#
# Youngs Moduli (GPa) = 60.94474 71.48039 39.08957
#
# Poissons Ratio (x) = 0.49304 0.29401
# Poissons Ratio (y) = 0.42037 0.11236
# Poissons Ratio (z) = 0.45840 0.20547
#
# Static dielectric constant tensor:
#      x y z
#    x 3.680750 0.000000 0.000000 
#    y 0.000000 3.367800 0.000000 
#    z 0.000000 0.000000 3.529030 
# 
# 
# High freq. dielectric constant tensor:
#      x y z
#    x 1.765620 0.000000 0.000000 
#    y 0.000000 1.761620 0.000000 
#    z 0.000000 0.000000 1.747440 
# 
# From -- ./inp_files/9749.got.cif
#   From: 2010.03.12/outbox.cif.g09.slc.cpg/sg55_5_cif.got.tgz:9749.got - 2010.04.16 15:19:21.
