data_PCOD8226491
_publ_section_title
;
Structure prediction by ZEFSAII (Michael W. Deem and Ramdas Pophale) SiO2 
 PCOD8226491
Probable space group: P B A M
;
_chemical_formula_sum "Si O2"
_cell_formula_units_Z 64
_cell_length_a 9.617473
_cell_length_b 18.652661
_cell_length_c 19.618031
_cell_angle_alpha 90.000000
_cell_angle_beta 90.000000
_cell_angle_gamma 90.000000
_cell_volume 3519.307293
_symmetry_space_group_name_H-M "P B A M"
_symmetry_group_IT_number 55
_symmetry_cell_setting 'orthorhombic'
loop_
_space_group_symop_operation_xyz
x,y,z
-x,-y,z
1/2+x,1/2-y,-z
1/2-x,1/2+y,-z
-x,-y,-z
x,y,-z
1/2-x,1/2+y,z
1/2+x,1/2-y,z
loop_
_atom_site_type_symbol
_atom_site_label
_atom_site_fract_x
_atom_site_fract_y
_atom_site_fract_z
Si Si1 0.394383 0.400621 0.424340
Si Si2 0.215310 0.662922 0.319791
Si Si3 0.523805 0.709308 0.679514
Si Si4 0.402256 0.436620 0.077597
Si Si5 0.710054 0.450088 0.424054
Si Si6 0.141911 0.530371 0.922415
Si Si7 0.474829 0.300439 0.164234
Si Si8 0.785164 0.332104 0.836780
O O1 0.362992 0.369881 0.500000
O O2 0.378750 0.339606 0.368096
O O3 0.550781 0.428105 0.421221
O O4 0.286045 0.464876 0.407936
O O5 0.079612 0.710827 0.334360
O O6 0.359268 0.705258 0.336765
O O7 0.201950 0.592828 0.367459
O O8 0.211257 0.640205 0.240934
O O9 0.554243 0.684227 0.756401
O O10 0.500000 0.500000 0.106973
O O11 0.245657 0.463751 0.081326
O O12 0.410038 0.365620 0.122373
O O13 0.447774 0.418445 0.000000
O O14 0.770526 0.434776 0.500000
O O15 0.199868 0.598336 0.882694
O O16 0.000000 0.500000 0.889938
O O17 0.118223 0.555569 0.000000
O O18 0.404136 0.225113 0.144128
O O19 0.638142 0.293770 0.148239
#
# Coordination Sequence:
#
# PCOD8226491 Si02
#       8
#     8   8   8   8   8   8   8   8
#     4   8  14  26  45  71  98 125 165 211 250 292
#     4   9  18  32  50  70 102 131 167 205 250 296
#     4   9  18  32  48  72  99 132 164 209 249 298
#     4  10  20  37  57  77 104 135 171 215 257 305
#     4   8  14  26  46  71  98 127 163 210 253 292
#     4  10  22  39  57  79 107 136 170 215 262 311
#     4  10  21  35  53  78 106 140 175 216 262 311
#     4  10  21  36  54  77 108 139 175 216 259 312
#
# _framework density 18.185396999999998
#
# number of rings (size 3 to 8) (size 9 to 14) (size 15 to 20)
#    0.000    2.750    1.250    0.750    1.750    2.000 
#    2.250    0.000    0.000    0.000    0.000    1.750 
#    0.000    0.000    0.000    0.000    0.000    0.000 
#
# Total GULP energy -793377.356854 kJ/mol
# GULP energy per Si atom -12396.521201 kJ/mol
# Density = 1.814401 g / cm^3
# Si number density = 18.185397 Si / 1000 Ang^3
#
#
#
# Elastic Constant Matrix: (Units=GPa)
#
#
# Indices 1 2 3 4 5 6 
#
# 1 61.5147 14.8831 20.0070 0.0000 0.0000 0.0000
# 2 14.8831 58.3813 41.4810 0.0000 0.0000 0.0000
# 3 20.0070 41.4810 71.0655 0.0000 0.0000 0.0000
# 4 0.0000 0.0000 0.0000 34.8214 0.0000 0.0000
# 5 0.0000 0.0000 0.0000 0.0000 18.0886 0.0000
# 6 0.0000 0.0000 0.0000 0.0000 0.0000 28.4858
#
#
#
# Elastic Compliance Matrix: (Units=1/GPa)
#
#
# Indices 1 2 3 4 5 6 
#
# 1 0.017992 -0.001688 -0.004080 0.000000 0.000000 0.000000
# 2 -0.001688 0.029425 -0.016700 0.000000 0.000000 0.000000
# 3 -0.004080 -0.016700 0.024968 0.000000 0.000000 0.000000
# 4 0.000000 0.000000 0.000000 0.028718 0.000000 0.000000
# 5 0.000000 0.000000 0.000000 0.000000 0.055283 0.000000
# 6 0.000000 0.000000 0.000000 0.000000 0.000000 0.035105
#
#
# Mechanical properties :
#
#
# Convention : Reuss Voigt Hill
#
# Bulk Modulus (GPa) = 36.43156 38.18931 37.31044
# Shear Modulus (GPa) = 20.36025 23.91851 22.13938
#
# Velocity S-wave (km/s) = 3.34966 3.63058 3.49295
# Velocity P-wave (km/s) = 5.91922 6.21453 6.06868
#
# Compressibility (1/GPa) = 0.02744873
#
# Stress axis : x y z
#
# Youngs Moduli (GPa) = 55.58151 33.98493 40.05101
#
# Poissons Ratio (x) = 0.05735 0.16341
# Poissons Ratio (y) = 0.09380 0.66886
# Poissons Ratio (z) = 0.22678 0.56756
#
# Static dielectric constant tensor:
#      x y z
#    x 3.272120 0.000000 0.000000 
#    y 0.000000 3.327320 0.000000 
#    z 0.000000 0.000000 3.488840 
# 
# 
# High freq. dielectric constant tensor:
#      x y z
#    x 1.688900 0.000000 0.000000 
#    y 0.000000 1.694040 0.000000 
#    z 0.000000 0.000000 1.704900 
# 
# From -- ./inp_files/22715.got.cif
#   From: 2010.03.12/outbox.cif.g09.slc.cpg/sg55_12_cif.got.tgz:22715.got - 2010.04.16 15:19:21.
