data_PCOD8226693
_publ_section_title
;
Structure prediction by ZEFSAII (Michael W. Deem and Ramdas Pophale) SiO2 
 PCOD8226693
Probable space group: P B A M
;
_chemical_formula_sum "Si O2"
_cell_formula_units_Z 48
_cell_length_a 13.987276
_cell_length_b 18.722949
_cell_length_c 8.972805
_cell_angle_alpha 90.000000
_cell_angle_beta 90.000000
_cell_angle_gamma 90.000000
_cell_volume 2349.825587
_symmetry_space_group_name_H-M "P B A M"
_symmetry_group_IT_number 55
_symmetry_cell_setting 'orthorhombic'
loop_
_space_group_symop_operation_xyz
x,y,z
-x,-y,z
1/2+x,1/2-y,-z
1/2-x,1/2+y,-z
-x,-y,-z
x,y,-z
1/2-x,1/2+y,z
1/2+x,1/2-y,z
loop_
_atom_site_type_symbol
_atom_site_label
_atom_site_fract_x
_atom_site_fract_y
_atom_site_fract_z
Si Si1 0.046443 0.895129 0.323916
Si Si2 0.929462 0.366252 0.327121
Si Si3 0.323693 0.271155 0.676862
Si Si4 0.145553 0.360652 0.672352
Si Si5 0.644259 0.459725 0.675923
Si Si6 0.666982 0.987930 0.175652
O O1 0.053664 0.894234 0.500000
O O2 0.097553 0.825754 0.255247
O O3 0.934340 0.899472 0.279851
O O4 0.103395 0.964526 0.269322
O O5 0.911653 0.383960 0.500000
O O6 0.852843 0.307723 0.265930
O O7 0.921223 0.440055 0.235298
O O8 0.036649 0.335384 0.303156
O O9 0.332343 0.269982 0.500000
O O10 0.217279 0.296955 0.725678
O O11 0.166536 0.378298 0.500000
O O12 0.166607 0.432472 0.761707
O O13 0.666772 0.457831 0.500000
O O14 0.739908 0.444888 0.767783
O O15 0.662464 0.991756 0.000000
#
# Coordination Sequence:
#
# PCOD8226693 Si02
#       6
#     8   8   8   8   8   8
#     4   8  14  27  54  88 114 139 176 226 281 329
#     4  10  22  37  58  87 113 145 189 237 287 337
#     4   9  17  33  59  89 116 142 182 235 290 343
#     4  10  20  38  63  86 112 147 188 236 284 338
#     4   9  16  30  56  86 113 143 181 230 280 330
#     4  12  24  37  55  81 115 157 196 236 281 331
#
# _framework density 20.427047999999999
#
# number of rings (size 3 to 8) (size 9 to 14) (size 15 to 20)
#    0.000    2.333    1.667    3.000    0.000    4.000 
#    0.000    7.500    0.000    2.000    0.000    0.000 
#    0.000    0.000    0.000    0.000    0.000    0.000 
#
# Total GULP energy -594915.929188 kJ/mol
# GULP energy per Si atom -12394.081858 kJ/mol
# Density = 2.038056 g / cm^3
# Si number density = 20.427048 Si / 1000 Ang^3
#
#
#
# Elastic Constant Matrix: (Units=GPa)
#
#
# Indices 1 2 3 4 5 6 
#
# 1 108.7734 42.8072 36.3568 0.0000 0.0000 0.0000
# 2 42.8072 90.0159 31.6700 0.0000 0.0000 0.0000
# 3 36.3568 31.6700 65.4952 0.0000 0.0000 0.0000
# 4 0.0000 0.0000 0.0000 6.9750 0.0000 0.0000
# 5 0.0000 0.0000 0.0000 0.0000 4.2465 0.0000
# 6 0.0000 0.0000 0.0000 0.0000 0.0000 34.7123
#
#
#
# Elastic Compliance Matrix: (Units=1/GPa)
#
#
# Indices 1 2 3 4 5 6 
#
# 1 0.012489 -0.004217 -0.004893 0.000000 0.000000 0.000000
# 2 -0.004217 0.014811 -0.004821 0.000000 0.000000 0.000000
# 3 -0.004893 -0.004821 0.020316 0.000000 0.000000 0.000000
# 4 0.000000 0.000000 0.000000 0.143369 0.000000 0.000000
# 5 0.000000 0.000000 0.000000 0.000000 0.235486 0.000000
# 6 0.000000 0.000000 0.000000 0.000000 0.000000 0.028808
#
#
# Mechanical properties :
#
#
# Convention : Reuss Voigt Hill
#
# Bulk Modulus (GPa) = 50.62648 53.99473 52.31061
# Shear Modulus (GPa) = 10.20980 19.41679 14.81329
#
# Velocity S-wave (km/s) = 2.23809 3.08643 2.69584
# Velocity P-wave (km/s) = 5.61396 6.26033 5.94594
#
# Compressibility (1/GPa) = 0.01975251
#
# Stress axis : x y z
#
# Youngs Moduli (GPa) = 80.07233 67.51837 49.22343
#
# Poissons Ratio (x) = 0.28476 0.24086
# Poissons Ratio (y) = 0.33770 0.23729
# Poissons Ratio (z) = 0.39181 0.32548
#
# Static dielectric constant tensor:
#      x y z
#    x 4.098460 0.000000 0.000000 
#    y 0.000000 3.829480 0.000000 
#    z 0.000000 0.000000 3.100250 
# 
# 
# High freq. dielectric constant tensor:
#      x y z
#    x 1.817850 0.000000 0.000000 
#    y 0.000000 1.790840 0.000000 
#    z 0.000000 0.000000 1.731590 
# 
# From -- ./inp_files/5804.got.cif
#   From: 2010.03.12/outbox.cif.g09.slc.cpg/sg55_3_cif.got.tgz:5804.got - 2010.04.16 15:19:21.
