data_PCOD8226769
_publ_section_title
;
Structure prediction by ZEFSAII (Michael W. Deem and Ramdas Pophale) SiO2 
 PCOD8226769
Probable space group: P B A M
;
_chemical_formula_sum "Si O2"
_cell_formula_units_Z 40
_cell_length_a 9.092974
_cell_length_b 28.760912
_cell_length_c 7.732322
_cell_angle_alpha 90.000000
_cell_angle_beta 90.000000
_cell_angle_gamma 90.000000
_cell_volume 2022.174054
_symmetry_space_group_name_H-M "P B A M"
_symmetry_group_IT_number 55
_symmetry_cell_setting 'orthorhombic'
loop_
_space_group_symop_operation_xyz
x,y,z
-x,-y,z
1/2+x,1/2-y,-z
1/2-x,1/2+y,-z
-x,-y,-z
x,y,-z
1/2-x,1/2+y,z
1/2+x,1/2-y,z
loop_
_atom_site_type_symbol
_atom_site_label
_atom_site_fract_x
_atom_site_fract_y
_atom_site_fract_z
Si Si1 0.922261 0.548972 0.500000
Si Si2 0.423013 0.712003 0.803194
Si Si3 0.404378 0.202008 0.694903
Si Si4 0.578536 0.617748 0.800346
Si Si5 0.922422 0.048975 0.500000
Si Si6 0.917639 0.615315 0.192726
O O1 0.750050 0.540008 0.500000
O O2 0.972185 0.577100 0.329503
O O3 0.000000 0.500000 0.500000
O O4 0.494695 0.752242 0.688855
O O5 0.248269 0.713302 0.786786
O O6 0.484834 0.662318 0.742977
O O7 0.469034 0.721494 0.000000
O O8 0.376136 0.185321 0.500000
O O9 0.485037 0.161357 0.798228
O O10 0.529417 0.576169 0.673862
O O11 0.749497 0.629770 0.769748
O O12 0.547094 0.603562 0.000000
O O13 0.000000 0.000000 0.500000
O O14 0.933386 0.594084 0.000000
#
# Coordination Sequence:
#
# PCOD8226769 Si02
#       6
#     4   8   8   8   4   8
#     4  10  22  40  59  88 119 148 195 244 296 354
#     4  11  23  39  58  85 119 160 198 239 289 347
#     4  12  24  37  58  89 121 158 198 243 290 345
#     4   9  21  39  62  86 115 153 197 240 288 346
#     4  10  22  38  61  86 115 152 187 240 298 348
#     4  10  20  40  63  86 117 157 197 242 293 348
#
# _framework density 19.780691000000001
#
# number of rings (size 3 to 8) (size 9 to 14) (size 15 to 20)
#    0.000    1.600    1.000    3.600    2.800    4.000 
#    0.000    0.000    0.000    0.000    0.000    0.000 
#    0.000    0.000    0.000    0.000    0.000    0.000 
#
# Total GULP energy -496194.505037 kJ/mol
# GULP energy per Si atom -12404.862626 kJ/mol
# Density = 1.973567 g / cm^3
# Si number density = 19.780691 Si / 1000 Ang^3
#
#
#
# Elastic Constant Matrix: (Units=GPa)
#
#
# Indices 1 2 3 4 5 6 
#
# 1 88.0064 64.3202 25.7579 0.0000 0.0000 0.0000
# 2 64.3202 149.6644 59.7884 0.0000 0.0000 0.0000
# 3 25.7579 59.7884 118.3563 0.0000 0.0000 0.0000
# 4 0.0000 0.0000 0.0000 27.3344 0.0000 0.0000
# 5 0.0000 0.0000 0.0000 0.0000 19.4826 0.0000
# 6 0.0000 0.0000 0.0000 0.0000 0.0000 41.9867
#
#
#
# Elastic Compliance Matrix: (Units=1/GPa)
#
#
# Indices 1 2 3 4 5 6 
#
# 1 0.016566 -0.007115 -0.000011 0.000000 0.000000 0.000000
# 2 -0.007115 0.011427 -0.004224 0.000000 0.000000 0.000000
# 3 -0.000011 -0.004224 0.010585 0.000000 0.000000 0.000000
# 4 0.000000 0.000000 0.000000 0.036584 0.000000 0.000000
# 5 0.000000 0.000000 0.000000 0.000000 0.051328 0.000000
# 6 0.000000 0.000000 0.000000 0.000000 0.000000 0.023817
#
#
# Mechanical properties :
#
#
# Convention : Reuss Voigt Hill
#
# Bulk Modulus (GPa) = 62.97980 72.86222 67.92101
# Shear Modulus (GPa) = 28.04268 31.50479 29.77374
#
# Velocity S-wave (km/s) = 3.76929 3.99520 3.88389
# Velocity P-wave (km/s) = 7.13103 7.62871 7.38406
#
# Compressibility (1/GPa) = 0.01587811
#
# Stress axis : x y z
#
# Youngs Moduli (GPa) = 60.36394 87.51367 94.47178
#
# Poissons Ratio (x) = 0.62267 0.00104
# Poissons Ratio (y) = 0.42950 0.39903
# Poissons Ratio (z) = 0.00067 0.36964
#
# Static dielectric constant tensor:
#      x y z
#    x 3.470040 0.000000 0.000000 
#    y 0.000000 3.431880 0.000000 
#    z 0.000000 0.000000 3.847890 
# 
# 
# High freq. dielectric constant tensor:
#      x y z
#    x 1.768650 0.000000 0.000000 
#    y 0.000000 1.759390 0.000000 
#    z 0.000000 0.000000 1.789100 
# 
# From -- ./inp_files/2372.got.cif
#   From: 2010.03.12/outbox.cif.g09.slc.cpg/sg55_2_cif.got.tgz:2372.got - 2010.04.16 15:19:21.
