data_PCOD8226582
_publ_section_title
;
Structure prediction by ZEFSAII (Michael W. Deem and Ramdas Pophale) SiO2 
 PCOD8226582
Probable space group: P B A M
;
_chemical_formula_sum "Si O2"
_cell_formula_units_Z 64
_cell_length_a 18.210200
_cell_length_b 19.376880
_cell_length_c 8.856481
_cell_angle_alpha 90.000000
_cell_angle_beta 90.000000
_cell_angle_gamma 90.000000
_cell_volume 3125.070078
_symmetry_space_group_name_H-M "P B A M"
_symmetry_group_IT_number 55
_symmetry_cell_setting 'orthorhombic'
loop_
_space_group_symop_operation_xyz
x,y,z
-x,-y,z
1/2+x,1/2-y,-z
1/2-x,1/2+y,-z
-x,-y,-z
x,y,-z
1/2-x,1/2+y,z
1/2+x,1/2-y,z
loop_
_atom_site_type_symbol
_atom_site_label
_atom_site_fract_x
_atom_site_fract_y
_atom_site_fract_z
Si Si1 0.242174 0.617611 0.176319
Si Si2 0.397764 0.174724 0.327494
Si Si3 0.933151 0.050157 0.825219
Si Si4 0.826685 0.624004 0.824547
Si Si5 0.027900 0.423243 0.673602
Si Si6 0.481325 0.312582 0.327543
Si Si7 0.368969 0.722811 0.175385
Si Si8 0.281516 0.477132 0.677886
O O1 0.172170 0.662363 0.223238
O O2 0.314948 0.660441 0.218027
O O3 0.240894 0.545158 0.262255
O O4 0.238705 0.602261 0.000000
O O5 0.378701 0.154951 0.500000
O O6 0.464916 0.128169 0.268762
O O7 0.419557 0.254302 0.312642
O O8 0.956761 0.126609 0.781360
O O9 0.865556 0.022786 0.728420
O O10 0.910715 0.048519 0.000000
O O11 0.000000 0.000000 0.789650
O O12 0.901163 0.586716 0.775654
O O13 0.828988 0.705200 0.786939
O O14 0.757940 0.591670 0.737172
O O15 0.814408 0.610414 0.000000
O O16 0.048624 0.407577 0.500000
O O17 0.000000 0.500000 0.695885
O O18 0.487141 0.338521 0.500000
O O19 0.559510 0.282562 0.278133
O O20 0.392037 0.719727 0.000000
O O21 0.277085 0.477454 0.500000
#
# Coordination Sequence:
#
# PCOD8226582 Si02
#       8
#     8   8   8   8   8   8   8   8
#     4  11  24  42  65  93 126 167 214 263 320 384
#     4  10  22  39  59  93 132 167 209 258 315 376
#     4  11  25  45  69  95 128 169 215 271 327 383
#     4  11  23  40  63  93 127 167 213 260 313 380
#     4  10  20  37  61  88 124 166 205 253 308 365
#     4  11  23  40  65  97 130 168 213 263 319 383
#     4  10  23  42  64  93 128 168 212 262 321 381
#     4  12  26  44  66  95 130 169 213 268 326 386
#
# _framework density 20.47954
#
# number of rings (size 3 to 8) (size 9 to 14) (size 15 to 20)
#    0.000    1.250    1.250    4.125    1.750    8.250 
#    0.000    0.000    0.000    0.000    0.000    0.000 
#    0.000    0.000    0.000    0.000    0.000    0.000 
#
# Total GULP energy -794108.480173 kJ/mol
# GULP energy per Si atom -12407.945003 kJ/mol
# Density = 2.043293 g / cm^3
# Si number density = 20.479540 Si / 1000 Ang^3
#
#
#
# Elastic Constant Matrix: (Units=GPa)
#
#
# Indices 1 2 3 4 5 6 
#
# 1 93.9272 26.1183 49.8858 0.0000 0.0000 0.0000
# 2 26.1183 95.9533 36.2625 0.0000 0.0000 0.0000
# 3 49.8858 36.2625 97.3208 0.0000 0.0000 0.0000
# 4 0.0000 0.0000 0.0000 -8.3845 0.0000 0.0000
# 5 0.0000 0.0000 0.0000 0.0000 37.7371 0.0000
# 6 0.0000 0.0000 0.0000 0.0000 0.0000 34.6510
#
#
#
# Elastic Compliance Matrix: (Units=1/GPa)
#
#
# Indices 1 2 3 4 5 6 
#
# 1 0.014778 -0.001350 -0.007072 0.000000 0.000000 0.000000
# 2 -0.001350 0.012253 -0.003874 0.000000 0.000000 0.000000
# 3 -0.007072 -0.003874 0.015344 0.000000 0.000000 0.000000
# 4 0.000000 0.000000 0.000000 -0.119267 0.000000 0.000000
# 5 0.000000 0.000000 0.000000 0.000000 0.026499 0.000000
# 6 0.000000 0.000000 0.000000 0.000000 0.000000 0.028859
#
#
# Mechanical properties :
#
#
# Convention : Reuss Voigt Hill
#
# Bulk Modulus (GPa) = 56.23171 56.85940 56.54555
# Shear Modulus (GPa) = 556.49303 24.46304 290.47803
#
# Velocity S-wave (km/s) = 16.50215 3.45992 11.92250
# Velocity P-wave (km/s) = 19.76390 6.61707 14.73767
#
# Compressibility (1/GPa) = 0.01778356
#
# Stress axis : x y z
#
# Youngs Moduli (GPa) = 67.66838 81.61202 65.17320
#
# Poissons Ratio (x) = 0.11017 0.46091
# Poissons Ratio (y) = 0.09134 0.25246
# Poissons Ratio (z) = 0.47856 0.31614
#
# Static dielectric constant tensor:
#      x y z
#    x 3.781460 0.000000 0.000000 
#    y 0.000000 3.835200 0.000000 
#    z 0.000000 0.000000 3.748400 
# 
# 
# High freq. dielectric constant tensor:
#      x y z
#    x 1.807200 0.000000 0.000000 
#    y 0.000000 1.815930 0.000000 
#    z 0.000000 0.000000 1.804190 
# 
# From -- ./inp_files/8040.got.cif
#   From: 2010.03.12/outbox.cif.g09.slc.cpg/sg55_5_cif.got.tgz:8040.got - 2010.04.16 15:19:21.
