data_PCOD8226155
_publ_section_title
;
Structure prediction by ZEFSAII (Michael W. Deem and Ramdas Pophale) SiO2 
 PCOD8226155
Probable space group: P B A M
;
_chemical_formula_sum "Si O2"
_cell_formula_units_Z 64
_cell_length_a 14.281681
_cell_length_b 21.409415
_cell_length_c 9.107866
_cell_angle_alpha 90.000000
_cell_angle_beta 90.000000
_cell_angle_gamma 90.000000
_cell_volume 2784.843290
_symmetry_space_group_name_H-M "P B A M"
_symmetry_group_IT_number 55
_symmetry_cell_setting 'orthorhombic'
loop_
_space_group_symop_operation_xyz
x,y,z
-x,-y,z
1/2+x,1/2-y,-z
1/2-x,1/2+y,-z
-x,-y,-z
x,y,-z
1/2-x,1/2+y,z
1/2+x,1/2-y,z
loop_
_atom_site_type_symbol
_atom_site_label
_atom_site_fract_x
_atom_site_fract_y
_atom_site_fract_z
Si Si1 0.833480 0.336430 0.837261
Si Si2 0.348926 0.886915 0.669711
Si Si3 0.928595 0.131443 0.669319
Si Si4 0.295190 0.463636 0.827523
Si Si5 0.814692 0.751831 0.329272
Si Si6 0.979156 0.429225 0.172583
Si Si7 0.009360 0.759296 0.164242
Si Si8 0.413298 0.547003 0.339557
O O1 0.762722 0.301465 0.727325
O O2 0.869631 0.407178 0.795211
O O3 0.936483 0.305542 0.842426
O O4 0.787455 0.334897 0.000000
O O5 0.356395 0.903792 0.500000
O O6 0.302161 0.945051 0.754524
O O7 0.288692 0.822158 0.690731
O O8 0.452273 0.882266 0.737988
O O9 0.893604 0.129660 0.500000
O O10 0.871619 0.084092 0.768211
O O11 0.918642 0.199080 0.739764
O O12 0.040503 0.115096 0.681930
O O13 0.332081 0.532689 0.779565
O O14 0.284246 0.460831 0.000000
O O15 0.831629 0.766834 0.500000
O O16 0.910073 0.757895 0.241677
O O17 0.000000 0.500000 0.226175
O O18 0.000580 0.423355 0.000000
O O19 0.995330 0.786415 0.000000
O O20 0.500000 0.500000 0.328641
O O21 0.366171 0.541079 0.500000
#
# Coordination Sequence:
#
# PCOD8226155 Si02
#       8
#     8   8   8   8   8   8   8   8
#     4  10  22  41  66  96 129 167 210 268 331 391
#     4  11  23  40  63  91 124 163 211 265 318 381
#     4  10  20  35  55  82 121 163 204 252 314 382
#     4  11  21  33  55  86 118 157 207 258 309 373
#     4  11  24  40  63  94 126 166 211 262 324 392
#     4  10  22  44  71  96 127 169 217 271 331 392
#     4  11  22  38  62  90 123 162 206 260 322 388
#     4   8  16  32  51  72 107 152 192 239 295 353
#
# _framework density 22.981545000000001
#
# number of rings (size 3 to 8) (size 9 to 14) (size 15 to 20)
#    0.000    1.750    1.250    4.125    0.000    8.000 
#    2.250    0.000    0.000    0.000    0.000    0.000 
#    0.000    0.000    0.000    0.000    0.000    0.000 
#
# Total GULP energy -792945.644649 kJ/mol
# GULP energy per Si atom -12389.775698 kJ/mol
# Density = 2.292924 g / cm^3
# Si number density = 22.981545 Si / 1000 Ang^3
#
#
#
# Elastic Constant Matrix: (Units=GPa)
#
#
# Indices 1 2 3 4 5 6 
#
# 1 60.1482 -15.9103 21.5819 0.0000 0.0000 0.0000
# 2 -15.9103 33.8416 3.0959 0.0000 0.0000 0.0000
# 3 21.5819 3.0959 114.2753 0.0000 0.0000 0.0000
# 4 0.0000 0.0000 0.0000 28.2482 0.0000 0.0000
# 5 0.0000 0.0000 0.0000 0.0000 22.8248 0.0000
# 6 0.0000 0.0000 0.0000 0.0000 0.0000 27.7539
#
#
#
# Elastic Compliance Matrix: (Units=1/GPa)
#
#
# Indices 1 2 3 4 5 6 
#
# 1 0.020828 0.010177 -0.004209 0.000000 0.000000 0.000000
# 2 0.010177 0.034596 -0.002859 0.000000 0.000000 0.000000
# 3 -0.004209 -0.002859 0.009623 0.000000 0.000000 0.000000
# 4 0.000000 0.000000 0.000000 0.035401 0.000000 0.000000
# 5 0.000000 0.000000 0.000000 0.000000 0.043812 0.000000
# 6 0.000000 0.000000 0.000000 0.000000 0.000000 0.036031
#
#
# Mechanical properties :
#
#
# Convention : Reuss Voigt Hill
#
# Bulk Modulus (GPa) = 14.03235 25.08890 19.56062
# Shear Modulus (GPa) = 25.27451 29.06521 27.16986
#
# Velocity S-wave (km/s) = 3.31988 3.56015 3.44211
# Velocity P-wave (km/s) = 4.56231 5.27638 4.93229
#
# Compressibility (1/GPa) = 0.07126390
#
# Stress axis : x y z
#
# Youngs Moduli (GPa) = 48.01243 28.90541 103.91542
#
# Poissons Ratio (x) = -0.29417 0.43741
# Poissons Ratio (y) = -0.48863 0.29712
# Poissons Ratio (z) = 0.20210 0.08265
#
# Static dielectric constant tensor:
#      x y z
#    x 4.013860 0.000000 0.000000 
#    y 0.000000 4.826460 0.000000 
#    z 0.000000 0.000000 4.102950 
# 
# 
# High freq. dielectric constant tensor:
#      x y z
#    x 1.901170 0.000000 0.000000 
#    y 0.000000 1.912060 0.000000 
#    z 0.000000 0.000000 1.903100 
# 
# From -- ./inp_files/6528.got.cif
#   From: 2010.03.12/outbox.cif.g09.slc.cpg/sg55_4_cif.got.tgz:6528.got - 2010.04.16 15:19:21.
