data_PCOD8226338
_publ_section_title
;
Structure prediction by ZEFSAII (Michael W. Deem and Ramdas Pophale) SiO2 
 PCOD8226338
Probable space group: P B A M
;
_chemical_formula_sum "Si O2"
_cell_formula_units_Z 56
_cell_length_a 15.460459
_cell_length_b 5.058011
_cell_length_c 34.459726
_cell_angle_alpha 90.000000
_cell_angle_beta 90.000000
_cell_angle_gamma 90.000000
_cell_volume 2694.722030
_symmetry_space_group_name_H-M "P B A M"
_symmetry_group_IT_number 55
_symmetry_cell_setting 'orthorhombic'
loop_
_space_group_symop_operation_xyz
x,y,z
-x,-y,z
1/2+x,1/2-y,-z
1/2-x,1/2+y,-z
-x,-y,-z
x,y,-z
1/2-x,1/2+y,z
1/2+x,1/2-y,z
loop_
_atom_site_type_symbol
_atom_site_label
_atom_site_fract_x
_atom_site_fract_y
_atom_site_fract_z
Si Si1 0.439617 0.749084 0.040863
Si Si2 0.939005 0.749480 0.124944
Si Si3 0.443039 0.241846 0.456353
Si Si4 0.898052 0.030792 0.685067
Si Si5 0.306683 0.873548 0.808215
Si Si6 0.397344 0.968765 0.270775
Si Si7 0.307231 0.293594 0.391333
O O1 0.500000 0.500000 0.038420
O O2 0.390432 0.731807 0.082426
O O3 0.500000 0.000000 0.042100
O O4 0.383317 0.757980 0.000000
O O5 0.864235 0.714435 0.155795
O O6 0.000000 0.500000 0.126756
O O7 0.000000 0.000000 0.133893
O O8 0.500000 0.500000 0.456598
O O9 0.412831 0.167760 0.500000
O O10 0.358213 0.305761 0.431620
O O11 0.500000 0.000000 0.438817
O O12 0.861602 0.244194 0.716492
O O13 0.872824 0.132522 0.642845
O O14 0.862896 0.741416 0.696824
O O15 0.000000 0.000000 0.686464
O O16 0.225862 0.674688 0.809394
O O17 0.363759 0.855082 0.769683
O O18 0.500000 0.000000 0.268373
O O19 0.227816 0.496047 0.388849
#
# Coordination Sequence:
#
# PCOD8226338 Si02
#       7
#     8   8   8   8   8   8   8
#     4   8  14  26  48  78 104 130 175 231 276 316
#     4  10  20  36  58  80 108 147 188 230 275 337
#     4  10  22  42  66  88 116 159 204 241 282 339
#     4  10  22  40  61  84 113 151 192 234 280 339
#     4  12  25  38  56  83 116 150 185 236 293 342
#     4  10  22  40  61  82 107 147 196 238 279 333
#     4  12  25  38  60  93 126 156 188 238 295 346
#
# _framework density 20.781365999999998
#
# number of rings (size 3 to 8) (size 9 to 14) (size 15 to 20)
#    0.000    1.714    0.000    4.286    0.000    7.429 
#    0.000    0.000    0.000    0.857    0.000    0.000 
#    0.000    0.000    0.000    0.000    0.000    0.000 
#
# Total GULP energy -693855.990055 kJ/mol
# GULP energy per Si atom -12390.285537 kJ/mol
# Density = 2.073407 g / cm^3
# Si number density = 20.781366 Si / 1000 Ang^3
#
#
#
# Elastic Constant Matrix: (Units=GPa)
#
#
# Indices 1 2 3 4 5 6 
#
# 1 30.6010 32.1407 35.5807 0.0000 0.0000 0.0000
# 2 32.1407 126.3055 36.3200 0.0000 0.0000 0.0000
# 3 35.5807 36.3200 144.9461 0.0000 0.0000 0.0000
# 4 0.0000 0.0000 0.0000 31.6138 0.0000 0.0000
# 5 0.0000 0.0000 0.0000 0.0000 4.8197 0.0000
# 6 0.0000 0.0000 0.0000 0.0000 0.0000 31.8877
#
#
#
# Elastic Compliance Matrix: (Units=1/GPa)
#
#
# Indices 1 2 3 4 5 6 
#
# 1 0.057922 -0.011478 -0.011342 0.000000 0.000000 0.000000
# 2 -0.011478 0.010806 0.000110 0.000000 0.000000 0.000000
# 3 -0.011342 0.000110 0.009656 0.000000 0.000000 0.000000
# 4 0.000000 0.000000 0.000000 0.031632 0.000000 0.000000
# 5 0.000000 0.000000 0.000000 0.000000 0.207483 0.000000
# 6 0.000000 0.000000 0.000000 0.000000 0.000000 0.031360
#
#
# Mechanical properties :
#
#
# Convention : Reuss Voigt Hill
#
# Bulk Modulus (GPa) = 30.33661 56.65947 43.49804
# Shear Modulus (GPa) = 12.33753 26.85166 19.59460
#
# Velocity S-wave (km/s) = 2.43920 3.59848 3.07399
# Velocity P-wave (km/s) = 4.75001 6.67751 5.79447
#
# Compressibility (1/GPa) = 0.03296348
#
# Stress axis : x y z
#
# Youngs Moduli (GPa) = 17.26464 92.53710 103.56351
#
# Poissons Ratio (x) = 1.06211 1.17465
# Poissons Ratio (y) = 0.19816 -0.01135
# Poissons Ratio (z) = 0.19582 -0.01015
#
# Static dielectric constant tensor:
#      x y z
#    x 3.343790 0.000000 0.000000 
#    y 0.000000 4.179370 0.000000 
#    z 0.000000 0.000000 4.471260 
# 
# 
# High freq. dielectric constant tensor:
#      x y z
#    x 1.773560 0.000000 0.000000 
#    y 0.000000 1.842390 0.000000 
#    z 0.000000 0.000000 1.833080 
# 
# From -- ./inp_files/24175.got.cif
#   From: 2010.03.12/outbox.cif.g09.slc.cpg/sg55_13_cif.got.tgz:24175.got - 2010.04.16 15:19:21.
