data_PCOD8226744
_publ_section_title
;
Structure prediction by ZEFSAII (Michael W. Deem and Ramdas Pophale) SiO2 
 PCOD8226744
Probable space group: P B A M
;
_chemical_formula_sum "Si O2"
_cell_formula_units_Z 48
_cell_length_a 9.475052
_cell_length_b 29.115133
_cell_length_c 8.441507
_cell_angle_alpha 90.000000
_cell_angle_beta 90.000000
_cell_angle_gamma 90.000000
_cell_volume 2328.736581
_symmetry_space_group_name_H-M "P B A M"
_symmetry_group_IT_number 55
_symmetry_cell_setting 'orthorhombic'
loop_
_space_group_symop_operation_xyz
x,y,z
-x,-y,z
1/2+x,1/2-y,-z
1/2-x,1/2+y,-z
-x,-y,-z
x,y,-z
1/2-x,1/2+y,z
1/2+x,1/2-y,z
loop_
_atom_site_type_symbol
_atom_site_label
_atom_site_fract_x
_atom_site_fract_y
_atom_site_fract_z
Si Si1 0.401408 0.037825 0.318441
Si Si2 0.979073 0.200682 0.812559
Si Si3 0.360162 0.477648 0.682185
Si Si4 0.782493 0.119683 0.184536
Si Si5 0.793972 0.284166 0.185926
Si Si6 0.017855 0.635884 0.685645
O O1 0.452490 0.042544 0.500000
O O2 0.422209 0.087876 0.243170
O O3 0.500000 0.000000 0.232566
O O4 0.243477 0.020661 0.301930
O O5 0.918513 0.150378 0.766452
O O6 0.869175 0.238526 0.743975
O O7 0.136849 0.207930 0.739463
O O8 0.988877 0.206086 0.000000
O O9 0.500000 0.500000 0.754690
O O10 0.378348 0.462173 0.500000
O O11 0.312274 0.433483 0.779798
O O12 0.648784 0.138537 0.281284
O O13 0.748717 0.125503 0.000000
O O14 0.897437 0.325938 0.220723
O O15 0.775745 0.278794 0.000000
O O16 0.047052 0.641891 0.500000
#
# Coordination Sequence:
#
# PCOD8226744 Si02
#       6
#     8   8   8   8   8   8
#     4   9  17  34  56  78 109 150 191 228 275 339
#     4   9  20  38  62  86 114 150 188 231 286 348
#     4  10  21  37  58  82 113 156 197 236 291 349
#     4  11  22  38  59  86 118 155 196 241 288 340
#     4  10  20  39  63  86 111 147 189 230 282 345
#     4  11  22  37  59  86 116 150 191 238 286 340
#
# _framework density 20.612037000000001
#
# number of rings (size 3 to 8) (size 9 to 14) (size 15 to 20)
#    0.000    2.000    1.667    2.000    2.333    3.000 
#    0.000    7.500    0.000    0.000    0.000    0.000 
#    0.000    0.000    0.000    0.000    0.000    0.000 
#
# Total GULP energy -595067.055050 kJ/mol
# GULP energy per Si atom -12397.230314 kJ/mol
# Density = 2.056512 g / cm^3
# Si number density = 20.612037 Si / 1000 Ang^3
#
#
#
# Elastic Constant Matrix: (Units=GPa)
#
#
# Indices 1 2 3 4 5 6 
#
# 1 135.0813 38.3588 4.4556 0.0000 0.0000 0.0000
# 2 38.3588 105.4150 7.6741 0.0000 0.0000 0.0000
# 3 4.4556 7.6741 17.0073 0.0000 0.0000 0.0000
# 4 0.0000 0.0000 0.0000 19.6975 0.0000 0.0000
# 5 0.0000 0.0000 0.0000 0.0000 17.5301 0.0000
# 6 0.0000 0.0000 0.0000 0.0000 0.0000 41.5278
#
#
#
# Elastic Compliance Matrix: (Units=1/GPa)
#
#
# Indices 1 2 3 4 5 6 
#
# 1 0.008268 -0.002948 -0.000836 0.000000 0.000000 0.000000
# 2 -0.002948 0.010859 -0.004128 0.000000 0.000000 0.000000
# 3 -0.000836 -0.004128 0.060880 0.000000 0.000000 0.000000
# 4 0.000000 0.000000 0.000000 0.050768 0.000000 0.000000
# 5 0.000000 0.000000 0.000000 0.000000 0.057045 0.000000
# 6 0.000000 0.000000 0.000000 0.000000 0.000000 0.024080
#
#
# Mechanical properties :
#
#
# Convention : Reuss Voigt Hill
#
# Bulk Modulus (GPa) = 15.58020 39.83120 27.70570
# Shear Modulus (GPa) = 20.07092 29.55210 24.81151
#
# Velocity S-wave (km/s) = 3.12388 3.79057 3.47326
# Velocity P-wave (km/s) = 4.53726 6.20678 5.43649
#
# Compressibility (1/GPa) = 0.06418401
#
# Stress axis : x y z
#
# Youngs Moduli (GPa) = 120.95496 92.08619 16.42584
#
# Poissons Ratio (x) = 0.27143 0.01373
# Poissons Ratio (y) = 0.35652 0.06780
# Poissons Ratio (z) = 0.10111 0.38011
#
# Static dielectric constant tensor:
#      x y z
#    x 3.963330 0.000000 0.000000 
#    y 0.000000 3.919700 0.000000 
#    z 0.000000 0.000000 3.297760 
# 
# 
# High freq. dielectric constant tensor:
#      x y z
#    x 1.820080 0.000000 0.000000 
#    y 0.000000 1.819420 0.000000 
#    z 0.000000 0.000000 1.760880 
# 
# From -- ./inp_files/2793.got.cif
#   From: 2010.03.12/outbox.cif.g09.slc.cpg/sg55_2_cif.got.tgz:2793.got - 2010.04.16 15:19:21.
