data_PCOD8226207
_publ_section_title
;
Structure prediction by ZEFSAII (Michael W. Deem and Ramdas Pophale) SiO2 
 PCOD8226207
Probable space group: P B A M
;
_chemical_formula_sum "Si O2"
_cell_formula_units_Z 64
_cell_length_a 19.351175
_cell_length_b 20.465226
_cell_length_c 8.912727
_cell_angle_alpha 90.000000
_cell_angle_beta 90.000000
_cell_angle_gamma 90.000000
_cell_volume 3529.673136
_symmetry_space_group_name_H-M "P B A M"
_symmetry_group_IT_number 55
_symmetry_cell_setting 'orthorhombic'
loop_
_space_group_symop_operation_xyz
x,y,z
-x,-y,z
1/2+x,1/2-y,-z
1/2-x,1/2+y,-z
-x,-y,-z
x,y,-z
1/2-x,1/2+y,z
1/2+x,1/2-y,z
loop_
_atom_site_type_symbol
_atom_site_label
_atom_site_fract_x
_atom_site_fract_y
_atom_site_fract_z
Si Si1 0.921880 0.237156 0.674983
Si Si2 0.294900 0.074419 0.673512
Si Si3 0.426451 0.123113 0.177034
Si Si4 0.212894 0.427517 0.328815
Si Si5 0.434904 0.880603 0.327625
Si Si6 0.208467 0.186325 0.824222
Si Si7 0.576884 0.269747 0.328252
Si Si8 0.293151 0.314773 0.175763
O O1 0.910071 0.250913 0.500000
O O2 0.912188 0.304707 0.761642
O O3 0.865950 0.186215 0.737083
O O4 0.998196 0.207325 0.702597
O O5 0.308181 0.090453 0.500000
O O6 0.367487 0.075999 0.759894
O O7 0.240768 0.125270 0.739537
O O8 0.263007 0.002018 0.693825
O O9 0.500959 0.095501 0.227126
O O10 0.421817 0.125150 0.000000
O O11 0.224733 0.403815 0.500000
O O12 0.131333 0.424471 0.290544
O O13 0.255364 0.381690 0.217890
O O14 0.458487 0.886092 0.500000
O O15 0.416003 0.806291 0.287969
O O16 0.128097 0.190317 0.778849
O O17 0.247020 0.252795 0.774886
O O18 0.215107 0.174139 0.000000
O O19 0.598202 0.282794 0.500000
O O20 0.307713 0.314074 0.000000
#
# Coordination Sequence:
#
# PCOD8226207 Si02
#       8
#     8   8   8   8   8   8   8   8
#     4  10  20  35  57  83 111 144 184 229 274 322
#     4  11  23  38  57  79 108 150 193 233 275 325
#     4  11  21  33  51  78 113 148 185 227 274 329
#     4  10  22  39  58  80 108 148 194 233 275 327
#     4   9  18  34  54  77 108 145 186 227 269 324
#     4  11  22  35  55  84 114 146 182 226 279 333
#     4   9  18  33  56  83 109 141 182 228 275 322
#     4  11  22  35  56  86 115 146 183 226 282 333
#
# _framework density 18.131989999999998
#
# number of rings (size 3 to 8) (size 9 to 14) (size 15 to 20)
#    0.000    1.750    2.500    3.375    0.000    5.500 
#    0.000    2.500    0.000    0.750    0.000    5.250 
#    0.000    0.000    0.000    0.000    0.000    0.000 
#
# Total GULP energy -793825.261166 kJ/mol
# GULP energy per Si atom -12403.519706 kJ/mol
# Density = 1.809072 g / cm^3
# Si number density = 18.131990 Si / 1000 Ang^3
#
#
#
# Elastic Constant Matrix: (Units=GPa)
#
#
# Indices 1 2 3 4 5 6 
#
# 1 97.8819 44.8041 52.3897 0.0000 0.0000 0.0000
# 2 44.8041 79.8176 43.9872 0.0000 0.0000 0.0000
# 3 52.3897 43.9872 109.2678 0.0000 0.0000 0.0000
# 4 0.0000 0.0000 0.0000 21.4148 0.0000 0.0000
# 5 0.0000 0.0000 0.0000 0.0000 24.0801 0.0000
# 6 0.0000 0.0000 0.0000 0.0000 0.0000 23.0428
#
#
#
# Elastic Compliance Matrix: (Units=1/GPa)
#
#
# Indices 1 2 3 4 5 6 
#
# 1 0.015696 -0.005993 -0.005113 0.000000 0.000000 0.000000
# 2 -0.005993 0.018389 -0.004529 0.000000 0.000000 0.000000
# 3 -0.005113 -0.004529 0.013427 0.000000 0.000000 0.000000
# 4 0.000000 0.000000 0.000000 0.046697 0.000000 0.000000
# 5 0.000000 0.000000 0.000000 0.000000 0.041528 0.000000
# 6 0.000000 0.000000 0.000000 0.000000 0.000000 0.043398
#
#
# Mechanical properties :
#
#
# Convention : Reuss Voigt Hill
#
# Bulk Modulus (GPa) = 61.57295 63.25880 62.41587
# Shear Modulus (GPa) = 23.16763 23.42664 23.29713
#
# Velocity S-wave (km/s) = 3.57840 3.59835 3.58839
# Velocity P-wave (km/s) = 7.14879 7.22688 7.18794
#
# Compressibility (1/GPa) = 0.01624090
#
# Stress axis : x y z
#
# Youngs Moduli (GPa) = 63.70898 54.38141 74.47835
#
# Poissons Ratio (x) = 0.32591 0.38083
# Poissons Ratio (y) = 0.38181 0.33733
# Poissons Ratio (z) = 0.32576 0.24630
#
# Static dielectric constant tensor:
#      x y z
#    x 3.434840 0.000000 0.000000 
#    y 0.000000 3.070360 0.000000 
#    z 0.000000 0.000000 3.345910 
# 
# 
# High freq. dielectric constant tensor:
#      x y z
#    x 1.704950 0.000000 0.000000 
#    y 0.000000 1.673720 0.000000 
#    z 0.000000 0.000000 1.709360 
# 
# From -- ./inp_files/7934.got.cif
#   From: 2010.03.12/outbox.cif.g09.slc.cpg/sg55_4_cif.got.tgz:7934.got - 2010.04.16 15:19:21.
