data_PCOD8226827
_publ_section_title
;
Structure prediction by ZEFSAII (Michael W. Deem and Ramdas Pophale) SiO2 
 PCOD8226827
Probable space group: P B A M
;
_chemical_formula_sum "Si O2"
_cell_formula_units_Z 48
_cell_length_a 11.776037
_cell_length_b 23.455147
_cell_length_c 9.623180
_cell_angle_alpha 90.000000
_cell_angle_beta 90.000000
_cell_angle_gamma 90.000000
_cell_volume 2658.005835
_symmetry_space_group_name_H-M "P B A M"
_symmetry_group_IT_number 55
_symmetry_cell_setting 'orthorhombic'
loop_
_space_group_symop_operation_xyz
x,y,z
-x,-y,z
1/2+x,1/2-y,-z
1/2-x,1/2+y,-z
-x,-y,-z
x,y,-z
1/2-x,1/2+y,z
1/2+x,1/2-y,z
loop_
_atom_site_type_symbol
_atom_site_label
_atom_site_fract_x
_atom_site_fract_y
_atom_site_fract_z
Si Si1 0.020314 0.130403 0.339071
Si Si2 0.114841 0.343164 0.161024
Si Si3 0.151973 0.214903 0.839257
Si Si4 0.278024 0.418271 0.662750
Si Si5 0.356587 0.134061 0.840254
Si Si6 0.726825 0.450368 0.660435
O O1 0.024417 0.147784 0.500000
O O2 0.052688 0.185595 0.249613
O O3 0.105982 0.078600 0.307546
O O4 0.896018 0.110539 0.293213
O O5 0.161326 0.280945 0.202004
O O6 0.176358 0.390012 0.253328
O O7 0.981896 0.345012 0.196076
O O8 0.138123 0.356819 0.000000
O O9 0.272875 0.186422 0.804829
O O10 0.117804 0.208170 0.000000
O O11 0.254735 0.410569 0.500000
O O12 0.283184 0.484256 0.704696
O O13 0.326215 0.079011 0.748903
O O14 0.344780 0.115698 0.000000
O O15 0.760308 0.443757 0.500000
#
# Coordination Sequence:
#
# PCOD8226827 Si02
#       6
#     8   8   8   8   8   8
#     4   9  18  34  56  81 106 136 173 218 266 307
#     4  10  22  36  53  77 106 142 177 216 263 310
#     4   9  19  35  56  77 102 137 176 216 260 314
#     4  10  21  35  53  80 110 138 174 217 260 310
#     4   9  19  36  54  76 104 136 176 218 263 311
#     4   9  18  35  57  78 104 140 176 213 262 314
#
# _framework density 18.058651999999999
#
# number of rings (size 3 to 8) (size 9 to 14) (size 15 to 20)
#    0.000    2.667    0.000    0.500    2.333    5.333 
#    0.000    3.333    0.000    5.000    0.000    0.000 
#    0.000    0.000    0.000    0.000    0.000    0.000 
#
# Total GULP energy -595369.778031 kJ/mol
# GULP energy per Si atom -12403.537042 kJ/mol
# Density = 1.801755 g / cm^3
# Si number density = 18.058652 Si / 1000 Ang^3
#
#
#
# Elastic Constant Matrix: (Units=GPa)
#
#
# Indices 1 2 3 4 5 6 
#
# 1 92.0595 28.7940 38.0203 0.0000 0.0000 0.0000
# 2 28.7940 61.5089 34.0134 0.0000 0.0000 0.0000
# 3 38.0203 34.0134 49.2980 0.0000 0.0000 0.0000
# 4 0.0000 0.0000 0.0000 33.2714 0.0000 0.0000
# 5 0.0000 0.0000 0.0000 0.0000 32.0789 0.0000
# 6 0.0000 0.0000 0.0000 0.0000 0.0000 22.4020
#
#
#
# Elastic Compliance Matrix: (Units=1/GPa)
#
#
# Indices 1 2 3 4 5 6 
#
# 1 0.015984 -0.001076 -0.011584 0.000000 0.000000 0.000000
# 2 -0.001076 0.026360 -0.017357 0.000000 0.000000 0.000000
# 3 -0.011584 -0.017357 0.041195 0.000000 0.000000 0.000000
# 4 0.000000 0.000000 0.000000 0.030056 0.000000 0.000000
# 5 0.000000 0.000000 0.000000 0.000000 0.031173 0.000000
# 6 0.000000 0.000000 0.000000 0.000000 0.000000 0.044639
#
#
# Mechanical properties :
#
#
# Convention : Reuss Voigt Hill
#
# Bulk Modulus (GPa) = 42.54866 44.94686 43.74776
# Shear Modulus (GPa) = 19.43441 24.35304 21.89373
#
# Velocity S-wave (km/s) = 3.28408 3.67625 3.48568
# Velocity P-wave (km/s) = 6.16383 6.55463 6.36223
#
# Compressibility (1/GPa) = 0.02350250
#
# Stress axis : x y z
#
# Youngs Moduli (GPa) = 62.56440 37.93656 24.27493
#
# Poissons Ratio (x) = 0.04083 0.28121
# Poissons Ratio (y) = 0.06734 0.42134
# Poissons Ratio (z) = 0.72477 0.65847
#
# Static dielectric constant tensor:
#      x y z
#    x 3.312150 0.000000 0.000000 
#    y 0.000000 3.357710 0.000000 
#    z 0.000000 0.000000 3.305790 
# 
# 
# High freq. dielectric constant tensor:
#      x y z
#    x 1.700670 0.000000 0.000000 
#    y 0.000000 1.701780 0.000000 
#    z 0.000000 0.000000 1.694920 
# 
# From -- ./inp_files/4034.got.cif
#   From: 2010.03.12/outbox.cif.g09.slc.cpg/sg55_3_cif.got.tgz:4034.got - 2010.04.16 15:19:21.
