data_PCOD8226940
_publ_section_title
;
Structure prediction by ZEFSAII (Michael W. Deem and Ramdas Pophale) SiO2 
 PCOD8226940
Probable space group: P B A M
;
_chemical_formula_sum "Si O2"
_cell_formula_units_Z 64
_cell_length_a 24.312743
_cell_length_b 14.192183
_cell_length_c 8.728857
_cell_angle_alpha 90.000000
_cell_angle_beta 90.000000
_cell_angle_gamma 90.000000
_cell_volume 3011.899945
_symmetry_space_group_name_H-M "P B A M"
_symmetry_group_IT_number 55
_symmetry_cell_setting 'orthorhombic'
loop_
_space_group_symop_operation_xyz
x,y,z
-x,-y,z
1/2+x,1/2-y,-z
1/2-x,1/2+y,-z
-x,-y,-z
x,y,-z
1/2-x,1/2+y,z
1/2+x,1/2-y,z
loop_
_atom_site_type_symbol
_atom_site_label
_atom_site_fract_x
_atom_site_fract_y
_atom_site_fract_z
Si Si1 0.303927 0.793375 0.676614
Si Si2 0.561204 0.522595 0.680109
Si Si3 0.059597 0.468351 0.677479
Si Si4 0.588747 0.719019 0.821245
Si Si5 0.613889 0.352869 0.827354
Si Si6 0.526343 0.206027 0.829376
Si Si7 0.328161 0.994894 0.819379
Si Si8 0.692410 0.816437 0.677159
O O1 0.317958 0.812385 0.500000
O O2 0.344700 0.715023 0.740057
O O3 0.308289 0.892858 0.763200
O O4 0.243054 0.753632 0.699284
O O5 0.500000 0.500000 0.745253
O O6 0.561277 0.509440 0.500000
O O7 0.581399 0.626044 0.721671
O O8 0.607900 0.453755 0.748011
O O9 0.067871 0.492432 0.500000
O O10 0.060355 0.356294 0.707505
O O11 0.108465 0.515721 0.773030
O O12 0.000000 0.500000 0.740048
O O13 0.537537 0.787718 0.784375
O O14 0.643089 0.773726 0.775030
O O15 0.590075 0.692058 0.000000
O O16 0.552622 0.309420 0.824425
O O17 0.635657 0.366101 0.000000
O O18 0.533725 0.162545 0.000000
O O19 0.292848 0.079121 0.741962
O O20 0.321063 0.999913 0.000000
O O21 0.675573 0.825085 0.500000
#
# Coordination Sequence:
#
# PCOD8226940 Si02
#       8
#     8   8   8   8   8   8   8   8
#     4  11  25  46  71  96 128 170 217 270 323 380
#     4  11  23  38  61  93 131 176 221 266 321 387
#     4  11  23  37  59  92 129 170 213 260 318 384
#     4  11  23  41  65  94 132 173 216 268 326 388
#     4  11  22  39  64  94 128 165 212 266 320 381
#     4  10  21  36  58  90 126 165 207 260 321 380
#     4  12  25  43  69  98 130 168 214 266 320 383
#     4  11  26  47  69  96 131 170 216 269 324 382
#
# _framework density 21.249044999999999
#
# number of rings (size 3 to 8) (size 9 to 14) (size 15 to 20)
#    0.000    1.000    2.500    4.125    0.000    8.000 
#    0.000    1.250    0.000    0.000    0.000    0.000 
#    0.000    0.000    0.000    0.000    0.000    0.000 
#
# Total GULP energy -793767.881604 kJ/mol
# GULP energy per Si atom -12402.623150 kJ/mol
# Density = 2.120068 g / cm^3
# Si number density = 21.249045 Si / 1000 Ang^3
#
#
#
# Elastic Constant Matrix: (Units=GPa)
#
#
# Indices 1 2 3 4 5 6 
#
# 1 68.6387 12.3823 28.8254 0.0000 0.0000 0.0000
# 2 12.3823 79.1155 13.9598 0.0000 0.0000 0.0000
# 3 28.8254 13.9598 87.6618 0.0000 0.0000 0.0000
# 4 0.0000 0.0000 0.0000 40.1882 0.0000 0.0000
# 5 0.0000 0.0000 0.0000 0.0000 30.9805 0.0000
# 6 0.0000 0.0000 0.0000 0.0000 0.0000 27.0297
#
#
#
# Elastic Compliance Matrix: (Units=1/GPa)
#
#
# Indices 1 2 3 4 5 6 
#
# 1 0.017132 -0.001736 -0.005357 0.000000 0.000000 0.000000
# 2 -0.001736 0.013181 -0.001528 0.000000 0.000000 0.000000
# 3 -0.005357 -0.001528 0.013412 0.000000 0.000000 0.000000
# 4 0.000000 0.000000 0.000000 0.024883 0.000000 0.000000
# 5 0.000000 0.000000 0.000000 0.000000 0.032278 0.000000
# 6 0.000000 0.000000 0.000000 0.000000 0.000000 0.036996
#
#
# Mechanical properties :
#
#
# Convention : Reuss Voigt Hill
#
# Bulk Modulus (GPa) = 37.76013 38.41679 38.08846
# Shear Modulus (GPa) = 30.49654 31.65625 31.07639
#
# Velocity S-wave (km/s) = 3.79251 3.86394 3.82839
# Velocity P-wave (km/s) = 6.08164 6.16647 6.12420
#
# Compressibility (1/GPa) = 0.02648296
#
# Stress axis : x y z
#
# Youngs Moduli (GPa) = 58.37058 75.86615 74.55828
#
# Poissons Ratio (x) = 0.13171 0.39940
# Poissons Ratio (y) = 0.10134 0.11394
# Poissons Ratio (z) = 0.31269 0.11594
#
# Static dielectric constant tensor:
#      x y z
#    x 3.844280 0.000000 0.000000 
#    y 0.000000 3.873090 0.000000 
#    z 0.000000 0.000000 3.850140 
# 
# 
# High freq. dielectric constant tensor:
#      x y z
#    x 1.828230 0.000000 0.000000 
#    y 0.000000 1.842970 0.000000 
#    z 0.000000 0.000000 1.841150 
# 
# From -- ./inp_files/9725.got.cif
#   From: 2010.03.12/outbox.cif.g09.slc.cpg/sg55_5_cif.got.tgz:9725.got - 2010.04.16 15:19:21.
