data_PCOD8226932
_publ_section_title
;
Structure prediction by ZEFSAII (Michael W. Deem and Ramdas Pophale) SiO2 
 PCOD8226932
Probable space group: P B A M
;
_chemical_formula_sum "Si O2"
_cell_formula_units_Z 48
_cell_length_a 23.348716
_cell_length_b 11.838935
_cell_length_c 8.802329
_cell_angle_alpha 90.000000
_cell_angle_beta 90.000000
_cell_angle_gamma 90.000000
_cell_volume 2433.174385
_symmetry_space_group_name_H-M "P B A M"
_symmetry_group_IT_number 55
_symmetry_cell_setting 'orthorhombic'
loop_
_space_group_symop_operation_xyz
x,y,z
-x,-y,z
1/2+x,1/2-y,-z
1/2-x,1/2+y,-z
-x,-y,-z
x,y,-z
1/2-x,1/2+y,z
1/2+x,1/2-y,z
loop_
_atom_site_type_symbol
_atom_site_label
_atom_site_fract_x
_atom_site_fract_y
_atom_site_fract_z
Si Si1 0.947013 0.057136 0.831952
Si Si2 0.836844 0.920579 0.831571
Si Si3 0.778704 0.123217 0.677490
Si Si4 0.876114 0.262101 0.818367
Si Si5 0.660733 0.165427 0.820363
Si Si6 0.434802 0.007365 0.820150
O O1 0.920967 0.168845 0.753178
O O2 0.901449 0.958864 0.847036
O O3 0.968598 0.094515 0.000000
O O4 0.000000 0.000000 0.740430
O O5 0.840119 0.794604 0.766398
O O6 0.804868 0.001047 0.713913
O O7 0.807642 0.924967 0.000000
O O8 0.779109 0.145359 0.500000
O O9 0.813403 0.228189 0.754027
O O10 0.714677 0.110749 0.738454
O O11 0.899555 0.382712 0.760843
O O12 0.870968 0.254834 0.000000
O O13 0.602057 0.102028 0.769733
O O14 0.668384 0.153298 0.000000
O O15 0.500000 0.000000 0.753214
O O16 0.439395 0.016541 0.000000
#
# Coordination Sequence:
#
# PCOD8226932 Si02
#       6
#     8   8   8   8   8   8
#     4   8  14  25  48  79 106 136 174 219 267 316
#     4   9  19  35  55  81 110 141 182 229 280 332
#     4  11  23  38  57  81 111 147 192 238 284 335
#     4   9  18  34  56  83 116 149 183 227 280 337
#     4  10  21  36  58  85 115 147 183 232 286 342
#     4   9  19  34  57  91 121 146 184 234 288 344
#
# _framework density 19.727315999999998
#
# number of rings (size 3 to 8) (size 9 to 14) (size 15 to 20)
#    0.000    2.667    0.000    2.500    4.667    0.667 
#    0.000    0.000    0.000   10.000    0.000    0.000 
#    0.000    0.000    0.000    0.000    0.000    0.000 
#
# Total GULP energy -594790.247141 kJ/mol
# GULP energy per Si atom -12391.463482 kJ/mol
# Density = 1.968242 g / cm^3
# Si number density = 19.727316 Si / 1000 Ang^3
#
#
#
# Elastic Constant Matrix: (Units=GPa)
#
#
# Indices 1 2 3 4 5 6 
#
# 1 122.6242 59.0511 31.1152 0.0000 0.0000 0.0000
# 2 59.0511 125.2214 21.4966 0.0000 0.0000 0.0000
# 3 31.1152 21.4966 40.5211 0.0000 0.0000 0.0000
# 4 0.0000 0.0000 0.0000 9.9181 0.0000 0.0000
# 5 0.0000 0.0000 0.0000 0.0000 -0.6544 0.0000
# 6 0.0000 0.0000 0.0000 0.0000 0.0000 20.7148
#
#
#
# Elastic Compliance Matrix: (Units=1/GPa)
#
#
# Indices 1 2 3 4 5 6 
#
# 1 0.012073 -0.004513 -0.006877 0.000000 0.000000 0.000000
# 2 -0.004513 0.010473 -0.002091 0.000000 0.000000 0.000000
# 3 -0.006877 -0.002091 0.031068 0.000000 0.000000 0.000000
# 4 0.000000 0.000000 0.000000 0.100826 0.000000 0.000000
# 5 0.000000 0.000000 0.000000 0.000000 -1.528069 0.000000
# 6 0.000000 0.000000 0.000000 0.000000 0.000000 0.048275
#
#
# Mechanical properties :
#
#
# Convention : Reuss Voigt Hill
#
# Bulk Modulus (GPa) = 37.51798 56.85473 47.18636
# Shear Modulus (GPa) = -3.87744 17.77593 6.94924
#
# Velocity S-wave (km/s) = -1.40349 3.00506 1.87891
# Velocity P-wave (km/s) = 4.05379 6.39714 5.35521
#
# Compressibility (1/GPa) = 0.02665388
#
# Stress axis : x y z
#
# Youngs Moduli (GPa) = 82.82871 95.48456 32.18752
#
# Poissons Ratio (x) = 0.43091 0.22134
# Poissons Ratio (y) = 0.37379 0.06729
# Poissons Ratio (z) = 0.56958 0.19962
#
# Static dielectric constant tensor:
#      x y z
#    x 3.789810 0.000000 0.000000 
#    y 0.000000 3.732150 0.000000 
#    z 0.000000 0.000000 3.043290 
# 
# 
# High freq. dielectric constant tensor:
#      x y z
#    x 1.776510 0.000000 0.000000 
#    y 0.000000 1.777180 0.000000 
#    z 0.000000 0.000000 1.707740 
# 
# From -- ./inp_files/4100.got.cif
#   From: 2010.03.12/outbox.cif.g09.slc.cpg/sg55_3_cif.got.tgz:4100.got - 2010.04.16 15:19:21.
