data_PCOD8226904
_publ_section_title
;
Structure prediction by ZEFSAII (Michael W. Deem and Ramdas Pophale) SiO2 
 PCOD8226904
Probable space group: P B A M
;
_chemical_formula_sum "Si O2"
_cell_formula_units_Z 40
_cell_length_a 25.333897
_cell_length_b 9.620115
_cell_length_c 8.826375
_cell_angle_alpha 90.000000
_cell_angle_beta 90.000000
_cell_angle_gamma 90.000000
_cell_volume 2151.120006
_symmetry_space_group_name_H-M "P B A M"
_symmetry_group_IT_number 55
_symmetry_cell_setting 'orthorhombic'
loop_
_space_group_symop_operation_xyz
x,y,z
-x,-y,z
1/2+x,1/2-y,-z
1/2-x,1/2+y,-z
-x,-y,-z
x,y,-z
1/2-x,1/2+y,z
1/2+x,1/2-y,z
loop_
_atom_site_type_symbol
_atom_site_label
_atom_site_fract_x
_atom_site_fract_y
_atom_site_fract_z
Si Si1 0.408273 0.651945 0.321609
Si Si2 0.703094 0.341788 0.175113
Si Si3 0.087510 0.861727 0.178982
Si Si4 0.506531 0.160063 0.822716
Si Si5 0.203677 0.840235 0.826893
O O1 0.409276 0.636829 0.500000
O O2 0.349624 0.688908 0.267786
O O3 0.429950 0.508135 0.251012
O O4 0.445253 0.778166 0.271057
O O5 0.720638 0.500672 0.190237
O O6 0.750750 0.252760 0.250143
O O7 0.692357 0.301504 0.000000
O O8 0.145228 0.817416 0.244063
O O9 0.046788 0.741426 0.222162
O O10 0.091265 0.888199 0.000000
O O11 0.500000 0.000000 0.776246
O O12 0.518749 0.176338 0.000000
O O13 0.200806 0.791818 0.000000
#
# Coordination Sequence:
#
# PCOD8226904 Si02
#       5
#     8   8   8   8   8
#     4  11  22  35  52  75 106 144 180 210 249 306
#     4   9  17  32  53  76 102 132 170 214 258 302
#     4   9  18  35  57  79 103 133 173 216 258 307
#     4  10  21  36  56  81 105 131 168 218 270 313
#     4   8  15  28  50  76  98 126 165 210 255 299
#
# _framework density 18.594964999999998
#
# number of rings (size 3 to 8) (size 9 to 14) (size 15 to 20)
#    0.000    2.600    0.000    3.600    0.000    5.200 
#    0.000   10.000    0.000    0.000    0.000    0.000 
#    0.000    0.000    0.000    0.000    0.000    0.000 
#
# Total GULP energy -495958.060066 kJ/mol
# GULP energy per Si atom -12398.951502 kJ/mol
# Density = 1.855264 g / cm^3
# Si number density = 18.594965 Si / 1000 Ang^3
#
#
#
# Elastic Constant Matrix: (Units=GPa)
#
#
# Indices 1 2 3 4 5 6 
#
# 1 116.1919 79.8410 31.7703 0.0000 0.0000 0.0000
# 2 79.8410 117.2246 32.2239 0.0000 0.0000 0.0000
# 3 31.7703 32.2239 48.5065 0.0000 0.0000 0.0000
# 4 0.0000 0.0000 0.0000 7.4829 0.0000 0.0000
# 5 0.0000 0.0000 0.0000 0.0000 8.1758 0.0000
# 6 0.0000 0.0000 0.0000 0.0000 0.0000 41.3241
#
#
#
# Elastic Compliance Matrix: (Units=1/GPa)
#
#
# Indices 1 2 3 4 5 6 
#
# 1 0.016841 -0.010323 -0.004172 0.000000 0.000000 0.000000
# 2 -0.010323 0.016765 -0.004376 0.000000 0.000000 0.000000
# 3 -0.004172 -0.004376 0.026255 0.000000 0.000000 0.000000
# 4 0.000000 0.000000 0.000000 0.133639 0.000000 0.000000
# 5 0.000000 0.000000 0.000000 0.000000 0.122312 0.000000
# 6 0.000000 0.000000 0.000000 0.000000 0.000000 0.024199
#
#
# Mechanical properties :
#
#
# Convention : Reuss Voigt Hill
#
# Bulk Modulus (GPa) = 45.21128 63.28817 54.24972
# Shear Modulus (GPa) = 12.98276 20.60241 16.79259
#
# Velocity S-wave (km/s) = 2.64519 3.33221 3.00838
# Velocity P-wave (km/s) = 5.80481 6.99384 6.42688
#
# Compressibility (1/GPa) = 0.02211838
#
# Stress axis : x y z
#
# Youngs Moduli (GPa) = 59.37913 59.64949 38.08751
#
# Poissons Ratio (x) = 0.61578 0.15891
# Poissons Ratio (y) = 0.61299 0.16666
# Poissons Ratio (z) = 0.24775 0.26100
#
# Static dielectric constant tensor:
#      x y z
#    x 3.720390 0.000000 0.000000 
#    y 0.000000 3.423850 0.000000 
#    z 0.000000 0.000000 3.069350 
# 
# 
# High freq. dielectric constant tensor:
#      x y z
#    x 1.735750 0.000000 0.000000 
#    y 0.000000 1.719050 0.000000 
#    z 0.000000 0.000000 1.684140 
# 
# From -- ./inp_files/2277.got.cif
#   From: 2010.03.12/outbox.cif.g09.slc.cpg/sg55_2_cif.got.tgz:2277.got - 2010.04.16 15:19:21.
