data_PCOD8226735
_publ_section_title
;
Structure prediction by ZEFSAII (Michael W. Deem and Ramdas Pophale) SiO2 
 PCOD8226735
Probable space group: P B A M
;
_chemical_formula_sum "Si O2"
_cell_formula_units_Z 64
_cell_length_a 9.183845
_cell_length_b 15.078673
_cell_length_c 22.176194
_cell_angle_alpha 90.000000
_cell_angle_beta 90.000000
_cell_angle_gamma 90.000000
_cell_volume 3070.963684
_symmetry_space_group_name_H-M "P B A M"
_symmetry_group_IT_number 55
_symmetry_cell_setting 'orthorhombic'
loop_
_space_group_symop_operation_xyz
x,y,z
-x,-y,z
1/2+x,1/2-y,-z
1/2-x,1/2+y,-z
-x,-y,-z
x,y,-z
1/2-x,1/2+y,z
1/2+x,1/2-y,z
loop_
_atom_site_type_symbol
_atom_site_label
_atom_site_fract_x
_atom_site_fract_y
_atom_site_fract_z
Si Si1 0.664992 0.530849 0.432295
Si Si2 0.925415 0.194198 0.358514
Si Si3 0.852531 0.171852 0.220505
Si Si4 0.169936 0.992836 0.152508
Si Si5 0.256071 0.132765 0.639887
Si Si6 0.881325 0.420825 0.766103
Si Si7 0.567549 0.218084 0.171437
Si Si8 0.608428 0.081209 0.930798
O O1 0.500000 0.500000 0.432194
O O2 0.721143 0.548929 0.500000
O O3 0.671002 0.622737 0.395279
O O4 0.764065 0.452373 0.404218
O O5 0.885290 0.183134 0.289466
O O6 0.876883 0.293462 0.379146
O O7 0.098083 0.179897 0.365228
O O8 0.799004 0.072409 0.209112
O O9 0.726287 0.237639 0.197623
O O10 0.987756 0.186555 0.173119
O O11 0.233868 0.952905 0.090406
O O12 0.266812 0.074091 0.177153
O O13 0.000000 0.000000 0.141136
O O14 0.288047 0.092510 0.705634
O O15 0.975683 0.333116 0.776998
O O16 0.000000 0.500000 0.763220
O O17 0.561689 0.168005 0.107234
O O18 0.500000 0.000000 0.919357
O O19 0.613797 0.110765 0.000000
#
# Coordination Sequence:
#
# PCOD8226735 Si02
#       8
#     8   8   8   8   8   8   8   8
#     4   9  21  42  62  85 125 171 215 259 312 377
#     4  11  22  39  60  96 125 165 208 263 324 383
#     4  11  22  35  57  87 122 154 193 250 315 377
#     4  11  22  36  60  89 119 156 204 260 311 370
#     4  11  24  36  64  93 125 163 210 262 324 385
#     4  12  21  39  59  88 126 160 200 257 328 393
#     4  11  22  37  56  88 120 156 195 249 319 364
#     4  10  20  39  61  81 114 162 208 244 302 377
#
# _framework density 20.840364000000001
#
# number of rings (size 3 to 8) (size 9 to 14) (size 15 to 20)
#    0.000    1.250    5.000    2.250    1.750    1.750 
#    0.000    2.500    0.000    2.625    0.000    0.000 
#    0.000    0.000    0.000    0.000    0.000    0.000 
#
# Total GULP energy -793040.633309 kJ/mol
# GULP energy per Si atom -12391.259895 kJ/mol
# Density = 2.079293 g / cm^3
# Si number density = 20.840364 Si / 1000 Ang^3
#
#
#
# Elastic Constant Matrix: (Units=GPa)
#
#
# Indices 1 2 3 4 5 6 
#
# 1 96.9945 13.6859 32.3850 0.0000 0.0000 0.0000
# 2 13.6859 41.1456 35.7684 0.0000 0.0000 0.0000
# 3 32.3850 35.7684 133.8812 0.0000 0.0000 0.0000
# 4 0.0000 0.0000 0.0000 -39.8586 0.0000 0.0000
# 5 0.0000 0.0000 0.0000 0.0000 18.2164 0.0000
# 6 0.0000 0.0000 0.0000 0.0000 0.0000 32.6887
#
#
#
# Elastic Compliance Matrix: (Units=1/GPa)
#
#
# Indices 1 2 3 4 5 6 
#
# 1 0.011318 -0.001803 -0.002256 0.000000 0.000000 0.000000
# 2 -0.001803 0.031943 -0.008098 0.000000 0.000000 0.000000
# 3 -0.002256 -0.008098 0.010178 0.000000 0.000000 0.000000
# 4 0.000000 0.000000 0.000000 -0.025089 0.000000 0.000000
# 5 0.000000 0.000000 0.000000 0.000000 0.054895 0.000000
# 6 0.000000 0.000000 0.000000 0.000000 0.000000 0.030592
#
#
# Mechanical properties :
#
#
# Convention : Reuss Voigt Hill
#
# Bulk Modulus (GPa) = 34.33471 48.41111 41.37291
# Shear Modulus (GPa) = 33.81563 14.88810 24.35187
#
# Velocity S-wave (km/s) = 4.03252 2.67570 3.42203
# Velocity P-wave (km/s) = 6.18001 5.72938 5.95896
#
# Compressibility (1/GPa) = 0.02912504
#
# Stress axis : x y z
#
# Youngs Moduli (GPa) = 88.35861 31.30530 98.24665
#
# Poissons Ratio (x) = 0.05646 0.22163
# Poissons Ratio (y) = 0.15935 0.79560
# Poissons Ratio (z) = 0.19932 0.25351
#
# Static dielectric constant tensor:
#      x y z
#    x 4.050130 0.000000 0.000000 
#    y 0.000000 4.217030 0.000000 
#    z 0.000000 0.000000 3.611910 
# 
# 
# High freq. dielectric constant tensor:
#      x y z
#    x 1.822680 0.000000 0.000000 
#    y 0.000000 1.827380 0.000000 
#    z 0.000000 0.000000 1.791500 
# 
# From -- ./inp_files/22710.got.cif
#   From: 2010.03.12/outbox.cif.g09.slc.cpg/sg55_12_cif.got.tgz:22710.got - 2010.04.16 15:19:21.
