data_PCOD8226353
_publ_section_title
;
Structure prediction by ZEFSAII (Michael W. Deem and Ramdas Pophale) SiO2 
 PCOD8226353
Probable space group: P B A M
;
_chemical_formula_sum "Si O2"
_cell_formula_units_Z 64
_cell_length_a 14.737486
_cell_length_b 24.766355
_cell_length_c 9.303228
_cell_angle_alpha 90.000000
_cell_angle_beta 90.000000
_cell_angle_gamma 90.000000
_cell_volume 3395.620634
_symmetry_space_group_name_H-M "P B A M"
_symmetry_group_IT_number 55
_symmetry_cell_setting 'orthorhombic'
loop_
_space_group_symop_operation_xyz
x,y,z
-x,-y,z
1/2+x,1/2-y,-z
1/2-x,1/2+y,-z
-x,-y,-z
x,y,-z
1/2-x,1/2+y,z
1/2+x,1/2-y,z
loop_
_atom_site_type_symbol
_atom_site_label
_atom_site_fract_x
_atom_site_fract_y
_atom_site_fract_z
Si Si1 0.149315 0.865891 0.331757
Si Si2 0.256452 0.760855 0.335855
Si Si3 0.219171 0.157410 0.832864
Si Si4 0.696053 0.050533 0.333197
Si Si5 0.660236 0.943690 0.830114
Si Si6 0.004650 0.397050 0.333746
Si Si7 0.965802 0.724086 0.335902
Si Si8 0.012351 0.171105 0.169116
O O1 0.127118 0.866199 0.500000
O O2 0.193975 0.809579 0.283064
O O3 0.216003 0.914604 0.291882
O O4 0.056231 0.871733 0.241852
O O5 0.236345 0.746233 0.500000
O O6 0.233503 0.707512 0.246075
O O7 0.358694 0.780446 0.313567
O O8 0.269700 0.103128 0.786182
O O9 0.113613 0.152272 0.789150
O O10 0.229208 0.169035 0.000000
O O11 0.697727 0.033539 0.500000
O O12 0.606970 0.085452 0.298935
O O13 0.700484 0.998196 0.234319
O O14 0.561726 0.932237 0.763996
O O15 0.649841 0.949495 0.000000
O O16 0.981456 0.408254 0.500000
O O17 0.991986 0.333931 0.296258
O O18 0.989284 0.739892 0.500000
O O19 0.007778 0.769242 0.232207
O O20 0.996476 0.172345 0.000000
#
# Coordination Sequence:
#
# PCOD8226353 Si02
#       8
#     8   8   8   8   8   8   8   8
#     4  10  20  36  58  85 113 143 183 234 281 329
#     4   9  17  32  56  82 108 141 180 223 274 329
#     4   9  21  40  55  75 113 152 186 228 276 327
#     4  10  21  40  61  82 112 147 187 232 281 335
#     4  11  24  39  56  80 112 149 191 236 279 327
#     4  10  20  36  58  83 112 148 184 222 275 337
#     4   9  17  33  55  81 112 145 180 220 270 329
#     4  10  21  36  55  80 113 151 186 225 277 333
#
# _framework density 18.847805999999999
#
# number of rings (size 3 to 8) (size 9 to 14) (size 15 to 20)
#    0.000    2.250    1.250    1.125    1.750    5.000 
#    0.000    0.625    0.000    3.750    0.000    0.000 
#    0.000    0.000    0.000    0.000    0.000    0.000 
#
# Total GULP energy -793777.405510 kJ/mol
# GULP energy per Si atom -12402.771961 kJ/mol
# Density = 1.880491 g / cm^3
# Si number density = 18.847806 Si / 1000 Ang^3
#
#
#
# Elastic Constant Matrix: (Units=GPa)
#
#
# Indices 1 2 3 4 5 6 
#
# 1 39.7765 24.5620 22.7331 0.0000 0.0000 0.0000
# 2 24.5620 95.6548 44.9753 0.0000 0.0000 0.0000
# 3 22.7331 44.9753 61.2456 0.0000 0.0000 0.0000
# 4 0.0000 0.0000 0.0000 18.1975 0.0000 0.0000
# 5 0.0000 0.0000 0.0000 0.0000 29.1772 0.0000
# 6 0.0000 0.0000 0.0000 0.0000 0.0000 29.1548
#
#
#
# Elastic Compliance Matrix: (Units=1/GPa)
#
#
# Indices 1 2 3 4 5 6 
#
# 1 0.032949 -0.004140 -0.009190 0.000000 0.000000 0.000000
# 2 -0.004140 0.016487 -0.010571 0.000000 0.000000 0.000000
# 3 -0.009190 -0.010571 0.027502 0.000000 0.000000 0.000000
# 4 0.000000 0.000000 0.000000 0.054952 0.000000 0.000000
# 5 0.000000 0.000000 0.000000 0.000000 0.034273 0.000000
# 6 0.000000 0.000000 0.000000 0.000000 0.000000 0.034300
#
#
# Mechanical properties :
#
#
# Convention : Reuss Voigt Hill
#
# Bulk Modulus (GPa) = 34.32086 42.35754 38.33920
# Shear Modulus (GPa) = 19.38156 22.26633 20.82394
#
# Velocity S-wave (km/s) = 3.21022 3.44084 3.32753
# Velocity P-wave (km/s) = 5.65594 6.18935 5.92865
#
# Compressibility (1/GPa) = 0.02913680
#
# Stress axis : x y z
#
# Youngs Moduli (GPa) = 30.34993 60.65211 36.36148
#
# Poissons Ratio (x) = 0.25107 0.33417
# Poissons Ratio (y) = 0.12563 0.38438
# Poissons Ratio (z) = 0.27892 0.64115
#
# Static dielectric constant tensor:
#      x y z
#    x 3.503190 0.000000 0.000000 
#    y 0.000000 3.508520 0.000000 
#    z 0.000000 0.000000 3.363130 
# 
# 
# High freq. dielectric constant tensor:
#      x y z
#    x 1.736740 0.000000 0.000000 
#    y 0.000000 1.725670 0.000000 
#    z 0.000000 0.000000 1.724950 
# 
# From -- ./inp_files/6558.got.cif
#   From: 2010.03.12/outbox.cif.g09.slc.cpg/sg55_4_cif.got.tgz:6558.got - 2010.04.16 15:19:21.
