data_PCOD8226452
_publ_section_title
;
Structure prediction by ZEFSAII (Michael W. Deem and Ramdas Pophale) SiO2 
 PCOD8226452
Probable space group: P B A M
;
_chemical_formula_sum "Si O2"
_cell_formula_units_Z 56
_cell_length_a 14.406027
_cell_length_b 21.491840
_cell_length_c 9.328403
_cell_angle_alpha 90.000000
_cell_angle_beta 90.000000
_cell_angle_gamma 90.000000
_cell_volume 2888.185764
_symmetry_space_group_name_H-M "P B A M"
_symmetry_group_IT_number 55
_symmetry_cell_setting 'orthorhombic'
loop_
_space_group_symop_operation_xyz
x,y,z
-x,-y,z
1/2+x,1/2-y,-z
1/2-x,1/2+y,-z
-x,-y,-z
x,y,-z
1/2-x,1/2+y,z
1/2+x,1/2-y,z
loop_
_atom_site_type_symbol
_atom_site_label
_atom_site_fract_x
_atom_site_fract_y
_atom_site_fract_z
Si Si1 0.801949 0.118266 0.330372
Si Si2 0.989975 0.646941 0.340469
Si Si3 0.642630 0.031539 0.338056
Si Si4 0.663678 0.357803 0.164785
Si Si5 0.680326 0.231524 0.668994
Si Si6 0.002037 0.072807 0.668709
Si Si7 0.136593 0.589105 0.837173
O O1 0.792390 0.115573 0.500000
O O2 0.735449 0.063345 0.272041
O O3 0.764341 0.185852 0.280694
O O4 0.906696 0.105643 0.279980
O O5 0.026938 0.661322 0.500000
O O6 0.078379 0.645375 0.235282
O O7 0.940050 0.580621 0.337562
O O8 0.918460 0.700398 0.293476
O O9 0.660116 0.007125 0.500000
O O10 0.612084 0.974928 0.239940
O O11 0.687699 0.293223 0.239478
O O12 0.582753 0.393955 0.245304
O O13 0.754390 0.399878 0.176112
O O14 0.635126 0.346297 0.000000
O O15 0.687237 0.246279 0.500000
O O16 0.018781 0.082676 0.500000
O O17 0.000000 0.000000 0.707236
O O18 0.103678 0.584544 0.000000
#
# Coordination Sequence:
#
# PCOD8226452 Si02
#       7
#     8   8   8   8   8   8   8
#     4   8  16  33  58  85 109 135 174 225 274 323
#     4   9  19  35  57  83 107 135 174 220 268 318
#     4   9  17  33  57  83 110 137 169 214 266 317
#     4  11  25  40  52  74 111 148 183 225 270 320
#     4   9  19  38  60  80 104 137 180 226 272 324
#     4  10  20  36  61  89 112 141 185 232 279 331
#     4  11  23  35  49  75 111 147 179 212 257 315
#
# _framework density 19.389336
#
# number of rings (size 3 to 8) (size 9 to 14) (size 15 to 20)
#    0.000    2.429    0.000    3.857    0.000    7.714 
#    0.000    7.857    0.000    0.000    0.000    0.000 
#    0.000    0.000    0.000    0.000    0.000    0.000 
#
# Total GULP energy -694357.926321 kJ/mol
# GULP energy per Si atom -12399.248684 kJ/mol
# Density = 1.934520 g / cm^3
# Si number density = 19.389336 Si / 1000 Ang^3
#
#
#
# Elastic Constant Matrix: (Units=GPa)
#
#
# Indices 1 2 3 4 5 6 
#
# 1 92.3878 16.2469 35.9753 0.0000 0.0000 0.0000
# 2 16.2469 79.4383 32.4650 0.0000 0.0000 0.0000
# 3 35.9753 32.4650 77.2999 0.0000 0.0000 0.0000
# 4 0.0000 0.0000 0.0000 -12.6195 0.0000 0.0000
# 5 0.0000 0.0000 0.0000 0.0000 20.7815 0.0000
# 6 0.0000 0.0000 0.0000 0.0000 0.0000 21.2706
#
#
#
# Elastic Compliance Matrix: (Units=1/GPa)
#
#
# Indices 1 2 3 4 5 6 
#
# 1 0.013223 -0.000229 -0.006058 0.000000 0.000000 0.000000
# 2 -0.000229 0.015201 -0.006278 0.000000 0.000000 0.000000
# 3 -0.006058 -0.006278 0.018393 0.000000 0.000000 0.000000
# 4 0.000000 0.000000 0.000000 -0.079242 0.000000 0.000000
# 5 0.000000 0.000000 0.000000 0.000000 0.048120 0.000000
# 6 0.000000 0.000000 0.000000 0.000000 0.000000 0.047013
#
#
# Mechanical properties :
#
#
# Convention : Reuss Voigt Hill
#
# Bulk Modulus (GPa) = 46.10902 46.50004 46.30453
# Shear Modulus (GPa) = 52.59559 16.84909 34.72234
#
# Velocity S-wave (km/s) = 5.21392 2.95106 4.23637
# Velocity P-wave (km/s) = 7.75105 5.97043 6.91827
#
# Compressibility (1/GPa) = 0.02168773
#
# Stress axis : x y z
#
# Youngs Moduli (GPa) = 75.62524 65.78622 54.36975
#
# Poissons Ratio (x) = 0.01504 0.32937
# Poissons Ratio (y) = 0.01729 0.34132
# Poissons Ratio (z) = 0.45814 0.41299
#
# Static dielectric constant tensor:
#      x y z
#    x 3.743360 0.000000 0.000000 
#    y 0.000000 3.489180 0.000000 
#    z 0.000000 0.000000 3.405070 
# 
# 
# High freq. dielectric constant tensor:
#      x y z
#    x 1.764470 0.000000 0.000000 
#    y 0.000000 1.752750 0.000000 
#    z 0.000000 0.000000 1.731190 
# 
# From -- ./inp_files/6170.got.cif
#   From: 2010.03.12/outbox.cif.g09.slc.cpg/sg55_4_cif.got.tgz:6170.got - 2010.04.16 15:19:21.
