data_PCOD8226420
_publ_section_title
;
Structure prediction by ZEFSAII (Michael W. Deem and Ramdas Pophale) SiO2 
 PCOD8226420
Probable space group: P B A M
;
_chemical_formula_sum "Si O2"
_cell_formula_units_Z 48
_cell_length_a 28.026629
_cell_length_b 10.026790
_cell_length_c 8.499911
_cell_angle_alpha 90.000000
_cell_angle_beta 90.000000
_cell_angle_gamma 90.000000
_cell_volume 2388.620538
_symmetry_space_group_name_H-M "P B A M"
_symmetry_group_IT_number 55
_symmetry_cell_setting 'orthorhombic'
loop_
_space_group_symop_operation_xyz
x,y,z
-x,-y,z
1/2+x,1/2-y,-z
1/2-x,1/2+y,-z
-x,-y,-z
x,y,-z
1/2-x,1/2+y,z
1/2+x,1/2-y,z
loop_
_atom_site_type_symbol
_atom_site_label
_atom_site_fract_x
_atom_site_fract_y
_atom_site_fract_z
Si Si1 0.451085 0.655784 0.184685
Si Si2 0.450033 0.366552 0.317210
Si Si3 0.351014 0.243658 0.680780
Si Si4 0.307322 0.988919 0.817266
Si Si5 0.697614 0.509401 0.182178
Si Si6 0.145258 0.235523 0.682577
O O1 0.441527 0.500269 0.217784
O O2 0.501014 0.703028 0.261263
O O3 0.409349 0.744042 0.260795
O O4 0.452429 0.681345 0.000000
O O5 0.453385 0.406232 0.500000
O O6 0.406933 0.265530 0.283292
O O7 0.339367 0.274536 0.500000
O O8 0.318391 0.339192 0.786963
O O9 0.339437 0.091132 0.719257
O O10 0.252438 0.006649 0.768427
O O11 0.323088 0.839357 0.779071
O O12 0.314680 0.017316 0.000000
O O13 0.665707 0.411925 0.287459
O O14 0.689718 0.474390 0.000000
O O15 0.148028 0.270216 0.500000
#
# Coordination Sequence:
#
# PCOD8226420 Si02
#       6
#     8   8   8   8   8   8
#     4  11  21  35  60  90 119 154 198 245 298 355
#     4  10  20  36  59  89 122 153 195 247 298 352
#     4  11  23  39  62  91 122 159 199 245 299 355
#     4  11  25  42  60  86 123 162 200 248 301 356
#     4  11  23  40  63  89 119 158 204 250 297 352
#     4  12  24  40  62  89 122 159 201 250 300 355
#
# _framework density 20.095281
#
# number of rings (size 3 to 8) (size 9 to 14) (size 15 to 20)
#    0.000    1.000    1.667    7.000    0.000    8.667 
#    0.000    0.833    0.000    5.000    0.000    0.000 
#    0.000    0.000    0.000    0.000    0.000    0.000 
#
# Total GULP energy -595566.598138 kJ/mol
# GULP energy per Si atom -12407.637461 kJ/mol
# Density = 2.004954 g / cm^3
# Si number density = 20.095281 Si / 1000 Ang^3
#
#
#
# Elastic Constant Matrix: (Units=GPa)
#
#
# Indices 1 2 3 4 5 6 
#
# 1 131.9702 24.8780 56.0732 0.0000 0.0000 0.0000
# 2 24.8780 60.7259 12.2492 0.0000 0.0000 0.0000
# 3 56.0732 12.2492 72.1076 0.0000 0.0000 0.0000
# 4 0.0000 0.0000 0.0000 33.5758 0.0000 0.0000
# 5 0.0000 0.0000 0.0000 0.0000 31.7463 0.0000
# 6 0.0000 0.0000 0.0000 0.0000 0.0000 22.4349
#
#
#
# Elastic Compliance Matrix: (Units=1/GPa)
#
#
# Indices 1 2 3 4 5 6 
#
# 1 0.011856 -0.003104 -0.008692 0.000000 0.000000 0.000000
# 2 -0.003104 0.017864 -0.000621 0.000000 0.000000 0.000000
# 3 -0.008692 -0.000621 0.020733 0.000000 0.000000 0.000000
# 4 0.000000 0.000000 0.000000 0.029783 0.000000 0.000000
# 5 0.000000 0.000000 0.000000 0.000000 0.031500 0.000000
# 6 0.000000 0.000000 0.000000 0.000000 0.000000 0.044573
#
#
# Mechanical properties :
#
#
# Convention : Reuss Voigt Hill
#
# Bulk Modulus (GPa) = 39.03360 50.13385 44.58373
# Shear Modulus (GPa) = 26.35972 28.99162 27.67567
#
# Velocity S-wave (km/s) = 3.62572 3.80242 3.71512
# Velocity P-wave (km/s) = 6.08229 6.65433 6.37473
#
# Compressibility (1/GPa) = 0.02561895
#
# Stress axis : x y z
#
# Youngs Moduli (GPa) = 84.34666 55.97771 48.23220
#
# Poissons Ratio (x) = 0.17374 0.41925
# Poissons Ratio (y) = 0.26179 0.02996
# Poissons Ratio (z) = 0.73316 0.03477
#
# Static dielectric constant tensor:
#      x y z
#    x 3.947910 0.000000 0.000000 
#    y 0.000000 3.306370 0.000000 
#    z 0.000000 0.000000 3.657510 
# 
# 
# High freq. dielectric constant tensor:
#      x y z
#    x 1.802840 0.000000 0.000000 
#    y 0.000000 1.758970 0.000000 
#    z 0.000000 0.000000 1.798060 
# 
# From -- ./inp_files/2754.got.cif
#   From: 2010.03.12/outbox.cif.g09.slc.cpg/sg55_2_cif.got.tgz:2754.got - 2010.04.16 15:19:21.
