data_PCOD8226011
_publ_section_title
;
Structure prediction by ZEFSAII (Michael W. Deem and Ramdas Pophale) SiO2 
 PCOD8226011
Probable space group: P B A M
;
_chemical_formula_sum "Si O2"
_cell_formula_units_Z 48
_cell_length_a 28.608237
_cell_length_b 10.021381
_cell_length_c 8.979254
_cell_angle_alpha 90.000000
_cell_angle_beta 90.000000
_cell_angle_gamma 90.000000
_cell_volume 2574.298630
_symmetry_space_group_name_H-M "P B A M"
_symmetry_group_IT_number 55
_symmetry_cell_setting 'orthorhombic'
loop_
_space_group_symop_operation_xyz
x,y,z
-x,-y,z
1/2+x,1/2-y,-z
1/2-x,1/2+y,-z
-x,-y,-z
x,y,-z
1/2-x,1/2+y,z
1/2+x,1/2-y,z
loop_
_atom_site_type_symbol
_atom_site_label
_atom_site_fract_x
_atom_site_fract_y
_atom_site_fract_z
Si Si1 0.541286 0.827063 0.676209
Si Si2 0.624605 0.329523 0.173310
Si Si3 0.714189 0.653603 0.326778
Si Si4 0.231366 0.115876 0.825315
Si Si5 0.107203 0.903765 0.327360
Si Si6 0.562266 0.120477 0.676021
O O1 0.545692 0.828702 0.500000
O O2 0.571052 0.703932 0.741298
O O3 0.487108 0.811991 0.722151
O O4 0.562232 0.967659 0.733488
O O5 0.679472 0.331680 0.209338
O O6 0.599165 0.457860 0.242799
O O7 0.604434 0.195114 0.243609
O O8 0.614336 0.330603 0.000000
O O9 0.727483 0.642856 0.500000
O O10 0.738224 0.532286 0.238772
O O11 0.732177 0.791256 0.259266
O O12 0.658828 0.653000 0.301931
O O13 0.242410 0.114095 0.000000
O O14 0.097074 0.931319 0.500000
O O15 0.569981 0.128774 0.500000
#
# Coordination Sequence:
#
# PCOD8226011 Si02
#       6
#     8   8   8   8   8   8
#     4   8  16  32  53  76 100 129 168 208 252 305
#     4  10  21  35  50  73 104 136 170 206 247 299
#     4  10  20  34  54  79 103 130 172 222 259 295
#     4  10  21  37  54  73 104 142 172 205 258 318
#     4   9  18  34  54  75 100 131 167 208 252 298
#     4   9  17  32  54  76 100 132 168 209 253 299
#
# _framework density 18.645855999999998
#
# number of rings (size 3 to 8) (size 9 to 14) (size 15 to 20)
#    0.000    2.667    0.000    2.500    0.000    4.667 
#    0.000    8.333    0.000    0.000    0.000    0.000 
#    0.000    0.000    0.000    0.000    0.000    0.000 
#
# Total GULP energy -595257.540057 kJ/mol
# GULP energy per Si atom -12401.198751 kJ/mol
# Density = 1.860342 g / cm^3
# Si number density = 18.645856 Si / 1000 Ang^3
#
#
#
# Elastic Constant Matrix: (Units=GPa)
#
#
# Indices 1 2 3 4 5 6 
#
# 1 23.0956 4.4566 15.6904 0.0000 0.0000 0.0000
# 2 4.4566 41.4592 12.2802 0.0000 0.0000 0.0000
# 3 15.6904 12.2802 53.6785 0.0000 0.0000 0.0000
# 4 0.0000 0.0000 0.0000 15.1465 0.0000 0.0000
# 5 0.0000 0.0000 0.0000 0.0000 20.9702 0.0000
# 6 0.0000 0.0000 0.0000 0.0000 0.0000 41.9536
#
#
#
# Elastic Compliance Matrix: (Units=1/GPa)
#
#
# Indices 1 2 3 4 5 6 
#
# 1 0.054084 -0.001213 -0.015531 0.000000 0.000000 0.000000
# 2 -0.001213 0.025901 -0.005571 0.000000 0.000000 0.000000
# 3 -0.015531 -0.005571 0.024444 0.000000 0.000000 0.000000
# 4 0.000000 0.000000 0.000000 0.066022 0.000000 0.000000
# 5 0.000000 0.000000 0.000000 0.000000 0.047687 0.000000
# 6 0.000000 0.000000 0.000000 0.000000 0.000000 0.023836
#
#
# Mechanical properties :
#
#
# Convention : Reuss Voigt Hill
#
# Bulk Modulus (GPa) = 16.72308 20.34306 18.53307
# Shear Modulus (GPa) = 16.31133 21.33448 18.82290
#
# Velocity S-wave (km/s) = 2.96090 3.38626 3.18070
# Velocity P-wave (km/s) = 4.54726 5.12084 4.84255
#
# Compressibility (1/GPa) = 0.05979758
#
# Stress axis : x y z
#
# Youngs Moduli (GPa) = 18.48983 38.60920 40.91039
#
# Poissons Ratio (x) = 0.04684 0.63539
# Poissons Ratio (y) = 0.02243 0.22790
# Poissons Ratio (z) = 0.28717 0.21508
#
# Static dielectric constant tensor:
#      x y z
#    x 3.420390 0.000000 0.000000 
#    y 0.000000 3.587060 0.000000 
#    z 0.000000 0.000000 3.258500 
# 
# 
# High freq. dielectric constant tensor:
#      x y z
#    x 1.717920 0.000000 0.000000 
#    y 0.000000 1.731750 0.000000 
#    z 0.000000 0.000000 1.708400 
# 
# From -- ./inp_files/2756.got.cif
#   From: 2010.03.12/outbox.cif.g09.slc.cpg/sg55_2_cif.got.tgz:2756.got - 2010.04.16 15:19:21.
