data_PCOD8226879
_publ_section_title
;
Structure prediction by ZEFSAII (Michael W. Deem and Ramdas Pophale) SiO2 
 PCOD8226879
Probable space group: P B A M
;
_chemical_formula_sum "Si O2"
_cell_formula_units_Z 56
_cell_length_a 19.724331
_cell_length_b 16.255026
_cell_length_c 9.358054
_cell_angle_alpha 90.000000
_cell_angle_beta 90.000000
_cell_angle_gamma 90.000000
_cell_volume 3000.374718
_symmetry_space_group_name_H-M "P B A M"
_symmetry_group_IT_number 55
_symmetry_cell_setting 'orthorhombic'
loop_
_space_group_symop_operation_xyz
x,y,z
-x,-y,z
1/2+x,1/2-y,-z
1/2-x,1/2+y,-z
-x,-y,-z
x,y,-z
1/2-x,1/2+y,z
1/2+x,1/2-y,z
loop_
_atom_site_type_symbol
_atom_site_label
_atom_site_fract_x
_atom_site_fract_y
_atom_site_fract_z
Si Si1 0.164676 0.522658 0.831574
Si Si2 0.182734 0.990814 0.834653
Si Si3 0.854933 0.639118 0.665703
Si Si4 0.114641 0.677200 0.665158
Si Si5 0.200967 0.831699 0.335380
Si Si6 0.472277 0.739362 0.664422
Si Si7 0.546434 0.424404 0.166801
O O1 0.244594 0.529547 0.794346
O O2 0.133402 0.440974 0.761890
O O3 0.126201 0.599300 0.764673
O O4 0.151557 0.520093 0.000000
O O5 0.124844 0.056577 0.795205
O O6 0.168755 0.907172 0.750003
O O7 0.179393 0.966623 0.000000
O O8 0.865629 0.614811 0.500000
O O9 0.780835 0.676758 0.692995
O O10 0.907971 0.707797 0.715911
O O11 0.127645 0.653499 0.500000
O O12 0.166225 0.747899 0.716272
O O13 0.038369 0.706160 0.690215
O O14 0.184008 0.848380 0.500000
O O15 0.464677 0.714009 0.500000
O O16 0.477798 0.656454 0.753228
O O17 0.500000 0.500000 0.218105
O O18 0.536378 0.408264 0.000000
#
# Coordination Sequence:
#
# PCOD8226879 Si02
#       7
#     8   8   8   8   8   8   8
#     4  10  21  36  55  80 106 139 183 225 268 319
#     4   9  19  35  53  78 109 139 176 221 268 318
#     4   9  19  37  56  77 106 140 178 223 273 320
#     4  10  21  36  54  79 110 141 177 223 272 320
#     4   9  18  33  55  79 104 138 180 220 263 319
#     4  10  22  37  55  81 110 142 181 224 272 322
#     4  10  21  36  55  80 113 148 179 216 269 329
#
# _framework density 18.664335999999999
#
# number of rings (size 3 to 8) (size 9 to 14) (size 15 to 20)
#    0.000    2.429    0.000    1.286    2.000    3.714 
#    0.000    2.857    0.000    0.000    0.000    0.000 
#    0.000    0.000    0.000    0.000    0.000    0.000 
#
# Total GULP energy -694620.350911 kJ/mol
# GULP energy per Si atom -12403.934838 kJ/mol
# Density = 1.862185 g / cm^3
# Si number density = 18.664336 Si / 1000 Ang^3
#
#
#
# Elastic Constant Matrix: (Units=GPa)
#
#
# Indices 1 2 3 4 5 6 
#
# 1 69.9773 30.5320 26.3205 0.0000 0.0000 0.0000
# 2 30.5320 78.4111 41.5899 0.0000 0.0000 0.0000
# 3 26.3205 41.5899 59.0404 0.0000 0.0000 0.0000
# 4 0.0000 0.0000 0.0000 -0.0700 0.0000 0.0000
# 5 0.0000 0.0000 0.0000 0.0000 21.1797 0.0000
# 6 0.0000 0.0000 0.0000 0.0000 0.0000 25.4182
#
#
#
# Elastic Compliance Matrix: (Units=1/GPa)
#
#
# Indices 1 2 3 4 5 6 
#
# 1 0.018078 -0.004414 -0.004950 0.000000 0.000000 0.000000
# 2 -0.004414 0.021438 -0.013134 0.000000 0.000000 0.000000
# 3 -0.004950 -0.013134 0.028396 0.000000 0.000000 0.000000
# 4 0.000000 0.000000 0.000000-14.280828 0.000000 0.000000
# 5 0.000000 0.000000 0.000000 0.000000 0.047215 0.000000
# 6 0.000000 0.000000 0.000000 0.000000 0.000000 0.039342
#
#
# Mechanical properties :
#
#
# Convention : Reuss Voigt Hill
#
# Bulk Modulus (GPa) = 43.63607 44.92373 44.27990
# Shear Modulus (GPa) = -0.35527 16.57132 8.10802
#
# Velocity S-wave (km/s) = -0.43676 2.98293 2.08652
# Velocity P-wave (km/s) = 4.81412 5.99878 5.43880
#
# Compressibility (1/GPa) = 0.02291682
#
# Stress axis : x y z
#
# Youngs Moduli (GPa) = 55.31585 46.64520 35.21561
#
# Poissons Ratio (x) = 0.20588 0.17432
# Poissons Ratio (y) = 0.24415 0.46253
# Poissons Ratio (z) = 0.27382 0.61265
#
# Static dielectric constant tensor:
#      x y z
#    x 3.577090 0.000000 0.000000 
#    y 0.000000 3.312310 0.000000 
#    z 0.000000 0.000000 3.370470 
# 
# 
# High freq. dielectric constant tensor:
#      x y z
#    x 1.734670 0.000000 0.000000 
#    y 0.000000 1.722160 0.000000 
#    z 0.000000 0.000000 1.719550 
# 
# From -- ./inp_files/5972.got.cif
#   From: 2010.03.12/outbox.cif.g09.slc.cpg/sg55_3_cif.got.tgz:5972.got - 2010.04.16 15:19:21.
