data_PCOD8226380
_publ_section_title
;
Structure prediction by ZEFSAII (Michael W. Deem and Ramdas Pophale) SiO2 
 PCOD8226380
Probable space group: P B A M
;
_chemical_formula_sum "Si O2"
_cell_formula_units_Z 64
_cell_length_a 27.938182
_cell_length_b 12.392599
_cell_length_c 8.862251
_cell_angle_alpha 90.000000
_cell_angle_beta 90.000000
_cell_angle_gamma 90.000000
_cell_volume 3068.347797
_symmetry_space_group_name_H-M "P B A M"
_symmetry_group_IT_number 55
_symmetry_cell_setting 'orthorhombic'
loop_
_space_group_symop_operation_xyz
x,y,z
-x,-y,z
1/2+x,1/2-y,-z
1/2-x,1/2+y,-z
-x,-y,-z
x,y,-z
1/2-x,1/2+y,z
1/2+x,1/2-y,z
loop_
_atom_site_type_symbol
_atom_site_label
_atom_site_fract_x
_atom_site_fract_y
_atom_site_fract_z
Si Si1 0.437027 0.246346 0.828875
Si Si2 0.169909 0.708094 0.826357
Si Si3 0.702509 0.575862 0.326053
Si Si4 0.880738 0.661185 0.178082
Si Si5 0.191374 0.496427 0.673871
Si Si6 0.054705 0.991910 0.826226
Si Si7 0.982162 0.617185 0.676668
Si Si8 0.135506 0.118601 0.323480
O O1 0.386676 0.186947 0.803770
O O2 0.426971 0.371607 0.796525
O O3 0.476181 0.201913 0.713999
O O4 0.455856 0.230340 0.000000
O O5 0.184328 0.826966 0.775230
O O6 0.197692 0.619717 0.727638
O O7 0.184587 0.695289 0.000000
O O8 0.689896 0.599843 0.500000
O O9 0.758891 0.564486 0.301134
O O10 0.676395 0.465856 0.273755
O O11 0.849862 0.558947 0.228701
O O12 0.934517 0.650569 0.237181
O O13 0.855196 0.768781 0.239784
O O14 0.882295 0.665618 0.000000
O O15 0.175917 0.494924 0.500000
O O16 0.083625 0.073518 0.721330
O O17 0.061724 0.026881 0.000000
O O18 0.000000 0.000000 0.777007
O O19 0.971261 0.619476 0.500000
O O20 0.000000 0.500000 0.730605
O O21 0.136962 0.142209 0.500000
#
# Coordination Sequence:
#
# PCOD8226380 Si02
#       8
#     8   8   8   8   8   8   8   8
#     4  10  21  37  59  91 129 167 207 261 320 381
#     4  11  23  41  67  99 133 167 213 268 324 387
#     4  10  24  44  67  94 126 170 214 265 330 388
#     4  12  26  44  66  96 133 175 218 269 330 387
#     4  11  25  45  68  94 129 171 219 270 326 390
#     4  10  20  36  58  87 124 167 209 256 319 379
#     4  11  24  41  64  94 128 171 220 269 320 384
#     4  11  23  41  65  94 128 168 216 265 320 387
#
# _framework density 20.858131
#
# number of rings (size 3 to 8) (size 9 to 14) (size 15 to 20)
#    0.000    1.250    1.250    4.125    1.750    7.250 
#    0.000    0.000    0.000    0.000    0.000    0.000 
#    0.000    0.000    0.000    0.000    0.000    0.000 
#
# Total GULP energy -794063.398561 kJ/mol
# GULP energy per Si atom -12407.240603 kJ/mol
# Density = 2.081066 g / cm^3
# Si number density = 20.858131 Si / 1000 Ang^3
#
#
#
# Elastic Constant Matrix: (Units=GPa)
#
#
# Indices 1 2 3 4 5 6 
#
# 1 73.3600 28.7234 42.4552 0.0000 0.0000 0.0000
# 2 28.7234 103.0354 50.7214 0.0000 0.0000 0.0000
# 3 42.4552 50.7214 107.9052 0.0000 0.0000 0.0000
# 4 0.0000 0.0000 0.0000 37.1721 0.0000 0.0000
# 5 0.0000 0.0000 0.0000 0.0000 27.0522 0.0000
# 6 0.0000 0.0000 0.0000 0.0000 0.0000 33.9071
#
#
#
# Elastic Compliance Matrix: (Units=1/GPa)
#
#
# Indices 1 2 3 4 5 6 
#
# 1 0.017958 -0.001988 -0.006131 0.000000 0.000000 0.000000
# 2 -0.001988 0.012847 -0.005257 0.000000 0.000000 0.000000
# 3 -0.006131 -0.005257 0.014151 0.000000 0.000000 0.000000
# 4 0.000000 0.000000 0.000000 0.026902 0.000000 0.000000
# 5 0.000000 0.000000 0.000000 0.000000 0.036966 0.000000
# 6 0.000000 0.000000 0.000000 0.000000 0.000000 0.029492
#
#
# Mechanical properties :
#
#
# Convention : Reuss Voigt Hill
#
# Bulk Modulus (GPa) = 54.93231 58.67786 56.80509
# Shear Modulus (GPa) = 29.21659 30.45300 29.83480
#
# Velocity S-wave (km/s) = 3.74669 3.82515 3.78612
# Velocity P-wave (km/s) = 6.71642 6.90666 6.81220
#
# Compressibility (1/GPa) = 0.01820422
#
# Stress axis : x y z
#
# Youngs Moduli (GPa) = 55.68549 77.83687 70.66823
#
# Poissons Ratio (x) = 0.15474 0.43327
# Poissons Ratio (y) = 0.11071 0.37149
# Poissons Ratio (z) = 0.34141 0.40917
#
# Static dielectric constant tensor:
#      x y z
#    x 3.759290 0.000000 0.000000 
#    y 0.000000 3.860350 0.000000 
#    z 0.000000 0.000000 3.730880 
# 
# 
# High freq. dielectric constant tensor:
#      x y z
#    x 1.821330 0.000000 0.000000 
#    y 0.000000 1.828780 0.000000 
#    z 0.000000 0.000000 1.817660 
# 
# From -- ./inp_files/10736.got.cif
#   From: 2010.03.12/outbox.cif.g09.slc.cpg/sg55_6_cif.got.tgz:10736.got - 2010.04.16 15:19:21.
