data_PCOD8226077
_publ_section_title
;
Structure prediction by ZEFSAII (Michael W. Deem and Ramdas Pophale) SiO2 
 PCOD8226077
Probable space group: P B A M
;
_chemical_formula_sum "Si O2"
_cell_formula_units_Z 64
_cell_length_a 9.343150
_cell_length_b 25.019273
_cell_length_c 13.778042
_cell_angle_alpha 90.000000
_cell_angle_beta 90.000000
_cell_angle_gamma 90.000000
_cell_volume 3220.738847
_symmetry_space_group_name_H-M "P B A M"
_symmetry_group_IT_number 55
_symmetry_cell_setting 'orthorhombic'
loop_
_space_group_symop_operation_xyz
x,y,z
-x,-y,z
1/2+x,1/2-y,-z
1/2-x,1/2+y,-z
-x,-y,-z
x,y,-z
1/2-x,1/2+y,z
1/2+x,1/2-y,z
loop_
_atom_site_type_symbol
_atom_site_label
_atom_site_fract_x
_atom_site_fract_y
_atom_site_fract_z
Si Si1 0.104172 0.886517 0.773858
Si Si2 0.124442 0.632760 0.389182
Si Si3 0.165399 0.985137 0.892402
Si Si4 0.505323 0.725395 0.200728
Si Si5 0.781820 0.306395 0.113277
Si Si6 0.295581 0.850073 0.609757
Si Si7 0.332550 0.730565 0.389856
Si Si8 0.279822 0.586232 0.779123
O O1 0.183950 0.926311 0.847513
O O2 0.099811 0.827527 0.821812
O O3 0.194871 0.886754 0.675111
O O4 0.945154 0.906766 0.749486
O O5 0.142516 0.613840 0.500000
O O6 0.210071 0.687433 0.369371
O O7 0.187668 0.587070 0.319529
O O8 0.960697 0.642383 0.361852
O O9 0.248656 0.029192 0.828905
O O10 0.232323 0.984359 0.000000
O O11 0.000000 0.000000 0.897954
O O12 0.364848 0.725062 0.133541
O O13 0.592774 0.778372 0.174962
O O14 0.462042 0.722620 0.314569
O O15 0.769786 0.367627 0.146927
O O16 0.818512 0.304304 0.000000
O O17 0.266841 0.867993 0.500000
O O18 0.257848 0.787811 0.626262
O O19 0.394921 0.726377 0.500000
#
# Coordination Sequence:
#
# PCOD8226077 Si02
#       8
#     8   8   8   8   8   8   8   8
#     4  10  21  35  57  86 115 149 190 246 296 343
#     4  10  20  36  57  84 117 155 193 233 287 352
#     4   9  19  38  63  87 110 145 198 252 299 348
#     4  11  22  37  54  87 119 152 191 238 297 359
#     4  11  22  36  56  82 117 154 191 238 293 353
#     4  10  22  35  54  84 121 160 195 230 285 352
#     4  10  20  34  56  84 118 157 196 236 283 349
#     4  10  20  37  61  86 113 148 200 246 292 345
#
# _framework density 19.871216
#
# number of rings (size 3 to 8) (size 9 to 14) (size 15 to 20)
#    0.000    1.875    2.500    2.250    1.750    4.500 
#    0.000    1.250    0.000    6.000    0.000    0.000 
#    0.000    0.000    0.000    0.000    0.000    0.000 
#
# Total GULP energy -793722.676442 kJ/mol
# GULP energy per Si atom -12401.916819 kJ/mol
# Density = 1.982599 g / cm^3
# Si number density = 19.871216 Si / 1000 Ang^3
#
#
#
# Elastic Constant Matrix: (Units=GPa)
#
#
# Indices 1 2 3 4 5 6 
#
# 1 68.5010 29.4165 53.5845 0.0000 0.0000 0.0000
# 2 29.4165 83.5033 57.2068 0.0000 0.0000 0.0000
# 3 53.5845 57.2068 145.0083 0.0000 0.0000 0.0000
# 4 0.0000 0.0000 0.0000 30.5991 0.0000 0.0000
# 5 0.0000 0.0000 0.0000 0.0000 27.8919 0.0000
# 6 0.0000 0.0000 0.0000 0.0000 0.0000 16.5712
#
#
#
# Elastic Compliance Matrix: (Units=1/GPa)
#
#
# Indices 1 2 3 4 5 6 
#
# 1 0.021019 -0.002855 -0.006641 0.000000 0.000000 0.000000
# 2 -0.002855 0.016799 -0.005572 0.000000 0.000000 0.000000
# 3 -0.006641 -0.005572 0.011548 0.000000 0.000000 0.000000
# 4 0.000000 0.000000 0.000000 0.032681 0.000000 0.000000
# 5 0.000000 0.000000 0.000000 0.000000 0.035853 0.000000
# 6 0.000000 0.000000 0.000000 0.000000 0.000000 0.060346
#
#
# Mechanical properties :
#
#
# Convention : Reuss Voigt Hill
#
# Bulk Modulus (GPa) = 52.00174 64.15867 58.08021
# Shear Modulus (GPa) = 23.27840 25.46611 24.37226
#
# Velocity S-wave (km/s) = 3.42638 3.58377 3.50596
# Velocity P-wave (km/s) = 6.47145 7.03433 6.75875
#
# Compressibility (1/GPa) = 0.01923012
#
# Stress axis : x y z
#
# Youngs Moduli (GPa) = 47.57575 59.52810 86.59231
#
# Poissons Ratio (x) = 0.16996 0.57504
# Poissons Ratio (y) = 0.13583 0.48251
# Poissons Ratio (z) = 0.31594 0.33170
#
# Static dielectric constant tensor:
#      x y z
#    x 3.446300 0.000000 0.000000 
#    y 0.000000 3.550760 0.000000 
#    z 0.000000 0.000000 3.765230 
# 
# 
# High freq. dielectric constant tensor:
#      x y z
#    x 1.762000 0.000000 0.000000 
#    y 0.000000 1.754440 0.000000 
#    z 0.000000 0.000000 1.782250 
# 
# From -- ./inp_files/17813.got.cif
#   From: 2010.03.12/outbox.cif.g09.slc.cpg/sg55_9_cif.got.tgz:17813.got - 2010.04.16 15:19:21.
