data_PCOD8226493
_publ_section_title
;
Structure prediction by ZEFSAII (Michael W. Deem and Ramdas Pophale) SiO2 
 PCOD8226493
Probable space group: P B A M
;
_chemical_formula_sum "Si O2"
_cell_formula_units_Z 64
_cell_length_a 20.619281
_cell_length_b 9.368215
_cell_length_c 16.160518
_cell_angle_alpha 90.000000
_cell_angle_beta 90.000000
_cell_angle_gamma 90.000000
_cell_volume 3121.660318
_symmetry_space_group_name_H-M "P B A M"
_symmetry_group_IT_number 55
_symmetry_cell_setting 'orthorhombic'
loop_
_space_group_symop_operation_xyz
x,y,z
-x,-y,z
1/2+x,1/2-y,-z
1/2-x,1/2+y,-z
-x,-y,-z
x,y,-z
1/2-x,1/2+y,z
1/2+x,1/2-y,z
loop_
_atom_site_type_symbol
_atom_site_label
_atom_site_fract_x
_atom_site_fract_y
_atom_site_fract_z
Si Si1 0.380871 0.135812 0.740717
Si Si2 0.055339 0.107696 0.316928
Si Si3 0.780658 0.588174 0.908013
Si Si4 0.136724 0.322041 0.234332
Si Si5 0.834770 0.280995 0.094809
Si Si6 0.976865 0.337332 0.404886
Si Si7 0.827413 0.016527 0.409161
Si Si8 0.244724 0.722253 0.658943
O O1 0.390816 0.207448 0.833174
O O2 0.422720 0.201523 0.665025
O O3 0.303797 0.153077 0.725847
O O4 0.399265 0.969655 0.744108
O O5 0.082347 0.198550 0.239316
O O6 0.033605 0.221428 0.387965
O O7 0.113421 0.008231 0.347598
O O8 0.000000 0.000000 0.286428
O O9 0.834464 0.673920 0.856880
O O10 0.707576 0.639141 0.885824
O O11 0.787127 0.418398 0.895739
O O12 0.796454 0.637098 0.000000
O O13 0.195004 0.299894 0.298573
O O14 0.863458 0.276402 0.000000
O O15 0.951782 0.315139 0.500000
O O16 0.000000 0.500000 0.394703
O O17 0.857242 0.009348 0.500000
O O18 0.795940 0.169501 0.395966
O O19 0.770865 0.900424 0.400531
#
# Coordination Sequence:
#
# PCOD8226493 Si02
#       8
#     8   8   8   8   8   8   8   8
#     4  11  20  37  62  83 119 153 190 244 294 349
#     4  11  24  42  60  81 111 155 208 252 291 337
#     4   9  17  31  55  86 119 151 182 227 287 360
#     4  10  20  37  57  85 121 150 188 240 290 351
#     4   9  18  32  56  87 120 152 186 228 287 360
#     4  11  24  42  62  83 108 153 209 250 293 346
#     4  11  24  39  58  82 118 153 191 247 294 352
#     4  11  21  36  56  89 115 151 186 224 304 363
#
# _framework density 20.501909999999999
#
# number of rings (size 3 to 8) (size 9 to 14) (size 15 to 20)
#    0.000    1.625    3.750    1.500    0.000    3.000 
#    2.250    0.000    0.000    1.500    0.000    0.000 
#    0.000    0.000    0.000    0.000    0.000    0.000 
#
# Total GULP energy -793175.368503 kJ/mol
# GULP energy per Si atom -12393.365133 kJ/mol
# Density = 2.045525 g / cm^3
# Si number density = 20.501910 Si / 1000 Ang^3
#
#
#
# Elastic Constant Matrix: (Units=GPa)
#
#
# Indices 1 2 3 4 5 6 
#
# 1 64.9073 16.0791 23.0904 0.0000 0.0000 0.0000
# 2 16.0791 61.2104 4.0558 0.0000 0.0000 0.0000
# 3 23.0904 4.0558 96.4821 0.0000 0.0000 0.0000
# 4 0.0000 0.0000 0.0000 12.0680 0.0000 0.0000
# 5 0.0000 0.0000 0.0000 0.0000 30.1428 0.0000
# 6 0.0000 0.0000 0.0000 0.0000 0.0000 35.2539
#
#
#
# Elastic Compliance Matrix: (Units=1/GPa)
#
#
# Indices 1 2 3 4 5 6 
#
# 1 0.017972 -0.004448 -0.004114 0.000000 0.000000 0.000000
# 2 -0.004448 0.017484 0.000330 0.000000 0.000000 0.000000
# 3 -0.004114 0.000330 0.011335 0.000000 0.000000 0.000000
# 4 0.000000 0.000000 0.000000 0.082864 0.000000 0.000000
# 5 0.000000 0.000000 0.000000 0.000000 0.033175 0.000000
# 6 0.000000 0.000000 0.000000 0.000000 0.000000 0.028366
#
#
# Mechanical properties :
#
#
# Convention : Reuss Voigt Hill
#
# Bulk Modulus (GPa) = 32.97560 34.33893 33.65726
# Shear Modulus (GPa) = 22.95993 27.45123 25.20558
#
# Velocity S-wave (km/s) = 3.35011 3.66315 3.51012
# Velocity P-wave (km/s) = 5.57525 5.88872 5.73413
#
# Compressibility (1/GPa) = 0.03032546
#
# Stress axis : x y z
#
# Youngs Moduli (GPa) = 55.64161 57.19585 88.21938
#
# Poissons Ratio (x) = 0.25443 0.36295
# Poissons Ratio (y) = 0.24752 -0.02908
# Poissons Ratio (z) = 0.22892 -0.01885
#
# Static dielectric constant tensor:
#      x y z
#    x 3.519260 0.000000 0.000000 
#    y 0.000000 3.878420 0.000000 
#    z 0.000000 0.000000 3.829140 
# 
# 
# High freq. dielectric constant tensor:
#      x y z
#    x 1.770360 0.000000 0.000000 
#    y 0.000000 1.816200 0.000000 
#    z 0.000000 0.000000 1.796640 
# 
# From -- ./inp_files/21951.got.cif
#   From: 2010.03.12/outbox.cif.g09.slc.cpg/sg55_11_cif.got.tgz:21951.got - 2010.04.16 15:19:21.
