data_PCOD8226261
_publ_section_title
;
Structure prediction by ZEFSAII (Michael W. Deem and Ramdas Pophale) SiO2 
 PCOD8226261
Probable space group: P B A M
;
_chemical_formula_sum "Si O2"
_cell_formula_units_Z 64
_cell_length_a 9.934428
_cell_length_b 19.125676
_cell_length_c 17.723977
_cell_angle_alpha 90.000000
_cell_angle_beta 90.000000
_cell_angle_gamma 90.000000
_cell_volume 3367.602619
_symmetry_space_group_name_H-M "P B A M"
_symmetry_group_IT_number 55
_symmetry_cell_setting 'orthorhombic'
loop_
_space_group_symop_operation_xyz
x,y,z
-x,-y,z
1/2+x,1/2-y,-z
1/2-x,1/2+y,-z
-x,-y,-z
x,y,-z
1/2-x,1/2+y,z
1/2+x,1/2-y,z
loop_
_atom_site_type_symbol
_atom_site_label
_atom_site_fract_x
_atom_site_fract_y
_atom_site_fract_z
Si Si1 0.042290 0.812835 0.678747
Si Si2 0.354333 0.974159 0.161894
Si Si3 0.686063 0.184235 0.144778
Si Si4 0.988919 0.196212 0.857985
Si Si5 0.871933 0.544404 0.661869
Si Si6 0.614996 0.446845 0.911947
Si Si7 0.397013 0.439617 0.417627
Si Si8 0.839208 0.699841 0.678316
O O1 0.021088 0.815902 0.768322
O O2 0.931677 0.760797 0.644586
O O3 0.030534 0.889092 0.642711
O O4 0.187950 0.785629 0.650885
O O5 0.335500 0.897320 0.125270
O O6 0.338235 0.972233 0.251608
O O7 0.500000 0.000000 0.136962
O O8 0.249431 0.031272 0.131888
O O9 0.569985 0.235347 0.111685
O O10 0.670010 0.198635 0.232375
O O11 0.834676 0.203772 0.112970
O O12 0.068131 0.130880 0.892205
O O13 0.740962 0.526363 0.613167
O O14 0.901626 0.626680 0.650228
O O15 0.000000 0.500000 0.633351
O O16 0.500000 0.500000 0.885844
O O17 0.645253 0.452848 0.000000
O O18 0.500000 0.500000 0.430872
O O19 0.370110 0.403945 0.500000
#
# Coordination Sequence:
#
# PCOD8226261 Si02
#       8
#     8   8   8   8   8   8   8   8
#     4   9  18  33  54  77 107 144 179 228 272 326
#     4  10  21  37  61  88 117 148 195 248 290 343
#     4   9  18  34  54  84 113 140 186 238 288 331
#     4  10  20  35  59  83 111 150 191 237 285 343
#     4   9  19  35  57  85 110 145 189 232 276 338
#     4  11  24  40  58  83 116 152 194 236 289 354
#     4  10  22  36  52  79 115 146 182 230 281 336
#     4   8  16  31  50  80 108 133 177 227 271 315
#
# _framework density 19.004615999999999
#
# number of rings (size 3 to 8) (size 9 to 14) (size 15 to 20)
#    0.000    2.500    1.250    0.750    3.500    1.500 
#    4.500    3.750    0.000    0.000    0.000    0.000 
#    0.000    0.000    0.000    0.000    0.000    0.000 
#
# Total GULP energy -793157.504194 kJ/mol
# GULP energy per Si atom -12393.086003 kJ/mol
# Density = 1.896136 g / cm^3
# Si number density = 19.004616 Si / 1000 Ang^3
#
#
#
# Elastic Constant Matrix: (Units=GPa)
#
#
# Indices 1 2 3 4 5 6 
#
# 1 137.8723 67.5105 28.2092 0.0000 0.0000 0.0000
# 2 67.5105 85.8096 10.0523 0.0000 0.0000 0.0000
# 3 28.2092 10.0523 37.2042 0.0000 0.0000 0.0000
# 4 0.0000 0.0000 0.0000 11.2099 0.0000 0.0000
# 5 0.0000 0.0000 0.0000 0.0000 19.3297 0.0000
# 6 0.0000 0.0000 0.0000 0.0000 0.0000 48.2305
#
#
#
# Elastic Compliance Matrix: (Units=1/GPa)
#
#
# Indices 1 2 3 4 5 6 
#
# 1 0.013639 -0.009830 -0.007685 0.000000 0.000000 0.000000
# 2 -0.009830 0.019120 0.002287 0.000000 0.000000 0.000000
# 3 -0.007685 0.002287 0.032088 0.000000 0.000000 0.000000
# 4 0.000000 0.000000 0.000000 0.089207 0.000000 0.000000
# 5 0.000000 0.000000 0.000000 0.000000 0.051734 0.000000
# 6 0.000000 0.000000 0.000000 0.000000 0.000000 0.020734
#
#
# Mechanical properties :
#
#
# Convention : Reuss Voigt Hill
#
# Bulk Modulus (GPa) = 29.07793 52.49225 40.78509
# Shear Modulus (GPa) = 18.62609 26.09495 22.36052
#
# Velocity S-wave (km/s) = 3.13402 3.70954 3.43386
# Velocity P-wave (km/s) = 5.33196 6.78442 6.10156
#
# Compressibility (1/GPa) = 0.03439034
#
# Stress axis : x y z
#
# Youngs Moduli (GPa) = 73.31933 52.30248 31.16443
#
# Poissons Ratio (x) = 0.51414 0.23951
# Poissons Ratio (y) = 0.72074 -0.07129
# Poissons Ratio (z) = 0.56349 -0.11964
#
# Static dielectric constant tensor:
#      x y z
#    x 4.145570 0.000000 0.000000 
#    y 0.000000 3.621940 0.000000 
#    z 0.000000 0.000000 3.219960 
# 
# 
# High freq. dielectric constant tensor:
#      x y z
#    x 1.750470 0.000000 0.000000 
#    y 0.000000 1.738500 0.000000 
#    z 0.000000 0.000000 1.707570 
# 
# From -- ./inp_files/21101.got.cif
#   From: 2010.03.12/outbox.cif.g09.slc.cpg/sg55_11_cif.got.tgz:21101.got - 2010.04.16 15:19:21.
