data_PCOD8226013
_publ_section_title
;
Structure prediction by ZEFSAII (Michael W. Deem and Ramdas Pophale) SiO2 
 PCOD8226013
Probable space group: P B A M
;
_chemical_formula_sum "Si O2"
_cell_formula_units_Z 64
_cell_length_a 16.061310
_cell_length_b 22.076489
_cell_length_c 9.523830
_cell_angle_alpha 90.000000
_cell_angle_beta 90.000000
_cell_angle_gamma 90.000000
_cell_volume 3376.934246
_symmetry_space_group_name_H-M "P B A M"
_symmetry_group_IT_number 55
_symmetry_cell_setting 'orthorhombic'
loop_
_space_group_symop_operation_xyz
x,y,z
-x,-y,z
1/2+x,1/2-y,-z
1/2-x,1/2+y,-z
-x,-y,-z
x,y,-z
1/2-x,1/2+y,z
1/2+x,1/2-y,z
loop_
_atom_site_type_symbol
_atom_site_label
_atom_site_fract_x
_atom_site_fract_y
_atom_site_fract_z
Si Si1 0.266704 0.970968 0.338376
Si Si2 0.282292 0.342025 0.341008
Si Si3 0.910607 0.969581 0.339688
Si Si4 0.580952 0.704131 0.847764
Si Si5 0.585660 0.968698 0.835709
Si Si6 0.127742 0.665322 0.837972
Si Si7 0.903476 0.852619 0.843804
Si Si8 0.222743 0.209237 0.662194
O O1 0.291786 0.982530 0.500000
O O2 0.273383 0.899772 0.296813
O O3 0.169538 0.987696 0.313330
O O4 0.332459 0.006843 0.243272
O O5 0.311685 0.350816 0.500000
O O6 0.366860 0.337517 0.255447
O O7 0.231053 0.280887 0.318743
O O8 0.909031 0.945074 0.500000
O O9 0.900047 0.917456 0.226995
O O10 0.000000 0.000000 0.309868
O O11 0.572238 0.775059 0.802010
O O12 0.494706 0.671860 0.859365
O O13 0.625556 0.703487 0.000000
O O14 0.577540 0.896540 0.805726
O O15 0.500000 0.000000 0.781644
O O16 0.598215 0.982460 0.000000
O O17 0.207203 0.668599 0.736683
O O18 0.157073 0.664836 0.000000
O O19 0.861698 0.804481 0.741431
O O20 0.862798 0.856609 0.000000
O O21 0.219850 0.189791 0.500000
#
# Coordination Sequence:
#
# PCOD8226013 Si02
#       8
#     8   8   8   8   8   8   8   8
#     4  10  21  37  57  81 110 144 181 222 270 322
#     4   9  19  36  56  78 104 135 174 219 267 319
#     4  10  21  37  58  83 113 150 187 224 270 327
#     4   9  19  34  53  77 104 137 174 215 263 315
#     4  10  22  38  56  79 106 141 184 226 269 319
#     4   9  18  36  57  75 101 135 174 220 268 316
#     4  11  22  34  51  79 112 142 176 218 265 319
#     4  10  20  34  54  79 105 135 174 219 267 321
#
# _framework density 18.952100999999999
#
# number of rings (size 3 to 8) (size 9 to 14) (size 15 to 20)
#    0.000    2.250    0.000    2.250    0.000    7.500 
#    0.000    1.250    0.000    0.000    0.000    0.000 
#    0.000    0.000    0.000    0.000    0.000    0.000 
#
# Total GULP energy -793225.808248 kJ/mol
# GULP energy per Si atom -12394.153254 kJ/mol
# Density = 1.890897 g / cm^3
# Si number density = 18.952101 Si / 1000 Ang^3
#
#
#
# Elastic Constant Matrix: (Units=GPa)
#
#
# Indices 1 2 3 4 5 6 
#
# 1 57.7261 26.4762 30.7936 0.0000 0.0000 0.0000
# 2 26.4762 99.7733 45.6364 0.0000 0.0000 0.0000
# 3 30.7936 45.6364 91.3868 0.0000 0.0000 0.0000
# 4 0.0000 0.0000 0.0000 28.2249 0.0000 0.0000
# 5 0.0000 0.0000 0.0000 0.0000 21.9600 0.0000
# 6 0.0000 0.0000 0.0000 0.0000 0.0000 22.2026
#
#
#
# Elastic Compliance Matrix: (Units=1/GPa)
#
#
# Indices 1 2 3 4 5 6 
#
# 1 0.021858 -0.003151 -0.005792 0.000000 0.000000 0.000000
# 2 -0.003151 0.013444 -0.005652 0.000000 0.000000 0.000000
# 3 -0.005792 -0.005652 0.015716 0.000000 0.000000 0.000000
# 4 0.000000 0.000000 0.000000 0.035430 0.000000 0.000000
# 5 0.000000 0.000000 0.000000 0.000000 0.045537 0.000000
# 6 0.000000 0.000000 0.000000 0.000000 0.000000 0.045040
#
#
# Mechanical properties :
#
#
# Convention : Reuss Voigt Hill
#
# Bulk Modulus (GPa) = 45.81023 50.52208 48.16616
# Shear Modulus (GPa) = 23.42019 24.20951 23.81485
#
# Velocity S-wave (km/s) = 3.51915 3.57796 3.54867
# Velocity P-wave (km/s) = 6.38252 6.61700 6.50082
#
# Compressibility (1/GPa) = 0.02182919
#
# Stress axis : x y z
#
# Youngs Moduli (GPa) = 45.74990 74.38205 63.62773
#
# Poissons Ratio (x) = 0.23439 0.36851
# Poissons Ratio (y) = 0.14417 0.35961
# Poissons Ratio (z) = 0.26496 0.42040
#
# Static dielectric constant tensor:
#      x y z
#    x 3.382880 0.000000 0.000000 
#    y 0.000000 3.264170 0.000000 
#    z 0.000000 0.000000 5.324770 
# 
# 
# High freq. dielectric constant tensor:
#      x y z
#    x 1.720940 0.000000 0.000000 
#    y 0.000000 1.748850 0.000000 
#    z 0.000000 0.000000 1.742910 
# 
# From -- ./inp_files/8029.got.cif
#   From: 2010.03.12/outbox.cif.g09.slc.cpg/sg55_5_cif.got.tgz:8029.got - 2010.04.16 15:19:21.
