data_PCOD8226995
_publ_section_title
;
Structure prediction by ZEFSAII (Michael W. Deem and Ramdas Pophale) SiO2 
 PCOD8226995
Probable space group: P B A M
;
_chemical_formula_sum "Si O2"
_cell_formula_units_Z 64
_cell_length_a 12.071023
_cell_length_b 30.404467
_cell_length_c 8.905120
_cell_angle_alpha 90.000000
_cell_angle_beta 90.000000
_cell_angle_gamma 90.000000
_cell_volume 3268.294989
_symmetry_space_group_name_H-M "P B A M"
_symmetry_group_IT_number 55
_symmetry_cell_setting 'orthorhombic'
loop_
_space_group_symop_operation_xyz
x,y,z
-x,-y,z
1/2+x,1/2-y,-z
1/2-x,1/2+y,-z
-x,-y,-z
x,y,-z
1/2-x,1/2+y,z
1/2+x,1/2-y,z
loop_
_atom_site_type_symbol
_atom_site_label
_atom_site_fract_x
_atom_site_fract_y
_atom_site_fract_z
Si Si1 0.511801 0.667548 0.828446
Si Si2 0.291662 0.708034 0.179155
Si Si3 0.403586 0.882479 0.822066
Si Si4 0.015724 0.933407 0.828275
Si Si5 0.752554 0.049621 0.327649
Si Si6 0.297698 0.547944 0.672337
Si Si7 0.753809 0.194845 0.179251
Si Si8 0.843199 0.375612 0.822342
O O1 0.411901 0.694981 0.753870
O O2 0.478445 0.616975 0.816584
O O3 0.629697 0.677936 0.751544
O O4 0.523488 0.682413 0.000000
O O5 0.264196 0.756168 0.243523
O O6 0.200987 0.672108 0.231400
O O7 0.295614 0.708634 0.000000
O O8 0.349001 0.925596 0.750492
O O9 0.341675 0.838348 0.764913
O O10 0.530264 0.879600 0.768559
O O11 0.393803 0.887049 0.000000
O O12 0.917867 0.960670 0.748533
O O13 0.132752 0.938103 0.749597
O O14 0.026568 0.949028 0.000000
O O15 0.759654 0.064252 0.500000
O O16 0.730065 0.997519 0.312857
O O17 0.317851 0.560896 0.500000
O O18 0.228212 0.585800 0.750762
O O19 0.754429 0.195030 0.000000
O O20 0.832187 0.380587 0.000000
#
# Coordination Sequence:
#
# PCOD8226995 Si02
#       8
#     8   8   8   8   8   8   8   8
#     4   9  16  28  50  81 114 146 179 221 278 336
#     4   9  17  29  50  82 117 148 182 231 285 336
#     4  10  21  37  57  84 115 148 191 242 290 335
#     4  11  20  36  61  90 120 146 182 235 289 337
#     4  11  24  40  58  82 113 151 193 234 284 347
#     4  11  24  40  58  82 113 151 193 234 284 347
#     4   9  17  29  50  82 117 148 182 231 285 336
#     4  10  21  37  57  84 115 148 191 242 290 335
#
# _framework density 19.582076000000001
#
# number of rings (size 3 to 8) (size 9 to 14) (size 15 to 20)
#    0.000    2.000    2.500    1.500    1.750    4.500 
#    0.000    2.500    0.000    0.750    0.000    0.000 
#    0.000    0.000    0.000    0.000    0.000    0.000 
#
# Total GULP energy -793555.297527 kJ/mol
# GULP energy per Si atom -12399.301524 kJ/mol
# Density = 1.953751 g / cm^3
# Si number density = 19.582076 Si / 1000 Ang^3
#
#
#
# Elastic Constant Matrix: (Units=GPa)
#
#
# Indices 1 2 3 4 5 6 
#
# 1 128.5921 28.0244 31.3707 0.0000 0.0000 0.0000
# 2 28.0244 79.7445 18.4107 0.0000 0.0000 0.0000
# 3 31.3707 18.4107 43.4464 0.0000 0.0000 0.0000
# 4 0.0000 0.0000 0.0000 -3.6591 0.0000 0.0000
# 5 0.0000 0.0000 0.0000 0.0000 15.1559 0.0000
# 6 0.0000 0.0000 0.0000 0.0000 0.0000 31.0261
#
#
#
# Elastic Compliance Matrix: (Units=1/GPa)
#
#
# Indices 1 2 3 4 5 6 
#
# 1 0.009716 -0.001989 -0.006172 0.000000 0.000000 0.000000
# 2 -0.001989 0.014307 -0.004626 0.000000 0.000000 0.000000
# 3 -0.006172 -0.004626 0.029434 0.000000 0.000000 0.000000
# 4 0.000000 0.000000 0.000000 -0.273289 0.000000 0.000000
# 5 0.000000 0.000000 0.000000 0.000000 0.065981 0.000000
# 6 0.000000 0.000000 0.000000 0.000000 0.000000 0.032231
#
#
# Mechanical properties :
#
#
# Convention : Reuss Voigt Hill
#
# Bulk Modulus (GPa) = 35.86670 45.26608 40.56639
# Shear Modulus (GPa) = -57.63681 20.10306 -18.76688
#
# Velocity S-wave (km/s) = -5.43115 3.20754 -3.09911
# Velocity P-wave (km/s) = 4.57973 6.07322 2.82047
#
# Compressibility (1/GPa) = 0.02788102
#
# Stress axis : x y z
#
# Youngs Moduli (GPa) = 102.92442 69.89452 33.97416
#
# Poissons Ratio (x) = 0.13905 0.20970
# Poissons Ratio (y) = 0.20476 0.15718
# Poissons Ratio (z) = 0.63529 0.32336
#
# Static dielectric constant tensor:
#      x y z
#    x 3.735670 0.000000 0.000000 
#    y 0.000000 3.757280 0.000000 
#    z 0.000000 0.000000 3.218060 
# 
# 
# High freq. dielectric constant tensor:
#      x y z
#    x 1.772540 0.000000 0.000000 
#    y 0.000000 1.775360 0.000000 
#    z 0.000000 0.000000 1.717310 
# 
# From -- ./inp_files/4483.got.cif
#   From: 2010.03.12/outbox.cif.g09.slc.cpg/sg55_3_cif.got.tgz:4483.got - 2010.04.16 15:19:21.
