data_PCOD8226007
_publ_section_title
;
Structure prediction by ZEFSAII (Michael W. Deem and Ramdas Pophale) SiO2 
 PCOD8226007
Probable space group: P B A M
;
_chemical_formula_sum "Si O2"
_cell_formula_units_Z 48
_cell_length_a 9.433887
_cell_length_b 31.001712
_cell_length_c 8.845730
_cell_angle_alpha 90.000000
_cell_angle_beta 90.000000
_cell_angle_gamma 90.000000
_cell_volume 2587.081001
_symmetry_space_group_name_H-M "P B A M"
_symmetry_group_IT_number 55
_symmetry_cell_setting 'orthorhombic'
loop_
_space_group_symop_operation_xyz
x,y,z
-x,-y,z
1/2+x,1/2-y,-z
1/2-x,1/2+y,-z
-x,-y,-z
x,y,-z
1/2-x,1/2+y,z
1/2+x,1/2-y,z
loop_
_atom_site_type_symbol
_atom_site_label
_atom_site_fract_x
_atom_site_fract_y
_atom_site_fract_z
Si Si1 0.082042 0.114448 0.322062
Si Si2 0.404378 0.117063 0.320694
Si Si3 0.900033 0.287804 0.680289
Si Si4 0.404922 0.460122 0.821401
Si Si5 0.098226 0.459589 0.677609
Si Si6 0.586224 0.288782 0.321460
O O1 0.070666 0.105161 0.500000
O O2 0.243824 0.107462 0.264206
O O3 0.031197 0.163194 0.283418
O O4 0.975411 0.083811 0.234395
O O5 0.399388 0.114199 0.500000
O O6 0.456104 0.164815 0.269412
O O7 0.516191 0.082411 0.256997
O O8 0.899626 0.285282 0.500000
O O9 0.742560 0.282252 0.745064
O O10 0.990564 0.248842 0.752047
O O11 0.500000 0.500000 0.763255
O O12 0.247698 0.465213 0.757764
O O13 0.395530 0.459418 0.000000
O O14 0.126506 0.455370 0.500000
O O15 0.000000 0.500000 0.716206
O O16 0.590193 0.282789 0.500000
#
# Coordination Sequence:
#
# PCOD8226007 Si02
#       6
#     8   8   8   8   8   8
#     4   9  17  32  53  75  99 128 164 203 243 287
#     4   8  15  28  47  73 103 131 161 201 246 290
#     4   8  13  22  37  64 102 132 154 189 239 288
#     4  11  24  38  51  71  99 130 163 200 245 295
#     4  10  20  34  54  78 101 128 163 203 246 290
#     4   8  14  23  39  66  98 129 157 191 237 284
#
# _framework density 18.553728
#
# number of rings (size 3 to 8) (size 9 to 14) (size 15 to 20)
#    0.000    3.000    0.000    3.500    0.000    4.333 
#    0.000    5.833    0.000    0.000    0.000   10.500 
#    0.000    0.000    0.000    0.000    0.000    0.000 
#
# Total GULP energy -594901.161928 kJ/mol
# GULP energy per Si atom -12393.774207 kJ/mol
# Density = 1.851150 g / cm^3
# Si number density = 18.553728 Si / 1000 Ang^3
#
#
#
# Elastic Constant Matrix: (Units=GPa)
#
#
# Indices 1 2 3 4 5 6 
#
# 1 127.4559 90.9792 33.9122 0.0000 0.0000 0.0000
# 2 90.9792 165.5046 32.0953 0.0000 0.0000 0.0000
# 3 33.9122 32.0953 25.2073 0.0000 0.0000 0.0000
# 4 0.0000 0.0000 0.0000 6.7387 0.0000 0.0000
# 5 0.0000 0.0000 0.0000 0.0000 10.1663 0.0000
# 6 0.0000 0.0000 0.0000 0.0000 0.0000 42.0115
#
#
#
# Elastic Compliance Matrix: (Units=1/GPa)
#
#
# Indices 1 2 3 4 5 6 
#
# 1 0.015748 -0.006039 -0.013496 0.000000 0.000000 0.000000
# 2 -0.006039 0.010339 -0.005040 0.000000 0.000000 0.000000
# 3 -0.013496 -0.005040 0.064245 0.000000 0.000000 0.000000
# 4 0.000000 0.000000 0.000000 0.148396 0.000000 0.000000
# 5 0.000000 0.000000 0.000000 0.000000 0.098364 0.000000
# 6 0.000000 0.000000 0.000000 0.000000 0.000000 0.023803
#
#
# Mechanical properties :
#
#
# Convention : Reuss Voigt Hill
#
# Bulk Modulus (GPa) = 24.28286 70.23791 47.26038
# Shear Modulus (GPa) = 11.79878 22.52871 17.16374
#
# Velocity S-wave (km/s) = 2.52449 3.48838 3.04482
# Velocity P-wave (km/s) = 4.64905 7.35960 6.15538
#
# Compressibility (1/GPa) = 0.04118132
#
# Stress axis : x y z
#
# Youngs Moduli (GPa) = 63.50072 96.71781 15.56544
#
# Poissons Ratio (x) = 0.58412 0.21008
# Poissons Ratio (y) = 0.38351 0.07844
# Poissons Ratio (z) = 0.85703 0.48742
#
# Static dielectric constant tensor:
#      x y z
#    x 3.608860 0.000000 0.000000 
#    y 0.000000 3.854730 0.000000 
#    z 0.000000 0.000000 2.805630 
# 
# 
# High freq. dielectric constant tensor:
#      x y z
#    x 1.721600 0.000000 0.000000 
#    y 0.000000 1.740170 0.000000 
#    z 0.000000 0.000000 1.656930 
# 
# From -- ./inp_files/2844.got.cif
#   From: 2010.03.12/outbox.cif.g09.slc.cpg/sg55_2_cif.got.tgz:2844.got - 2010.04.16 15:19:21.
