data_PCOD8226467
_publ_section_title
;
Structure prediction by ZEFSAII (Michael W. Deem and Ramdas Pophale) SiO2 
 PCOD8226467
Probable space group: P B A M
;
_chemical_formula_sum "Si O2"
_cell_formula_units_Z 48
_cell_length_a 12.014366
_cell_length_b 23.495157
_cell_length_c 8.849779
_cell_angle_alpha 90.000000
_cell_angle_beta 90.000000
_cell_angle_gamma 90.000000
_cell_volume 2498.110443
_symmetry_space_group_name_H-M "P B A M"
_symmetry_group_IT_number 55
_symmetry_cell_setting 'orthorhombic'
loop_
_space_group_symop_operation_xyz
x,y,z
-x,-y,z
1/2+x,1/2-y,-z
1/2-x,1/2+y,-z
-x,-y,-z
x,y,-z
1/2-x,1/2+y,z
1/2+x,1/2-y,z
loop_
_atom_site_type_symbol
_atom_site_label
_atom_site_fract_x
_atom_site_fract_y
_atom_site_fract_z
Si Si1 0.189918 0.048148 0.177183
Si Si2 0.780248 0.082326 0.822574
Si Si3 0.152402 0.220640 0.676716
Si Si4 0.402441 0.844352 0.321345
Si Si5 0.657484 0.861997 0.323882
Si Si6 0.997070 0.881619 0.679459
O O1 0.295028 0.085194 0.230027
O O2 0.075896 0.065918 0.259191
O O3 0.214880 0.983553 0.222275
O O4 0.171955 0.055763 0.000000
O O5 0.663756 0.106091 0.762477
O O6 0.878957 0.116737 0.742642
O O7 0.789911 0.091521 0.000000
O O8 0.134127 0.227121 0.500000
O O9 0.137815 0.283477 0.746184
O O10 0.274225 0.195594 0.715567
O O11 0.058625 0.177118 0.737834
O O12 0.382605 0.849344 0.500000
O O13 0.530989 0.851871 0.278395
O O14 0.672498 0.876654 0.500000
O O15 0.999289 0.885031 0.500000
#
# Coordination Sequence:
#
# PCOD8226467 Si02
#       6
#     8   8   8   8   8   8
#     4  10  21  38  58  79 113 155 187 227 283 337
#     4  11  24  38  53  81 118 152 188 229 280 337
#     4   8  17  34  58  84 110 140 179 228 283 334
#     4  10  21  36  58  84 111 148 189 233 278 328
#     4   9  19  36  58  84 111 143 190 236 275 331
#     4  10  20  36  62  89 111 143 187 236 282 331
#
# _framework density 19.214523
#
# number of rings (size 3 to 8) (size 9 to 14) (size 15 to 20)
#    0.000    2.333    0.000    3.000    2.333    6.000 
#    0.000    7.500    0.000    0.000    0.000    0.000 
#    0.000    0.000    0.000    0.000    0.000    0.000 
#
# Total GULP energy -595287.232398 kJ/mol
# GULP energy per Si atom -12401.817342 kJ/mol
# Density = 1.917079 g / cm^3
# Si number density = 19.214523 Si / 1000 Ang^3
#
#
#
# Elastic Constant Matrix: (Units=GPa)
#
#
# Indices 1 2 3 4 5 6 
#
# 1 114.9810 28.6385 23.7029 0.0000 0.0000 0.0000
# 2 28.6385 71.5683 19.3055 0.0000 0.0000 0.0000
# 3 23.7029 19.3055 47.4024 0.0000 0.0000 0.0000
# 4 0.0000 0.0000 0.0000 6.9826 0.0000 0.0000
# 5 0.0000 0.0000 0.0000 0.0000 23.4476 0.0000
# 6 0.0000 0.0000 0.0000 0.0000 0.0000 23.4854
#
#
#
# Elastic Compliance Matrix: (Units=1/GPa)
#
#
# Indices 1 2 3 4 5 6 
#
# 1 0.010259 -0.003057 -0.003885 0.000000 0.000000 0.000000
# 2 -0.003057 0.016608 -0.005235 0.000000 0.000000 0.000000
# 3 -0.003885 -0.005235 0.025171 0.000000 0.000000 0.000000
# 4 0.000000 0.000000 0.000000 0.143214 0.000000 0.000000
# 5 0.000000 0.000000 0.000000 0.000000 0.042648 0.000000
# 6 0.000000 0.000000 0.000000 0.000000 0.000000 0.042580
#
#
# Mechanical properties :
#
#
# Convention : Reuss Voigt Hill
#
# Bulk Modulus (GPa) = 36.12276 41.91616 39.01946
# Shear Modulus (GPa) = 15.92036 21.60344 18.76190
#
# Velocity S-wave (km/s) = 2.88159 3.35674 3.12820
# Velocity P-wave (km/s) = 5.46918 6.07337 5.77918
#
# Compressibility (1/GPa) = 0.02768338
#
# Stress axis : x y z
#
# Youngs Moduli (GPa) = 97.47094 60.21082 39.72878
#
# Poissons Ratio (x) = 0.18409 0.15434
# Poissons Ratio (y) = 0.29801 0.20799
# Poissons Ratio (z) = 0.37867 0.31521
#
# Static dielectric constant tensor:
#      x y z
#    x 3.553060 0.000000 0.000000 
#    y 0.000000 3.692330 0.000000 
#    z 0.000000 0.000000 3.322800 
# 
# 
# High freq. dielectric constant tensor:
#      x y z
#    x 1.753780 0.000000 0.000000 
#    y 0.000000 1.753360 0.000000 
#    z 0.000000 0.000000 1.730380 
# 
# From -- ./inp_files/4033.got.cif
#   From: 2010.03.12/outbox.cif.g09.slc.cpg/sg55_3_cif.got.tgz:4033.got - 2010.04.16 15:19:21.
