data_PCOD8226264
_publ_section_title
;
Structure prediction by ZEFSAII (Michael W. Deem and Ramdas Pophale) SiO2 
 PCOD8226264
Probable space group: P B A M
;
_chemical_formula_sum "Si O2"
_cell_formula_units_Z 56
_cell_length_a 19.513947
_cell_length_b 16.616029
_cell_length_c 9.133919
_cell_angle_alpha 90.000000
_cell_angle_beta 90.000000
_cell_angle_gamma 90.000000
_cell_volume 2961.621257
_symmetry_space_group_name_H-M "P B A M"
_symmetry_group_IT_number 55
_symmetry_cell_setting 'orthorhombic'
loop_
_space_group_symop_operation_xyz
x,y,z
-x,-y,z
1/2+x,1/2-y,-z
1/2-x,1/2+y,-z
-x,-y,-z
x,y,-z
1/2-x,1/2+y,z
1/2+x,1/2-y,z
loop_
_atom_site_type_symbol
_atom_site_label
_atom_site_fract_x
_atom_site_fract_y
_atom_site_fract_z
Si Si1 0.800298 0.918370 0.327615
Si Si2 0.478984 0.740033 0.172382
Si Si3 0.104318 0.686347 0.667037
Si Si4 0.953543 0.926138 0.327420
Si Si5 0.145879 0.353531 0.172275
Si Si6 0.162280 0.511058 0.329963
Si Si7 0.251386 0.750926 0.329919
O O1 0.789757 0.910730 0.500000
O O2 0.875541 0.948998 0.283219
O O3 0.741058 0.978851 0.272368
O O4 0.788495 0.828747 0.265417
O O5 0.545878 0.788100 0.221545
O O6 0.478356 0.653638 0.248083
O O7 0.412852 0.791132 0.220421
O O8 0.481385 0.727161 0.000000
O O9 0.079024 0.696796 0.500000
O O10 0.122062 0.593651 0.698294
O O11 0.170078 0.743237 0.694339
O O12 0.960114 0.911296 0.500000
O O13 0.000000 0.000000 0.274521
O O14 0.126761 0.440836 0.236874
O O15 0.218688 0.325730 0.239203
O O16 0.152357 0.360666 0.000000
O O17 0.159931 0.487079 0.500000
O O18 0.268444 0.764950 0.500000
#
# Coordination Sequence:
#
# PCOD8226264 Si02
#       7
#     8   8   8   8   8   8   8
#     4   8  15  32  56  80 106 135 176 230 284 329
#     4  11  24  39  55  80 119 160 191 227 283 349
#     4   9  20  38  60  85 111 144 195 247 290 336
#     4  10  20  35  59  87 113 145 188 237 286 339
#     4  11  23  36  53  83 118 154 194 228 276 347
#     4   9  19  36  58  83 109 145 193 245 291 331
#     4   9  17  34  60  81 102 141 188 238 285 331
#
# _framework density 18.908562
#
# number of rings (size 3 to 8) (size 9 to 14) (size 15 to 20)
#    0.000    2.429    1.429    2.571    0.000    4.857 
#    0.000    8.571    0.000    0.000    0.000    0.000 
#    0.000    0.000    0.000    0.000    0.000    0.000 
#
# Total GULP energy -694381.187720 kJ/mol
# GULP energy per Si atom -12399.664066 kJ/mol
# Density = 1.886553 g / cm^3
# Si number density = 18.908562 Si / 1000 Ang^3
#
#
#
# Elastic Constant Matrix: (Units=GPa)
#
#
# Indices 1 2 3 4 5 6 
#
# 1 88.1024 53.5969 43.1317 0.0000 0.0000 0.0000
# 2 53.5969 116.5032 49.3124 0.0000 0.0000 0.0000
# 3 43.1317 49.3124 59.3460 0.0000 0.0000 0.0000
# 4 0.0000 0.0000 0.0000 19.2175 0.0000 0.0000
# 5 0.0000 0.0000 0.0000 0.0000 24.6524 0.0000
# 6 0.0000 0.0000 0.0000 0.0000 0.0000 25.7223
#
#
#
# Elastic Compliance Matrix: (Units=1/GPa)
#
#
# Indices 1 2 3 4 5 6 
#
# 1 0.019019 -0.004471 -0.010107 0.000000 0.000000 0.000000
# 2 -0.004471 0.014291 -0.008625 0.000000 0.000000 0.000000
# 3 -0.010107 -0.008625 0.031363 0.000000 0.000000 0.000000
# 4 0.000000 0.000000 0.000000 0.052036 0.000000 0.000000
# 5 0.000000 0.000000 0.000000 0.000000 0.040564 0.000000
# 6 0.000000 0.000000 0.000000 0.000000 0.000000 0.038877
#
#
# Mechanical properties :
#
#
# Convention : Reuss Voigt Hill
#
# Bulk Modulus (GPa) = 54.74818 61.78150 58.26484
# Shear Modulus (GPa) = 20.10892 21.77914 20.94403
#
# Velocity S-wave (km/s) = 3.26465 3.39752 3.33175
# Velocity P-wave (km/s) = 6.57477 6.93798 6.75882
#
# Compressibility (1/GPa) = 0.01826545
#
# Stress axis : x y z
#
# Youngs Moduli (GPa) = 52.57998 69.97203 31.88471
#
# Poissons Ratio (x) = 0.31288 0.32226
# Poissons Ratio (y) = 0.23511 0.27502
# Poissons Ratio (z) = 0.53142 0.60353
#
# Static dielectric constant tensor:
#      x y z
#    x 3.567330 0.000000 0.000000 
#    y 0.000000 3.393620 0.000000 
#    z 0.000000 0.000000 3.178040 
# 
# 
# High freq. dielectric constant tensor:
#      x y z
#    x 1.738350 0.000000 0.000000 
#    y 0.000000 1.735540 0.000000 
#    z 0.000000 0.000000 1.710840 
# 
# From -- ./inp_files/8743.got.cif
#   From: 2010.03.12/outbox.cif.g09.slc.cpg/sg55_5_cif.got.tgz:8743.got - 2010.04.16 15:19:21.
