data_PCOD8226223
_publ_section_title
;
Structure prediction by ZEFSAII (Michael W. Deem and Ramdas Pophale) SiO2 
 PCOD8226223
Probable space group: P B A M
;
_chemical_formula_sum "Si O2"
_cell_formula_units_Z 64
_cell_length_a 17.073080
_cell_length_b 21.966784
_cell_length_c 8.683564
_cell_angle_alpha 90.000000
_cell_angle_beta 90.000000
_cell_angle_gamma 90.000000
_cell_volume 3256.689579
_symmetry_space_group_name_H-M "P B A M"
_symmetry_group_IT_number 55
_symmetry_cell_setting 'orthorhombic'
loop_
_space_group_symop_operation_xyz
x,y,z
-x,-y,z
1/2+x,1/2-y,-z
1/2-x,1/2+y,-z
-x,-y,-z
x,y,-z
1/2-x,1/2+y,z
1/2+x,1/2-y,z
loop_
_atom_site_type_symbol
_atom_site_label
_atom_site_fract_x
_atom_site_fract_y
_atom_site_fract_z
Si Si1 0.920363 0.565798 0.819837
Si Si2 0.351635 0.470600 0.178878
Si Si3 0.169545 0.786805 0.821692
Si Si4 0.129762 0.100841 0.321302
Si Si5 0.209259 0.661792 0.321730
Si Si6 0.772992 0.613247 0.320860
Si Si7 0.919883 0.435462 0.679295
Si Si8 0.473713 0.367766 0.823088
O O1 0.854499 0.614108 0.771978
O O2 0.901228 0.503538 0.731422
O O3 0.005253 0.591236 0.770403
O O4 0.919410 0.553243 0.000000
O O5 0.368857 0.539709 0.221817
O O6 0.278370 0.445388 0.274750
O O7 0.428062 0.430244 0.215573
O O8 0.329735 0.465337 0.000000
O O9 0.178048 0.716315 0.783057
O O10 0.230179 0.824048 0.718337
O O11 0.081497 0.809872 0.785521
O O12 0.188712 0.799379 0.000000
O O13 0.133384 0.083069 0.500000
O O14 0.202006 0.144533 0.277195
O O15 0.050207 0.137125 0.283592
O O16 0.202434 0.680659 0.500000
O O17 0.155987 0.604045 0.282032
O O18 0.791552 0.610219 0.500000
O O19 0.940157 0.434732 0.500000
O O20 0.500824 0.367222 0.000000
#
# Coordination Sequence:
#
# PCOD8226223 Si02
#       8
#     8   8   8   8   8   8   8   8
#     4  11  21  35  57  88 120 149 191 239 288 348
#     4  10  20  35  57  86 121 155 188 233 287 339
#     4  10  22  41  62  82 109 148 194 240 287 338
#     4  11  22  35  56  88 119 151 191 232 280 343
#     4  10  23  41  58  81 114 152 194 238 285 341
#     4  11  21  36  59  85 115 151 191 236 286 343
#     4  10  20  37  59  83 116 155 192 239 294 341
#     4   9  20  38  57  82 115 150 188 234 285 337
#
# _framework density 19.651859000000002
#
# number of rings (size 3 to 8) (size 9 to 14) (size 15 to 20)
#    0.000    1.750    0.000    6.375    0.000    7.500 
#    2.250    0.000    0.000    0.000    0.000    0.000 
#    0.000    0.000    0.000    0.000    0.000    0.000 
#
# Total GULP energy -793906.981075 kJ/mol
# GULP energy per Si atom -12404.796579 kJ/mol
# Density = 1.960713 g / cm^3
# Si number density = 19.651859 Si / 1000 Ang^3
#
#
#
# Elastic Constant Matrix: (Units=GPa)
#
#
# Indices 1 2 3 4 5 6 
#
# 1 117.8842 34.4035 37.7017 0.0000 0.0000 0.0000
# 2 34.4035 75.0653 28.6052 0.0000 0.0000 0.0000
# 3 37.7017 28.6052 60.0457 0.0000 0.0000 0.0000
# 4 0.0000 0.0000 0.0000 31.1706 0.0000 0.0000
# 5 0.0000 0.0000 0.0000 0.0000 32.7195 0.0000
# 6 0.0000 0.0000 0.0000 0.0000 0.0000 16.0939
#
#
#
# Elastic Compliance Matrix: (Units=1/GPa)
#
#
# Indices 1 2 3 4 5 6 
#
# 1 0.011134 -0.002980 -0.005572 0.000000 0.000000 0.000000
# 2 -0.002980 0.017074 -0.006263 0.000000 0.000000 0.000000
# 3 -0.005572 -0.006263 0.023136 0.000000 0.000000 0.000000
# 4 0.000000 0.000000 0.000000 0.032081 0.000000 0.000000
# 5 0.000000 0.000000 0.000000 0.000000 0.030563 0.000000
# 6 0.000000 0.000000 0.000000 0.000000 0.000000 0.062135
#
#
# Mechanical properties :
#
#
# Convention : Reuss Voigt Hill
#
# Bulk Modulus (GPa) = 46.04965 50.49065 48.27015
# Shear Modulus (GPa) = 23.47513 26.14912 24.81213
#
# Velocity S-wave (km/s) = 3.45998 3.65172 3.55714
# Velocity P-wave (km/s) = 6.28057 6.59761 6.44104
#
# Compressibility (1/GPa) = 0.02171569
#
# Stress axis : x y z
#
# Youngs Moduli (GPa) = 89.81127 58.56830 43.22303
#
# Poissons Ratio (x) = 0.17453 0.24082
# Poissons Ratio (y) = 0.26763 0.27070
# Poissons Ratio (z) = 0.50039 0.36681
#
# Static dielectric constant tensor:
#      x y z
#    x 3.734610 0.000000 0.000000 
#    y 0.000000 3.336140 0.000000 
#    z 0.000000 0.000000 3.592130 
# 
# 
# High freq. dielectric constant tensor:
#      x y z
#    x 1.775970 0.000000 0.000000 
#    y 0.000000 1.746170 0.000000 
#    z 0.000000 0.000000 1.773950 
# 
# From -- ./inp_files/8078.got.cif
#   From: 2010.03.12/outbox.cif.g09.slc.cpg/sg55_5_cif.got.tgz:8078.got - 2010.04.16 15:19:21.
