data_PCOD8226926
_publ_section_title
;
Structure prediction by ZEFSAII (Michael W. Deem and Ramdas Pophale) SiO2 
 PCOD8226926
Probable space group: P B A M
;
_chemical_formula_sum "Si O2"
_cell_formula_units_Z 64
_cell_length_a 16.706104
_cell_length_b 21.400473
_cell_length_c 8.679216
_cell_angle_alpha 90.000000
_cell_angle_beta 90.000000
_cell_angle_gamma 90.000000
_cell_volume 3102.980525
_symmetry_space_group_name_H-M "P B A M"
_symmetry_group_IT_number 55
_symmetry_cell_setting 'orthorhombic'
loop_
_space_group_symop_operation_xyz
x,y,z
-x,-y,z
1/2+x,1/2-y,-z
1/2-x,1/2+y,-z
-x,-y,-z
x,y,-z
1/2-x,1/2+y,z
1/2+x,1/2-y,z
loop_
_atom_site_type_symbol
_atom_site_label
_atom_site_fract_x
_atom_site_fract_y
_atom_site_fract_z
Si Si1 0.229317 0.891445 0.181723
Si Si2 0.050059 0.111288 0.670462
Si Si3 0.319651 0.519122 0.682849
Si Si4 0.619243 0.156148 0.682245
Si Si5 0.184776 0.212332 0.328669
Si Si6 0.952536 0.319102 0.821363
Si Si7 0.095203 0.813089 0.683953
Si Si8 0.791516 0.382851 0.175715
O O1 0.318747 0.895410 0.253200
O O2 0.181820 0.831282 0.248722
O O3 0.183115 0.953851 0.230633
O O4 0.234665 0.886164 0.000000
O O5 0.027437 0.088233 0.500000
O O6 0.100068 0.054390 0.748063
O O7 0.105714 0.171455 0.662316
O O8 0.968269 0.135052 0.751444
O O9 0.323870 0.509181 0.500000
O O10 0.241685 0.561592 0.717464
O O11 0.609988 0.150173 0.500000
O O12 0.657716 0.221298 0.736123
O O13 0.532855 0.148817 0.758754
O O14 0.223030 0.218326 0.500000
O O15 0.249432 0.183101 0.213978
O O16 0.930267 0.256116 0.731879
O O17 0.885529 0.372427 0.795707
O O18 0.961597 0.301799 0.000000
O O19 0.096841 0.815450 0.500000
O O20 0.773226 0.400961 0.000000
#
# Coordination Sequence:
#
# PCOD8226926 Si02
#       8
#     8   8   8   8   8   8   8   8
#     4  12  26  42  58  85 122 158 198 249 308 359
#     4   8  16  33  58  87 116 150 192 243 288 333
#     4  10  21  41  64  85 113 155 208 251 291 348
#     4  11  22  39  62  86 115 156 203 246 297 358
#     4   9  17  33  56  84 114 149 193 238 289 345
#     4  11  23  38  58  91 129 159 191 243 308 360
#     4  11  21  38  62  90 124 161 203 246 293 355
#     4  10  21  36  57  86 119 155 192 238 297 353
#
# _framework density 20.625332
#
# number of rings (size 3 to 8) (size 9 to 14) (size 15 to 20)
#    0.000    1.750    1.250    4.500    0.000    5.500 
#    0.000    5.000    0.000    3.750    0.000    0.000 
#    0.000    0.000    0.000    0.000    0.000    0.000 
#
# Total GULP energy -793460.582196 kJ/mol
# GULP energy per Si atom -12397.821597 kJ/mol
# Density = 2.057839 g / cm^3
# Si number density = 20.625332 Si / 1000 Ang^3
#
#
#
# Elastic Constant Matrix: (Units=GPa)
#
#
# Indices 1 2 3 4 5 6 
#
# 1 109.1833 2.7081 36.7502 0.0000 0.0000 0.0000
# 2 2.7081 31.9519 9.8491 0.0000 0.0000 0.0000
# 3 36.7502 9.8491 79.8030 0.0000 0.0000 0.0000
# 4 0.0000 0.0000 0.0000 29.3569 0.0000 0.0000
# 5 0.0000 0.0000 0.0000 0.0000 28.7518 0.0000
# 6 0.0000 0.0000 0.0000 0.0000 0.0000 19.9963
#
#
#
# Elastic Compliance Matrix: (Units=1/GPa)
#
#
# Indices 1 2 3 4 5 6 
#
# 1 0.010852 0.000645 -0.005077 0.000000 0.000000 0.000000
# 2 0.000645 0.032573 -0.004317 0.000000 0.000000 0.000000
# 3 -0.005077 -0.004317 0.015402 0.000000 0.000000 0.000000
# 4 0.000000 0.000000 0.000000 0.034063 0.000000 0.000000
# 5 0.000000 0.000000 0.000000 0.000000 0.034780 0.000000
# 6 0.000000 0.000000 0.000000 0.000000 0.000000 0.050009
#
#
# Mechanical properties :
#
#
# Convention : Reuss Voigt Hill
#
# Bulk Modulus (GPa) = 24.19631 35.50588 29.85110
# Shear Modulus (GPa) = 23.92870 27.06305 25.49588
#
# Velocity S-wave (km/s) = 3.40981 3.62626 3.51970
# Velocity P-wave (km/s) = 5.22104 5.89789 5.56975
#
# Compressibility (1/GPa) = 0.04132861
#
# Stress axis : x y z
#
# Youngs Moduli (GPa) = 92.15080 30.70013 64.92791
#
# Poissons Ratio (x) = -0.01981 0.32964
# Poissons Ratio (y) = -0.05946 0.28031
# Poissons Ratio (z) = 0.46785 0.13254
#
# Static dielectric constant tensor:
#      x y z
#    x 3.980500 0.000000 0.000000 
#    y 0.000000 3.595110 0.000000 
#    z 0.000000 0.000000 3.613720 
# 
# 
# High freq. dielectric constant tensor:
#      x y z
#    x 1.816630 0.000000 0.000000 
#    y 0.000000 1.792130 0.000000 
#    z 0.000000 0.000000 1.795430 
# 
# From -- ./inp_files/6703.got.cif
#   From: 2010.03.12/outbox.cif.g09.slc.cpg/sg55_4_cif.got.tgz:6703.got - 2010.04.16 15:19:21.
