data_PCOD8226480
_publ_section_title
;
Structure prediction by ZEFSAII (Michael W. Deem and Ramdas Pophale) SiO2 
 PCOD8226480
Probable space group: P B A M
;
_chemical_formula_sum "Si O2"
_cell_formula_units_Z 64
_cell_length_a 12.042283
_cell_length_b 30.260545
_cell_length_c 8.867376
_cell_angle_alpha 90.000000
_cell_angle_beta 90.000000
_cell_angle_gamma 90.000000
_cell_volume 3231.325432
_symmetry_space_group_name_H-M "P B A M"
_symmetry_group_IT_number 55
_symmetry_cell_setting 'orthorhombic'
loop_
_space_group_symop_operation_xyz
x,y,z
-x,-y,z
1/2+x,1/2-y,-z
1/2-x,1/2+y,-z
-x,-y,-z
x,y,-z
1/2-x,1/2+y,z
1/2+x,1/2-y,z
loop_
_atom_site_type_symbol
_atom_site_label
_atom_site_fract_x
_atom_site_fract_y
_atom_site_fract_z
Si Si1 0.998032 0.806218 0.820924
Si Si2 0.399564 0.123760 0.821295
Si Si3 0.735578 0.671342 0.831334
Si Si4 0.757230 0.070596 0.168127
Si Si5 0.981333 0.050874 0.673892
Si Si6 0.459210 0.793502 0.821086
Si Si7 0.044076 0.451346 0.673375
Si Si8 0.159700 0.123733 0.323114
O O1 0.115532 0.823445 0.752476
O O2 0.994881 0.755141 0.771896
O O3 0.899035 0.833011 0.744165
O O4 0.986153 0.812759 0.000000
O O5 0.452831 0.169997 0.762518
O O6 0.477336 0.083009 0.775443
O O7 0.279862 0.117567 0.748081
O O8 0.385992 0.123764 0.000000
O O9 0.777608 0.621460 0.833982
O O10 0.835704 0.698176 0.751505
O O11 0.717736 0.690028 0.000000
O O12 0.882548 0.067888 0.223398
O O13 0.673107 0.045839 0.279121
O O14 0.748689 0.050444 0.000000
O O15 0.948329 0.057142 0.500000
O O16 0.090137 0.079400 0.714424
O O17 0.000000 0.000000 0.713658
O O18 0.450323 0.798551 0.000000
O O19 0.033760 0.436773 0.500000
O O20 0.000000 0.500000 0.701039
O O21 0.172928 0.130541 0.500000
#
# Coordination Sequence:
#
# PCOD8226480 Si02
#       8
#     8   8   8   8   8   8   8   8
#     4  10  20  36  63  90 116 157 204 246 295 356
#     4  11  23  41  64  90 121 158 205 257 305 356
#     4   9  17  33  57  88 120 147 190 250 299 342
#     4  11  21  38  64  92 121 150 198 262 303 343
#     4  10  23  42  62  84 117 163 205 243 301 372
#     4   9  19  35  60  91 119 152 197 248 301 354
#     4  11  25  43  63  88 123 165 203 241 300 371
#     4  11  24  41  59  85 125 163 198 248 307 365
#
# _framework density 19.806114000000001
#
# number of rings (size 3 to 8) (size 9 to 14) (size 15 to 20)
#    0.000    1.750    2.500    1.500    3.500    1.750 
#    0.000    1.250    0.000    0.000    0.000    0.000 
#    0.000    0.000    0.000    0.000    0.000    0.000 
#
# Total GULP energy -793602.392651 kJ/mol
# GULP energy per Si atom -12400.037385 kJ/mol
# Density = 1.976103 g / cm^3
# Si number density = 19.806114 Si / 1000 Ang^3
#
#
#
# Elastic Constant Matrix: (Units=GPa)
#
#
# Indices 1 2 3 4 5 6 
#
# 1 122.9834 35.5001 36.4152 0.0000 0.0000 0.0000
# 2 35.5001 101.5247 40.2189 0.0000 0.0000 0.0000
# 3 36.4152 40.2189 60.5241 0.0000 0.0000 0.0000
# 4 0.0000 0.0000 0.0000 18.2972 0.0000 0.0000
# 5 0.0000 0.0000 0.0000 0.0000 29.6012 0.0000
# 6 0.0000 0.0000 0.0000 0.0000 0.0000 33.7004
#
#
#
# Elastic Compliance Matrix: (Units=1/GPa)
#
#
# Indices 1 2 3 4 5 6 
#
# 1 0.010064 -0.001521 -0.005045 0.000000 0.000000 0.000000
# 2 -0.001521 0.013599 -0.008122 0.000000 0.000000 0.000000
# 3 -0.005045 -0.008122 0.024954 0.000000 0.000000 0.000000
# 4 0.000000 0.000000 0.000000 0.054653 0.000000 0.000000
# 5 0.000000 0.000000 0.000000 0.000000 0.033782 0.000000
# 6 0.000000 0.000000 0.000000 0.000000 0.000000 0.029673
#
#
# Mechanical properties :
#
#
# Convention : Reuss Voigt Hill
#
# Bulk Modulus (GPa) = 51.96595 56.58895 54.27745
# Shear Modulus (GPa) = 24.68963 27.84631 26.26797
#
# Velocity S-wave (km/s) = 3.53450 3.75366 3.64573
# Velocity P-wave (km/s) = 6.55372 6.88623 6.72203
#
# Compressibility (1/GPa) = 0.01924337
#
# Stress axis : x y z
#
# Youngs Moduli (GPa) = 99.36607 73.53501 40.07298
#
# Poissons Ratio (x) = 0.11182 0.20215
# Poissons Ratio (y) = 0.15110 0.32546
# Poissons Ratio (z) = 0.50126 0.59723
#
# Static dielectric constant tensor:
#      x y z
#    x 3.742090 0.000000 0.000000 
#    y 0.000000 3.668810 0.000000 
#    z 0.000000 0.000000 3.403730 
# 
# 
# High freq. dielectric constant tensor:
#      x y z
#    x 1.790490 0.000000 0.000000 
#    y 0.000000 1.776850 0.000000 
#    z 0.000000 0.000000 1.746800 
# 
# From -- ./inp_files/4647.got.cif
#   From: 2010.03.12/outbox.cif.g09.slc.cpg/sg55_3_cif.got.tgz:4647.got - 2010.04.16 15:19:21.
