data_PCOD8226469
_publ_section_title
;
Structure prediction by ZEFSAII (Michael W. Deem and Ramdas Pophale) SiO2 
 PCOD8226469
Probable space group: P B A M
;
_chemical_formula_sum "Si O2"
_cell_formula_units_Z 64
_cell_length_a 23.816904
_cell_length_b 15.413550
_cell_length_c 9.055115
_cell_angle_alpha 90.000000
_cell_angle_beta 90.000000
_cell_angle_gamma 90.000000
_cell_volume 3324.160250
_symmetry_space_group_name_H-M "P B A M"
_symmetry_group_IT_number 55
_symmetry_cell_setting 'orthorhombic'
loop_
_space_group_symop_operation_xyz
x,y,z
-x,-y,z
1/2+x,1/2-y,-z
1/2-x,1/2+y,-z
-x,-y,-z
x,y,-z
1/2-x,1/2+y,z
1/2+x,1/2-y,z
loop_
_atom_site_type_symbol
_atom_site_label
_atom_site_fract_x
_atom_site_fract_y
_atom_site_fract_z
Si Si1 0.893750 0.415888 0.671812
Si Si2 0.912213 0.990658 0.824395
Si Si3 0.496950 0.169678 0.825323
Si Si4 0.993631 0.136671 0.824396
Si Si5 0.884028 0.591899 0.170635
Si Si6 0.779924 0.326573 0.327996
Si Si7 0.286738 0.521349 0.174391
Si Si8 0.733815 0.161063 0.169917
O O1 0.906851 0.424725 0.500000
O O2 0.950924 0.392023 0.753897
O O3 0.871959 0.507659 0.731705
O O4 0.845762 0.344246 0.702892
O O5 0.849809 0.982786 0.761095
O O6 0.949402 0.909665 0.767519
O O7 0.940031 0.081081 0.769761
O O8 0.911113 0.991278 0.000000
O O9 0.489684 0.266509 0.759938
O O10 0.558428 0.136944 0.779592
O O11 0.488618 0.166911 0.000000
O O12 0.995432 0.141028 0.000000
O O13 0.833505 0.660778 0.194538
O O14 0.886161 0.562583 0.000000
O O15 0.766351 0.331639 0.500000
O O16 0.742986 0.397676 0.247209
O O17 0.764182 0.231951 0.269517
O O18 0.256181 0.432815 0.218452
O O19 0.285949 0.536369 0.000000
O O20 0.749009 0.180764 0.000000
#
# Coordination Sequence:
#
# PCOD8226469 Si02
#       8
#     8   8   8   8   8   8   8   8
#     4  11  24  41  58  79 112 155 195 235 284 343
#     4   8  15  28  51  81 113 142 178 222 276 334
#     4  10  21  34  58  87 113 144 186 239 291 341
#     4   8  15  29  49  80 115 145 174 221 278 335
#     4  10  21  39  60  87 115 144 186 241 298 345
#     4  11  25  41  58  83 118 160 198 235 289 351
#     4  10  20  36  62  90 113 146 192 245 294 343
#     4  10  22  38  61  91 119 149 192 245 297 345
#
# _framework density 19.252983
#
# number of rings (size 3 to 8) (size 9 to 14) (size 15 to 20)
#    0.000    2.250    1.250    1.875    3.500    4.500 
#    0.000    0.000    0.000    0.000    0.000    1.750 
#    0.000    0.000    0.000    0.000    0.000    0.000 
#
# Total GULP energy -793635.613061 kJ/mol
# GULP energy per Si atom -12400.556454 kJ/mol
# Density = 1.920916 g / cm^3
# Si number density = 19.252983 Si / 1000 Ang^3
#
#
#
# Elastic Constant Matrix: (Units=GPa)
#
#
# Indices 1 2 3 4 5 6 
#
# 1 101.2642 10.0718 27.4406 0.0000 0.0000 0.0000
# 2 10.0718 77.2914 25.8323 0.0000 0.0000 0.0000
# 3 27.4406 25.8323 37.6910 0.0000 0.0000 0.0000
# 4 0.0000 0.0000 0.0000 15.0950 0.0000 0.0000
# 5 0.0000 0.0000 0.0000 0.0000 17.2405 0.0000
# 6 0.0000 0.0000 0.0000 0.0000 0.0000 26.4090
#
#
#
# Elastic Compliance Matrix: (Units=1/GPa)
#
#
# Indices 1 2 3 4 5 6 
#
# 1 0.012499 0.001832 -0.010356 0.000000 0.000000 0.000000
# 2 0.001832 0.017051 -0.013020 0.000000 0.000000 0.000000
# 3 -0.010356 -0.013020 0.042995 0.000000 0.000000 0.000000
# 4 0.000000 0.000000 0.000000 0.066247 0.000000 0.000000
# 5 0.000000 0.000000 0.000000 0.000000 0.058003 0.000000
# 6 0.000000 0.000000 0.000000 0.000000 0.000000 0.037866
#
#
# Mechanical properties :
#
#
# Convention : Reuss Voigt Hill
#
# Bulk Modulus (GPa) = 33.94729 38.10402 36.02565
# Shear Modulus (GPa) = 17.38726 21.94235 19.66481
#
# Velocity S-wave (km/s) = 3.00841 3.37959 3.19939
# Velocity P-wave (km/s) = 5.45325 5.92140 5.69214
#
# Compressibility (1/GPa) = 0.02945743
#
# Stress axis : x y z
#
# Youngs Moduli (GPa) = 80.00567 58.64794 23.25873
#
# Poissons Ratio (x) = -0.10746 0.24086
# Poissons Ratio (y) = -0.14660 0.30283
# Poissons Ratio (z) = 0.82852 0.76361
#
# Static dielectric constant tensor:
#      x y z
#    x 3.798270 0.000000 0.000000 
#    y 0.000000 3.633020 0.000000 
#    z 0.000000 0.000000 3.176320 
# 
# 
# High freq. dielectric constant tensor:
#      x y z
#    x 1.765450 0.000000 0.000000 
#    y 0.000000 1.755040 0.000000 
#    z 0.000000 0.000000 1.710590 
# 
# From -- ./inp_files/9643.got.cif
#   From: 2010.03.12/outbox.cif.g09.slc.cpg/sg55_5_cif.got.tgz:9643.got - 2010.04.16 15:19:21.
