data_PCOD8226870
_publ_section_title
;
Structure prediction by ZEFSAII (Michael W. Deem and Ramdas Pophale) SiO2 
 PCOD8226870
Probable space group: P B A M
;
_chemical_formula_sum "Si O2"
_cell_formula_units_Z 64
_cell_length_a 20.120295
_cell_length_b 18.002257
_cell_length_c 9.301772
_cell_angle_alpha 90.000000
_cell_angle_beta 90.000000
_cell_angle_gamma 90.000000
_cell_volume 3369.201547
_symmetry_space_group_name_H-M "P B A M"
_symmetry_group_IT_number 55
_symmetry_cell_setting 'orthorhombic'
loop_
_space_group_symop_operation_xyz
x,y,z
-x,-y,z
1/2+x,1/2-y,-z
1/2-x,1/2+y,-z
-x,-y,-z
x,y,-z
1/2-x,1/2+y,z
1/2+x,1/2-y,z
loop_
_atom_site_type_symbol
_atom_site_label
_atom_site_fract_x
_atom_site_fract_y
_atom_site_fract_z
Si Si1 0.796353 0.066142 0.346494
Si Si2 0.744079 0.218145 0.670199
Si Si3 0.501842 0.617159 0.829350
Si Si4 0.522289 0.780567 0.831226
Si Si5 0.103090 0.006418 0.168568
Si Si6 0.650798 0.010144 0.343050
Si Si7 0.879812 0.649609 0.169106
Si Si8 0.150275 0.659520 0.330169
O O1 0.834239 0.062014 0.500000
O O2 0.795432 0.151296 0.290121
O O3 0.721813 0.043595 0.370865
O O4 0.825546 0.005567 0.237833
O O5 0.727514 0.218281 0.500000
O O6 0.674739 0.204230 0.755848
O O7 0.783519 0.293510 0.716772
O O8 0.512553 0.698226 0.766169
O O9 0.559807 0.563153 0.775442
O O10 0.430729 0.583175 0.779239
O O11 0.501912 0.618732 0.000000
O O12 0.453582 0.821712 0.799566
O O13 0.583732 0.815201 0.748503
O O14 0.538914 0.780001 0.000000
O O15 0.111804 0.005628 0.000000
O O16 0.613792 0.010326 0.500000
O O17 0.616492 0.065068 0.228513
O O18 0.658263 0.926340 0.284126
O O19 0.863269 0.648176 0.000000
O O20 0.140466 0.669226 0.500000
#
# Coordination Sequence:
#
# PCOD8226870 Si02
#       8
#     8   8   8   8   8   8   8   8
#     4   9  17  30  48  71 100 129 157 201 259 305
#     4   9  19  36  56  78 107 140 174 217 267 319
#     4   8  16  31  47  67  99 134 165 199 247 305
#     4  10  21  36  53  76 108 141 174 220 271 315
#     4   9  16  28  49  72  95 130 170 202 239 301
#     4   9  20  38  55  73 102 137 173 218 269 316
#     4  10  21  36  55  79 107 142 182 220 264 319
#     4  10  21  37  58  82 105 136 180 223 266 319
#
# _framework density 18.995598999999999
#
# number of rings (size 3 to 8) (size 9 to 14) (size 15 to 20)
#    0.000    2.750    0.000    2.625    0.000    5.500 
#    0.000    4.375    0.000    0.000    0.000    0.000 
#    0.000    0.000    0.000    0.000    0.000    0.000 
#
# Total GULP energy -792898.055427 kJ/mol
# GULP energy per Si atom -12389.032116 kJ/mol
# Density = 1.895236 g / cm^3
# Si number density = 18.995599 Si / 1000 Ang^3
#
#
#
# Elastic Constant Matrix: (Units=GPa)
#
#
# Indices 1 2 3 4 5 6 
#
# 1 49.4867 33.7944 28.5510 0.0000 0.0000 0.0000
# 2 33.7944 136.4601 36.4319 0.0000 0.0000 0.0000
# 3 28.5510 36.4319 54.3773 0.0000 0.0000 0.0000
# 4 0.0000 0.0000 0.0000 118.6646 0.0000 0.0000
# 5 0.0000 0.0000 0.0000 0.0000 38.9598 0.0000
# 6 0.0000 0.0000 0.0000 0.0000 0.0000 24.5242
#
#
#
# Elastic Compliance Matrix: (Units=1/GPa)
#
#
# Indices 1 2 3 4 5 6 
#
# 1 0.030697 -0.004018 -0.013426 0.000000 0.000000 0.000000
# 2 -0.004018 0.009450 -0.004222 0.000000 0.000000 0.000000
# 3 -0.013426 -0.004222 0.028268 0.000000 0.000000 0.000000
# 4 0.000000 0.000000 0.000000 0.008427 0.000000 0.000000
# 5 0.000000 0.000000 0.000000 0.000000 0.025667 0.000000
# 6 0.000000 0.000000 0.000000 0.000000 0.000000 0.040776
#
#
# Mechanical properties :
#
#
# Convention : Reuss Voigt Hill
#
# Bulk Modulus (GPa) = 39.86568 48.65321 44.25945
# Shear Modulus (GPa) = 25.64381 45.86616 35.75498
#
# Velocity S-wave (km/s) = 3.67820 4.91916 4.34323
# Velocity P-wave (km/s) = 6.25070 7.61135 6.96433
#
# Compressibility (1/GPa) = 0.02508423
#
# Stress axis : x y z
#
# Youngs Moduli (GPa) = 32.57637 105.81631 35.37567
#
# Poissons Ratio (x) = 0.42514 0.47495
# Poissons Ratio (y) = 0.13088 0.14936
# Poissons Ratio (z) = 0.43736 0.44676
#
# Static dielectric constant tensor:
#      x y z
#    x 3.336740 0.000000 0.000000 
#    y 0.000000 4.026740 0.000000 
#    z 0.000000 0.000000 3.561810 
# 
# 
# High freq. dielectric constant tensor:
#      x y z
#    x 1.727840 0.000000 0.000000 
#    y 0.000000 1.747230 0.000000 
#    z 0.000000 0.000000 1.721470 
# 
# From -- ./inp_files/9056.got.cif
#   From: 2010.03.12/outbox.cif.g09.slc.cpg/sg55_5_cif.got.tgz:9056.got - 2010.04.16 15:19:21.
