data_PCOD8226599
_publ_section_title
;
Structure prediction by ZEFSAII (Michael W. Deem and Ramdas Pophale) SiO2 
 PCOD8226599
Probable space group: P B A M
;
_chemical_formula_sum "Si O2"
_cell_formula_units_Z 48
_cell_length_a 14.932615
_cell_length_b 18.966818
_cell_length_c 9.027058
_cell_angle_alpha 90.000000
_cell_angle_beta 90.000000
_cell_angle_gamma 90.000000
_cell_volume 2556.681199
_symmetry_space_group_name_H-M "P B A M"
_symmetry_group_IT_number 55
_symmetry_cell_setting 'orthorhombic'
loop_
_space_group_symop_operation_xyz
x,y,z
-x,-y,z
1/2+x,1/2-y,-z
1/2-x,1/2+y,-z
-x,-y,-z
x,y,-z
1/2-x,1/2+y,z
1/2+x,1/2-y,z
loop_
_atom_site_type_symbol
_atom_site_label
_atom_site_fract_x
_atom_site_fract_y
_atom_site_fract_z
Si Si1 0.129957 0.672232 0.826916
Si Si2 0.521114 0.420454 0.328953
Si Si3 0.872300 0.165139 0.174239
Si Si4 0.779827 0.575818 0.675993
Si Si5 0.965446 0.577574 0.826795
Si Si6 0.728062 0.420641 0.671365
O O1 0.123151 0.753248 0.781484
O O2 0.217127 0.639480 0.752776
O O3 0.040284 0.632817 0.773638
O O4 0.142108 0.661275 0.000000
O O5 0.500000 0.500000 0.281690
O O6 0.493815 0.408713 0.500000
O O7 0.465224 0.368730 0.225621
O O8 0.624526 0.404161 0.300224
O O9 0.788929 0.131535 0.257936
O O10 0.860240 0.154076 0.000000
O O11 0.775672 0.580816 0.500000
O O12 0.877956 0.595464 0.732737
O O13 0.752881 0.498006 0.733272
O O14 0.000000 0.500000 0.787531
O O15 0.942669 0.584867 0.000000
O O16 0.752797 0.417642 0.500000
#
# Coordination Sequence:
#
# PCOD8226599 Si02
#       6
#     8   8   8   8   8   8
#     4  10  23  41  59  85 123 157 192 244 298 347
#     4  10  20  39  62  86 118 153 192 245 296 343
#     4  11  24  40  59  87 121 157 196 242 295 352
#     4  11  22  38  61  89 120 155 197 244 291 349
#     4  10  20  37  62  89 118 155 197 243 293 345
#     4  10  21  37  61  89 117 152 196 242 291 349
#
# _framework density 18.774339999999999
#
# number of rings (size 3 to 8) (size 9 to 14) (size 15 to 20)
#    0.000    1.667    3.333    1.000    0.000    5.333 
#    0.000    5.000    0.000    0.000    0.000    0.000 
#    0.000    0.000    0.000    0.000    0.000    0.000 
#
# Total GULP energy -595465.767364 kJ/mol
# GULP energy per Si atom -12405.536820 kJ/mol
# Density = 1.873161 g / cm^3
# Si number density = 18.774340 Si / 1000 Ang^3
#
#
#
# Elastic Constant Matrix: (Units=GPa)
#
#
# Indices 1 2 3 4 5 6 
#
# 1 130.0651 82.6708 50.9040 0.0000 0.0000 0.0000
# 2 82.6708 142.5764 57.7549 0.0000 0.0000 0.0000
# 3 50.9040 57.7549 58.9481 0.0000 0.0000 0.0000
# 4 0.0000 0.0000 0.0000 28.8495 0.0000 0.0000
# 5 0.0000 0.0000 0.0000 0.0000 43.4441 0.0000
# 6 0.0000 0.0000 0.0000 0.0000 0.0000 34.4520
#
#
#
# Elastic Compliance Matrix: (Units=1/GPa)
#
#
# Indices 1 2 3 4 5 6 
#
# 1 0.013587 -0.005182 -0.006656 0.000000 0.000000 0.000000
# 2 -0.005182 0.013606 -0.008855 0.000000 0.000000 0.000000
# 3 -0.006656 -0.008855 0.031388 0.000000 0.000000 0.000000
# 4 0.000000 0.000000 0.000000 0.034663 0.000000 0.000000
# 5 0.000000 0.000000 0.000000 0.000000 0.023018 0.000000
# 6 0.000000 0.000000 0.000000 0.000000 0.000000 0.029026
#
#
# Mechanical properties :
#
#
# Convention : Reuss Voigt Hill
#
# Bulk Modulus (GPa) = 58.15972 79.36102 68.76037
# Shear Modulus (GPa) = 25.98684 30.69977 28.34330
#
# Velocity S-wave (km/s) = 3.72448 4.04815 3.88968
# Velocity P-wave (km/s) = 7.03855 8.01329 7.54168
#
# Compressibility (1/GPa) = 0.01719403
#
# Stress axis : x y z
#
# Youngs Moduli (GPa) = 73.59850 73.49851 31.85969
#
# Poissons Ratio (x) = 0.38089 0.21205
# Poissons Ratio (y) = 0.38140 0.28213
# Poissons Ratio (z) = 0.48986 0.65085
#
# Static dielectric constant tensor:
#      x y z
#    x 3.540200 0.000000 0.000000 
#    y 0.000000 3.513420 0.000000 
#    z 0.000000 0.000000 3.371740 
# 
# 
# High freq. dielectric constant tensor:
#      x y z
#    x 1.744300 0.000000 0.000000 
#    y 0.000000 1.730320 0.000000 
#    z 0.000000 0.000000 1.726080 
# 
# From -- ./inp_files/5624.got.cif
#   From: 2010.03.12/outbox.cif.g09.slc.cpg/sg55_3_cif.got.tgz:5624.got - 2010.04.16 15:19:21.
