data_PCOD8226568
_publ_section_title
;
Structure prediction by ZEFSAII (Michael W. Deem and Ramdas Pophale) SiO2 
 PCOD8226568
Probable space group: P B A M
;
_chemical_formula_sum "Si O2"
_cell_formula_units_Z 64
_cell_length_a 18.924248
_cell_length_b 18.927987
_cell_length_c 9.070659
_cell_angle_alpha 90.000000
_cell_angle_beta 90.000000
_cell_angle_gamma 90.000000
_cell_volume 3249.091188
_symmetry_space_group_name_H-M "P B A M"
_symmetry_group_IT_number 55
_symmetry_cell_setting 'orthorhombic'
loop_
_space_group_symop_operation_xyz
x,y,z
-x,-y,z
1/2+x,1/2-y,-z
1/2-x,1/2+y,-z
-x,-y,-z
x,y,-z
1/2-x,1/2+y,z
1/2+x,1/2-y,z
loop_
_atom_site_type_symbol
_atom_site_label
_atom_site_fract_x
_atom_site_fract_y
_atom_site_fract_z
Si Si1 0.526205 0.137102 0.328908
Si Si2 0.365099 0.977347 0.331261
Si Si3 0.966171 0.895957 0.827231
Si Si4 0.121429 0.622633 0.174609
Si Si5 0.393348 0.742602 0.171949
Si Si6 0.269250 0.243298 0.170348
Si Si7 0.108206 0.964663 0.173270
Si Si8 0.770365 0.110529 0.671866
O O1 0.513285 0.153736 0.500000
O O2 0.557927 0.058229 0.308545
O O3 0.452955 0.145356 0.243718
O O4 0.584769 0.189868 0.265384
O O5 0.355967 0.002441 0.500000
O O6 0.307710 0.917567 0.290406
O O7 0.355718 0.045219 0.228509
O O8 0.939403 0.821983 0.762876
O O9 0.048940 0.905208 0.792738
O O10 0.920373 0.960871 0.764419
O O11 0.952754 0.896842 0.000000
O O12 0.180956 0.679039 0.224264
O O13 0.113287 0.620753 0.000000
O O14 0.311860 0.722471 0.198680
O O15 0.408556 0.757425 0.000000
O O16 0.287348 0.314326 0.256607
O O17 0.283870 0.259447 0.000000
O O18 0.177604 0.948077 0.264044
O O19 0.125658 0.967347 0.000000
O O20 0.782728 0.118913 0.500000
#
# Coordination Sequence:
#
# PCOD8226568 Si02
#       8
#     8   8   8   8   8   8   8   8
#     4  11  23  42  63  87 122 165 201 240 301 361
#     4  10  23  43  62  85 120 161 201 244 300 358
#     4   8  17  34  58  86 116 151 192 241 296 348
#     4  11  25  41  64  96 122 149 200 256 299 351
#     4  10  20  37  61  86 117 155 200 247 292 348
#     4  10  23  41  60  87 120 155 195 246 298 348
#     4   9  18  35  59  86 116 153 195 240 293 351
#     4  11  23  39  59  85 120 160 197 240 292 355
#
# _framework density 19.697814999999999
#
# number of rings (size 3 to 8) (size 9 to 14) (size 15 to 20)
#    0.000    2.000    1.250    2.250    3.500    4.500 
#    0.000    1.875    0.000    0.000    0.000    0.000 
#    0.000    0.000    0.000    0.000    0.000    0.000 
#
# Total GULP energy -793647.392309 kJ/mol
# GULP energy per Si atom -12400.740505 kJ/mol
# Density = 1.965298 g / cm^3
# Si number density = 19.697815 Si / 1000 Ang^3
#
#
#
# Elastic Constant Matrix: (Units=GPa)
#
#
# Indices 1 2 3 4 5 6 
#
# 1 99.8207 46.5280 50.8337 0.0000 0.0000 0.0000
# 2 46.5280 105.3246 50.7354 0.0000 0.0000 0.0000
# 3 50.8337 50.7354 74.5413 0.0000 0.0000 0.0000
# 4 0.0000 0.0000 0.0000 16.5722 0.0000 0.0000
# 5 0.0000 0.0000 0.0000 0.0000 25.8452 0.0000
# 6 0.0000 0.0000 0.0000 0.0000 0.0000 36.4489
#
#
#
# Elastic Compliance Matrix: (Units=1/GPa)
#
#
# Indices 1 2 3 4 5 6 
#
# 1 0.015837 -0.002669 -0.008984 0.000000 0.000000 0.000000
# 2 -0.002669 0.014575 -0.008101 0.000000 0.000000 0.000000
# 3 -0.008984 -0.008101 0.025055 0.000000 0.000000 0.000000
# 4 0.000000 0.000000 0.000000 0.060342 0.000000 0.000000
# 5 0.000000 0.000000 0.000000 0.000000 0.038692 0.000000
# 6 0.000000 0.000000 0.000000 0.000000 0.000000 0.027436
#
#
# Mechanical properties :
#
#
# Convention : Reuss Voigt Hill
#
# Bulk Modulus (GPa) = 62.64947 63.98677 63.31812
# Shear Modulus (GPa) = 22.04939 24.54590 23.29764
#
# Velocity S-wave (km/s) = 3.34935 3.53388 3.44285
# Velocity P-wave (km/s) = 6.84338 7.01468 6.92956
#
# Compressibility (1/GPa) = 0.01596183
#
# Stress axis : x y z
#
# Youngs Moduli (GPa) = 63.14442 68.60833 39.91148
#
# Poissons Ratio (x) = 0.18308 0.35855
# Poissons Ratio (y) = 0.16850 0.32331
# Poissons Ratio (z) = 0.56726 0.55578
#
# Static dielectric constant tensor:
#      x y z
#    x 3.701610 0.000000 0.000000 
#    y 0.000000 3.770460 0.000000 
#    z 0.000000 0.000000 3.385940 
# 
# 
# High freq. dielectric constant tensor:
#      x y z
#    x 1.778790 0.000000 0.000000 
#    y 0.000000 1.774510 0.000000 
#    z 0.000000 0.000000 1.749340 
# 
# From -- ./inp_files/9004.got.cif
#   From: 2010.03.12/outbox.cif.g09.slc.cpg/sg55_5_cif.got.tgz:9004.got - 2010.04.16 15:19:21.
