data_PCOD8226504
_publ_section_title
;
Structure prediction by ZEFSAII (Michael W. Deem and Ramdas Pophale) SiO2 
 PCOD8226504
Probable space group: P B A M
;
_chemical_formula_sum "Si O2"
_cell_formula_units_Z 52
_cell_length_a 8.520802
_cell_length_b 25.834047
_cell_length_c 12.386448
_cell_angle_alpha 90.000000
_cell_angle_beta 90.000000
_cell_angle_gamma 90.000000
_cell_volume 2726.589154
_symmetry_space_group_name_H-M "P B A M"
_symmetry_group_IT_number 55
_symmetry_cell_setting 'orthorhombic'
loop_
_space_group_symop_operation_xyz
x,y,z
-x,-y,z
1/2+x,1/2-y,-z
1/2-x,1/2+y,-z
-x,-y,-z
x,y,-z
1/2-x,1/2+y,z
1/2+x,1/2-y,z
loop_
_atom_site_type_symbol
_atom_site_label
_atom_site_fract_x
_atom_site_fract_y
_atom_site_fract_z
Si Si1 0.077822 0.921876 0.684359
Si Si2 0.469941 0.808944 0.125046
Si Si3 0.040161 0.808215 0.377807
Si Si4 0.704262 0.085515 0.124505
Si Si5 0.500000 0.000000 0.230976
Si Si6 0.257117 0.733195 0.247704
Si Si7 0.231002 0.024691 0.623396
O O1 0.094745 0.867669 0.623285
O O2 0.134242 0.915413 0.808042
O O3 0.899327 0.941123 0.683452
O O4 0.186247 0.963833 0.623407
O O5 0.393982 0.863695 0.153710
O O6 0.347315 0.763904 0.153748
O O7 0.628432 0.804019 0.194243
O O8 0.513263 0.804320 0.000000
O O9 0.011549 0.790276 0.500000
O O10 0.177994 0.773438 0.329233
O O11 0.878583 0.802645 0.312112
O O12 0.598979 0.036310 0.152667
O O13 0.753741 0.084145 0.000000
O O14 0.389575 0.033949 0.309761
O O15 0.252142 0.043263 0.500000
#
# Coordination Sequence:
#
# PCOD8226504 Si02
#       7
#     8   8   8   8   4   8   8
#     4  10  20  37  58  83 110 148 186 228 272 331
#     4  10  20  38  59  82 111 146 185 234 279 323
#     4  11  21  37  57  80 115 150 181 226 277 328
#     4  10  21  39  58  82 114 149 183 228 281 330
#     4  10  22  36  60  84 118 142 184 228 280 338
#     4  10  22  36  57  83 113 142 194 225 275 330
#     4  10  20  37  60  86 113 144 184 230 276 330
#
# _framework density 19.071446999999999
#
# number of rings (size 3 to 8) (size 9 to 14) (size 15 to 20)
#    0.000    1.846    1.538    3.231    2.154    0.000 
#    0.000    7.692    0.000    0.000    0.000    0.000 
#    0.000    0.000    0.000    0.000    0.000    0.000 
#
# Total GULP energy -644973.919749 kJ/mol
# GULP energy per Si atom -12403.344611 kJ/mol
# Density = 1.902804 g / cm^3
# Si number density = 19.071447 Si / 1000 Ang^3
#
#
#
# Elastic Constant Matrix: (Units=GPa)
#
#
# Indices 1 2 3 4 5 6 
#
# 1 62.9919 7.4489 30.1330 0.0000 0.0000 0.0000
# 2 7.4489 71.2417 27.9417 0.0000 0.0000 0.0000
# 3 30.1330 27.9417 97.0793 0.0000 0.0000 0.0000
# 4 0.0000 0.0000 0.0000 20.9409 0.0000 0.0000
# 5 0.0000 0.0000 0.0000 0.0000 10.3216 0.0000
# 6 0.0000 0.0000 0.0000 0.0000 0.0000 23.3618
#
#
#
# Elastic Compliance Matrix: (Units=1/GPa)
#
#
# Indices 1 2 3 4 5 6 
#
# 1 0.018651 0.000361 -0.005893 0.000000 0.000000 0.000000
# 2 0.000361 0.015830 -0.004668 0.000000 0.000000 0.000000
# 3 -0.005893 -0.004668 0.013474 0.000000 0.000000 0.000000
# 4 0.000000 0.000000 0.000000 0.047753 0.000000 0.000000
# 5 0.000000 0.000000 0.000000 0.000000 0.096885 0.000000
# 6 0.000000 0.000000 0.000000 0.000000 0.000000 0.042805
#
#
# Mechanical properties :
#
#
# Convention : Reuss Voigt Hill
#
# Bulk Modulus (GPa) = 36.29189 40.26221 38.27705
# Shear Modulus (GPa) = 18.86910 21.97749 20.42329
#
# Velocity S-wave (km/s) = 3.14887 3.39835 3.27599
# Velocity P-wave (km/s) = 5.68254 6.04611 5.86714
#
# Compressibility (1/GPa) = 0.02755436
#
# Stress axis : x y z
#
# Youngs Moduli (GPa) = 53.61509 63.17147 74.21822
#
# Poissons Ratio (x) = -0.02282 0.43739
# Poissons Ratio (y) = -0.01937 0.34648
# Poissons Ratio (z) = 0.31597 0.29491
#
# Static dielectric constant tensor:
#      x y z
#    x 3.498060 0.000000 0.000000 
#    y 0.000000 3.448090 0.000000 
#    z 0.000000 0.000000 3.466580 
# 
# 
# High freq. dielectric constant tensor:
#      x y z
#    x 1.743070 0.000000 0.000000 
#    y 0.000000 1.740770 0.000000 
#    z 0.000000 0.000000 1.746050 
# 
# From -- ./inp_files/12377.got.cif
#   From: 2010.03.12/outbox.cif.g09.slc.cpg/sg55_7_cif.got.tgz:12377.got - 2010.04.16 15:19:21.
