data_PCOD8226324
_publ_section_title
;
Structure prediction by ZEFSAII (Michael W. Deem and Ramdas Pophale) SiO2 
 PCOD8226324
Probable space group: P B A M
;
_chemical_formula_sum "Si O2"
_cell_formula_units_Z 56
_cell_length_a 13.501755
_cell_length_b 23.050623
_cell_length_c 8.840376
_cell_angle_alpha 90.000000
_cell_angle_beta 90.000000
_cell_angle_gamma 90.000000
_cell_volume 2751.335981
_symmetry_space_group_name_H-M "P B A M"
_symmetry_group_IT_number 55
_symmetry_cell_setting 'orthorhombic'
loop_
_space_group_symop_operation_xyz
x,y,z
-x,-y,z
1/2+x,1/2-y,-z
1/2-x,1/2+y,-z
-x,-y,-z
x,y,-z
1/2-x,1/2+y,z
1/2+x,1/2-y,z
loop_
_atom_site_type_symbol
_atom_site_label
_atom_site_fract_x
_atom_site_fract_y
_atom_site_fract_z
Si Si1 0.991758 0.832736 0.822353
Si Si2 0.807507 0.163149 0.321205
Si Si3 0.793920 0.765665 0.822689
Si Si4 0.402761 0.032080 0.175171
Si Si5 0.694055 0.867547 0.669525
Si Si6 0.203439 0.961838 0.823842
Si Si7 0.396915 0.562935 0.670573
O O1 0.901626 0.790460 0.778671
O O2 0.972790 0.898842 0.768815
O O3 0.088751 0.809682 0.736483
O O4 0.011182 0.833486 0.000000
O O5 0.806202 0.158400 0.500000
O O6 0.719764 0.205360 0.265406
O O7 0.790521 0.100719 0.249708
O O8 0.709061 0.810782 0.771811
O O9 0.783697 0.754927 0.000000
O O10 0.393576 0.093093 0.262747
O O11 0.500000 0.000000 0.237990
O O12 0.309200 0.991199 0.204016
O O13 0.414720 0.047640 0.000000
O O14 0.666337 0.847951 0.500000
O O15 0.792361 0.905466 0.671208
O O16 0.116267 0.999484 0.744895
O O17 0.178147 0.956480 0.000000
O O18 0.437866 0.556264 0.500000
#
# Coordination Sequence:
#
# PCOD8226324 Si02
#       7
#     8   8   8   8   8   8   8
#     4  10  21  39  63  88 113 149 196 240 289 350
#     4  12  25  40  59  85 120 155 193 243 298 348
#     4  10  21  40  63  84 111 150 195 241 287 345
#     4   9  18  34  56  83 114 152 195 241 288 343
#     4   9  17  31  54  82 111 146 185 232 285 336
#     4  10  20  36  57  82 116 154 194 239 292 347
#     4   9  17  32  56  85 116 146 182 229 285 343
#
# _framework density 20.353746999999998
#
# number of rings (size 3 to 8) (size 9 to 14) (size 15 to 20)
#    0.000    2.143    0.000    3.429    0.000    6.571 
#    2.571    2.857    0.000    0.000    0.000    0.000 
#    0.000    0.000    0.000    0.000    0.000    0.000 
#
# Total GULP energy -694558.427955 kJ/mol
# GULP energy per Si atom -12402.829071 kJ/mol
# Density = 2.030742 g / cm^3
# Si number density = 20.353747 Si / 1000 Ang^3
#
#
#
# Elastic Constant Matrix: (Units=GPa)
#
#
# Indices 1 2 3 4 5 6 
#
# 1 37.3457 13.0482 20.0166 0.0000 0.0000 0.0000
# 2 13.0482 109.7852 47.2372 0.0000 0.0000 0.0000
# 3 20.0166 47.2372 108.4940 0.0000 0.0000 0.0000
# 4 0.0000 0.0000 0.0000 36.0888 0.0000 0.0000
# 5 0.0000 0.0000 0.0000 0.0000 25.5870 0.0000
# 6 0.0000 0.0000 0.0000 0.0000 0.0000 26.1630
#
#
#
# Elastic Compliance Matrix: (Units=1/GPa)
#
#
# Indices 1 2 3 4 5 6 
#
# 1 0.029902 -0.001452 -0.004884 0.000000 0.000000 0.000000
# 2 -0.001452 0.011279 -0.004643 0.000000 0.000000 0.000000
# 3 -0.004884 -0.004643 0.012140 0.000000 0.000000 0.000000
# 4 0.000000 0.000000 0.000000 0.027709 0.000000 0.000000
# 5 0.000000 0.000000 0.000000 0.000000 0.039082 0.000000
# 6 0.000000 0.000000 0.000000 0.000000 0.000000 0.038222
#
#
# Mechanical properties :
#
#
# Convention : Reuss Voigt Hill
#
# Bulk Modulus (GPa) = 31.88602 46.24765 39.06684
# Shear Modulus (GPa) = 26.21265 29.25597 27.73431
#
# Velocity S-wave (km/s) = 3.59256 3.79539 3.69537
# Velocity P-wave (km/s) = 5.73660 6.47903 6.11909
#
# Compressibility (1/GPa) = 0.03136171
#
# Stress axis : x y z
#
# Youngs Moduli (GPa) = 33.44231 88.66064 82.37446
#
# Poissons Ratio (x) = 0.12876 0.40236
# Poissons Ratio (y) = 0.04857 0.38245
# Poissons Ratio (z) = 0.16335 0.41163
#
# Static dielectric constant tensor:
#      x y z
#    x 3.703530 0.000000 0.000000 
#    y 0.000000 3.712370 0.000000 
#    z 0.000000 0.000000 3.788100 
# 
# 
# High freq. dielectric constant tensor:
#      x y z
#    x 1.782220 0.000000 0.000000 
#    y 0.000000 1.795940 0.000000 
#    z 0.000000 0.000000 1.804750 
# 
# From -- ./inp_files/6022.got.cif
#   From: 2010.03.12/outbox.cif.g09.slc.cpg/sg55_4_cif.got.tgz:6022.got - 2010.04.16 15:19:21.
