data_PCOD8226025
_publ_section_title
;
Structure prediction by ZEFSAII (Michael W. Deem and Ramdas Pophale) SiO2 
 PCOD8226025
Probable space group: P B A M
;
_chemical_formula_sum "Si O2"
_cell_formula_units_Z 48
_cell_length_a 28.120172
_cell_length_b 10.190607
_cell_length_c 9.189659
_cell_angle_alpha 90.000000
_cell_angle_beta 90.000000
_cell_angle_gamma 90.000000
_cell_volume 2633.403585
_symmetry_space_group_name_H-M "P B A M"
_symmetry_group_IT_number 55
_symmetry_cell_setting 'orthorhombic'
loop_
_space_group_symop_operation_xyz
x,y,z
-x,-y,z
1/2+x,1/2-y,-z
1/2-x,1/2+y,-z
-x,-y,-z
x,y,-z
1/2-x,1/2+y,z
1/2+x,1/2-y,z
loop_
_atom_site_type_symbol
_atom_site_label
_atom_site_fract_x
_atom_site_fract_y
_atom_site_fract_z
Si Si1 0.691448 0.997912 0.168074
Si Si2 0.551972 0.654868 0.671985
Si Si3 0.301211 0.524967 0.169812
Si Si4 0.149838 0.260013 0.672992
Si Si5 0.641025 0.730148 0.830566
Si Si6 0.052541 0.141178 0.671757
O O1 0.746878 0.009727 0.203271
O O2 0.674370 0.852345 0.208232
O O3 0.662896 0.097583 0.268904
O O4 0.681204 0.031789 0.000000
O O5 0.558866 0.666591 0.500000
O O6 0.590921 0.746756 0.748110
O O7 0.498691 0.699945 0.720323
O O8 0.559650 0.506546 0.730392
O O9 0.314987 0.651879 0.261838
O O10 0.332196 0.401169 0.221765
O O11 0.308519 0.556960 0.000000
O O12 0.154240 0.256613 0.500000
O O13 0.095759 0.231639 0.726191
O O14 0.630023 0.723598 0.000000
O O15 0.052219 0.129876 0.500000
#
# Coordination Sequence:
#
# PCOD8226025 Si02
#       6
#     8   8   8   8   8   8
#     4  10  22  39  55  74 109 152 183 211 260 325
#     4   9  16  32  56  77 103 139 175 214 266 322
#     4  10  20  37  59  78 102 143 185 217 260 318
#     4  11  21  35  56  84 111 135 175 227 269 308
#     4  10  20  34  54  81 107 135 180 227 262 306
#     4   8  16  31  53  79 105 137 173 213 265 323
#
# _framework density 18.227361999999999
#
# number of rings (size 3 to 8) (size 9 to 14) (size 15 to 20)
#    0.000    2.333    1.667    2.500    0.000    4.000 
#    0.000    5.833    0.000    5.000    0.000    0.000 
#    0.000    0.000    0.000    0.000    0.000    0.000 
#
# Total GULP energy -595179.206822 kJ/mol
# GULP energy per Si atom -12399.566809 kJ/mol
# Density = 1.818588 g / cm^3
# Si number density = 18.227362 Si / 1000 Ang^3
#
#
#
# Elastic Constant Matrix: (Units=GPa)
#
#
# Indices 1 2 3 4 5 6 
#
# 1 125.1220 30.4972 37.6073 0.0000 0.0000 0.0000
# 2 30.4972 66.7672 29.1390 0.0000 0.0000 0.0000
# 3 37.6073 29.1390 45.5326 0.0000 0.0000 0.0000
# 4 0.0000 0.0000 0.0000 29.4472 0.0000 0.0000
# 5 0.0000 0.0000 0.0000 0.0000 29.3279 0.0000
# 6 0.0000 0.0000 0.0000 0.0000 0.0000 17.1569
#
#
#
# Elastic Compliance Matrix: (Units=1/GPa)
#
#
# Indices 1 2 3 4 5 6 
#
# 1 0.010729 -0.001434 -0.007944 0.000000 0.000000 0.000000
# 2 -0.001434 0.020973 -0.012238 0.000000 0.000000 0.000000
# 3 -0.007944 -0.012238 0.036356 0.000000 0.000000 0.000000
# 4 0.000000 0.000000 0.000000 0.033959 0.000000 0.000000
# 5 0.000000 0.000000 0.000000 0.000000 0.034097 0.000000
# 6 0.000000 0.000000 0.000000 0.000000 0.000000 0.058286
#
#
# Mechanical properties :
#
#
# Convention : Reuss Voigt Hill
#
# Bulk Modulus (GPa) = 40.27973 47.98987 44.13480
# Shear Modulus (GPa) = 20.33286 24.53163 22.43224
#
# Velocity S-wave (km/s) = 3.34355 3.67259 3.51193
# Velocity P-wave (km/s) = 6.08706 6.66104 6.38051
#
# Compressibility (1/GPa) = 0.02482638
#
# Stress axis : x y z
#
# Youngs Moduli (GPa) = 93.20121 47.67990 27.50610
#
# Poissons Ratio (x) = 0.06836 0.21852
# Poissons Ratio (y) = 0.13363 0.33661
# Poissons Ratio (z) = 0.74043 0.58350
#
# Static dielectric constant tensor:
#      x y z
#    x 3.680150 0.000000 0.000000 
#    y 0.000000 3.223400 0.000000 
#    z 0.000000 0.000000 3.148170 
# 
# 
# High freq. dielectric constant tensor:
#      x y z
#    x 1.723560 0.000000 0.000000 
#    y 0.000000 1.690750 0.000000 
#    z 0.000000 0.000000 1.686220 
# 
# From -- ./inp_files/2825.got.cif
#   From: 2010.03.12/outbox.cif.g09.slc.cpg/sg55_2_cif.got.tgz:2825.got - 2010.04.16 15:19:21.
