data_PCOD8226565
_publ_section_title
;
Structure prediction by ZEFSAII (Michael W. Deem and Ramdas Pophale) SiO2 
 PCOD8226565
Probable space group: P B A M
;
_chemical_formula_sum "Si O2"
_cell_formula_units_Z 48
_cell_length_a 27.573612
_cell_length_b 9.659753
_cell_length_c 9.222453
_cell_angle_alpha 90.000000
_cell_angle_beta 90.000000
_cell_angle_gamma 90.000000
_cell_volume 2456.439840
_symmetry_space_group_name_H-M "P B A M"
_symmetry_group_IT_number 55
_symmetry_cell_setting 'orthorhombic'
loop_
_space_group_symop_operation_xyz
x,y,z
-x,-y,z
1/2+x,1/2-y,-z
1/2-x,1/2+y,-z
-x,-y,-z
x,y,-z
1/2-x,1/2+y,z
1/2+x,1/2-y,z
loop_
_atom_site_type_symbol
_atom_site_label
_atom_site_fract_x
_atom_site_fract_y
_atom_site_fract_z
Si Si1 0.204824 0.663263 0.827898
Si Si2 0.293726 0.848347 0.172233
Si Si3 0.054841 0.025884 0.331647
Si Si4 0.612680 0.206174 0.335848
Si Si5 0.603296 0.711721 0.828022
Si Si6 0.551011 0.940243 0.666612
O O1 0.210488 0.506178 0.768749
O O2 0.248327 0.759358 0.769603
O O3 0.154978 0.731321 0.772158
O O4 0.205268 0.659631 0.000000
O O5 0.341814 0.773186 0.230614
O O6 0.296213 0.846689 0.000000
O O7 0.058822 0.984307 0.500000
O O8 0.069698 0.184835 0.303761
O O9 0.093537 0.937864 0.240092
O O10 0.000000 0.000000 0.275935
O O11 0.631125 0.224408 0.500000
O O12 0.592165 0.053914 0.309820
O O13 0.561280 0.811876 0.770430
O O14 0.601198 0.701578 0.000000
O O15 0.548607 0.889368 0.500000
O O16 0.500000 0.000000 0.716950
#
# Coordination Sequence:
#
# PCOD8226565 Si02
#       6
#     8   8   8   8   8   8
#     4   9  20  36  58  85 112 149 190 231 284 349
#     4  10  20  38  60  82 113 152 192 232 285 348
#     4  10  22  41  61  82 115 159 199 233 281 346
#     4  10  21  37  58  86 115 146 194 244 285 334
#     4  11  22  37  58  89 120 146 190 243 290 336
#     4  10  20  37  61  84 111 154 195 229 283 351
#
# _framework density 19.540474
#
# number of rings (size 3 to 8) (size 9 to 14) (size 15 to 20)
#    0.000    2.000    1.667    1.500    2.333    4.000 
#    0.000    4.167    0.000    0.000    0.000    0.000 
#    0.000    0.000    0.000    0.000    0.000    0.000 
#
# Total GULP energy -595323.350916 kJ/mol
# GULP energy per Si atom -12402.569811 kJ/mol
# Density = 1.949600 g / cm^3
# Si number density = 19.540474 Si / 1000 Ang^3
#
#
#
# Elastic Constant Matrix: (Units=GPa)
#
#
# Indices 1 2 3 4 5 6 
#
# 1 106.0327 20.7324 22.9584 0.0000 0.0000 0.0000
# 2 20.7324 82.4345 21.0699 0.0000 0.0000 0.0000
# 3 22.9584 21.0699 41.0207 0.0000 0.0000 0.0000
# 4 0.0000 0.0000 0.0000 30.9825 0.0000 0.0000
# 5 0.0000 0.0000 0.0000 0.0000 28.8330 0.0000
# 6 0.0000 0.0000 0.0000 0.0000 0.0000 35.2619
#
#
#
# Elastic Compliance Matrix: (Units=1/GPa)
#
#
# Indices 1 2 3 4 5 6 
#
# 1 0.010862 -0.001356 -0.005383 0.000000 0.000000 0.000000
# 2 -0.001356 0.014133 -0.006501 0.000000 0.000000 0.000000
# 3 -0.005383 -0.006501 0.030729 0.000000 0.000000 0.000000
# 4 0.000000 0.000000 0.000000 0.032276 0.000000 0.000000
# 5 0.000000 0.000000 0.000000 0.000000 0.034683 0.000000
# 6 0.000000 0.000000 0.000000 0.000000 0.000000 0.028359
#
#
# Mechanical properties :
#
#
# Convention : Reuss Voigt Hill
#
# Bulk Modulus (GPa) = 34.19242 39.88991 37.04116
# Shear Modulus (GPa) = 26.69952 29.99729 28.34841
#
# Velocity S-wave (km/s) = 3.70045 3.92233 3.81301
# Velocity P-wave (km/s) = 5.98281 6.40088 6.19537
#
# Compressibility (1/GPa) = 0.02924625
#
# Stress axis : x y z
#
# Youngs Moduli (GPa) = 92.06737 70.75444 32.54217
#
# Poissons Ratio (x) = 0.09594 0.17516
# Poissons Ratio (y) = 0.12484 0.21154
# Poissons Ratio (z) = 0.49555 0.45994
#
# Static dielectric constant tensor:
#      x y z
#    x 3.629890 0.000000 0.000000 
#    y 0.000000 3.729260 0.000000 
#    z 0.000000 0.000000 3.274030 
# 
# 
# High freq. dielectric constant tensor:
#      x y z
#    x 1.768360 0.000000 0.000000 
#    y 0.000000 1.771950 0.000000 
#    z 0.000000 0.000000 1.733030 
# 
# From -- ./inp_files/2814.got.cif
#   From: 2010.03.12/outbox.cif.g09.slc.cpg/sg55_2_cif.got.tgz:2814.got - 2010.04.16 15:19:21.
