data_PCOD8226997
_publ_section_title
;
Structure prediction by ZEFSAII (Michael W. Deem and Ramdas Pophale) SiO2 
 PCOD8226997
Probable space group: P B A M
;
_chemical_formula_sum "Si O2"
_cell_formula_units_Z 56
_cell_length_a 19.861288
_cell_length_b 16.172377
_cell_length_c 9.087677
_cell_angle_alpha 90.000000
_cell_angle_beta 90.000000
_cell_angle_gamma 90.000000
_cell_volume 2919.000359
_symmetry_space_group_name_H-M "P B A M"
_symmetry_group_IT_number 55
_symmetry_cell_setting 'orthorhombic'
loop_
_space_group_symop_operation_xyz
x,y,z
-x,-y,z
1/2+x,1/2-y,-z
1/2-x,1/2+y,-z
-x,-y,-z
x,y,-z
1/2-x,1/2+y,z
1/2+x,1/2-y,z
loop_
_atom_site_type_symbol
_atom_site_label
_atom_site_fract_x
_atom_site_fract_y
_atom_site_fract_z
Si Si1 0.032216 0.252698 0.330115
Si Si2 0.814466 0.997755 0.826626
Si Si3 0.610981 0.811816 0.670419
Si Si4 0.645468 0.148406 0.828629
Si Si5 0.702374 0.684538 0.167881
Si Si6 0.323780 0.016304 0.327607
Si Si7 0.943058 0.936666 0.331021
O O1 0.044861 0.277339 0.500000
O O2 0.091942 0.286854 0.230974
O O3 0.027573 0.154536 0.310931
O O4 0.962997 0.291201 0.267347
O O5 0.825434 0.094139 0.788373
O O6 0.747498 0.964613 0.748069
O O7 0.877391 0.945832 0.769204
O O8 0.805175 0.984214 0.000000
O O9 0.611404 0.790919 0.500000
O O10 0.667938 0.754206 0.737049
O O11 0.627077 0.906956 0.703016
O O12 0.718177 0.188652 0.801672
O O13 0.639104 0.062423 0.741904
O O14 0.633420 0.130205 0.000000
O O15 0.685487 0.703921 0.000000
O O16 0.311927 0.001452 0.500000
O O17 0.923337 0.954965 0.500000
O O18 0.000000 0.000000 0.275948
#
# Coordination Sequence:
#
# PCOD8226997 Si02
#       7
#     8   8   8   8   8   8   8
#     4  10  22  39  58  84 117 154 194 240 293 348
#     4  10  21  37  57  84 117 152 192 238 290 350
#     4  10  22  38  59  86 114 148 194 241 291 346
#     4  10  22  40  59  85 117 153 195 239 293 351
#     4   9  20  37  57  82 114 150 189 234 286 344
#     4  10  21  38  60  86 113 148 194 243 294 345
#     4  10  21  37  59  86 118 155 197 242 292 351
#
# _framework density 19.184649
#
# number of rings (size 3 to 8) (size 9 to 14) (size 15 to 20)
#    0.000    2.143    0.000    3.000    2.000    7.714 
#    0.000    2.857    0.000    0.000    0.000    0.000 
#    0.000    0.000    0.000    0.000    0.000    0.000 
#
# Total GULP energy -694651.709243 kJ/mol
# GULP energy per Si atom -12404.494808 kJ/mol
# Density = 1.914098 g / cm^3
# Si number density = 19.184649 Si / 1000 Ang^3
#
#
#
# Elastic Constant Matrix: (Units=GPa)
#
#
# Indices 1 2 3 4 5 6 
#
# 1 99.9594 51.6242 43.8717 0.0000 0.0000 0.0000
# 2 51.6242 78.8151 40.4436 0.0000 0.0000 0.0000
# 3 43.8717 40.4436 77.2031 0.0000 0.0000 0.0000
# 4 0.0000 0.0000 0.0000 29.6896 0.0000 0.0000
# 5 0.0000 0.0000 0.0000 0.0000 20.0344 0.0000
# 6 0.0000 0.0000 0.0000 0.0000 0.0000 36.3060
#
#
#
# Elastic Compliance Matrix: (Units=1/GPa)
#
#
# Indices 1 2 3 4 5 6 
#
# 1 0.016449 -0.008175 -0.005065 0.000000 0.000000 0.000000
# 2 -0.008175 0.021416 -0.006573 0.000000 0.000000 0.000000
# 3 -0.005065 -0.006573 0.019274 0.000000 0.000000 0.000000
# 4 0.000000 0.000000 0.000000 0.033682 0.000000 0.000000
# 5 0.000000 0.000000 0.000000 0.000000 0.049914 0.000000
# 6 0.000000 0.000000 0.000000 0.000000 0.000000 0.027544
#
#
# Mechanical properties :
#
#
# Convention : Reuss Voigt Hill
#
# Bulk Modulus (GPa) = 57.10075 58.65075 57.87575
# Shear Modulus (GPa) = 23.39262 25.20854 24.30058
#
# Velocity S-wave (km/s) = 3.49569 3.62884 3.56289
# Velocity P-wave (km/s) = 6.79128 6.94234 6.86723
#
# Compressibility (1/GPa) = 0.01751291
#
# Stress axis : x y z
#
# Youngs Moduli (GPa) = 60.79377 46.69460 51.88246
#
# Poissons Ratio (x) = 0.38174 0.26277
# Poissons Ratio (y) = 0.49701 0.34103
# Poissons Ratio (z) = 0.30790 0.30693
#
# Static dielectric constant tensor:
#      x y z
#    x 3.554980 0.000000 0.000000 
#    y 0.000000 3.509980 0.000000 
#    z 0.000000 0.000000 3.516230 
# 
# 
# High freq. dielectric constant tensor:
#      x y z
#    x 1.749220 0.000000 0.000000 
#    y 0.000000 1.751170 0.000000 
#    z 0.000000 0.000000 1.747630 
# 
# From -- ./inp_files/8718.got.cif
#   From: 2010.03.12/outbox.cif.g09.slc.cpg/sg55_5_cif.got.tgz:8718.got - 2010.04.16 15:19:21.
