data_PCOD8226180
_publ_section_title
;
Structure prediction by ZEFSAII (Michael W. Deem and Ramdas Pophale) SiO2 
 PCOD8226180
Probable space group: P B A M
;
_chemical_formula_sum "Si O2"
_cell_formula_units_Z 64
_cell_length_a 8.793313
_cell_length_b 30.486064
_cell_length_c 13.235108
_cell_angle_alpha 90.000000
_cell_angle_beta 90.000000
_cell_angle_gamma 90.000000
_cell_volume 3547.981763
_symmetry_space_group_name_H-M "P B A M"
_symmetry_group_IT_number 55
_symmetry_cell_setting 'orthorhombic'
loop_
_space_group_symop_operation_xyz
x,y,z
-x,-y,z
1/2+x,1/2-y,-z
1/2-x,1/2+y,-z
-x,-y,-z
x,y,-z
1/2-x,1/2+y,z
1/2+x,1/2-y,z
loop_
_atom_site_type_symbol
_atom_site_label
_atom_site_fract_x
_atom_site_fract_y
_atom_site_fract_z
Si Si1 0.570128 0.631817 0.198764
Si Si2 0.920006 0.456591 0.120084
Si Si3 0.934870 0.292265 0.807622
Si Si4 0.570495 0.689030 0.386959
Si Si5 0.098802 0.275503 0.614132
Si Si6 0.425793 0.546719 0.118250
Si Si7 0.392302 0.708734 0.884935
Si Si8 0.397845 0.872915 0.884637
O O1 0.541169 0.648326 0.312838
O O2 0.515082 0.582199 0.184891
O O3 0.479282 0.662510 0.120627
O O4 0.749001 0.634953 0.180693
O O5 0.746898 0.454326 0.157448
O O6 0.000000 0.500000 0.164700
O O7 0.010716 0.414350 0.160305
O O8 0.922028 0.457935 0.000000
O O9 0.991425 0.301519 0.693106
O O10 0.993552 0.245632 0.846413
O O11 0.995234 0.330501 0.880223
O O12 0.753416 0.291484 0.812449
O O13 0.578578 0.669746 0.500000
O O14 0.432283 0.723412 0.375532
O O15 0.725099 0.715498 0.359843
O O16 0.058692 0.291188 0.500000
O O17 0.500000 0.500000 0.139972
O O18 0.438191 0.558955 0.000000
O O19 0.341882 0.717443 0.000000
O O20 0.350199 0.881955 0.000000
#
# Coordination Sequence:
#
# PCOD8226180 Si02
#       8
#     8   8   8   8   8   8   8   8
#     4  12  22  36  54  80 110 143 187 230 277 332
#     4   9  18  34  54  77 105 141 184 228 268 314
#     4  12  22  37  50  75 105 146 184 224 270 333
#     4  10  21  38  59  81 107 141 186 240 288 332
#     4  10  20  38  58  78 103 138 185 237 285 323
#     4  10  20  35  56  82 114 149 186 227 274 330
#     4  12  24  35  50  72 109 151 185 220 265 327
#     4  11  21  33  51  75 108 146 183 221 270 331
#
# _framework density 18.038425
#
# number of rings (size 3 to 8) (size 9 to 14) (size 15 to 20)
#    0.000    1.250    2.500    5.250    0.000    3.000 
#    0.000    0.000    0.000    0.375    0.000    0.000 
#    0.000    3.500    0.000    0.000    0.000    0.000 
#
# Total GULP energy -793831.623370 kJ/mol
# GULP energy per Si atom -12403.619115 kJ/mol
# Density = 1.799737 g / cm^3
# Si number density = 18.038425 Si / 1000 Ang^3
#
#
#
# Elastic Constant Matrix: (Units=GPa)
#
#
# Indices 1 2 3 4 5 6 
#
# 1 101.3884 45.1831 21.7218 0.0000 0.0000 0.0000
# 2 45.1831 108.1386 27.8050 0.0000 0.0000 0.0000
# 3 21.7218 27.8050 84.9538 0.0000 0.0000 0.0000
# 4 0.0000 0.0000 0.0000 18.3062 0.0000 0.0000
# 5 0.0000 0.0000 0.0000 0.0000 23.1955 0.0000
# 6 0.0000 0.0000 0.0000 0.0000 0.0000 35.2293
#
#
#
# Elastic Compliance Matrix: (Units=1/GPa)
#
#
# Indices 1 2 3 4 5 6 
#
# 1 0.012316 -0.004735 -0.001599 0.000000 0.000000 0.000000
# 2 -0.004735 0.011917 -0.002690 0.000000 0.000000 0.000000
# 3 -0.001599 -0.002690 0.013060 0.000000 0.000000 0.000000
# 4 0.000000 0.000000 0.000000 0.054626 0.000000 0.000000
# 5 0.000000 0.000000 0.000000 0.000000 0.043112 0.000000
# 6 0.000000 0.000000 0.000000 0.000000 0.000000 0.028385
#
#
# Mechanical properties :
#
#
# Convention : Reuss Voigt Hill
#
# Bulk Modulus (GPa) = 51.95971 53.76672 52.86321
# Shear Modulus (GPa) = 26.61277 28.66426 27.63851
#
# Velocity S-wave (km/s) = 3.84518 3.99063 3.91858
# Velocity P-wave (km/s) = 6.97004 7.14878 7.05997
#
# Compressibility (1/GPa) = 0.01924568
#
# Stress axis : x y z
#
# Youngs Moduli (GPa) = 81.19755 83.91204 76.56718
#
# Poissons Ratio (x) = 0.39729 0.12246
# Poissons Ratio (y) = 0.38443 0.20596
# Poissons Ratio (z) = 0.12987 0.22571
#
# Static dielectric constant tensor:
#      x y z
#    x 3.448990 0.000000 0.000000 
#    y 0.000000 3.276710 0.000000 
#    z 0.000000 0.000000 3.260490 
# 
# 
# High freq. dielectric constant tensor:
#      x y z
#    x 1.715930 0.000000 0.000000 
#    y 0.000000 1.685520 0.000000 
#    z 0.000000 0.000000 1.672970 
# 
# From -- ./inp_files/12591.got.cif
#   From: 2010.03.12/outbox.cif.g09.slc.cpg/sg55_7_cif.got.tgz:12591.got - 2010.04.16 15:19:21.
