data_PCOD8226553
_publ_section_title
;
Structure prediction by ZEFSAII (Michael W. Deem and Ramdas Pophale) SiO2 
 PCOD8226553
Probable space group: P B A M
;
_chemical_formula_sum "Si O2"
_cell_formula_units_Z 64
_cell_length_a 15.218472
_cell_length_b 23.461491
_cell_length_c 9.089308
_cell_angle_alpha 90.000000
_cell_angle_beta 90.000000
_cell_angle_gamma 90.000000
_cell_volume 3245.319641
_symmetry_space_group_name_H-M "P B A M"
_symmetry_group_IT_number 55
_symmetry_cell_setting 'orthorhombic'
loop_
_space_group_symop_operation_xyz
x,y,z
-x,-y,z
1/2+x,1/2-y,-z
1/2-x,1/2+y,-z
-x,-y,-z
x,y,-z
1/2-x,1/2+y,z
1/2+x,1/2-y,z
loop_
_atom_site_type_symbol
_atom_site_label
_atom_site_fract_x
_atom_site_fract_y
_atom_site_fract_z
Si Si1 0.151354 0.501939 0.331223
Si Si2 0.081782 0.883428 0.329513
Si Si3 0.092672 0.118519 0.828132
Si Si4 0.749551 0.297615 0.830004
Si Si5 0.397100 0.114043 0.833571
Si Si6 0.096990 0.393206 0.830781
Si Si7 0.645610 0.493269 0.666241
Si Si8 0.256298 0.820951 0.674481
O O1 0.121834 0.495918 0.500000
O O2 0.130859 0.565285 0.278677
O O3 0.097397 0.456842 0.234911
O O4 0.253846 0.488235 0.312471
O O5 0.070246 0.869350 0.500000
O O6 0.168334 0.852100 0.268292
O O7 0.996917 0.859520 0.245737
O O8 0.087290 0.951155 0.301549
O O9 0.169804 0.161421 0.784256
O O10 0.118770 0.055498 0.777922
O O11 0.077031 0.116529 0.000000
O O12 0.840961 0.329698 0.799414
O O13 0.746256 0.243981 0.724057
O O14 0.741559 0.278546 0.000000
O O15 0.498596 0.130903 0.814728
O O16 0.377630 0.092708 0.000000
O O17 0.159379 0.351193 0.742494
O O18 0.126905 0.395618 0.000000
O O19 0.629565 0.471129 0.500000
O O20 0.264573 0.825204 0.500000
#
# Coordination Sequence:
#
# PCOD8226553 Si02
#       8
#     8   8   8   8   8   8   8   8
#     4  11  21  36  61  92 125 159 199 246 296 354
#     4  10  22  41  61  86 122 158 193 242 302 356
#     4  11  23  38  61  92 121 154 200 245 290 354
#     4  10  23  43  62  84 119 158 200 249 299 353
#     4  10  22  41  62  88 123 161 200 244 299 360
#     4  11  23  39  63  91 123 161 198 243 301 356
#     4  10  20  37  60  86 122 161 193 238 301 355
#     4  11  24  43  64  87 117 155 204 252 298 355
#
# _framework density 19.720706
#
# number of rings (size 3 to 8) (size 9 to 14) (size 15 to 20)
#    0.000    1.500    2.500    2.250    0.000    8.500 
#    0.000    3.750    0.000    0.000    0.000    0.000 
#    0.000    0.000    0.000    0.000    0.000    0.000 
#
# Total GULP energy -793986.617098 kJ/mol
# GULP energy per Si atom -12406.040892 kJ/mol
# Density = 1.967582 g / cm^3
# Si number density = 19.720706 Si / 1000 Ang^3
#
#
#
# Elastic Constant Matrix: (Units=GPa)
#
#
# Indices 1 2 3 4 5 6 
#
# 1 101.0242 34.7651 49.6864 0.0000 0.0000 0.0000
# 2 34.7651 85.3932 44.1895 0.0000 0.0000 0.0000
# 3 49.6864 44.1895 89.6316 0.0000 0.0000 0.0000
# 4 0.0000 0.0000 0.0000 34.5256 0.0000 0.0000
# 5 0.0000 0.0000 0.0000 0.0000 32.1934 0.0000
# 6 0.0000 0.0000 0.0000 0.0000 0.0000 14.0950
#
#
#
# Elastic Compliance Matrix: (Units=1/GPa)
#
#
# Indices 1 2 3 4 5 6 
#
# 1 0.013923 -0.002248 -0.006610 0.000000 0.000000 0.000000
# 2 -0.002248 0.016084 -0.006684 0.000000 0.000000 0.000000
# 3 -0.006610 -0.006684 0.018116 0.000000 0.000000 0.000000
# 4 0.000000 0.000000 0.000000 0.028964 0.000000 0.000000
# 5 0.000000 0.000000 0.000000 0.000000 0.031062 0.000000
# 6 0.000000 0.000000 0.000000 0.000000 0.000000 0.070947
#
#
# Mechanical properties :
#
#
# Convention : Reuss Voigt Hill
#
# Bulk Modulus (GPa) = 58.68338 59.25897 58.97118
# Shear Modulus (GPa) = 23.16312 25.98999 24.57656
#
# Velocity S-wave (km/s) = 3.43090 3.63423 3.53403
# Velocity P-wave (km/s) = 6.74660 6.90830 6.82793
#
# Compressibility (1/GPa) = 0.01704060
#
# Stress axis : x y z
#
# Youngs Moduli (GPa) = 71.82315 62.17213 55.19958
#
# Poissons Ratio (x) = 0.13975 0.36486
# Poissons Ratio (y) = 0.16145 0.36894
# Poissons Ratio (z) = 0.47475 0.41554
#
# Static dielectric constant tensor:
#      x y z
#    x 3.814020 0.000000 0.000000 
#    y 0.000000 3.442040 0.000000 
#    z 0.000000 0.000000 3.605130 
# 
# 
# High freq. dielectric constant tensor:
#      x y z
#    x 1.786340 0.000000 0.000000 
#    y 0.000000 1.760050 0.000000 
#    z 0.000000 0.000000 1.770910 
# 
# From -- ./inp_files/6663.got.cif
#   From: 2010.03.12/outbox.cif.g09.slc.cpg/sg55_4_cif.got.tgz:6663.got - 2010.04.16 15:19:21.
