data_PCOD8226114
_publ_section_title
;
Structure prediction by ZEFSAII (Michael W. Deem and Ramdas Pophale) SiO2 
 PCOD8226114
Probable space group: P B A M
;
_chemical_formula_sum "Si O2"
_cell_formula_units_Z 48
_cell_length_a 10.150906
_cell_length_b 29.398637
_cell_length_c 8.635983
_cell_angle_alpha 90.000000
_cell_angle_beta 90.000000
_cell_angle_gamma 90.000000
_cell_volume 2577.174234
_symmetry_space_group_name_H-M "P B A M"
_symmetry_group_IT_number 55
_symmetry_cell_setting 'orthorhombic'
loop_
_space_group_symop_operation_xyz
x,y,z
-x,-y,z
1/2+x,1/2-y,-z
1/2-x,1/2+y,-z
-x,-y,-z
x,y,-z
1/2-x,1/2+y,z
1/2+x,1/2-y,z
loop_
_atom_site_type_symbol
_atom_site_label
_atom_site_fract_x
_atom_site_fract_y
_atom_site_fract_z
Si Si1 0.129667 0.885886 0.817820
Si Si2 0.627347 0.947936 0.316885
Si Si3 0.643724 0.381204 0.681315
Si Si4 0.636272 0.716986 0.818100
Si Si5 0.651395 0.044762 0.816256
Si Si6 0.861931 0.776963 0.318785
O O1 0.161534 0.834708 0.761733
O O2 0.240948 0.919667 0.752588
O O3 0.986878 0.901673 0.759164
O O4 0.130098 0.888621 0.000000
O O5 0.604028 0.947218 0.500000
O O6 0.731379 0.910084 0.262284
O O7 0.491489 0.936334 0.230940
O O8 0.681010 0.997052 0.266456
O O9 0.623042 0.385558 0.500000
O O10 0.665899 0.328979 0.730318
O O11 0.510104 0.736976 0.727821
O O12 0.763515 0.745976 0.777606
O O13 0.607521 0.719151 0.000000
O O14 0.657337 0.038100 0.000000
O O15 0.840476 0.768672 0.500000
#
# Coordination Sequence:
#
# PCOD8226114 Si02
#       6
#     8   8   8   8   8   8
#     4   9  20  36  54  76 104 135 171 210 254 304
#     4  10  20  35  53  76 103 134 170 210 253 302
#     4   9  20  36  54  76 104 135 171 210 254 304
#     4  10  20  36  55  78 106 138 174 215 259 308
#     4  10  20  35  53  76 103 134 170 210 253 302
#     4  10  20  36  55  78 106 138 174 215 259 308
#
# _framework density 18.625050999999999
#
# number of rings (size 3 to 8) (size 9 to 14) (size 15 to 20)
#    0.000    2.333    0.000    3.000    0.000    6.000 
#    0.000    6.667    0.000    0.000    0.000    0.000 
#    0.000    0.000    0.000    0.000    0.000    0.000 
#
# Total GULP energy -595330.748708 kJ/mol
# GULP energy per Si atom -12402.723931 kJ/mol
# Density = 1.858266 g / cm^3
# Si number density = 18.625051 Si / 1000 Ang^3
#
#
#
# Elastic Constant Matrix: (Units=GPa)
#
#
# Indices 1 2 3 4 5 6 
#
# 1 64.2140 32.6198 1.8797 0.0000 0.0000 0.0000
# 2 32.6198 52.7079 6.7039 0.0000 0.0000 0.0000
# 3 1.8797 6.7039 20.3976 0.0000 0.0000 0.0000
# 4 0.0000 0.0000 0.0000 22.5122 0.0000 0.0000
# 5 0.0000 0.0000 0.0000 0.0000 33.2997 0.0000
# 6 0.0000 0.0000 0.0000 0.0000 0.0000 43.6095
#
#
#
# Elastic Compliance Matrix: (Units=1/GPa)
#
#
# Indices 1 2 3 4 5 6 
#
# 1 0.022850 -0.014479 0.002653 0.000000 0.000000 0.000000
# 2 -0.014479 0.028975 -0.008189 0.000000 0.000000 0.000000
# 3 0.002653 -0.008189 0.051472 0.000000 0.000000 0.000000
# 4 0.000000 0.000000 0.000000 0.044420 0.000000 0.000000
# 5 0.000000 0.000000 0.000000 0.000000 0.030030 0.000000
# 6 0.000000 0.000000 0.000000 0.000000 0.000000 0.022931
#
#
# Mechanical properties :
#
#
# Convention : Reuss Voigt Hill
#
# Bulk Modulus (GPa) = 15.80578 24.41404 20.10991
# Shear Modulus (GPa) = 19.09874 26.29202 22.69538
#
# Velocity S-wave (km/s) = 3.20571 3.76127 3.49455
# Velocity P-wave (km/s) = 4.71241 5.65681 5.20607
#
# Compressibility (1/GPa) = 0.06326800
#
# Stress axis : x y z
#
# Youngs Moduli (GPa) = 43.76291 34.51284 19.42798
#
# Poissons Ratio (x) = 0.49971 -0.05154
# Poissons Ratio (y) = 0.63364 0.15909
# Poissons Ratio (z) = -0.11610 0.28261
#
# Static dielectric constant tensor:
#      x y z
#    x 3.524680 0.000000 0.000000 
#    y 0.000000 3.555140 0.000000 
#    z 0.000000 0.000000 3.380510 
# 
# 
# High freq. dielectric constant tensor:
#      x y z
#    x 1.729260 0.000000 0.000000 
#    y 0.000000 1.719730 0.000000 
#    z 0.000000 0.000000 1.727360 
# 
# From -- ./inp_files/2789.got.cif
#   From: 2010.03.12/outbox.cif.g09.slc.cpg/sg55_2_cif.got.tgz:2789.got - 2010.04.16 15:19:21.
