data_PCOD8226639
_publ_section_title
;
Structure prediction by ZEFSAII (Michael W. Deem and Ramdas Pophale) SiO2 
 PCOD8226639
Probable space group: P B A M
;
_chemical_formula_sum "Si O2"
_cell_formula_units_Z 64
_cell_length_a 19.053669
_cell_length_b 11.427653
_cell_length_c 15.215795
_cell_angle_alpha 90.000000
_cell_angle_beta 90.000000
_cell_angle_gamma 90.000000
_cell_volume 3313.067692
_symmetry_space_group_name_H-M "P B A M"
_symmetry_group_IT_number 55
_symmetry_cell_setting 'orthorhombic'
loop_
_space_group_symop_operation_xyz
x,y,z
-x,-y,z
1/2+x,1/2-y,-z
1/2-x,1/2+y,-z
-x,-y,-z
x,y,-z
1/2-x,1/2+y,z
1/2+x,1/2-y,z
loop_
_atom_site_type_symbol
_atom_site_label
_atom_site_fract_x
_atom_site_fract_y
_atom_site_fract_z
Si Si1 0.420877 0.521003 0.152678
Si Si2 0.607603 0.724850 0.903165
Si Si3 0.423840 0.946557 0.252679
Si Si4 0.681508 0.839152 0.255201
Si Si5 0.328327 0.566638 0.310619
Si Si6 0.129247 0.288969 0.599817
Si Si7 0.051767 0.276343 0.899884
Si Si8 0.707512 0.663998 0.401500
O O1 0.500000 0.500000 0.182086
O O2 0.395644 0.416429 0.089152
O O3 0.375419 0.504889 0.238992
O O4 0.412807 0.648039 0.107869
O O5 0.666028 0.769712 0.834999
O O6 0.530829 0.773145 0.875601
O O7 0.628050 0.771657 0.000000
O O8 0.419870 0.871289 0.341419
O O9 0.409767 0.865256 0.166898
O O10 0.500000 0.000000 0.245181
O O11 0.365779 0.046258 0.258458
O O12 0.762588 0.875545 0.259933
O O13 0.666017 0.752716 0.337278
O O14 0.376428 0.658389 0.362791
O O15 0.306208 0.470955 0.381455
O O16 0.101622 0.295247 0.500000
O O17 0.209626 0.325094 0.607620
O O18 0.062559 0.320152 0.000000
O O19 0.682390 0.693944 0.500000
#
# Coordination Sequence:
#
# PCOD8226639 Si02
#       8
#     8   8   8   8   8   8   8   8
#     4  10  20  37  66  90 116 155 202 251 299 348
#     4  10  20  38  62  89 121 159 201 246 298 356
#     4  12  23  38  61  87 124 163 196 243 301 360
#     4  11  23  37  60  91 123 159 201 248 298 359
#     4  11  20  38  67  86 118 154 203 250 304 351
#     4  10  22  39  60  87 118 156 199 242 295 360
#     4  10  21  38  63  90 116 158 208 245 288 358
#     4  10  21  39  65  90 115 156 204 248 294 357
#
# _framework density 19.317443999999998
#
# number of rings (size 3 to 8) (size 9 to 14) (size 15 to 20)
#    0.000    1.500    5.000    0.750    0.000    3.500 
#    0.000    1.250    0.000    0.750    0.000    0.000 
#    0.000    0.000    0.000    0.000    0.000    0.000 
#
# Total GULP energy -793559.252731 kJ/mol
# GULP energy per Si atom -12399.363324 kJ/mol
# Density = 1.927348 g / cm^3
# Si number density = 19.317444 Si / 1000 Ang^3
#
#
#
# Elastic Constant Matrix: (Units=GPa)
#
#
# Indices 1 2 3 4 5 6 
#
# 1 29.1302 22.1239 28.3871 0.0000 0.0000 0.0000
# 2 22.1239 96.2558 42.5413 0.0000 0.0000 0.0000
# 3 28.3871 42.5413 138.2571 0.0000 0.0000 0.0000
# 4 0.0000 0.0000 0.0000 24.5941 0.0000 0.0000
# 5 0.0000 0.0000 0.0000 0.0000 28.5122 0.0000
# 6 0.0000 0.0000 0.0000 0.0000 0.0000 27.2911
#
#
#
# Elastic Compliance Matrix: (Units=1/GPa)
#
#
# Indices 1 2 3 4 5 6 
#
# 1 0.047290 -0.007613 -0.007367 0.000000 0.000000 0.000000
# 2 -0.007613 0.013250 -0.002514 0.000000 0.000000 0.000000
# 3 -0.007367 -0.002514 0.009519 0.000000 0.000000 0.000000
# 4 0.000000 0.000000 0.000000 0.040660 0.000000 0.000000
# 5 0.000000 0.000000 0.000000 0.000000 0.035073 0.000000
# 6 0.000000 0.000000 0.000000 0.000000 0.000000 0.036642
#
#
# Mechanical properties :
#
#
# Convention : Reuss Voigt Hill
#
# Bulk Modulus (GPa) = 28.51405 49.97197 39.24301
# Shear Modulus (GPa) = 21.82338 27.45221 24.63780
#
# Velocity S-wave (km/s) = 3.36478 3.77385 3.57517
# Velocity P-wave (km/s) = 5.46704 6.70181 6.11567
#
# Compressibility (1/GPa) = 0.03507043
#
# Stress axis : x y z
#
# Youngs Moduli (GPa) = 21.14614 75.47245 105.05330
#
# Poissons Ratio (x) = 0.57460 0.77393
# Poissons Ratio (y) = 0.16099 0.26408
# Poissons Ratio (z) = 0.15578 0.18972
#
# Static dielectric constant tensor:
#      x y z
#    x 3.374940 0.000000 0.000000 
#    y 0.000000 3.711670 0.000000 
#    z 0.000000 0.000000 3.613800 
# 
# 
# High freq. dielectric constant tensor:
#      x y z
#    x 1.724020 0.000000 0.000000 
#    y 0.000000 1.767840 0.000000 
#    z 0.000000 0.000000 1.757090 
# 
# From -- ./inp_files/18550.got.cif
#   From: 2010.03.12/outbox.cif.g09.slc.cpg/sg55_10_cif.got.tgz:18550.got - 2010.04.16 15:19:21.
