data_PCOD8226226
_publ_section_title
;
Structure prediction by ZEFSAII (Michael W. Deem and Ramdas Pophale) SiO2 
 PCOD8226226
Probable space group: P B A M
;
_chemical_formula_sum "Si O2"
_cell_formula_units_Z 64
_cell_length_a 24.399962
_cell_length_b 15.063980
_cell_length_c 8.664388
_cell_angle_alpha 90.000000
_cell_angle_beta 90.000000
_cell_angle_gamma 90.000000
_cell_volume 3184.687128
_symmetry_space_group_name_H-M "P B A M"
_symmetry_group_IT_number 55
_symmetry_cell_setting 'orthorhombic'
loop_
_space_group_symop_operation_xyz
x,y,z
-x,-y,z
1/2+x,1/2-y,-z
1/2-x,1/2+y,-z
-x,-y,-z
x,y,-z
1/2-x,1/2+y,z
1/2+x,1/2-y,z
loop_
_atom_site_type_symbol
_atom_site_label
_atom_site_fract_x
_atom_site_fract_y
_atom_site_fract_z
Si Si1 0.392685 0.506387 0.821054
Si Si2 0.639557 0.800404 0.178962
Si Si3 0.861635 0.662441 0.822915
Si Si4 0.441168 0.336354 0.322372
Si Si5 0.783707 0.963893 0.321708
Si Si6 0.736249 0.283692 0.823310
Si Si7 0.839988 0.484342 0.320193
Si Si8 0.433121 0.686887 0.322074
O O1 0.429338 0.421270 0.783433
O O2 0.329472 0.484454 0.777818
O O3 0.412712 0.589561 0.722549
O O4 0.398143 0.529307 0.000000
O O5 0.597987 0.745083 0.281828
O O6 0.700515 0.763908 0.215773
O O7 0.634290 0.903556 0.224214
O O8 0.624662 0.788573 0.000000
O O9 0.799466 0.695941 0.794166
O O10 0.871823 0.574516 0.721574
O O11 0.904625 0.737972 0.779321
O O12 0.870684 0.636786 0.000000
O O13 0.432686 0.363582 0.500000
O O14 0.502560 0.304886 0.289888
O O15 0.795689 0.981994 0.500000
O O16 0.788033 0.858937 0.288137
O O17 0.723586 0.997404 0.272791
O O18 0.730372 0.317094 0.000000
O O19 0.846049 0.462387 0.500000
O O20 0.418682 0.703323 0.500000
#
# Coordination Sequence:
#
# PCOD8226226 Si02
#       8
#     8   8   8   8   8   8   8   8
#     4  12  24  38  60  90 124 161 202 249 299 360
#     4  10  21  40  63  90 123 159 202 252 305 361
#     4  11  22  37  61  92 124 160 203 250 302 362
#     4  11  25  43  63  88 120 160 205 253 305 361
#     4  10  20  35  57  87 122 160 199 241 294 357
#     4   9  19  35  56  86 121 158 195 241 300 356
#     4  10  22  39  60  89 125 164 203 249 303 361
#     4  11  24  43  64  88 122 160 203 254 304 359
#
# _framework density 20.096166
#
# number of rings (size 3 to 8) (size 9 to 14) (size 15 to 20)
#    0.000    1.500    1.250    3.750    1.750    6.000 
#    0.000    0.625    0.000    3.750    0.000    0.000 
#    0.000    0.000    0.000    0.000    0.000    0.000 
#
# Total GULP energy -793951.717284 kJ/mol
# GULP energy per Si atom -12405.495583 kJ/mol
# Density = 2.005043 g / cm^3
# Si number density = 20.096166 Si / 1000 Ang^3
#
#
#
# Elastic Constant Matrix: (Units=GPa)
#
#
# Indices 1 2 3 4 5 6 
#
# 1 83.6751 39.6831 24.3220 0.0000 0.0000 0.0000
# 2 39.6831 84.6838 12.3213 0.0000 0.0000 0.0000
# 3 24.3220 12.3213 52.7116 0.0000 0.0000 0.0000
# 4 0.0000 0.0000 0.0000 36.5560 0.0000 0.0000
# 5 0.0000 0.0000 0.0000 0.0000 24.5550 0.0000
# 6 0.0000 0.0000 0.0000 0.0000 0.0000 20.6713
#
#
#
# Elastic Compliance Matrix: (Units=1/GPa)
#
#
# Indices 1 2 3 4 5 6 
#
# 1 0.017146 -0.007126 -0.006246 0.000000 0.000000 0.000000
# 2 -0.007126 0.015186 -0.000262 0.000000 0.000000 0.000000
# 3 -0.006246 -0.000262 0.021914 0.000000 0.000000 0.000000
# 4 0.000000 0.000000 0.000000 0.027355 0.000000 0.000000
# 5 0.000000 0.000000 0.000000 0.000000 0.040725 0.000000
# 6 0.000000 0.000000 0.000000 0.000000 0.000000 0.048376
#
#
# Mechanical properties :
#
#
# Convention : Reuss Voigt Hill
#
# Bulk Modulus (GPa) = 37.06533 41.52482 39.29507
# Shear Modulus (GPa) = 24.15899 26.00606 25.08252
#
# Velocity S-wave (km/s) = 3.47099 3.60124 3.53671
# Velocity P-wave (km/s) = 5.87773 6.16440 6.02277
#
# Compressibility (1/GPa) = 0.02697939
#
# Stress axis : x y z
#
# Youngs Moduli (GPa) = 58.32289 65.85042 45.63252
#
# Poissons Ratio (x) = 0.46924 0.28501
# Poissons Ratio (y) = 0.41560 0.01194
# Poissons Ratio (z) = 0.36427 0.01723
#
# Static dielectric constant tensor:
#      x y z
#    x 3.719170 0.000000 0.000000 
#    y 0.000000 3.462200 0.000000 
#    z 0.000000 0.000000 3.660360 
# 
# 
# High freq. dielectric constant tensor:
#      x y z
#    x 1.778700 0.000000 0.000000 
#    y 0.000000 1.777620 0.000000 
#    z 0.000000 0.000000 1.793960 
# 
# From -- ./inp_files/9779.got.cif
#   From: 2010.03.12/outbox.cif.g09.slc.cpg/sg55_5_cif.got.tgz:9779.got - 2010.04.16 15:19:21.
