data_PCOD8226814
_publ_section_title
;
Structure prediction by ZEFSAII (Michael W. Deem and Ramdas Pophale) SiO2 
 PCOD8226814
Probable space group: P B A M
;
_chemical_formula_sum "Si O2"
_cell_formula_units_Z 64
_cell_length_a 25.584769
_cell_length_b 14.438652
_cell_length_c 9.167150
_cell_angle_alpha 90.000000
_cell_angle_beta 90.000000
_cell_angle_gamma 90.000000
_cell_volume 3386.432995
_symmetry_space_group_name_H-M "P B A M"
_symmetry_group_IT_number 55
_symmetry_cell_setting 'orthorhombic'
loop_
_space_group_symop_operation_xyz
x,y,z
-x,-y,z
1/2+x,1/2-y,-z
1/2-x,1/2+y,-z
-x,-y,-z
x,y,-z
1/2-x,1/2+y,z
1/2+x,1/2-y,z
loop_
_atom_site_type_symbol
_atom_site_label
_atom_site_fract_x
_atom_site_fract_y
_atom_site_fract_z
Si Si1 0.512681 0.756185 0.167552
Si Si2 0.156022 0.046226 0.169708
Si Si3 0.736531 0.960224 0.671384
Si Si4 0.587606 0.907114 0.163980
Si Si5 0.350416 0.922092 0.832135
Si Si6 0.668772 0.793025 0.331759
Si Si7 0.387278 0.352548 0.168819
Si Si8 0.397993 0.733379 0.826015
O O1 0.529045 0.865526 0.184763
O O2 0.558193 0.688891 0.233296
O O3 0.456499 0.739213 0.243074
O O4 0.506067 0.728496 0.000000
O O5 0.207205 0.023506 0.260760
O O6 0.128807 0.139226 0.228863
O O7 0.115254 0.962405 0.195535
O O8 0.171084 0.055694 0.000000
O O9 0.737871 0.980351 0.500000
O O10 0.720933 0.852697 0.703195
O O11 0.696252 0.033069 0.740855
O O12 0.621524 0.859455 0.288138
O O13 0.595496 0.017507 0.181552
O O14 0.606755 0.878431 0.000000
O O15 0.363722 0.820359 0.769946
O O16 0.332100 0.917255 0.000000
O O17 0.665258 0.767223 0.500000
O O18 0.663271 0.697015 0.243206
O O19 0.383197 0.327712 0.000000
O O20 0.401165 0.737777 0.000000
#
# Coordination Sequence:
#
# PCOD8226814 Si02
#       8
#     8   8   8   8   8   8   8   8
#     4   8  14  27  48  75 104 131 162 202 245 288
#     4  10  21  35  50  71  99 132 171 210 245 287
#     4  10  21  36  53  73  98 129 163 203 253 302
#     4   8  14  26  47  75 104 131 160 195 236 287
#     4   9  17  31  52  78 106 134 164 200 245 297
#     4   9  17  30  50  74  97 122 157 202 248 293
#     4   9  18  32  51  74  98 128 167 206 244 288
#     4   9  18  31  49  76 106 133 164 203 246 291
#
# _framework density 18.898941000000001
#
# number of rings (size 3 to 8) (size 9 to 14) (size 15 to 20)
#    0.000    3.000    0.000    1.500    0.000    4.000 
#    0.000    9.375    0.000    6.000    0.000   15.750 
#    0.000    0.000    0.000    0.000    0.000    0.000 
#
# Total GULP energy -792890.681419 kJ/mol
# GULP energy per Si atom -12388.916897 kJ/mol
# Density = 1.885593 g / cm^3
# Si number density = 18.898941 Si / 1000 Ang^3
#
#
#
# Elastic Constant Matrix: (Units=GPa)
#
#
# Indices 1 2 3 4 5 6 
#
# 1 104.9203 50.8740 30.6979 0.0000 0.0000 0.0000
# 2 50.8740 141.3785 29.6463 0.0000 0.0000 0.0000
# 3 30.6979 29.6463 42.6341 0.0000 0.0000 0.0000
# 4 0.0000 0.0000 0.0000 15.0903 0.0000 0.0000
# 5 0.0000 0.0000 0.0000 0.0000 5.8273 0.0000
# 6 0.0000 0.0000 0.0000 0.0000 0.0000 24.7061
#
#
#
# Elastic Compliance Matrix: (Units=1/GPa)
#
#
# Indices 1 2 3 4 5 6 
#
# 1 0.013228 -0.003234 -0.007276 0.000000 0.000000 0.000000
# 2 -0.003234 0.009071 -0.003979 0.000000 0.000000 0.000000
# 3 -0.007276 -0.003979 0.031461 0.000000 0.000000 0.000000
# 4 0.000000 0.000000 0.000000 0.066268 0.000000 0.000000
# 5 0.000000 0.000000 0.000000 0.000000 0.171607 0.000000
# 6 0.000000 0.000000 0.000000 0.000000 0.000000 0.040476
#
#
# Mechanical properties :
#
#
# Convention : Reuss Voigt Hill
#
# Bulk Modulus (GPa) = 40.35123 56.81881 48.58502
# Shear Modulus (GPa) = 13.53729 20.97237 17.25483
#
# Velocity S-wave (km/s) = 2.67928 3.33485 3.02488
# Velocity P-wave (km/s) = 5.56496 6.70508 6.16145
#
# Compressibility (1/GPa) = 0.02478239
#
# Stress axis : x y z
#
# Youngs Moduli (GPa) = 75.59704 110.23561 31.78539
#
# Poissons Ratio (x) = 0.35654 0.23126
# Poissons Ratio (y) = 0.24451 0.12648
# Poissons Ratio (z) = 0.55001 0.43864
#
# Static dielectric constant tensor:
#      x y z
#    x 3.450480 0.000000 0.000000 
#    y 0.000000 3.681940 0.000000 
#    z 0.000000 0.000000 3.128560 
# 
# 
# High freq. dielectric constant tensor:
#      x y z
#    x 1.718340 0.000000 0.000000 
#    y 0.000000 1.739660 0.000000 
#    z 0.000000 0.000000 1.696410 
# 
# From -- ./inp_files/9793.got.cif
#   From: 2010.03.12/outbox.cif.g09.slc.cpg/sg55_5_cif.got.tgz:9793.got - 2010.04.16 15:19:21.
