data_PCOD8226518
_publ_section_title
;
Structure prediction by ZEFSAII (Michael W. Deem and Ramdas Pophale) SiO2 
 PCOD8226518
Probable space group: P B A M
;
_chemical_formula_sum "Si O2"
_cell_formula_units_Z 64
_cell_length_a 9.601596
_cell_length_b 20.075999
_cell_length_c 17.772321
_cell_angle_alpha 90.000000
_cell_angle_beta 90.000000
_cell_angle_gamma 90.000000
_cell_volume 3425.821595
_symmetry_space_group_name_H-M "P B A M"
_symmetry_group_IT_number 55
_symmetry_cell_setting 'orthorhombic'
loop_
_space_group_symop_operation_xyz
x,y,z
-x,-y,z
1/2+x,1/2-y,-z
1/2-x,1/2+y,-z
-x,-y,-z
x,y,-z
1/2-x,1/2+y,z
1/2+x,1/2-y,z
loop_
_atom_site_type_symbol
_atom_site_label
_atom_site_fract_x
_atom_site_fract_y
_atom_site_fract_z
Si Si1 0.396121 0.312386 0.912281
Si Si2 0.778436 0.068484 0.304436
Si Si3 0.927167 0.684414 0.912172
Si Si4 0.148480 0.189095 0.588303
Si Si5 0.256425 0.081463 0.703001
Si Si6 0.013690 0.073781 0.191192
Si Si7 0.479520 0.923683 0.794730
Si Si8 0.673711 0.683914 0.412745
O O1 0.234230 0.302228 0.891569
O O2 0.482401 0.247829 0.886941
O O3 0.461776 0.375018 0.870469
O O4 0.415657 0.326390 0.000000
O O5 0.671867 0.088632 0.239302
O O6 0.767586 0.117339 0.374853
O O7 0.930078 0.077206 0.269178
O O8 0.753634 0.992928 0.331284
O O9 0.990849 0.621477 0.868709
O O10 0.945572 0.669305 0.000000
O O11 0.170691 0.173661 0.500000
O O12 0.211111 0.128912 0.635798
O O13 0.231278 0.254751 0.613727
O O14 0.986374 0.199437 0.607997
O O15 0.169956 0.088963 0.781023
O O16 0.413061 0.097147 0.729134
O O17 0.000000 0.000000 0.155102
O O18 0.500000 0.000000 0.820261
O O19 0.691745 0.670765 0.500000
#
# Coordination Sequence:
#
# PCOD8226518 Si02
#       8
#     8   8   8   8   8   8   8   8
#     4  10  22  39  58  83 114 149 188 231 280 332
#     4  10  20  39  58  82 114 143 186 233 279 327
#     4  10  22  40  59  82 114 149 188 232 278 333
#     4  10  22  39  57  82 114 148 187 229 277 333
#     4  10  22  37  58  86 112 145 186 232 277 331
#     4  10  20  37  59  82 113 145 184 235 278 329
#     4  10  22  39  59  84 114 148 187 231 281 333
#     4  10  22  38  58  83 113 149 187 230 278 330
#
# _framework density 18.681650000000001
#
# number of rings (size 3 to 8) (size 9 to 14) (size 15 to 20)
#    0.000    2.000    2.500    0.000    3.500    3.000 
#    0.000    1.250    0.000    2.250    0.000    0.000 
#    0.000    0.000    0.000    0.000    0.000    0.000 
#
# Total GULP energy -793697.542491 kJ/mol
# GULP energy per Si atom -12401.524101 kJ/mol
# Density = 1.863913 g / cm^3
# Si number density = 18.681650 Si / 1000 Ang^3
#
#
#
# Elastic Constant Matrix: (Units=GPa)
#
#
# Indices 1 2 3 4 5 6 
#
# 1 76.0765 65.4266 32.0119 0.0000 0.0000 0.0000
# 2 65.4266 151.3074 76.3421 0.0000 0.0000 0.0000
# 3 32.0119 76.3421 64.2267 0.0000 0.0000 0.0000
# 4 0.0000 0.0000 0.0000 36.0049 0.0000 0.0000
# 5 0.0000 0.0000 0.0000 0.0000 19.2818 0.0000
# 6 0.0000 0.0000 0.0000 0.0000 0.0000 30.9780
#
#
#
# Elastic Compliance Matrix: (Units=1/GPa)
#
#
# Indices 1 2 3 4 5 6 
#
# 1 0.020944 -0.009467 0.000814 0.000000 0.000000 0.000000
# 2 -0.009467 0.020791 -0.019994 0.000000 0.000000 0.000000
# 3 0.000814 -0.019994 0.038930 0.000000 0.000000 0.000000
# 4 0.000000 0.000000 0.000000 0.027774 0.000000 0.000000
# 5 0.000000 0.000000 0.000000 0.000000 0.051862 0.000000
# 6 0.000000 0.000000 0.000000 0.000000 0.000000 0.032281
#
#
# Mechanical properties :
#
#
# Convention : Reuss Voigt Hill
#
# Bulk Modulus (GPa) = 42.78956 71.01909 56.90433
# Shear Modulus (GPa) = 19.40502 25.10827 22.25665
#
# Velocity S-wave (km/s) = 3.22642 3.67005 3.45536
# Velocity P-wave (km/s) = 6.06910 7.48712 6.81509
#
# Compressibility (1/GPa) = 0.02337019
#
# Stress axis : x y z
#
# Youngs Moduli (GPa) = 47.74668 48.09882 25.68740
#
# Poissons Ratio (x) = 0.45535 -0.02091
# Poissons Ratio (y) = 0.45202 0.51359
# Poissons Ratio (z) = -0.03886 0.96168
#
# Static dielectric constant tensor:
#      x y z
#    x 3.691340 0.000000 0.000000 
#    y 0.000000 3.493370 0.000000 
#    z 0.000000 0.000000 3.164640 
# 
# 
# High freq. dielectric constant tensor:
#      x y z
#    x 1.742370 0.000000 0.000000 
#    y 0.000000 1.730480 0.000000 
#    z 0.000000 0.000000 1.710340 
# 
# From -- ./inp_files/21081.got.cif
#   From: 2010.03.12/outbox.cif.g09.slc.cpg/sg55_11_cif.got.tgz:21081.got - 2010.04.16 15:19:21.
