data_PCOD8226065
_publ_section_title
;
Structure prediction by ZEFSAII (Michael W. Deem and Ramdas Pophale) SiO2 
 PCOD8226065
Probable space group: P B A M
;
_chemical_formula_sum "Si O2"
_cell_formula_units_Z 48
_cell_length_a 16.400772
_cell_length_b 17.831873
_cell_length_c 8.788183
_cell_angle_alpha 90.000000
_cell_angle_beta 90.000000
_cell_angle_gamma 90.000000
_cell_volume 2570.161096
_symmetry_space_group_name_H-M "P B A M"
_symmetry_group_IT_number 55
_symmetry_cell_setting 'orthorhombic'
loop_
_space_group_symop_operation_xyz
x,y,z
-x,-y,z
1/2+x,1/2-y,-z
1/2-x,1/2+y,-z
-x,-y,-z
x,y,-z
1/2-x,1/2+y,z
1/2+x,1/2-y,z
loop_
_atom_site_type_symbol
_atom_site_label
_atom_site_fract_x
_atom_site_fract_y
_atom_site_fract_z
Si Si1 0.828597 0.409162 0.173925
Si Si2 0.162477 0.168803 0.823803
Si Si3 0.592378 0.476790 0.322910
Si Si4 0.992540 0.416274 0.679424
Si Si5 0.736714 0.557429 0.180238
Si Si6 0.851115 0.673200 0.679723
O O1 0.757782 0.348690 0.198856
O O2 0.906378 0.381650 0.269172
O O3 0.797649 0.490578 0.230238
O O4 0.855452 0.414031 0.000000
O O5 0.107943 0.099938 0.767191
O O6 0.141424 0.240475 0.723505
O O7 0.142208 0.183816 0.000000
O O8 0.500000 0.500000 0.293809
O O9 0.611282 0.464133 0.500000
O O10 0.649502 0.543305 0.258870
O O11 0.994998 0.417985 0.500000
O O12 0.000000 0.500000 0.747771
O O13 0.066735 0.366291 0.741179
O O14 0.773277 0.635832 0.238257
O O15 0.723657 0.558850 0.000000
O O16 0.840610 0.664323 0.500000
#
# Coordination Sequence:
#
# PCOD8226065 Si02
#       6
#     8   8   8   8   8   8
#     4   9  19  35  56  81 108 144 186 224 274 336
#     4  10  22  40  59  83 115 151 191 237 291 342
#     4  10  21  39  63  88 113 147 194 241 286 344
#     4  10  20  34  55  85 116 147 186 229 277 335
#     4  10  20  35  58  85 113 148 188 232 282 342
#     4  11  22  37  57  84 117 153 192 237 288 340
#
# _framework density 18.675872999999999
#
# number of rings (size 3 to 8) (size 9 to 14) (size 15 to 20)
#    0.000    2.000    1.667    3.000    0.000    6.333 
#    3.000    0.000    0.000    0.000    0.000    0.000 
#    0.000    0.000    0.000    0.000    0.000    0.000 
#
# Total GULP energy -595366.474943 kJ/mol
# GULP energy per Si atom -12403.468228 kJ/mol
# Density = 1.863337 g / cm^3
# Si number density = 18.675873 Si / 1000 Ang^3
#
#
#
# Elastic Constant Matrix: (Units=GPa)
#
#
# Indices 1 2 3 4 5 6 
#
# 1 118.1882 38.7152 42.5672 0.0000 0.0000 0.0000
# 2 38.7152 79.9730 18.5763 0.0000 0.0000 0.0000
# 3 42.5672 18.5763 59.4047 0.0000 0.0000 0.0000
# 4 0.0000 0.0000 0.0000 33.0823 0.0000 0.0000
# 5 0.0000 0.0000 0.0000 0.0000 30.9744 0.0000
# 6 0.0000 0.0000 0.0000 0.0000 0.0000 22.5158
#
#
#
# Elastic Compliance Matrix: (Units=1/GPa)
#
#
# Indices 1 2 3 4 5 6 
#
# 1 0.012661 -0.004337 -0.007716 0.000000 0.000000 0.000000
# 2 -0.004337 0.014969 -0.001573 0.000000 0.000000 0.000000
# 3 -0.007716 -0.001573 0.022855 0.000000 0.000000 0.000000
# 4 0.000000 0.000000 0.000000 0.030228 0.000000 0.000000
# 5 0.000000 0.000000 0.000000 0.000000 0.032285 0.000000
# 6 0.000000 0.000000 0.000000 0.000000 0.000000 0.044413
#
#
# Mechanical properties :
#
#
# Convention : Reuss Voigt Hill
#
# Bulk Modulus (GPa) = 43.04382 50.80926 46.92654
# Shear Modulus (GPa) = 25.98660 27.82831 26.90745
#
# Velocity S-wave (km/s) = 3.73427 3.86433 3.79985
# Velocity P-wave (km/s) = 6.45684 6.86845 6.66582
#
# Compressibility (1/GPa) = 0.02323214
#
# Stress axis : x y z
#
# Youngs Moduli (GPa) = 78.98423 66.80410 43.75462
#
# Poissons Ratio (x) = 0.28972 0.33761
# Poissons Ratio (y) = 0.34254 0.06884
# Poissons Ratio (z) = 0.60945 0.10511
#
# Static dielectric constant tensor:
#      x y z
#    x 3.460540 0.000000 0.000000 
#    y 0.000000 3.310170 0.000000 
#    z 0.000000 0.000000 3.406960 
# 
# 
# High freq. dielectric constant tensor:
#      x y z
#    x 1.727830 0.000000 0.000000 
#    y 0.000000 1.711360 0.000000 
#    z 0.000000 0.000000 1.732090 
# 
# From -- ./inp_files/5544.got.cif
#   From: 2010.03.12/outbox.cif.g09.slc.cpg/sg55_3_cif.got.tgz:5544.got - 2010.04.16 15:19:21.
