data_PCOD8226535
_publ_section_title
;
Structure prediction by ZEFSAII (Michael W. Deem and Ramdas Pophale) SiO2 
 PCOD8226535
Probable space group: P B A M
;
_chemical_formula_sum "Si O2"
_cell_formula_units_Z 64
_cell_length_a 9.234875
_cell_length_b 21.784370
_cell_length_c 15.316224
_cell_angle_alpha 90.000000
_cell_angle_beta 90.000000
_cell_angle_gamma 90.000000
_cell_volume 3081.255667
_symmetry_space_group_name_H-M "P B A M"
_symmetry_group_IT_number 55
_symmetry_cell_setting 'orthorhombic'
loop_
_space_group_symop_operation_xyz
x,y,z
-x,-y,z
1/2+x,1/2-y,-z
1/2-x,1/2+y,-z
-x,-y,-z
x,y,-z
1/2-x,1/2+y,z
1/2+x,1/2-y,z
loop_
_atom_site_type_symbol
_atom_site_label
_atom_site_fract_x
_atom_site_fract_y
_atom_site_fract_z
Si Si1 0.725072 0.922337 0.096022
Si Si2 0.780452 0.949419 0.401618
Si Si3 0.892738 0.082564 0.402308
Si Si4 0.921009 0.379718 0.736022
Si Si5 0.901398 0.811909 0.097030
Si Si6 0.130185 0.956380 0.900491
Si Si7 0.154247 0.744566 0.807930
Si Si8 0.247133 0.367259 0.753709
O O1 0.609372 0.904313 0.167638
O O2 0.882532 0.886328 0.111866
O O3 0.737625 0.995528 0.097777
O O4 0.669600 0.901337 0.000000
O O5 0.716423 0.946328 0.500000
O O6 0.667438 0.916944 0.337027
O O7 0.934502 0.916510 0.398866
O O8 0.814246 0.019183 0.373709
O O9 0.842259 0.099985 0.500000
O O10 0.845766 0.132065 0.332191
O O11 0.882559 0.306877 0.734274
O O12 0.090804 0.392778 0.725585
O O13 0.737320 0.787333 0.111516
O O14 0.010181 0.780884 0.164337
O O15 0.953602 0.795842 0.000000
O O16 0.175206 0.901818 0.835070
O O17 0.103068 0.930966 0.000000
O O18 0.000000 0.000000 0.866334
O O19 0.266999 0.795217 0.773270
#
# Coordination Sequence:
#
# PCOD8226535 Si02
#       8
#     8   8   8   8   8   8   8   8
#     4   9  20  37  57  83 123 166 199 246 302 363
#     4   9  20  41  68  95 125 160 199 247 306 373
#     4   9  21  40  66  98 123 156 204 248 303 375
#     4  11  24  40  59  92 125 161 207 256 312 361
#     4  10  20  37  60  81 114 165 217 261 304 354
#     4  10  22  38  58  90 125 161 207 248 302 372
#     4  11  23  40  55  87 121 162 212 262 306 365
#     4  12  25  38  63  92 124 165 204 261 312 362
#
# _framework density 20.770755000000001
#
# number of rings (size 3 to 8) (size 9 to 14) (size 15 to 20)
#    0.000    1.875    1.250    2.625    7.000    5.500 
#    0.000    3.125    0.000    0.000    0.000    0.000 
#    0.000    0.000    0.000    0.000    0.000    0.000 
#
# Total GULP energy -793078.874861 kJ/mol
# GULP energy per Si atom -12391.857420 kJ/mol
# Density = 2.072348 g / cm^3
# Si number density = 20.770755 Si / 1000 Ang^3
#
#
#
# Elastic Constant Matrix: (Units=GPa)
#
#
# Indices 1 2 3 4 5 6 
#
# 1 64.7004 7.3158 28.7992 0.0000 0.0000 0.0000
# 2 7.3158 71.0234 27.8934 0.0000 0.0000 0.0000
# 3 28.7992 27.8934 101.5226 0.0000 0.0000 0.0000
# 4 0.0000 0.0000 0.0000 13.8415 0.0000 0.0000
# 5 0.0000 0.0000 0.0000 0.0000 20.5227 0.0000
# 6 0.0000 0.0000 0.0000 0.0000 0.0000 24.0579
#
#
#
# Elastic Compliance Matrix: (Units=1/GPa)
#
#
# Indices 1 2 3 4 5 6 
#
# 1 0.017691 0.000167 -0.005064 0.000000 0.000000 0.000000
# 2 0.000167 0.015784 -0.004384 0.000000 0.000000 0.000000
# 3 -0.005064 -0.004384 0.012491 0.000000 0.000000 0.000000
# 4 0.000000 0.000000 0.000000 0.072247 0.000000 0.000000
# 5 0.000000 0.000000 0.000000 0.000000 0.048726 0.000000
# 6 0.000000 0.000000 0.000000 0.000000 0.000000 0.041566
#
#
# Mechanical properties :
#
#
# Convention : Reuss Voigt Hill
#
# Bulk Modulus (GPa) = 36.49187 40.58481 38.53834
# Shear Modulus (GPa) = 21.16812 23.23362 22.20087
#
# Velocity S-wave (km/s) = 3.19585 3.34814 3.27288
# Velocity P-wave (km/s) = 5.58793 5.87610 5.73382
#
# Compressibility (1/GPa) = 0.02740337
#
# Stress axis : x y z
#
# Youngs Moduli (GPa) = 56.52529 63.35341 80.05669
#
# Poissons Ratio (x) = -0.01056 0.40543
# Poissons Ratio (y) = -0.00942 0.35097
# Poissons Ratio (z) = 0.28626 0.27775
#
# Static dielectric constant tensor:
#      x y z
#    x 3.567530 0.000000 0.000000 
#    y 0.000000 3.920060 0.000000 
#    z 0.000000 0.000000 3.626560 
# 
# 
# High freq. dielectric constant tensor:
#      x y z
#    x 1.808480 0.000000 0.000000 
#    y 0.000000 1.814700 0.000000 
#    z 0.000000 0.000000 1.799370 
# 
# From -- ./inp_files/17792.got.cif
#   From: 2010.03.12/outbox.cif.g09.slc.cpg/sg55_9_cif.got.tgz:17792.got - 2010.04.16 15:19:21.
