data_PCOD8226483
_publ_section_title
;
Structure prediction by ZEFSAII (Michael W. Deem and Ramdas Pophale) SiO2 
 PCOD8226483
Probable space group: P B A M
;
_chemical_formula_sum "Si O2"
_cell_formula_units_Z 56
_cell_length_a 21.477159
_cell_length_b 14.638493
_cell_length_c 8.762386
_cell_angle_alpha 90.000000
_cell_angle_beta 90.000000
_cell_angle_gamma 90.000000
_cell_volume 2754.834939
_symmetry_space_group_name_H-M "P B A M"
_symmetry_group_IT_number 55
_symmetry_cell_setting 'orthorhombic'
loop_
_space_group_symop_operation_xyz
x,y,z
-x,-y,z
1/2+x,1/2-y,-z
1/2-x,1/2+y,-z
-x,-y,-z
x,y,-z
1/2-x,1/2+y,z
1/2+x,1/2-y,z
loop_
_atom_site_type_symbol
_atom_site_label
_atom_site_fract_x
_atom_site_fract_y
_atom_site_fract_z
Si Si1 0.041199 0.585515 0.821248
Si Si2 0.246597 0.880122 0.323781
Si Si3 0.328933 0.049948 0.324377
Si Si4 0.117200 0.913243 0.820275
Si Si5 0.719179 0.318711 0.319115
Si Si6 0.409423 0.599573 0.680829
Si Si7 0.025508 0.777740 0.679849
O O1 0.112358 0.564681 0.782291
O O2 0.000000 0.500000 0.766511
O O3 0.016374 0.674276 0.733795
O O4 0.034348 0.602916 0.000000
O O5 0.225389 0.873790 0.500000
O O6 0.188979 0.918612 0.228538
O O7 0.268200 0.782872 0.257270
O O8 0.305386 0.946620 0.306242
O O9 0.346463 0.071641 0.500000
O O10 0.275130 0.117146 0.264435
O O11 0.087044 0.820537 0.755461
O O12 0.080288 0.000353 0.754347
O O13 0.111690 0.912881 0.000000
O O14 0.714164 0.318025 0.500000
O O15 0.654103 0.356237 0.253407
O O16 0.407056 0.586735 0.500000
O O17 0.465447 0.664892 0.731658
O O18 0.034602 0.779278 0.500000
#
# Coordination Sequence:
#
# PCOD8226483 Si02
#       7
#     8   8   8   8   8   8   8
#     4  11  26  45  63  88 130 172 206 254 313 376
#     4  10  20  36  63  91 121 158 205 259 308 360
#     4  10  20  37  64  92 121 159 206 260 304 359
#     4  12  24  39  61  92 131 169 203 249 315 384
#     4   9  18  35  60  91 120 151 197 258 315 354
#     4  10  21  40  64  91 122 158 208 265 314 367
#     4  11  24  41  67  93 119 162 214 264 308 363
#
# _framework density 20.327898000000001
#
# number of rings (size 3 to 8) (size 9 to 14) (size 15 to 20)
#    0.000    1.571    1.429    3.429    2.000    5.714 
#    0.000    0.714    0.000    0.000    0.000    0.000 
#    0.000    0.000    0.000    0.000    0.000    0.000 
#
# Total GULP energy -694736.504565 kJ/mol
# GULP energy per Si atom -12406.009010 kJ/mol
# Density = 2.028163 g / cm^3
# Si number density = 20.327898 Si / 1000 Ang^3
#
#
#
# Elastic Constant Matrix: (Units=GPa)
#
#
# Indices 1 2 3 4 5 6 
#
# 1 87.1352 32.1311 25.1563 0.0000 0.0000 0.0000
# 2 32.1311 137.4072 30.3011 0.0000 0.0000 0.0000
# 3 25.1563 30.3011 61.3690 0.0000 0.0000 0.0000
# 4 0.0000 0.0000 0.0000 24.5506 0.0000 0.0000
# 5 0.0000 0.0000 0.0000 0.0000 18.5513 0.0000
# 6 0.0000 0.0000 0.0000 0.0000 0.0000 34.4061
#
#
#
# Elastic Compliance Matrix: (Units=1/GPa)
#
#
# Indices 1 2 3 4 5 6 
#
# 1 0.013578 -0.002186 -0.004487 0.000000 0.000000 0.000000
# 2 -0.002186 0.008519 -0.003310 0.000000 0.000000 0.000000
# 3 -0.004487 -0.003310 0.019768 0.000000 0.000000 0.000000
# 4 0.000000 0.000000 0.000000 0.040732 0.000000 0.000000
# 5 0.000000 0.000000 0.000000 0.000000 0.053905 0.000000
# 6 0.000000 0.000000 0.000000 0.000000 0.000000 0.029065
#
#
# Mechanical properties :
#
#
# Convention : Reuss Voigt Hill
#
# Bulk Modulus (GPa) = 45.66210 51.23203 48.44707
# Shear Modulus (GPa) = 25.92943 28.72312 27.32627
#
# Velocity S-wave (km/s) = 3.57537 3.76305 3.67041
# Velocity P-wave (km/s) = 6.28935 6.64367 6.46893
#
# Compressibility (1/GPa) = 0.02190000
#
# Stress axis : x y z
#
# Youngs Moduli (GPa) = 73.65048 117.38905 50.58567
#
# Poissons Ratio (x) = 0.25656 0.22696
# Poissons Ratio (y) = 0.16097 0.16745
# Poissons Ratio (z) = 0.33044 0.38858
#
# Static dielectric constant tensor:
#      x y z
#    x 3.720400 0.000000 0.000000 
#    y 0.000000 3.958440 0.000000 
#    z 0.000000 0.000000 3.392240 
# 
# 
# High freq. dielectric constant tensor:
#      x y z
#    x 1.800580 0.000000 0.000000 
#    y 0.000000 1.812260 0.000000 
#    z 0.000000 0.000000 1.768200 
# 
# From -- ./inp_files/8756.got.cif
#   From: 2010.03.12/outbox.cif.g09.slc.cpg/sg55_5_cif.got.tgz:8756.got - 2010.04.16 15:19:21.
