data_PCOD8226060
_publ_section_title
;
Structure prediction by ZEFSAII (Michael W. Deem and Ramdas Pophale) SiO2 
 PCOD8226060
Probable space group: P B A M
;
_chemical_formula_sum "Si O2"
_cell_formula_units_Z 64
_cell_length_a 20.622380
_cell_length_b 16.710302
_cell_length_c 9.312573
_cell_angle_alpha 90.000000
_cell_angle_beta 90.000000
_cell_angle_gamma 90.000000
_cell_volume 3209.170373
_symmetry_space_group_name_H-M "P B A M"
_symmetry_group_IT_number 55
_symmetry_cell_setting 'orthorhombic'
loop_
_space_group_symop_operation_xyz
x,y,z
-x,-y,z
1/2+x,1/2-y,-z
1/2-x,1/2+y,-z
-x,-y,-z
x,y,-z
1/2-x,1/2+y,z
1/2+x,1/2-y,z
loop_
_atom_site_type_symbol
_atom_site_label
_atom_site_fract_x
_atom_site_fract_y
_atom_site_fract_z
Si Si1 0.501960 0.407377 0.159180
Si Si2 0.576384 0.996699 0.668910
Si Si3 0.626919 0.843020 0.830226
Si Si4 0.680040 0.127213 0.335262
Si Si5 0.768887 0.780576 0.169885
Si Si6 0.087462 0.799693 0.334492
Si Si7 0.183635 0.932951 0.660846
Si Si8 0.146153 0.078629 0.840035
O O1 0.500000 0.500000 0.196446
O O2 0.467347 0.361123 0.286334
O O3 0.576224 0.380243 0.159362
O O4 0.471137 0.391397 0.000000
O O5 0.583458 0.978031 0.500000
O O6 0.613091 0.080835 0.706458
O O7 0.500000 0.000000 0.712595
O O8 0.613893 0.928482 0.757707
O O9 0.695356 0.802248 0.788944
O O10 0.577177 0.779352 0.761985
O O11 0.617137 0.852182 0.000000
O O12 0.676749 0.156106 0.500000
O O13 0.697034 0.203404 0.238912
O O14 0.739231 0.064763 0.313582
O O15 0.806605 0.857276 0.231996
O O16 0.776818 0.769669 0.000000
O O17 0.077204 0.776028 0.500000
O O18 0.157035 0.843097 0.309134
O O19 0.165902 0.958342 0.500000
O O20 0.146298 0.994248 0.760962
O O21 0.170439 0.059407 0.000000
#
# Coordination Sequence:
#
# PCOD8226060 Si02
#       8
#     8   8   8   8   8   8   8   8
#     4  10  20  35  54  79 114 156 194 229 282 346
#     4  10  23  43  66  92 124 162 206 256 310 369
#     4  11  23  40  63  90 119 155 202 253 308 363
#     4  10  21  39  62  87 117 153 197 247 303 362
#     4  10  22  38  58  88 120 151 194 247 300 354
#     4  11  22  36  58  85 117 154 198 247 295 353
#     4  10  20  34  55  84 112 147 193 239 290 347
#     4  10  21  36  55  81 117 154 189 233 283 343
#
# _framework density 19.942848000000001
#
# number of rings (size 3 to 8) (size 9 to 14) (size 15 to 20)
#    0.000    1.750    2.500    1.500    0.000    4.500 
#    0.000    2.500    0.000    0.000    0.000    0.000 
#    0.000    0.000    0.000    0.000    0.000    0.000 
#
# Total GULP energy -793300.873860 kJ/mol
# GULP energy per Si atom -12395.326154 kJ/mol
# Density = 1.989746 g / cm^3
# Si number density = 19.942848 Si / 1000 Ang^3
#
#
#
# Elastic Constant Matrix: (Units=GPa)
#
#
# Indices 1 2 3 4 5 6 
#
# 1 66.0447 30.6853 37.2803 0.0000 0.0000 0.0000
# 2 30.6853 102.6618 63.3455 0.0000 0.0000 0.0000
# 3 37.2803 63.3455 84.6810 0.0000 0.0000 0.0000
# 4 0.0000 0.0000 0.0000 38.8146 0.0000 0.0000
# 5 0.0000 0.0000 0.0000 0.0000 25.5351 0.0000
# 6 0.0000 0.0000 0.0000 0.0000 0.0000 26.5379
#
#
#
# Elastic Compliance Matrix: (Units=1/GPa)
#
#
# Indices 1 2 3 4 5 6 
#
# 1 0.020206 -0.001023 -0.008130 0.000000 0.000000 0.000000
# 2 -0.001023 0.018143 -0.013121 0.000000 0.000000 0.000000
# 3 -0.008130 -0.013121 0.025204 0.000000 0.000000 0.000000
# 4 0.000000 0.000000 0.000000 0.025764 0.000000 0.000000
# 5 0.000000 0.000000 0.000000 0.000000 0.039162 0.000000
# 6 0.000000 0.000000 0.000000 0.000000 0.000000 0.037682
#
#
# Mechanical properties :
#
#
# Convention : Reuss Voigt Hill
#
# Bulk Modulus (GPa) = 52.62251 57.33442 54.97846
# Shear Modulus (GPa) = 23.03688 26.31593 24.67640
#
# Velocity S-wave (km/s) = 3.40243 3.63653 3.52142
# Velocity P-wave (km/s) = 6.47142 6.81500 6.64543
#
# Compressibility (1/GPa) = 0.01900327
#
# Stress axis : x y z
#
# Youngs Moduli (GPa) = 49.49064 55.11856 39.67652
#
# Poissons Ratio (x) = 0.05637 0.32259
# Poissons Ratio (y) = 0.05062 0.52061
# Poissons Ratio (z) = 0.40238 0.72323
#
# Static dielectric constant tensor:
#      x y z
#    x 3.769100 0.000000 0.000000 
#    y 0.000000 3.549610 0.000000 
#    z 0.000000 0.000000 3.566430 
# 
# 
# High freq. dielectric constant tensor:
#      x y z
#    x 1.779360 0.000000 0.000000 
#    y 0.000000 1.774330 0.000000 
#    z 0.000000 0.000000 1.773650 
# 
# From -- ./inp_files/8982.got.cif
#   From: 2010.03.12/outbox.cif.g09.slc.cpg/sg55_5_cif.got.tgz:8982.got - 2010.04.16 15:19:21.
