data_PCOD8226031
_publ_section_title
;
Structure prediction by ZEFSAII (Michael W. Deem and Ramdas Pophale) SiO2 
 PCOD8226031
Probable space group: P B A M
;
_chemical_formula_sum "Si O2"
_cell_formula_units_Z 64
_cell_length_a 12.770025
_cell_length_b 20.499909
_cell_length_c 12.699368
_cell_angle_alpha 90.000000
_cell_angle_beta 90.000000
_cell_angle_gamma 90.000000
_cell_volume 3324.495803
_symmetry_space_group_name_H-M "P B A M"
_symmetry_group_IT_number 55
_symmetry_cell_setting 'orthorhombic'
loop_
_space_group_symop_operation_xyz
x,y,z
-x,-y,z
1/2+x,1/2-y,-z
1/2-x,1/2+y,-z
-x,-y,-z
x,y,-z
1/2-x,1/2+y,z
1/2+x,1/2-y,z
loop_
_atom_site_type_symbol
_atom_site_label
_atom_site_fract_x
_atom_site_fract_y
_atom_site_fract_z
Si Si1 0.965285 0.273980 0.765667
Si Si2 0.518148 0.897992 0.878062
Si Si3 0.937475 0.940980 0.119491
Si Si4 0.807494 0.588765 0.240324
Si Si5 0.149411 0.286707 0.378487
Si Si6 0.307114 0.169500 0.617654
Si Si7 0.377546 0.344200 0.879719
Si Si8 0.273609 0.056489 0.760292
O O1 0.989310 0.319072 0.867107
O O2 0.912666 0.322034 0.682002
O O3 0.887475 0.217429 0.802625
O O4 0.068038 0.251455 0.701603
O O5 0.414785 0.925423 0.821561
O O6 0.621720 0.928060 0.825779
O O7 0.516737 0.917629 0.000000
O O8 0.824662 0.928873 0.166373
O O9 0.009011 0.877179 0.127744
O O10 0.916445 0.961706 0.000000
O O11 0.000000 0.000000 0.176568
O O12 0.819933 0.641325 0.334642
O O13 0.717815 0.611430 0.159016
O O14 0.774072 0.517685 0.284238
O O15 0.109579 0.293675 0.500000
O O16 0.245222 0.237183 0.375616
O O17 0.338279 0.152566 0.500000
O O18 0.251567 0.105147 0.663177
O O19 0.353681 0.323485 0.000000
#
# Coordination Sequence:
#
# PCOD8226031 Si02
#       8
#     8   8   8   8   8   8   8   8
#     4  10  20  37  58  84 113 147 194 245 291 346
#     4  10  22  37  56  84 119 157 196 235 287 350
#     4  10  20  34  54  81 114 155 195 232 283 349
#     4  11  22  37  58  88 120 153 193 245 292 346
#     4  10  21  39  62  84 111 149 196 244 298 350
#     4  10  21  38  59  82 110 149 191 238 295 348
#     4  11  21  35  58  86 119 157 195 240 294 349
#     4  11  22  37  59  84 119 156 195 242 290 349
#
# _framework density 19.25104
#
# number of rings (size 3 to 8) (size 9 to 14) (size 15 to 20)
#    0.000    1.625    2.500    2.625    0.000    2.500 
#    0.000    0.000    0.000    4.875    0.000    0.000 
#    0.000    0.000    0.000    0.000    0.000    0.000 
#
# Total GULP energy -793199.002318 kJ/mol
# GULP energy per Si atom -12393.734411 kJ/mol
# Density = 1.920722 g / cm^3
# Si number density = 19.251040 Si / 1000 Ang^3
#
#
#
# Elastic Constant Matrix: (Units=GPa)
#
#
# Indices 1 2 3 4 5 6 
#
# 1 94.4118 17.9490 25.6528 0.0000 0.0000 0.0000
# 2 17.9490 88.3772 47.9882 0.0000 0.0000 0.0000
# 3 25.6528 47.9882 102.1840 0.0000 0.0000 0.0000
# 4 0.0000 0.0000 0.0000 19.3029 0.0000 0.0000
# 5 0.0000 0.0000 0.0000 0.0000 24.7559 0.0000
# 6 0.0000 0.0000 0.0000 0.0000 0.0000 28.3905
#
#
#
# Elastic Compliance Matrix: (Units=1/GPa)
#
#
# Indices 1 2 3 4 5 6 
#
# 1 0.011436 -0.001025 -0.002390 0.000000 0.000000 0.000000
# 2 -0.001025 0.015280 -0.006919 0.000000 0.000000 0.000000
# 3 -0.002390 -0.006919 0.013635 0.000000 0.000000 0.000000
# 4 0.000000 0.000000 0.000000 0.051806 0.000000 0.000000
# 5 0.000000 0.000000 0.000000 0.000000 0.040394 0.000000
# 6 0.000000 0.000000 0.000000 0.000000 0.000000 0.035223
#
#
# Mechanical properties :
#
#
# Convention : Reuss Voigt Hill
#
# Bulk Modulus (GPa) = 50.80015 52.01699 51.40857
# Shear Modulus (GPa) = 25.64067 27.38206 26.51137
#
# Velocity S-wave (km/s) = 3.65350 3.77552 3.71501
# Velocity P-wave (km/s) = 6.65154 6.78860 6.72042
#
# Compressibility (1/GPa) = 0.01968498
#
# Stress axis : x y z
#
# Youngs Moduli (GPa) = 87.44276 65.44475 73.33911
#
# Poissons Ratio (x) = 0.06709 0.17525
# Poissons Ratio (y) = 0.08964 0.50740
# Poissons Ratio (z) = 0.20895 0.45278
#
# Static dielectric constant tensor:
#      x y z
#    x 3.485680 0.000000 0.000000 
#    y 0.000000 3.592950 0.000000 
#    z 0.000000 0.000000 3.502550 
# 
# 
# High freq. dielectric constant tensor:
#      x y z
#    x 1.756520 0.000000 0.000000 
#    y 0.000000 1.755460 0.000000 
#    z 0.000000 0.000000 1.737300 
# 
# From -- ./inp_files/13605.got.cif
#   From: 2010.03.12/outbox.cif.g09.slc.cpg/sg55_7_cif.got.tgz:13605.got - 2010.04.16 15:19:21.
