data_PCOD8226834
_publ_section_title
;
Structure prediction by ZEFSAII (Michael W. Deem and Ramdas Pophale) SiO2 
 PCOD8226834
Probable space group: P B A M
;
_chemical_formula_sum "Si O2"
_cell_formula_units_Z 48
_cell_length_a 11.683984
_cell_length_b 20.157044
_cell_length_c 9.533912
_cell_angle_alpha 90.000000
_cell_angle_beta 90.000000
_cell_angle_gamma 90.000000
_cell_volume 2245.375276
_symmetry_space_group_name_H-M "P B A M"
_symmetry_group_IT_number 55
_symmetry_cell_setting 'orthorhombic'
loop_
_space_group_symop_operation_xyz
x,y,z
-x,-y,z
1/2+x,1/2-y,-z
1/2-x,1/2+y,-z
-x,-y,-z
x,y,-z
1/2-x,1/2+y,z
1/2+x,1/2-y,z
loop_
_atom_site_type_symbol
_atom_site_label
_atom_site_fract_x
_atom_site_fract_y
_atom_site_fract_z
Si Si1 0.015110 0.659563 0.740007
Si Si2 0.216436 0.561424 0.661374
Si Si3 0.613295 0.041820 0.850470
Si Si4 0.804770 0.728120 0.654374
Si Si5 0.130692 0.149733 0.163153
Si Si6 0.611960 0.705341 0.843321
O O1 0.925833 0.617643 0.832993
O O2 0.927554 0.693381 0.629609
O O3 0.109327 0.612441 0.668656
O O4 0.074230 0.717575 0.829050
O O5 0.253335 0.553596 0.500000
O O6 0.185837 0.488421 0.721397
O O7 0.323474 0.585249 0.755203
O O8 0.500000 0.000000 0.862621
O O9 0.680518 0.036464 0.000000
O O10 0.762468 0.751519 0.500000
O O11 0.809139 0.788628 0.762103
O O12 0.705575 0.683159 0.726809
O O13 0.994418 0.155538 0.178816
O O14 0.168109 0.147448 0.000000
O O15 0.661348 0.696062 0.000000
#
# Coordination Sequence:
#
# PCOD8226834 Si02
#       6
#     8   8   8   8   8   8
#     4  10  21  35  55  81 113 144 182 219 266 325
#     4  11  21  34  55  82 113 145 178 222 274 324
#     4   9  19  34  54  79 107 144 183 221 267 319
#     4  11  22  34  53  80 111 145 178 221 274 324
#     4  10  21  36  54  76 106 144 185 226 267 320
#     4  10  21  36  55  79 108 144 184 225 268 319
#
# _framework density 21.377274
#
# number of rings (size 3 to 8) (size 9 to 14) (size 15 to 20)
#    0.000    1.833    1.667    2.500    0.000   10.333 
#    0.000    0.000    0.000    1.000    0.000    5.833 
#    0.000    0.000    0.000    0.000    0.000    0.000 
#
# Total GULP energy -594700.959194 kJ/mol
# GULP energy per Si atom -12389.603317 kJ/mol
# Density = 2.132862 g / cm^3
# Si number density = 21.377274 Si / 1000 Ang^3
#
#
#
# Elastic Constant Matrix: (Units=GPa)
#
#
# Indices 1 2 3 4 5 6 
#
# 1 67.7481 -2.8581 30.2716 0.0000 0.0000 0.0000
# 2 -2.8581 26.9734 -7.9375 0.0000 0.0000 0.0000
# 3 30.2716 -7.9375 163.6202 0.0000 0.0000 0.0000
# 4 0.0000 0.0000 0.0000 17.2129 0.0000 0.0000
# 5 0.0000 0.0000 0.0000 0.0000 38.0100 0.0000
# 6 0.0000 0.0000 0.0000 0.0000 0.0000 19.9209
#
#
#
# Elastic Compliance Matrix: (Units=1/GPa)
#
#
# Indices 1 2 3 4 5 6 
#
# 1 0.016110 0.000842 -0.002940 0.000000 0.000000 0.000000
# 2 0.000842 0.037654 0.001671 0.000000 0.000000 0.000000
# 3 -0.002940 0.001671 0.006737 0.000000 0.000000 0.000000
# 4 0.000000 0.000000 0.000000 0.058096 0.000000 0.000000
# 5 0.000000 0.000000 0.000000 0.000000 0.026309 0.000000
# 6 0.000000 0.000000 0.000000 0.000000 0.000000 0.050199
#
#
# Mechanical properties :
#
#
# Convention : Reuss Voigt Hill
#
# Bulk Modulus (GPa) = 16.76529 33.03265 24.89897
# Shear Modulus (GPa) = 23.16528 30.95311 27.05920
#
# Velocity S-wave (km/s) = 3.29544 3.80932 3.56166
# Velocity P-wave (km/s) = 4.72647 5.90200 5.34664
#
# Compressibility (1/GPa) = 0.05964704
#
# Stress axis : x y z
#
# Youngs Moduli (GPa) = 62.07492 26.55731 148.44197
#
# Poissons Ratio (x) = -0.02236 0.43636
# Poissons Ratio (y) = -0.05226 -0.24804
# Poissons Ratio (z) = 0.18248 -0.04438
#
# Static dielectric constant tensor:
#      x y z
#    x 3.888770 0.000000 0.000000 
#    y 0.000000 4.108810 0.000000 
#    z 0.000000 0.000000 3.863780 
# 
# 
# High freq. dielectric constant tensor:
#      x y z
#    x 1.827960 0.000000 0.000000 
#    y 0.000000 1.809020 0.000000 
#    z 0.000000 0.000000 1.843450 
# 
# From -- ./inp_files/4036.got.cif
#   From: 2010.03.12/outbox.cif.g09.slc.cpg/sg55_3_cif.got.tgz:4036.got - 2010.04.16 15:19:21.
