data_PCOD8226595
_publ_section_title
;
Structure prediction by ZEFSAII (Michael W. Deem and Ramdas Pophale) SiO2 
 PCOD8226595
Probable space group: P B A M
;
_chemical_formula_sum "Si O2"
_cell_formula_units_Z 48
_cell_length_a 11.936592
_cell_length_b 23.700358
_cell_length_c 8.593622
_cell_angle_alpha 90.000000
_cell_angle_beta 90.000000
_cell_angle_gamma 90.000000
_cell_volume 2431.148586
_symmetry_space_group_name_H-M "P B A M"
_symmetry_group_IT_number 55
_symmetry_cell_setting 'orthorhombic'
loop_
_space_group_symop_operation_xyz
x,y,z
-x,-y,z
1/2+x,1/2-y,-z
1/2-x,1/2+y,-z
-x,-y,-z
x,y,-z
1/2-x,1/2+y,z
1/2+x,1/2-y,z
loop_
_atom_site_type_symbol
_atom_site_label
_atom_site_fract_x
_atom_site_fract_y
_atom_site_fract_z
Si Si1 0.219141 0.577102 0.318030
Si Si2 0.031419 0.394350 0.682228
Si Si3 0.767307 0.542398 0.818598
Si Si4 0.157151 0.293282 0.819168
Si Si5 0.357263 0.356183 0.681619
Si Si6 0.391582 0.674304 0.318711
O O1 0.223784 0.562868 0.500000
O O2 0.255283 0.522157 0.223187
O O3 0.304894 0.625912 0.272062
O O4 0.096228 0.597176 0.266432
O O5 0.047729 0.404288 0.500000
O O6 0.106761 0.440268 0.771066
O O7 0.067946 0.330963 0.724828
O O8 0.677467 0.580564 0.727707
O O9 0.750304 0.552516 0.000000
O O10 0.283262 0.310350 0.773087
O O11 0.137925 0.228371 0.782433
O O12 0.138831 0.304910 0.000000
O O13 0.335857 0.347137 0.500000
O O14 0.485709 0.347237 0.726726
O O15 0.382366 0.689913 0.500000
#
# Coordination Sequence:
#
# PCOD8226595 Si02
#       6
#     8   8   8   8   8   8
#     4  10  22  39  60  87 117 151 197 244 288 341
#     4  10  20  37  62  88 115 154 200 242 287 344
#     4  11  22  37  59  87 121 155 191 239 297 350
#     4  11  23  38  59  87 121 153 189 241 299 354
#     4  10  21  40  64  84 112 154 201 241 283 346
#     4  10  23  41  61  86 114 154 201 244 287 342
#
# _framework density 19.743753999999999
#
# number of rings (size 3 to 8) (size 9 to 14) (size 15 to 20)
#    0.000    1.667    0.000    6.500    2.333    6.000 
#    0.000    3.333    0.000    0.000    0.000    0.000 
#    0.000    0.000    0.000    0.000    0.000    0.000 
#
# Total GULP energy -595482.025359 kJ/mol
# GULP energy per Si atom -12405.875528 kJ/mol
# Density = 1.969882 g / cm^3
# Si number density = 19.743754 Si / 1000 Ang^3
#
#
#
# Elastic Constant Matrix: (Units=GPa)
#
#
# Indices 1 2 3 4 5 6 
#
# 1 74.9572 43.0781 6.5720 0.0000 0.0000 0.0000
# 2 43.0781 120.0741 20.4658 0.0000 0.0000 0.0000
# 3 6.5720 20.4658 47.8994 0.0000 0.0000 0.0000
# 4 0.0000 0.0000 0.0000 15.5866 0.0000 0.0000
# 5 0.0000 0.0000 0.0000 0.0000 3.4177 0.0000
# 6 0.0000 0.0000 0.0000 0.0000 0.0000 17.1148
#
#
#
# Elastic Compliance Matrix: (Units=1/GPa)
#
#
# Indices 1 2 3 4 5 6 
#
# 1 0.016810 -0.006080 0.000292 0.000000 0.000000 0.000000
# 2 -0.006080 0.011182 -0.003943 0.000000 0.000000 0.000000
# 3 0.000292 -0.003943 0.022522 0.000000 0.000000 0.000000
# 4 0.000000 0.000000 0.000000 0.064158 0.000000 0.000000
# 5 0.000000 0.000000 0.000000 0.000000 0.292595 0.000000
# 6 0.000000 0.000000 0.000000 0.000000 0.000000 0.058429
#
#
# Mechanical properties :
#
#
# Convention : Reuss Voigt Hill
#
# Bulk Modulus (GPa) = 32.20700 42.57360 37.39030
# Shear Modulus (GPa) = 10.09063 18.74481 14.41772
#
# Velocity S-wave (km/s) = 2.26316 3.08458 2.70523
# Velocity P-wave (km/s) = 4.81426 5.85629 5.36065
#
# Compressibility (1/GPa) = 0.03104915
#
# Stress axis : x y z
#
# Youngs Moduli (GPa) = 59.48900 89.43158 44.40119
#
# Poissons Ratio (x) = 0.54378 -0.01295
# Poissons Ratio (y) = 0.36172 0.17509
# Poissons Ratio (z) = -0.01735 0.35266
#
# Static dielectric constant tensor:
#      x y z
#    x 3.686140 0.000000 0.000000 
#    y 0.000000 3.565270 0.000000 
#    z 0.000000 0.000000 3.588480 
# 
# 
# High freq. dielectric constant tensor:
#      x y z
#    x 1.771960 0.000000 0.000000 
#    y 0.000000 1.776140 0.000000 
#    z 0.000000 0.000000 1.771640 
# 
# From -- ./inp_files/4052.got.cif
#   From: 2010.03.12/outbox.cif.g09.slc.cpg/sg55_3_cif.got.tgz:4052.got - 2010.04.16 15:19:21.
