data_PCOD8226871
_publ_section_title
;
Structure prediction by ZEFSAII (Michael W. Deem and Ramdas Pophale) SiO2 
 PCOD8226871
Probable space group: P B A M
;
_chemical_formula_sum "Si O2"
_cell_formula_units_Z 48
_cell_length_a 17.690114
_cell_length_b 5.073431
_cell_length_c 27.886952
_cell_angle_alpha 90.000000
_cell_angle_beta 90.000000
_cell_angle_gamma 90.000000
_cell_volume 2502.842028
_symmetry_space_group_name_H-M "P B A M"
_symmetry_group_IT_number 55
_symmetry_cell_setting 'orthorhombic'
loop_
_space_group_symop_operation_xyz
x,y,z
-x,-y,z
1/2+x,1/2-y,-z
1/2-x,1/2+y,-z
-x,-y,-z
x,y,-z
1/2-x,1/2+y,z
1/2+x,1/2-y,z
loop_
_atom_site_type_symbol
_atom_site_label
_atom_site_fract_x
_atom_site_fract_y
_atom_site_fract_z
Si Si1 0.298072 0.848589 0.888418
Si Si2 0.088156 0.004383 0.638294
Si Si3 0.296869 0.852747 0.223123
Si Si4 0.299138 0.500858 0.554492
Si Si5 0.411948 0.002646 0.301457
Si Si6 0.549432 0.256925 0.944822
O O1 0.234336 0.634217 0.902412
O O2 0.318682 0.854643 0.832503
O O3 0.373513 0.777258 0.916298
O O4 0.111556 0.785833 0.677587
O O5 0.130253 0.949548 0.588739
O O6 0.111257 0.287392 0.658967
O O7 0.000000 0.000000 0.626284
O O8 0.269148 0.560244 0.236405
O O9 0.370989 0.935259 0.251997
O O10 0.328634 0.474657 0.500000
O O11 0.234091 0.288575 0.564784
O O12 0.500000 0.000000 0.289222
O O13 0.500000 0.500000 0.924445
O O14 0.500000 0.000000 0.938045
O O15 0.570927 0.308793 0.000000
#
# Coordination Sequence:
#
# PCOD8226871 Si02
#       6
#     8   8   8   8   8   8
#     4  10  21  37  56  81 112 145 184 228 274 327
#     4  10  21  36  54  77 105 136 172 213 258 310
#     4  10  21  36  54  78 107 139 177 219 262 313
#     4  10  21  36  54  78 105 133 170 213 256 308
#     4  10  21  36  53  77 106 136 174 217 259 310
#     4  10  21  37  57  83 113 145 185 230 275 327
#
# _framework density 19.178197000000001
#
# number of rings (size 3 to 8) (size 9 to 14) (size 15 to 20)
#    0.000    2.000    0.000    3.000    0.000    5.667 
#    0.000    2.500    0.000    6.000    0.000    0.000 
#    0.000    0.000    0.000    0.000    0.000    0.000 
#
# Total GULP energy -595337.489205 kJ/mol
# GULP energy per Si atom -12402.864358 kJ/mol
# Density = 1.913455 g / cm^3
# Si number density = 19.178197 Si / 1000 Ang^3
#
#
#
# Elastic Constant Matrix: (Units=GPa)
#
#
# Indices 1 2 3 4 5 6 
#
# 1 96.4281 32.7572 75.6690 0.0000 0.0000 0.0000
# 2 32.7572 101.4708 34.8040 0.0000 0.0000 0.0000
# 3 75.6690 34.8040 92.9458 0.0000 0.0000 0.0000
# 4 0.0000 0.0000 0.0000 25.9725 0.0000 0.0000
# 5 0.0000 0.0000 0.0000 0.0000 27.8922 0.0000
# 6 0.0000 0.0000 0.0000 0.0000 0.0000 24.6136
#
#
#
# Elastic Compliance Matrix: (Units=1/GPa)
#
#
# Indices 1 2 3 4 5 6 
#
# 1 0.028899 -0.001445 -0.022986 0.000000 0.000000 0.000000
# 2 -0.001445 0.011380 -0.003085 0.000000 0.000000 0.000000
# 3 -0.022986 -0.003085 0.030627 0.000000 0.000000 0.000000
# 4 0.000000 0.000000 0.000000 0.038502 0.000000 0.000000
# 5 0.000000 0.000000 0.000000 0.000000 0.035852 0.000000
# 6 0.000000 0.000000 0.000000 0.000000 0.000000 0.040628
#
#
# Mechanical properties :
#
#
# Convention : Reuss Voigt Hill
#
# Bulk Modulus (GPa) = 62.99491 64.14499 63.56995
# Shear Modulus (GPa) = 20.30775 25.53663 22.92219
#
# Velocity S-wave (km/s) = 3.25760 3.65299 3.46095
# Velocity P-wave (km/s) = 6.86059 7.16323 7.01355
#
# Compressibility (1/GPa) = 0.01587430
#
# Stress axis : x y z
#
# Youngs Moduli (GPa) = 34.60337 87.87660 32.65053
#
# Poissons Ratio (x) = 0.12699 0.75051
# Poissons Ratio (y) = 0.05001 0.10071
# Poissons Ratio (z) = 0.79539 0.27107
#
# Static dielectric constant tensor:
#      x y z
#    x 3.274860 0.000000 0.000000 
#    y 0.000000 3.868410 0.000000 
#    z 0.000000 0.000000 3.429710 
# 
# 
# High freq. dielectric constant tensor:
#      x y z
#    x 1.738290 0.000000 0.000000 
#    y 0.000000 1.770120 0.000000 
#    z 0.000000 0.000000 1.741270 
# 
# From -- ./inp_files/23302.got.cif
#   From: 2010.03.12/outbox.cif.g09.slc.cpg/sg55_12_cif.got.tgz:23302.got - 2010.04.16 15:19:21.
