data_PCOD8226520
_publ_section_title
;
Structure prediction by ZEFSAII (Michael W. Deem and Ramdas Pophale) SiO2 
 PCOD8226520
Probable space group: P B A M
;
_chemical_formula_sum "Si O2"
_cell_formula_units_Z 64
_cell_length_a 15.279300
_cell_length_b 24.407915
_cell_length_c 9.017110
_cell_angle_alpha 90.000000
_cell_angle_beta 90.000000
_cell_angle_gamma 90.000000
_cell_volume 3362.803633
_symmetry_space_group_name_H-M "P B A M"
_symmetry_group_IT_number 55
_symmetry_cell_setting 'orthorhombic'
loop_
_space_group_symop_operation_xyz
x,y,z
-x,-y,z
1/2+x,1/2-y,-z
1/2-x,1/2+y,-z
-x,-y,-z
x,y,-z
1/2-x,1/2+y,z
1/2+x,1/2-y,z
loop_
_atom_site_type_symbol
_atom_site_label
_atom_site_fract_x
_atom_site_fract_y
_atom_site_fract_z
Si Si1 0.319786 0.429551 0.828087
Si Si2 0.491249 0.605360 0.825908
Si Si3 0.999976 0.342498 0.175742
Si Si4 0.959765 0.222214 0.827285
Si Si5 0.812221 0.942894 0.828330
Si Si6 0.179010 0.635630 0.324852
Si Si7 0.324660 0.857254 0.327363
Si Si8 0.287442 0.257219 0.329708
O O1 0.417328 0.418464 0.763670
O O2 0.297531 0.493023 0.809381
O O3 0.251185 0.396374 0.730903
O O4 0.312889 0.411222 0.000000
O O5 0.480936 0.669842 0.784755
O O6 0.407285 0.573647 0.761134
O O7 0.492774 0.595190 0.000000
O O8 0.086692 0.370954 0.239285
O O9 0.004191 0.278613 0.225371
O O10 0.915305 0.370424 0.247824
O O11 0.996309 0.350464 0.000000
O O12 0.865088 0.213384 0.757201
O O13 0.942275 0.224498 0.000000
O O14 0.738558 0.912997 0.733780
O O15 0.804618 0.924800 0.000000
O O16 0.166843 0.629996 0.500000
O O17 0.223956 0.693874 0.279969
O O18 0.339838 0.869115 0.500000
O O19 0.299279 0.793225 0.300143
O O20 0.315116 0.258985 0.500000
#
# Coordination Sequence:
#
# PCOD8226520 Si02
#       8
#     8   8   8   8   8   8   8   8
#     4  10  20  37  59  83 114 151 192 237 281 329
#     4   9  17  32  55  84 115 148 185 226 276 331
#     4  10  21  36  57  85 114 146 187 239 287 334
#     4   9  17  31  53  82 112 143 182 225 272 325
#     4  10  21  36  58  85 113 149 192 238 283 331
#     4  10  21  39  58  80 114 153 189 232 285 339
#     4  11  22  36  56  83 115 152 190 232 283 339
#     4   9  19  34  52  77 111 149 184 222 275 333
#
# _framework density 19.031739999999999
#
# number of rings (size 3 to 8) (size 9 to 14) (size 15 to 20)
#    0.000    2.250    1.250    1.500    1.750    3.500 
#    0.000    1.875    0.000    5.250    0.000    0.000 
#    0.000    0.000    0.000    0.000    0.000    0.000 
#
# Total GULP energy -793524.007263 kJ/mol
# GULP energy per Si atom -12398.812613 kJ/mol
# Density = 1.898842 g / cm^3
# Si number density = 19.031740 Si / 1000 Ang^3
#
#
#
# Elastic Constant Matrix: (Units=GPa)
#
#
# Indices 1 2 3 4 5 6 
#
# 1 134.7145 48.6053 47.6925 0.0000 0.0000 0.0000
# 2 48.6053 67.0035 28.6505 0.0000 0.0000 0.0000
# 3 47.6925 28.6505 62.4539 0.0000 0.0000 0.0000
# 4 0.0000 0.0000 0.0000 22.7159 0.0000 0.0000
# 5 0.0000 0.0000 0.0000 0.0000 16.9611 0.0000
# 6 0.0000 0.0000 0.0000 0.0000 0.0000 24.1683
#
#
#
# Elastic Compliance Matrix: (Units=1/GPa)
#
#
# Indices 1 2 3 4 5 6 
#
# 1 0.011760 -0.005836 -0.006304 0.000000 0.000000 0.000000
# 2 -0.005836 0.021462 -0.005389 0.000000 0.000000 0.000000
# 3 -0.006304 -0.005389 0.023298 0.000000 0.000000 0.000000
# 4 0.000000 0.000000 0.000000 0.044022 0.000000 0.000000
# 5 0.000000 0.000000 0.000000 0.000000 0.058959 0.000000
# 6 0.000000 0.000000 0.000000 0.000000 0.000000 0.041377
#
#
# Mechanical properties :
#
#
# Convention : Reuss Voigt Hill
#
# Bulk Modulus (GPa) = 46.59137 57.11874 51.85506
# Shear Modulus (GPa) = 20.56858 22.05062 21.30960
#
# Velocity S-wave (km/s) = 3.29104 3.40755 3.34980
# Velocity P-wave (km/s) = 6.24302 6.74977 6.50133
#
# Compressibility (1/GPa) = 0.02146320
#
# Stress axis : x y z
#
# Youngs Moduli (GPa) = 85.03216 46.59316 42.92241
#
# Poissons Ratio (x) = 0.27190 0.27056
# Poissons Ratio (y) = 0.49622 0.23133
# Poissons Ratio (z) = 0.53600 0.25111
#
# Static dielectric constant tensor:
#      x y z
#    x 3.478000 0.000000 0.000000 
#    y 0.000000 3.521760 0.000000 
#    z 0.000000 0.000000 3.332300 
# 
# 
# High freq. dielectric constant tensor:
#      x y z
#    x 1.737780 0.000000 0.000000 
#    y 0.000000 1.735320 0.000000 
#    z 0.000000 0.000000 1.725870 
# 
# From -- ./inp_files/6630.got.cif
#   From: 2010.03.12/outbox.cif.g09.slc.cpg/sg55_4_cif.got.tgz:6630.got - 2010.04.16 15:19:21.
