data_PCOD8226232
_publ_section_title
;
Structure prediction by ZEFSAII (Michael W. Deem and Ramdas Pophale) SiO2 
 PCOD8226232
Probable space group: P B A M
;
_chemical_formula_sum "Si O2"
_cell_formula_units_Z 64
_cell_length_a 24.929231
_cell_length_b 14.329816
_cell_length_c 9.275840
_cell_angle_alpha 90.000000
_cell_angle_beta 90.000000
_cell_angle_gamma 90.000000
_cell_volume 3313.620319
_symmetry_space_group_name_H-M "P B A M"
_symmetry_group_IT_number 55
_symmetry_cell_setting 'orthorhombic'
loop_
_space_group_symop_operation_xyz
x,y,z
-x,-y,z
1/2+x,1/2-y,-z
1/2-x,1/2+y,-z
-x,-y,-z
x,y,-z
1/2-x,1/2+y,z
1/2+x,1/2-y,z
loop_
_atom_site_type_symbol
_atom_site_label
_atom_site_fract_x
_atom_site_fract_y
_atom_site_fract_z
Si Si1 0.015109 0.395561 0.829234
Si Si2 0.128116 0.096509 0.664897
Si Si3 0.555833 0.542815 0.829160
Si Si4 0.111745 0.306596 0.667540
Si Si5 0.251374 0.551881 0.336621
Si Si6 0.692200 0.801828 0.828954
Si Si7 0.766471 0.659316 0.333726
Si Si8 0.573904 0.751511 0.171036
O O1 0.071602 0.368519 0.760414
O O2 0.000000 0.500000 0.781611
O O3 0.969373 0.325514 0.769805
O O4 0.021212 0.387947 0.000000
O O5 0.115272 0.070262 0.500000
O O6 0.103885 0.197322 0.705250
O O7 0.191756 0.101600 0.689825
O O8 0.104110 0.017394 0.766168
O O9 0.500000 0.500000 0.774750
O O10 0.559478 0.648493 0.770936
O O11 0.560959 0.539025 0.000000
O O12 0.100409 0.324948 0.500000
O O13 0.171312 0.338881 0.709668
O O14 0.231648 0.568188 0.500000
O O15 0.207801 0.596163 0.229441
O O16 0.256981 0.442838 0.304644
O O17 0.733353 0.727063 0.767466
O O18 0.632593 0.779349 0.772561
O O19 0.695483 0.801002 0.000000
O O20 0.759365 0.690682 0.500000
O O21 0.572936 0.752276 0.000000
#
# Coordination Sequence:
#
# PCOD8226232 Si02
#       8
#     8   8   8   8   8   8   8   8
#     4  10  22  40  62  84 111 153 198 239 286 342
#     4  10  20  36  57  83 116 146 182 237 287 334
#     4  10  20  35  58  83 111 149 188 228 279 343
#     4  10  21  38  58  83 117 150 187 243 291 334
#     4  10  21  38  59  82 113 155 194 235 289 350
#     4  11  22  36  58  86 120 154 188 242 294 343
#     4  10  21  39  61  84 117 158 197 239 291 350
#     4   9  20  38  55  81 120 151 185 239 292 337
#
# _framework density 19.314221
#
# number of rings (size 3 to 8) (size 9 to 14) (size 15 to 20)
#    0.000    2.000    1.250    1.875    1.750    3.500 
#    0.000    2.500    0.000    0.000    0.000    0.000 
#    0.000    0.000    0.000    0.000    0.000    0.000 
#
# Total GULP energy -793845.364330 kJ/mol
# GULP energy per Si atom -12403.833818 kJ/mol
# Density = 1.927026 g / cm^3
# Si number density = 19.314221 Si / 1000 Ang^3
#
#
#
# Elastic Constant Matrix: (Units=GPa)
#
#
# Indices 1 2 3 4 5 6 
#
# 1 95.2570 36.7039 34.8708 0.0000 0.0000 0.0000
# 2 36.7039 100.2437 29.9125 0.0000 0.0000 0.0000
# 3 34.8708 29.9125 46.3604 0.0000 0.0000 0.0000
# 4 0.0000 0.0000 0.0000 28.7472 0.0000 0.0000
# 5 0.0000 0.0000 0.0000 0.0000 28.1156 0.0000
# 6 0.0000 0.0000 0.0000 0.0000 0.0000 39.6368
#
#
#
# Elastic Compliance Matrix: (Units=1/GPa)
#
#
# Indices 1 2 3 4 5 6 
#
# 1 0.015030 -0.002638 -0.009603 0.000000 0.000000 0.000000
# 2 -0.002638 0.012817 -0.006286 0.000000 0.000000 0.000000
# 3 -0.009603 -0.006286 0.032849 0.000000 0.000000 0.000000
# 4 0.000000 0.000000 0.000000 0.034786 0.000000 0.000000
# 5 0.000000 0.000000 0.000000 0.000000 0.035567 0.000000
# 6 0.000000 0.000000 0.000000 0.000000 0.000000 0.025229
#
#
# Mechanical properties :
#
#
# Convention : Reuss Voigt Hill
#
# Bulk Modulus (GPa) = 42.29624 49.42617 45.86121
# Shear Modulus (GPa) = 24.84939 28.65818 26.75379
#
# Velocity S-wave (km/s) = 3.59079 3.85617 3.72585
# Velocity P-wave (km/s) = 6.25606 6.74336 6.50427
#
# Compressibility (1/GPa) = 0.02364276
#
# Stress axis : x y z
#
# Youngs Moduli (GPa) = 66.53551 78.02059 30.44229
#
# Poissons Ratio (x) = 0.20578 0.29234
# Poissons Ratio (y) = 0.17549 0.19136
# Poissons Ratio (z) = 0.63894 0.49044
#
# Static dielectric constant tensor:
#      x y z
#    x 3.605480 0.000000 0.000000 
#    y 0.000000 3.707470 0.000000 
#    z 0.000000 0.000000 3.293930 
# 
# 
# High freq. dielectric constant tensor:
#      x y z
#    x 1.758300 0.000000 0.000000 
#    y 0.000000 1.767280 0.000000 
#    z 0.000000 0.000000 1.729780 
# 
# From -- ./inp_files/9766.got.cif
#   From: 2010.03.12/outbox.cif.g09.slc.cpg/sg55_5_cif.got.tgz:9766.got - 2010.04.16 15:19:21.
