data_PCOD8226306
_publ_section_title
;
Structure prediction by ZEFSAII (Michael W. Deem and Ramdas Pophale) SiO2 
 PCOD8226306
Probable space group: P B A M
;
_chemical_formula_sum "Si O2"
_cell_formula_units_Z 40
_cell_length_a 14.195635
_cell_length_b 8.340407
_cell_length_c 16.662144
_cell_angle_alpha 90.000000
_cell_angle_beta 90.000000
_cell_angle_gamma 90.000000
_cell_volume 1972.754087
_symmetry_space_group_name_H-M "P B A M"
_symmetry_group_IT_number 55
_symmetry_cell_setting 'orthorhombic'
loop_
_space_group_symop_operation_xyz
x,y,z
-x,-y,z
1/2+x,1/2-y,-z
1/2-x,1/2+y,-z
-x,-y,-z
x,y,-z
1/2-x,1/2+y,z
1/2+x,1/2-y,z
loop_
_atom_site_type_symbol
_atom_site_label
_atom_site_fract_x
_atom_site_fract_y
_atom_site_fract_z
Si Si1 0.828375 0.804748 0.500000
Si Si2 0.974507 0.685470 0.380915
Si Si3 0.878397 0.176558 0.500000
Si Si4 0.383237 0.282486 0.090000
Si Si5 0.461936 0.820794 0.802156
Si Si6 0.194648 0.431240 0.908871
O O1 0.716081 0.782997 0.500000
O O2 0.874573 0.720980 0.422475
O O3 0.850712 0.992122 0.500000
O O4 0.059203 0.786570 0.421059
O O5 0.000000 0.500000 0.390410
O O6 0.959243 0.737532 0.289279
O O7 0.469533 0.301264 0.151019
O O8 0.306089 0.418326 0.108493
O O9 0.330834 0.114694 0.102658
O O10 0.423771 0.296283 0.000000
O O11 0.360631 0.818552 0.845483
O O12 0.500000 0.000000 0.809109
O O13 0.171992 0.372920 0.000000
#
# Coordination Sequence:
#
# PCOD8226306 Si02
#       6
#     4   8   4   8   8   8
#     4  11  22  39  60  80 104 137 174 211 260 316
#     4  10  20  36  56  82 111 136 171 216 262 314
#     4  11  22  39  60  80 104 137 174 211 260 316
#     4   9  17  31  50  72 100 136 176 213 250 295
#     4   9  18  32  52  76 103 136 170 207 253 305
#     4   9  17  31  50  72 100 136 176 213 250 295
#
# _framework density 20.276223000000002
#
# number of rings (size 3 to 8) (size 9 to 14) (size 15 to 20)
#    0.000    2.400    0.000    4.200    0.000    4.000 
#    0.000    9.000    0.000    4.800    0.000    0.000 
#    0.000    0.000    0.000    0.000    0.000    0.000 
#
# Total GULP energy -495940.585038 kJ/mol
# GULP energy per Si atom -12398.514626 kJ/mol
# Density = 2.023007 g / cm^3
# Si number density = 20.276223 Si / 1000 Ang^3
#
#
#
# Elastic Constant Matrix: (Units=GPa)
#
#
# Indices 1 2 3 4 5 6 
#
# 1 49.4213 -7.7968 13.1767 0.0000 0.0000 0.0000
# 2 -7.7968 35.2909 11.1790 0.0000 0.0000 0.0000
# 3 13.1767 11.1790 113.1729 0.0000 0.0000 0.0000
# 4 0.0000 0.0000 0.0000 13.8914 0.0000 0.0000
# 5 0.0000 0.0000 0.0000 0.0000 17.3206 0.0000
# 6 0.0000 0.0000 0.0000 0.0000 0.0000 30.2758
#
#
#
# Elastic Compliance Matrix: (Units=1/GPa)
#
#
# Indices 1 2 3 4 5 6 
#
# 1 0.021995 0.005854 -0.003139 0.000000 0.000000 0.000000
# 2 0.005854 0.030809 -0.003725 0.000000 0.000000 0.000000
# 3 -0.003139 -0.003725 0.009569 0.000000 0.000000 0.000000
# 4 0.000000 0.000000 0.000000 0.071987 0.000000 0.000000
# 5 0.000000 0.000000 0.000000 0.000000 0.057735 0.000000
# 6 0.000000 0.000000 0.000000 0.000000 0.000000 0.033030
#
#
# Mechanical properties :
#
#
# Convention : Reuss Voigt Hill
#
# Bulk Modulus (GPa) = 16.56930 25.66699 21.11815
# Shear Modulus (GPa) = 20.22144 24.38598 22.30371
#
# Velocity S-wave (km/s) = 3.16143 3.47174 3.32021
# Velocity P-wave (km/s) = 4.63850 5.36254 5.01361
#
# Compressibility (1/GPa) = 0.06035256
#
# Stress axis : x y z
#
# Youngs Moduli (GPa) = 45.46573 32.45805 104.49931
#
# Poissons Ratio (x) = -0.19000 0.32803
# Poissons Ratio (y) = -0.26614 0.38924
# Poissons Ratio (z) = 0.14272 0.12090
#
# Static dielectric constant tensor:
#      x y z
#    x 3.821990 0.000000 0.000000 
#    y 0.000000 3.481300 0.000000 
#    z 0.000000 0.000000 3.811100 
# 
# 
# High freq. dielectric constant tensor:
#      x y z
#    x 1.792850 0.000000 0.000000 
#    y 0.000000 1.780130 0.000000 
#    z 0.000000 0.000000 1.787810 
# 
# From -- ./inp_files/21441.got.cif
#   From: 2010.03.12/outbox.cif.g09.slc.cpg/sg55_11_cif.got.tgz:21441.got - 2010.04.16 15:19:21.
