data_PCOD8226280
_publ_section_title
;
Structure prediction by ZEFSAII (Michael W. Deem and Ramdas Pophale) SiO2 
 PCOD8226280
Probable space group: P B A M
;
_chemical_formula_sum "Si O2"
_cell_formula_units_Z 64
_cell_length_a 24.822436
_cell_length_b 15.077479
_cell_length_c 8.843674
_cell_angle_alpha 90.000000
_cell_angle_beta 90.000000
_cell_angle_gamma 90.000000
_cell_volume 3309.831287
_symmetry_space_group_name_H-M "P B A M"
_symmetry_group_IT_number 55
_symmetry_cell_setting 'orthorhombic'
loop_
_space_group_symop_operation_xyz
x,y,z
-x,-y,z
1/2+x,1/2-y,-z
1/2-x,1/2+y,-z
-x,-y,-z
x,y,-z
1/2-x,1/2+y,z
1/2+x,1/2-y,z
loop_
_atom_site_type_symbol
_atom_site_label
_atom_site_fract_x
_atom_site_fract_y
_atom_site_fract_z
Si Si1 0.946301 0.329021 0.677046
Si Si2 0.351950 0.293884 0.677427
Si Si3 0.111135 0.490195 0.324382
Si Si4 0.559973 0.182314 0.822769
Si Si5 0.232779 0.283200 0.673793
Si Si6 0.669952 0.510608 0.322940
Si Si7 0.369992 0.674047 0.672728
Si Si8 0.781397 0.534382 0.177673
O O1 0.957023 0.311075 0.500000
O O2 0.899399 0.265999 0.746923
O O3 0.931162 0.431313 0.703948
O O4 0.998891 0.306276 0.771453
O O5 0.359166 0.286750 0.500000
O O6 0.293214 0.255560 0.724998
O O7 0.356643 0.396597 0.731266
O O8 0.122429 0.475542 0.500000
O O9 0.087292 0.399723 0.260186
O O10 0.167361 0.517255 0.246308
O O11 0.590715 0.273290 0.783072
O O12 0.563008 0.165362 0.000000
O O13 0.234436 0.316605 0.500000
O O14 0.192381 0.201805 0.695080
O O15 0.211802 0.363002 0.776890
O O16 0.683218 0.514332 0.500000
O O17 0.628517 0.430661 0.286637
O O18 0.726188 0.493302 0.239173
O O19 0.388341 0.691139 0.500000
O O20 0.782583 0.524118 0.000000
#
# Coordination Sequence:
#
# PCOD8226280 Si02
#       8
#     8   8   8   8   8   8   8   8
#     4  10  22  39  62  84 109 150 197 240 286 343
#     4   8  16  34  58  86 114 142 187 243 287 327
#     4  11  22  37  59  84 112 151 198 242 283 342
#     4  12  25  40  58  82 118 152 188 241 296 349
#     4   9  17  32  56  82 112 148 189 237 281 332
#     4   9  19  36  60  87 117 152 193 241 287 335
#     4  10  20  35  61  88 113 151 197 239 283 337
#     4  11  21  33  52  83 122 158 187 226 285 347
#
# _framework density 19.336333
#
# number of rings (size 3 to 8) (size 9 to 14) (size 15 to 20)
#    0.000    2.000    1.250    3.750    1.750    3.000 
#    0.000    3.125    0.000    3.750    0.000    0.000 
#    0.000    0.000    0.000    0.000    0.000    0.000 
#
# Total GULP energy -793577.991212 kJ/mol
# GULP energy per Si atom -12399.656113 kJ/mol
# Density = 1.929232 g / cm^3
# Si number density = 19.336333 Si / 1000 Ang^3
#
#
#
# Elastic Constant Matrix: (Units=GPa)
#
#
# Indices 1 2 3 4 5 6 
#
# 1 104.2467 38.7126 36.6971 0.0000 0.0000 0.0000
# 2 38.7126 71.5611 26.2309 0.0000 0.0000 0.0000
# 3 36.6971 26.2309 81.9119 0.0000 0.0000 0.0000
# 4 0.0000 0.0000 0.0000 6.8575 0.0000 0.0000
# 5 0.0000 0.0000 0.0000 0.0000 13.1021 0.0000
# 6 0.0000 0.0000 0.0000 0.0000 0.0000 25.4397
#
#
#
# Elastic Compliance Matrix: (Units=1/GPa)
#
#
# Indices 1 2 3 4 5 6 
#
# 1 0.013107 -0.005595 -0.004080 0.000000 0.000000 0.000000
# 2 -0.005595 0.018221 -0.003328 0.000000 0.000000 0.000000
# 3 -0.004080 -0.003328 0.015102 0.000000 0.000000 0.000000
# 4 0.000000 0.000000 0.000000 0.145826 0.000000 0.000000
# 5 0.000000 0.000000 0.000000 0.000000 0.076324 0.000000
# 6 0.000000 0.000000 0.000000 0.000000 0.000000 0.039309
#
#
# Mechanical properties :
#
#
# Convention : Reuss Voigt Hill
#
# Bulk Modulus (GPa) = 48.96515 51.22232 50.09373
# Shear Modulus (GPa) = 14.67558 19.48514 17.08036
#
# Velocity S-wave (km/s) = 2.75792 3.17787 2.97531
# Velocity P-wave (km/s) = 5.95981 6.32557 6.14541
#
# Compressibility (1/GPa) = 0.02042269
#
# Stress axis : x y z
#
# Youngs Moduli (GPa) = 76.29758 54.88279 66.21606
#
# Poissons Ratio (x) = 0.30705 0.27018
# Poissons Ratio (y) = 0.42686 0.22039
# Poissons Ratio (z) = 0.31131 0.18267
#
# Static dielectric constant tensor:
#      x y z
#    x 3.636650 0.000000 0.000000 
#    y 0.000000 3.595270 0.000000 
#    z 0.000000 0.000000 3.302960 
# 
# 
# High freq. dielectric constant tensor:
#      x y z
#    x 1.750340 0.000000 0.000000 
#    y 0.000000 1.750630 0.000000 
#    z 0.000000 0.000000 1.729840 
# 
# From -- ./inp_files/9699.got.cif
#   From: 2010.03.12/outbox.cif.g09.slc.cpg/sg55_5_cif.got.tgz:9699.got - 2010.04.16 15:19:21.
