data_PCOD8226427
_publ_section_title
;
Structure prediction by ZEFSAII (Michael W. Deem and Ramdas Pophale) SiO2 
 PCOD8226427
Probable space group: P B A M
;
_chemical_formula_sum "Si O2"
_cell_formula_units_Z 56
_cell_length_a 10.655977
_cell_length_b 19.507258
_cell_length_c 14.806222
_cell_angle_alpha 90.000000
_cell_angle_beta 90.000000
_cell_angle_gamma 90.000000
_cell_volume 3077.752970
_symmetry_space_group_name_H-M "P B A M"
_symmetry_group_IT_number 55
_symmetry_cell_setting 'orthorhombic'
loop_
_space_group_symop_operation_xyz
x,y,z
-x,-y,z
1/2+x,1/2-y,-z
1/2-x,1/2+y,-z
-x,-y,-z
x,y,-z
1/2-x,1/2+y,z
1/2+x,1/2-y,z
loop_
_atom_site_type_symbol
_atom_site_label
_atom_site_fract_x
_atom_site_fract_y
_atom_site_fract_z
Si Si1 0.490297 0.576321 0.200180
Si Si2 0.713582 0.370407 0.675016
Si Si3 0.990317 0.212416 0.895223
Si Si4 0.164469 0.800741 0.500000
Si Si5 0.240830 0.256650 0.206506
Si Si6 0.286335 0.384150 0.321372
Si Si7 0.354197 0.007615 0.399686
Si Si8 0.615524 0.309693 0.500000
O O1 0.500000 0.500000 0.158743
O O2 0.355529 0.588996 0.244893
O O3 0.514404 0.630467 0.119988
O O4 0.587319 0.585145 0.281169
O O5 0.764961 0.298819 0.714570
O O6 0.827500 0.417928 0.642863
O O7 0.622365 0.355859 0.590033
O O8 0.862972 0.246439 0.857526
O O9 0.112533 0.243378 0.846973
O O10 0.999667 0.229486 0.000000
O O11 0.182955 0.847798 0.585818
O O12 0.265567 0.740590 0.500000
O O13 0.020525 0.771516 0.500000
O O14 0.224142 0.330854 0.251713
O O15 0.193716 0.447271 0.335681
O O16 0.293208 0.002833 0.500000
O O17 0.500000 0.000000 0.408070
#
# Coordination Sequence:
#
# PCOD8226427 Si02
#       8
#     8   8   8   4   8   8   8   4
#     4  10  20  36  60  86 110 143 190 233 285 348
#     4  11  21  37  56  82 117 155 201 236 278 339
#     4  10  22  41  63  88 113 141 186 241 304 364
#     4  12  24  35  56  85 123 163 203 249 288 326
#     4  10  23  37  62  88 112 150 190 239 295 344
#     4  11  21  37  56  82 117 155 201 236 278 339
#     4  11  24  35  51  81 118 164 202 240 280 326
#     4  12  24  35  56  85 123 163 203 249 288 326
#
# _framework density 18.195091999999999
#
# number of rings (size 3 to 8) (size 9 to 14) (size 15 to 20)
#    0.000    1.286    5.714    0.429    2.000    1.429 
#    0.000    2.143    0.000    0.000    0.000    1.000 
#    0.000    0.000    0.000    0.000    0.000    0.000 
#
# Total GULP energy -694366.899275 kJ/mol
# GULP energy per Si atom -12399.408916 kJ/mol
# Density = 1.815368 g / cm^3
# Si number density = 18.195092 Si / 1000 Ang^3
#
#
#
# Elastic Constant Matrix: (Units=GPa)
#
#
# Indices 1 2 3 4 5 6 
#
# 1 85.8406 19.8787 22.6521 0.0000 0.0000 0.0000
# 2 19.8787 81.5004 20.1692 0.0000 0.0000 0.0000
# 3 22.6521 20.1692 88.6815 0.0000 0.0000 0.0000
# 4 0.0000 0.0000 0.0000 3.6154 0.0000 0.0000
# 5 0.0000 0.0000 0.0000 0.0000 20.8899 0.0000
# 6 0.0000 0.0000 0.0000 0.0000 0.0000 29.1214
#
#
#
# Elastic Compliance Matrix: (Units=1/GPa)
#
#
# Indices 1 2 3 4 5 6 
#
# 1 0.012948 -0.002479 -0.002743 0.000000 0.000000 0.000000
# 2 -0.002479 0.013476 -0.002432 0.000000 0.000000 0.000000
# 3 -0.002743 -0.002432 0.012530 0.000000 0.000000 0.000000
# 4 0.000000 0.000000 0.000000 0.276592 0.000000 0.000000
# 5 0.000000 0.000000 0.000000 0.000000 0.047870 0.000000
# 6 0.000000 0.000000 0.000000 0.000000 0.000000 0.034339
#
#
# Mechanical properties :
#
#
# Convention : Reuss Voigt Hill
#
# Bulk Modulus (GPa) = 42.29126 42.38028 42.33577
# Shear Modulus (GPa) = 11.87802 23.61352 17.74577
#
# Velocity S-wave (km/s) = 2.55780 3.60640 3.12638
# Velocity P-wave (km/s) = 5.65834 6.37842 6.02914
#
# Compressibility (1/GPa) = 0.02364555
#
# Stress axis : x y z
#
# Youngs Moduli (GPa) = 77.23481 74.20405 79.80773
#
# Poissons Ratio (x) = 0.18396 0.21894
# Poissons Ratio (y) = 0.19147 0.19407
# Poissons Ratio (z) = 0.21188 0.18045
#
# Static dielectric constant tensor:
#      x y z
#    x 3.321190 0.000000 0.000000 
#    y 0.000000 3.520380 0.000000 
#    z 0.000000 0.000000 3.302840 
# 
# 
# High freq. dielectric constant tensor:
#      x y z
#    x 1.705470 0.000000 0.000000 
#    y 0.000000 1.708520 0.000000 
#    z 0.000000 0.000000 1.696750 
# 
# From -- ./inp_files/17692.got.cif
#   From: 2010.03.12/outbox.cif.g09.slc.cpg/sg55_9_cif.got.tgz:17692.got - 2010.04.16 15:19:21.
