data_PCOD8226254
_publ_section_title
;
Structure prediction by ZEFSAII (Michael W. Deem and Ramdas Pophale) SiO2 
 PCOD8226254
Probable space group: P B A M
;
_chemical_formula_sum "Si O2"
_cell_formula_units_Z 64
_cell_length_a 27.765217
_cell_length_b 12.666501
_cell_length_c 8.751890
_cell_angle_alpha 90.000000
_cell_angle_beta 90.000000
_cell_angle_gamma 90.000000
_cell_volume 3077.935993
_symmetry_space_group_name_H-M "P B A M"
_symmetry_group_IT_number 55
_symmetry_cell_setting 'orthorhombic'
loop_
_space_group_symop_operation_xyz
x,y,z
-x,-y,z
1/2+x,1/2-y,-z
1/2-x,1/2+y,-z
-x,-y,-z
x,y,-z
1/2-x,1/2+y,z
1/2+x,1/2-y,z
loop_
_atom_site_type_symbol
_atom_site_label
_atom_site_fract_x
_atom_site_fract_y
_atom_site_fract_z
Si Si1 0.639454 0.139537 0.172126
Si Si2 0.300829 0.270305 0.679724
Si Si3 0.847541 0.025257 0.180578
Si Si4 0.524277 0.894639 0.675336
Si Si5 0.446449 0.532040 0.679756
Si Si6 0.635783 0.924650 0.325382
Si Si7 0.697454 0.317124 0.321971
Si Si8 0.543956 0.251978 0.828003
O O1 0.661816 0.221354 0.289890
O O2 0.582043 0.156291 0.180540
O O3 0.652969 0.021498 0.221559
O O4 0.658591 0.158851 0.000000
O O5 0.301812 0.295147 0.500000
O O6 0.314857 0.376548 0.767719
O O7 0.338275 0.180779 0.728418
O O8 0.249464 0.224473 0.732007
O O9 0.902049 0.033897 0.247910
O O10 0.819411 0.920056 0.230764
O O11 0.852429 0.024287 0.000000
O O12 0.508881 0.878102 0.500000
O O13 0.580360 0.901847 0.697754
O O14 0.506706 0.792936 0.769299
O O15 0.500000 0.000000 0.741537
O O16 0.500000 0.500000 0.740982
O O17 0.443576 0.514014 0.500000
O O18 0.437748 0.653651 0.721268
O O19 0.648504 0.953005 0.500000
O O20 0.697084 0.346371 0.500000
O O21 0.538262 0.295185 0.000000
#
# Coordination Sequence:
#
# PCOD8226254 Si02
#       8
#     8   8   8   8   8   8   8   8
#     4  11  23  39  62  95 130 165 210 267 330 388
#     4  10  25  46  68  95 127 171 222 268 322 386
#     4  12  26  45  69 100 138 173 213 271 338 398
#     4  10  20  35  58  88 123 164 209 254 305 369
#     4  11  25  44  68  94 125 172 225 272 320 385
#     4  10  22  41  64  91 127 170 217 268 318 380
#     4  11  24  44  71  95 124 170 222 272 321 385
#     4  11  23  38  59  90 129 168 208 259 321 386
#
# _framework density 20.793154000000001
#
# number of rings (size 3 to 8) (size 9 to 14) (size 15 to 20)
#    0.000    1.250    2.500    2.625    3.500    4.250 
#    0.000    0.000    0.000    0.000    0.000    0.000 
#    0.000    0.000    0.000    0.000    0.000    0.000 
#
# Total GULP energy -793762.383212 kJ/mol
# GULP energy per Si atom -12402.537238 kJ/mol
# Density = 2.074583 g / cm^3
# Si number density = 20.793154 Si / 1000 Ang^3
#
#
#
# Elastic Constant Matrix: (Units=GPa)
#
#
# Indices 1 2 3 4 5 6 
#
# 1 97.8244 47.0882 50.4018 0.0000 0.0000 0.0000
# 2 47.0882 104.9160 38.5096 0.0000 0.0000 0.0000
# 3 50.4018 38.5096 86.8707 0.0000 0.0000 0.0000
# 4 0.0000 0.0000 0.0000 21.6107 0.0000 0.0000
# 5 0.0000 0.0000 0.0000 0.0000 14.6904 0.0000
# 6 0.0000 0.0000 0.0000 0.0000 0.0000 28.6210
#
#
#
# Elastic Compliance Matrix: (Units=1/GPa)
#
#
# Indices 1 2 3 4 5 6 
#
# 1 0.016231 -0.004572 -0.007390 0.000000 0.000000 0.000000
# 2 -0.004572 0.012672 -0.002965 0.000000 0.000000 0.000000
# 3 -0.007390 -0.002965 0.017113 0.000000 0.000000 0.000000
# 4 0.000000 0.000000 0.000000 0.046273 0.000000 0.000000
# 5 0.000000 0.000000 0.000000 0.000000 0.068072 0.000000
# 6 0.000000 0.000000 0.000000 0.000000 0.000000 0.034939
#
#
# Mechanical properties :
#
#
# Convention : Reuss Voigt Hill
#
# Bulk Modulus (GPa) = 61.87376 62.40114 62.13745
# Shear Modulus (GPa) = 21.68808 23.22519 22.45663
#
# Velocity S-wave (km/s) = 3.23312 3.34573 3.28990
# Velocity P-wave (km/s) = 6.61504 6.70826 6.66181
#
# Compressibility (1/GPa) = 0.01616194
#
# Stress axis : x y z
#
# Youngs Moduli (GPa) = 61.61101 78.91642 58.43398
#
# Poissons Ratio (x) = 0.36081 0.43184
# Poissons Ratio (y) = 0.28169 0.17323
# Poissons Ratio (z) = 0.45532 0.23396
#
# Static dielectric constant tensor:
#      x y z
#    x 4.032930 0.000000 0.000000 
#    y 0.000000 3.477160 0.000000 
#    z 0.000000 0.000000 3.713930 
# 
# 
# High freq. dielectric constant tensor:
#      x y z
#    x 1.821740 0.000000 0.000000 
#    y 0.000000 1.817710 0.000000 
#    z 0.000000 0.000000 1.810320 
# 
# From -- ./inp_files/10857.got.cif
#   From: 2010.03.12/outbox.cif.g09.slc.cpg/sg55_6_cif.got.tgz:10857.got - 2010.04.16 15:19:21.
