data_PCOD8226627
_publ_section_title
;
Structure prediction by ZEFSAII (Michael W. Deem and Ramdas Pophale) SiO2 
 PCOD8226627
Probable space group: P B A M
;
_chemical_formula_sum "Si O2"
_cell_formula_units_Z 64
_cell_length_a 12.629791
_cell_length_b 28.263377
_cell_length_c 8.721365
_cell_angle_alpha 90.000000
_cell_angle_beta 90.000000
_cell_angle_gamma 90.000000
_cell_volume 3113.183199
_symmetry_space_group_name_H-M "P B A M"
_symmetry_group_IT_number 55
_symmetry_cell_setting 'orthorhombic'
loop_
_space_group_symop_operation_xyz
x,y,z
-x,-y,z
1/2+x,1/2-y,-z
1/2-x,1/2+y,-z
-x,-y,-z
x,y,-z
1/2-x,1/2+y,z
1/2+x,1/2-y,z
loop_
_atom_site_type_symbol
_atom_site_label
_atom_site_fract_x
_atom_site_fract_y
_atom_site_fract_z
Si Si1 0.438989 0.801940 0.824603
Si Si2 0.870480 0.791976 0.325064
Si Si3 0.889173 0.600045 0.679879
Si Si4 0.673457 0.563975 0.179594
Si Si5 0.830410 0.323055 0.169912
Si Si6 0.901121 0.430213 0.174081
Si Si7 0.197115 0.033081 0.679410
Si Si8 0.025881 0.110671 0.678661
O O1 0.384198 0.752956 0.782637
O O2 0.396154 0.844674 0.721888
O O3 0.563668 0.793024 0.800386
O O4 0.413520 0.815380 0.000000
O O5 0.886150 0.776527 0.500000
O O6 0.751270 0.810014 0.302025
O O7 0.949393 0.834714 0.282217
O O8 0.902588 0.594487 0.500000
O O9 0.775999 0.581019 0.729832
O O10 0.980442 0.567997 0.758118
O O11 0.645218 0.510755 0.230731
O O12 0.574423 0.597073 0.219912
O O13 0.695714 0.566667 0.000000
O O14 0.860442 0.377283 0.183265
O O15 0.783915 0.312357 0.000000
O O16 0.819562 0.461896 0.270732
O O17 0.904294 0.449069 0.000000
O O18 0.192964 0.022412 0.500000
O O19 0.128414 0.079260 0.723055
O O20 0.998720 0.103765 0.500000
#
# Coordination Sequence:
#
# PCOD8226627 Si02
#       8
#     8   8   8   8   8   8   8   8
#     4  10  22  40  61  89 122 159 201 251 309 367
#     4  11  22  37  61  92 121 158 204 251 302 365
#     4  11  23  42  65  89 122 164 206 254 314 376
#     4  12  26  42  62  90 126 167 209 258 314 373
#     4   9  19  36  58  83 117 156 194 246 304 358
#     4  10  20  37  63  93 124 157 201 254 304 362
#     4  11  22  40  65  93 125 165 209 257 310 368
#     4  10  23  42  62  89 126 165 208 257 308 366
#
# _framework density 20.557738000000001
#
# number of rings (size 3 to 8) (size 9 to 14) (size 15 to 20)
#    0.000    1.500    1.250    4.875    0.000    7.500 
#    0.000    5.000    0.000    0.000    0.000    0.000 
#    0.000    0.000    0.000    0.000    0.000    0.000 
#
# Total GULP energy -793861.135249 kJ/mol
# GULP energy per Si atom -12404.080238 kJ/mol
# Density = 2.051095 g / cm^3
# Si number density = 20.557738 Si / 1000 Ang^3
#
#
#
# Elastic Constant Matrix: (Units=GPa)
#
#
# Indices 1 2 3 4 5 6 
#
# 1 85.4142 5.0978 24.9578 0.0000 0.0000 0.0000
# 2 5.0978 35.6689 10.8934 0.0000 0.0000 0.0000
# 3 24.9578 10.8934 82.1294 0.0000 0.0000 0.0000
# 4 0.0000 0.0000 0.0000 31.8289 0.0000 0.0000
# 5 0.0000 0.0000 0.0000 0.0000 37.5743 0.0000
# 6 0.0000 0.0000 0.0000 0.0000 0.0000 22.4213
#
#
#
# Elastic Compliance Matrix: (Units=1/GPa)
#
#
# Indices 1 2 3 4 5 6 
#
# 1 0.012864 -0.000672 -0.003820 0.000000 0.000000 0.000000
# 2 -0.000672 0.029254 -0.003676 0.000000 0.000000 0.000000
# 3 -0.003820 -0.003676 0.013824 0.000000 0.000000 0.000000
# 4 0.000000 0.000000 0.000000 0.031418 0.000000 0.000000
# 5 0.000000 0.000000 0.000000 0.000000 0.026614 0.000000
# 6 0.000000 0.000000 0.000000 0.000000 0.000000 0.044600
#
#
# Mechanical properties :
#
#
# Convention : Reuss Voigt Hill
#
# Bulk Modulus (GPa) = 25.24825 31.67896 28.46360
# Shear Modulus (GPa) = 26.57975 29.18247 27.88111
#
# Velocity S-wave (km/s) = 3.59964 3.77176 3.68670
# Velocity P-wave (km/s) = 5.43919 5.86613 5.65669
#
# Compressibility (1/GPa) = 0.03960671
#
# Stress axis : x y z
#
# Youngs Moduli (GPa) = 77.73661 34.18300 72.33624
#
# Poissons Ratio (x) = 0.02297 0.27633
# Poissons Ratio (y) = 0.05223 0.26591
# Poissons Ratio (z) = 0.29696 0.12566
#
# Static dielectric constant tensor:
#      x y z
#    x 3.832710 0.000000 0.000000 
#    y 0.000000 3.694910 0.000000 
#    z 0.000000 0.000000 3.741700 
# 
# 
# High freq. dielectric constant tensor:
#      x y z
#    x 1.807400 0.000000 0.000000 
#    y 0.000000 1.802350 0.000000 
#    z 0.000000 0.000000 1.809940 
# 
# From -- ./inp_files/4510.got.cif
#   From: 2010.03.12/outbox.cif.g09.slc.cpg/sg55_3_cif.got.tgz:4510.got - 2010.04.16 15:19:21.
