data_PCOD8226679
_publ_section_title
;
Structure prediction by ZEFSAII (Michael W. Deem and Ramdas Pophale) SiO2 
 PCOD8226679
Probable space group: P B A M
;
_chemical_formula_sum "Si O2"
_cell_formula_units_Z 48
_cell_length_a 10.044966
_cell_length_b 30.347773
_cell_length_c 7.579324
_cell_angle_alpha 90.000000
_cell_angle_beta 90.000000
_cell_angle_gamma 90.000000
_cell_volume 2310.498924
_symmetry_space_group_name_H-M "P B A M"
_symmetry_group_IT_number 55
_symmetry_cell_setting 'orthorhombic'
loop_
_space_group_symop_operation_xyz
x,y,z
-x,-y,z
1/2+x,1/2-y,-z
1/2-x,1/2+y,-z
-x,-y,-z
x,y,-z
1/2-x,1/2+y,z
1/2+x,1/2-y,z
loop_
_atom_site_type_symbol
_atom_site_label
_atom_site_fract_x
_atom_site_fract_y
_atom_site_fract_z
Si Si1 0.001225 0.635494 0.792712
Si Si2 0.928089 0.296663 0.500000
Si Si3 0.374997 0.716448 0.500000
Si Si4 0.219053 0.893592 0.198796
Si Si5 0.738744 0.925634 0.797981
Si Si6 0.552113 0.351971 0.789287
Si Si7 0.357553 0.487061 0.697845
O O1 0.856090 0.623201 0.713626
O O2 0.061156 0.674956 0.678545
O O3 0.090301 0.591844 0.765042
O O4 0.003148 0.649108 0.000000
O O5 0.783134 0.273732 0.500000
O O6 0.047043 0.262028 0.500000
O O7 0.414602 0.691591 0.680090
O O8 0.207814 0.946415 0.200402
O O9 0.090603 0.869556 0.280038
O O10 0.228948 0.877845 0.000000
O O11 0.842222 0.888891 0.732333
O O12 0.758521 0.971294 0.695254
O O13 0.767485 0.936525 0.000000
O O14 0.557419 0.342254 0.000000
O O15 0.500000 0.500000 0.785054
O O16 0.382533 0.470427 0.500000
#
# Coordination Sequence:
#
# PCOD8226679 Si02
#       7
#     8   4   4   8   8   8   8
#     4  10  24  45  68  94 130 172 214 260 321 385
#     4  12  28  46  70  99 128 166 201 267 329 387
#     4  12  28  44  70  99 129 161 208 260 326 392
#     4  10  22  40  63  93 128 173 218 265 314 367
#     4  10  20  38  62  86 124 173 213 257 307 367
#     4  10  22  41  68  94 125 171 214 256 314 379
#     4  11  23  33  54  93 132 168 217 272 311 361
#
# _framework density 20.774733999999999
#
# number of rings (size 3 to 8) (size 9 to 14) (size 15 to 20)
#    0.000    1.500    3.333    0.500    7.000    2.000 
#    0.000    3.333    0.000    0.000    0.000    0.000 
#    0.000    0.000    0.000    0.000    0.000    0.000 
#
# Total GULP energy -595181.396869 kJ/mol
# GULP energy per Si atom -12399.612435 kJ/mol
# Density = 2.072745 g / cm^3
# Si number density = 20.774734 Si / 1000 Ang^3
#
#
#
# Elastic Constant Matrix: (Units=GPa)
#
#
# Indices 1 2 3 4 5 6 
#
# 1 147.4485 33.1560 25.2703 0.0000 0.0000 0.0000
# 2 33.1560 82.0651 25.4658 0.0000 0.0000 0.0000
# 3 25.2703 25.4658 67.2931 0.0000 0.0000 0.0000
# 4 0.0000 0.0000 0.0000 24.3958 0.0000 0.0000
# 5 0.0000 0.0000 0.0000 0.0000 17.8601 0.0000
# 6 0.0000 0.0000 0.0000 0.0000 0.0000 38.8412
#
#
#
# Elastic Compliance Matrix: (Units=1/GPa)
#
#
# Indices 1 2 3 4 5 6 
#
# 1 0.007676 -0.002500 -0.001936 0.000000 0.000000 0.000000
# 2 -0.002500 0.014621 -0.004594 0.000000 0.000000 0.000000
# 3 -0.001936 -0.004594 0.017326 0.000000 0.000000 0.000000
# 4 0.000000 0.000000 0.000000 0.040991 0.000000 0.000000
# 5 0.000000 0.000000 0.000000 0.000000 0.055991 0.000000
# 6 0.000000 0.000000 0.000000 0.000000 0.000000 0.025746
#
#
# Mechanical properties :
#
#
# Convention : Reuss Voigt Hill
#
# Bulk Modulus (GPa) = 46.37871 51.62119 48.99995
# Shear Modulus (GPa) = 26.65248 30.41374 28.53311
#
# Velocity S-wave (km/s) = 3.58568 3.83035 3.71003
# Velocity P-wave (km/s) = 6.28617 6.66814 6.47997
#
# Compressibility (1/GPa) = 0.02156162
#
# Stress axis : x y z
#
# Youngs Moduli (GPa) = 130.27366 68.39332 57.71643
#
# Poissons Ratio (x) = 0.17101 0.11176
# Poissons Ratio (y) = 0.32574 0.26516
# Poissons Ratio (z) = 0.25225 0.31421
#
# Static dielectric constant tensor:
#      x y z
#    x 4.101230 0.000000 0.000000 
#    y 0.000000 3.461440 0.000000 
#    z 0.000000 0.000000 3.724690 
# 
# 
# High freq. dielectric constant tensor:
#      x y z
#    x 1.826090 0.000000 0.000000 
#    y 0.000000 1.792380 0.000000 
#    z 0.000000 0.000000 1.813980 
# 
# From -- ./inp_files/2932.got.cif
#   From: 2010.03.12/outbox.cif.g09.slc.cpg/sg55_2_cif.got.tgz:2932.got - 2010.04.16 15:19:21.
