data_PCOD8226882
_publ_section_title
;
Structure prediction by ZEFSAII (Michael W. Deem and Ramdas Pophale) SiO2 
 PCOD8226882
Probable space group: P B A M
;
_chemical_formula_sum "Si O2"
_cell_formula_units_Z 40
_cell_length_a 17.776914
_cell_length_b 13.365827
_cell_length_c 9.032732
_cell_angle_alpha 90.000000
_cell_angle_beta 90.000000
_cell_angle_gamma 90.000000
_cell_volume 2146.205641
_symmetry_space_group_name_H-M "P B A M"
_symmetry_group_IT_number 55
_symmetry_cell_setting 'orthorhombic'
loop_
_space_group_symop_operation_xyz
x,y,z
-x,-y,z
1/2+x,1/2-y,-z
1/2-x,1/2+y,-z
-x,-y,-z
x,y,-z
1/2-x,1/2+y,z
1/2+x,1/2-y,z
loop_
_atom_site_type_symbol
_atom_site_label
_atom_site_fract_x
_atom_site_fract_y
_atom_site_fract_z
Si Si1 0.982736 0.196844 0.826946
Si Si2 0.877057 0.889699 0.328448
Si Si3 0.669977 0.585251 0.172166
Si Si4 0.970779 0.607229 0.328063
Si Si5 0.692792 0.177585 0.668036
O O1 0.901231 0.153618 0.789793
O O2 0.043539 0.123823 0.753032
O O3 0.985577 0.308617 0.763502
O O4 0.999683 0.199913 0.000000
O O5 0.894603 0.907098 0.500000
O O6 0.824643 0.793671 0.304199
O O7 0.832336 0.982976 0.263207
O O8 0.743926 0.645617 0.217304
O O9 0.673592 0.558700 0.000000
O O10 0.989220 0.625914 0.500000
O O11 0.881680 0.612542 0.299867
O O12 0.000000 0.500000 0.273444
O O13 0.720533 0.159922 0.500000
#
# Coordination Sequence:
#
# PCOD8226882 Si02
#       5
#     8   8   8   8   8
#     4  10  21  36  54  80 111 141 179 223 268 323
#     4  10  21  38  59  80 105 141 182 224 270 317
#     4  11  23  36  54  82 113 144 177 218 270 323
#     4   9  19  37  59  81 107 142 184 227 270 318
#     4   9  20  37  55  79 108 139 179 223 266 315
#
# _framework density 18.637543000000001
#
# number of rings (size 3 to 8) (size 9 to 14) (size 15 to 20)
#    0.000    2.200    0.000    3.600    0.000   11.600 
#    0.000    6.000    0.000    0.000    0.000    0.000 
#    0.000    0.000    0.000    0.000    0.000    0.000 
#
# Total GULP energy -496201.506587 kJ/mol
# GULP energy per Si atom -12405.037665 kJ/mol
# Density = 1.859512 g / cm^3
# Si number density = 18.637543 Si / 1000 Ang^3
#
#
#
# Elastic Constant Matrix: (Units=GPa)
#
#
# Indices 1 2 3 4 5 6 
#
# 1 105.1007 66.0353 57.9370 0.0000 0.0000 0.0000
# 2 66.0353 109.8539 64.7130 0.0000 0.0000 0.0000
# 3 57.9370 64.7130 95.6224 0.0000 0.0000 0.0000
# 4 0.0000 0.0000 0.0000 31.0490 0.0000 0.0000
# 5 0.0000 0.0000 0.0000 0.0000 31.1359 0.0000
# 6 0.0000 0.0000 0.0000 0.0000 0.0000 22.8700
#
#
#
# Elastic Compliance Matrix: (Units=1/GPa)
#
#
# Indices 1 2 3 4 5 6 
#
# 1 0.016920 -0.006871 -0.005602 0.000000 0.000000 0.000000
# 2 -0.006871 0.017928 -0.007970 0.000000 0.000000 0.000000
# 3 -0.005602 -0.007970 0.019245 0.000000 0.000000 0.000000
# 4 0.000000 0.000000 0.000000 0.032207 0.000000 0.000000
# 5 0.000000 0.000000 0.000000 0.000000 0.032117 0.000000
# 6 0.000000 0.000000 0.000000 0.000000 0.000000 0.043725
#
#
# Mechanical properties :
#
#
# Convention : Reuss Voigt Hill
#
# Bulk Modulus (GPa) = 75.70940 76.43862 76.07401
# Shear Modulus (GPa) = 24.10443 25.13709 24.62076
#
# Velocity S-wave (km/s) = 3.60019 3.67650 3.63854
# Velocity P-wave (km/s) = 7.61525 7.68924 7.65233
#
# Compressibility (1/GPa) = 0.01320840
#
# Stress axis : x y z
#
# Youngs Moduli (GPa) = 59.10316 55.77798 51.96033
#
# Poissons Ratio (x) = 0.38325 0.29106
# Poissons Ratio (y) = 0.40609 0.41412
# Poissons Ratio (z) = 0.33107 0.44455
#
# Static dielectric constant tensor:
#      x y z
#    x 3.328830 0.000000 0.000000 
#    y 0.000000 3.482120 0.000000 
#    z 0.000000 0.000000 3.456550 
# 
# 
# High freq. dielectric constant tensor:
#      x y z
#    x 1.720150 0.000000 0.000000 
#    y 0.000000 1.730770 0.000000 
#    z 0.000000 0.000000 1.730950 
# 
# From -- ./inp_files/3598.got.cif
#   From: 2010.03.12/outbox.cif.g09.slc.cpg/sg55_2_cif.got.tgz:3598.got - 2010.04.16 15:19:21.
