data_PCOD8226431
_publ_section_title
;
Structure prediction by ZEFSAII (Michael W. Deem and Ramdas Pophale) SiO2 
 PCOD8226431
Probable space group: P B A M
;
_chemical_formula_sum "Si O2"
_cell_formula_units_Z 56
_cell_length_a 18.217754
_cell_length_b 11.792114
_cell_length_c 13.473580
_cell_angle_alpha 90.000000
_cell_angle_beta 90.000000
_cell_angle_gamma 90.000000
_cell_volume 2894.473033
_symmetry_space_group_name_H-M "P B A M"
_symmetry_group_IT_number 55
_symmetry_cell_setting 'orthorhombic'
loop_
_space_group_symop_operation_xyz
x,y,z
-x,-y,z
1/2+x,1/2-y,-z
1/2-x,1/2+y,-z
-x,-y,-z
x,y,-z
1/2-x,1/2+y,z
1/2+x,1/2-y,z
loop_
_atom_site_type_symbol
_atom_site_label
_atom_site_fract_x
_atom_site_fract_y
_atom_site_fract_z
Si Si1 0.042091 0.339439 0.112388
Si Si2 0.064298 0.079182 0.888006
Si Si3 0.944521 0.411873 0.291350
Si Si4 0.790131 0.781880 0.612567
Si Si5 0.375717 0.296094 0.387464
Si Si6 0.674959 0.500324 0.732302
Si Si7 0.330705 0.911722 0.754917
O O1 0.034317 0.205321 0.117584
O O2 0.123916 0.374268 0.147997
O O3 0.978315 0.391050 0.181438
O O4 0.030694 0.383152 0.000000
O O5 0.136179 0.063089 0.822254
O O6 0.085754 0.044984 0.000000
O O7 0.000000 0.000000 0.846510
O O8 0.936384 0.294072 0.349755
O O9 0.865511 0.471787 0.286190
O O10 0.000000 0.500000 0.346833
O O11 0.818244 0.773747 0.500000
O O12 0.704200 0.758045 0.619404
O O13 0.836318 0.689349 0.674423
O O14 0.803061 0.908999 0.649918
O O15 0.395638 0.329458 0.500000
O O16 0.378615 0.408022 0.319324
O O17 0.746034 0.562607 0.779090
#
# Coordination Sequence:
#
# PCOD8226431 Si02
#       7
#     8   8   8   8   8   8   8
#     4  10  21  39  61  86 118 158 199 241 299 359
#     4  10  21  38  61  85 114 155 197 239 296 358
#     4  10  21  37  59  84 122 159 196 241 294 345
#     4  10  20  36  60  87 115 153 194 240 297 352
#     4  10  21  36  57  87 118 154 198 240 293 350
#     4  11  20  37  64  85 119 151 195 251 296 348
#     4  10  21  36  58  90 118 151 194 246 294 349
#
# _framework density 19.347218000000002
#
# number of rings (size 3 to 8) (size 9 to 14) (size 15 to 20)
#    0.000    1.857    2.857    1.286    0.000    4.571 
#    0.000    2.143    0.000    2.571    0.000    0.000 
#    0.000    0.000    0.000    0.000    0.000    0.000 
#
# Total GULP energy -694355.184239 kJ/mol
# GULP energy per Si atom -12399.199719 kJ/mol
# Density = 1.930318 g / cm^3
# Si number density = 19.347218 Si / 1000 Ang^3
#
#
#
# Elastic Constant Matrix: (Units=GPa)
#
#
# Indices 1 2 3 4 5 6 
#
# 1 56.7849 18.0677 33.7661 0.0000 0.0000 0.0000
# 2 18.0677 92.6895 29.4532 0.0000 0.0000 0.0000
# 3 33.7661 29.4532 88.8715 0.0000 0.0000 0.0000
# 4 0.0000 0.0000 0.0000 29.5317 0.0000 0.0000
# 5 0.0000 0.0000 0.0000 0.0000 28.7004 0.0000
# 6 0.0000 0.0000 0.0000 0.0000 0.0000 39.5100
#
#
#
# Elastic Compliance Matrix: (Units=1/GPa)
#
#
# Indices 1 2 3 4 5 6 
#
# 1 0.023049 -0.001911 -0.008124 0.000000 0.000000 0.000000
# 2 -0.001911 0.012217 -0.003323 0.000000 0.000000 0.000000
# 3 -0.008124 -0.003323 0.015440 0.000000 0.000000 0.000000
# 4 0.000000 0.000000 0.000000 0.033862 0.000000 0.000000
# 5 0.000000 0.000000 0.000000 0.000000 0.034843 0.000000
# 6 0.000000 0.000000 0.000000 0.000000 0.000000 0.025310
#
#
# Mechanical properties :
#
#
# Convention : Reuss Voigt Hill
#
# Bulk Modulus (GPa) = 41.68354 44.54666 43.11510
# Shear Modulus (GPa) = 27.86543 30.01902 28.94223
#
# Velocity S-wave (km/s) = 3.79922 3.94330 3.87193
# Velocity P-wave (km/s) = 6.39040 6.61873 6.50557
#
# Compressibility (1/GPa) = 0.02399029
#
# Stress axis : x y z
#
# Youngs Moduli (GPa) = 43.38542 81.85227 64.76689
#
# Poissons Ratio (x) = 0.15646 0.52616
# Poissons Ratio (y) = 0.08293 0.21520
# Poissons Ratio (z) = 0.35246 0.27197
#
# Static dielectric constant tensor:
#      x y z
#    x 3.368140 0.000000 0.000000 
#    y 0.000000 3.719840 0.000000 
#    z 0.000000 0.000000 3.466320 
# 
# 
# High freq. dielectric constant tensor:
#      x y z
#    x 1.739580 0.000000 0.000000 
#    y 0.000000 1.775190 0.000000 
#    z 0.000000 0.000000 1.741190 
# 
# From -- ./inp_files/13349.got.cif
#   From: 2010.03.12/outbox.cif.g09.slc.cpg/sg55_7_cif.got.tgz:13349.got - 2010.04.16 15:19:21.
