data_PCOD8226451
_publ_section_title
;
Structure prediction by ZEFSAII (Michael W. Deem and Ramdas Pophale) SiO2 
 PCOD8226451
Probable space group: P B A M
;
_chemical_formula_sum "Si O2"
_cell_formula_units_Z 48
_cell_length_a 30.977184
_cell_length_b 8.886693
_cell_length_c 8.435801
_cell_angle_alpha 90.000000
_cell_angle_beta 90.000000
_cell_angle_gamma 90.000000
_cell_volume 2322.247152
_symmetry_space_group_name_H-M "P B A M"
_symmetry_group_IT_number 55
_symmetry_cell_setting 'orthorhombic'
loop_
_space_group_symop_operation_xyz
x,y,z
-x,-y,z
1/2+x,1/2-y,-z
1/2-x,1/2+y,-z
-x,-y,-z
x,y,-z
1/2-x,1/2+y,z
1/2+x,1/2-y,z
loop_
_atom_site_type_symbol
_atom_site_label
_atom_site_fract_x
_atom_site_fract_y
_atom_site_fract_z
Si Si1 0.790016 0.906491 0.682381
Si Si2 0.875851 0.427038 0.183726
Si Si3 0.041635 0.416144 0.685925
Si Si4 0.373276 0.400125 0.686195
Si Si5 0.456888 0.579771 0.688670
Si Si6 0.787947 0.583677 0.183130
O O1 0.791632 0.855040 0.500000
O O2 0.787645 0.761918 0.793665
O O3 0.832498 0.998162 0.728985
O O4 0.748723 0.010677 0.709063
O O5 0.915992 0.487131 0.282999
O O6 0.868417 0.252452 0.216959
O O7 0.833687 0.517682 0.239189
O O8 0.885373 0.453917 0.000000
O O9 0.034715 0.400313 0.500000
O O10 0.045586 0.248696 0.759444
O O11 0.000000 0.500000 0.760858
O O12 0.375846 0.363527 0.500000
O O13 0.415703 0.486231 0.748061
O O14 0.500000 0.500000 0.753783
O O15 0.457019 0.584642 0.500000
O O16 0.778926 0.545493 0.000000
#
# Coordination Sequence:
#
# PCOD8226451 Si02
#       6
#     8   8   8   8   8   8
#     4  11  23  39  62  90 117 150 196 249 297 344
#     4  11  24  39  57  83 116 154 193 235 285 345
#     4  10  20  36  61  88 114 149 191 237 290 345
#     4  10  21  37  58  84 114 148 189 239 290 341
#     4   9  17  32  56  85 113 142 182 230 280 337
#     4  11  24  41  60  84 118 158 195 236 294 359
#
# _framework density 20.669635
#
# number of rings (size 3 to 8) (size 9 to 14) (size 15 to 20)
#    0.000    1.667    0.000    4.500    0.000   11.000 
#    0.000    0.833    0.000    2.000    0.000    0.000 
#    0.000    0.000    0.000    0.000    0.000    0.000 
#
# Total GULP energy -595487.726946 kJ/mol
# GULP energy per Si atom -12405.994311 kJ/mol
# Density = 2.062259 g / cm^3
# Si number density = 20.669635 Si / 1000 Ang^3
#
#
#
# Elastic Constant Matrix: (Units=GPa)
#
#
# Indices 1 2 3 4 5 6 
#
# 1 161.2240 58.5954 14.8926 0.0000 0.0000 0.0000
# 2 58.5954 138.9853 11.8695 0.0000 0.0000 0.0000
# 3 14.8926 11.8695 19.5055 0.0000 0.0000 0.0000
# 4 0.0000 0.0000 0.0000 16.3756 0.0000 0.0000
# 5 0.0000 0.0000 0.0000 0.0000 16.4344 0.0000
# 6 0.0000 0.0000 0.0000 0.0000 0.0000 42.5106
#
#
#
# Elastic Compliance Matrix: (Units=1/GPa)
#
#
# Indices 1 2 3 4 5 6 
#
# 1 0.007620 -0.002865 -0.004075 0.000000 0.000000 0.000000
# 2 -0.002865 0.008666 -0.003086 0.000000 0.000000 0.000000
# 3 -0.004075 -0.003086 0.056257 0.000000 0.000000 0.000000
# 4 0.000000 0.000000 0.000000 0.061066 0.000000 0.000000
# 5 0.000000 0.000000 0.000000 0.000000 0.060848 0.000000
# 6 0.000000 0.000000 0.000000 0.000000 0.000000 0.023524
#
#
# Mechanical properties :
#
#
# Convention : Reuss Voigt Hill
#
# Bulk Modulus (GPa) = 19.05070 54.49222 36.77146
# Shear Modulus (GPa) = 19.56716 30.68794 25.12755
#
# Velocity S-wave (km/s) = 3.08013 3.85734 3.49044
# Velocity P-wave (km/s) = 4.67828 6.80143 5.83720
#
# Compressibility (1/GPa) = 0.05249152
#
# Stress axis : x y z
#
# Youngs Moduli (GPa) = 131.23261 115.38975 17.77558
#
# Poissons Ratio (x) = 0.33054 0.07243
# Poissons Ratio (y) = 0.37593 0.05486
# Poissons Ratio (z) = 0.53475 0.35615
#
# Static dielectric constant tensor:
#      x y z
#    x 3.908850 0.000000 0.000000 
#    y 0.000000 3.916740 0.000000 
#    z 0.000000 0.000000 3.360130 
# 
# 
# High freq. dielectric constant tensor:
#      x y z
#    x 1.826790 0.000000 0.000000 
#    y 0.000000 1.825260 0.000000 
#    z 0.000000 0.000000 1.781020 
# 
# From -- ./inp_files/2900.got.cif
#   From: 2010.03.12/outbox.cif.g09.slc.cpg/sg55_2_cif.got.tgz:2900.got - 2010.04.16 15:19:21.
