data_PCOD8226500
_publ_section_title
;
Structure prediction by ZEFSAII (Michael W. Deem and Ramdas Pophale) SiO2 
 PCOD8226500
Probable space group: P B A M
;
_chemical_formula_sum "Si O2"
_cell_formula_units_Z 64
_cell_length_a 23.568273
_cell_length_b 14.987327
_cell_length_c 8.997650
_cell_angle_alpha 90.000000
_cell_angle_beta 90.000000
_cell_angle_gamma 90.000000
_cell_volume 3178.198649
_symmetry_space_group_name_H-M "P B A M"
_symmetry_group_IT_number 55
_symmetry_cell_setting 'orthorhombic'
loop_
_space_group_symop_operation_xyz
x,y,z
-x,-y,z
1/2+x,1/2-y,-z
1/2-x,1/2+y,-z
-x,-y,-z
x,y,-z
1/2-x,1/2+y,z
1/2+x,1/2-y,z
loop_
_atom_site_type_symbol
_atom_site_label
_atom_site_fract_x
_atom_site_fract_y
_atom_site_fract_z
Si Si1 0.472036 0.591589 0.332282
Si Si2 0.129957 0.805432 0.331212
Si Si3 0.743688 0.423869 0.827364
Si Si4 0.857843 0.995992 0.334614
Si Si5 0.256216 0.766640 0.323487
Si Si6 0.523710 0.753025 0.826239
Si Si7 0.041682 0.424004 0.823300
Si Si8 0.328924 0.921554 0.824259
O O1 0.500000 0.500000 0.282651
O O2 0.491144 0.618247 0.500000
O O3 0.404189 0.581966 0.323257
O O4 0.490693 0.664070 0.214631
O O5 0.126830 0.772775 0.500000
O O6 0.193808 0.796597 0.271243
O O7 0.087018 0.743243 0.240287
O O8 0.111230 0.908514 0.312082
O O9 0.688830 0.483700 0.791988
O O10 0.737021 0.334671 0.731165
O O11 0.797679 0.485192 0.783207
O O12 0.745227 0.398178 0.000000
O O13 0.829679 0.995111 0.500000
O O14 0.264128 0.769579 0.500000
O O15 0.301302 0.834917 0.252922
O O16 0.485241 0.832578 0.763402
O O17 0.531287 0.761246 0.000000
O O18 0.000000 0.500000 0.759097
O O19 0.106438 0.432447 0.765804
O O20 0.042671 0.428095 0.000000
O O21 0.326008 0.904389 0.000000
#
# Coordination Sequence:
#
# PCOD8226500 Si02
#       8
#     8   8   8   8   8   8   8   8
#     4  10  20  37  58  81 118 164 199 233 291 364
#     4  10  21  40  62  85 120 159 201 251 302 366
#     4  11  24  39  62  92 123 157 200 256 314 371
#     4  10  20  38  61  84 117 162 204 240 295 369
#     4  11  24  41  64  91 123 164 205 251 309 375
#     4  11  23  36  60  92 120 155 203 255 302 361
#     4   9  21  42  64  86 119 163 206 251 307 363
#     4  10  22  42  66  93 125 161 206 261 312 363
#
# _framework density 20.137193
#
# number of rings (size 3 to 8) (size 9 to 14) (size 15 to 20)
#    0.000    1.750    2.500    1.125    3.500    2.750 
#    0.000    0.625    0.000    1.875    0.000    0.000 
#    0.000    0.000    0.000    0.000    0.000    0.000 
#
# Total GULP energy -793582.288361 kJ/mol
# GULP energy per Si atom -12399.723256 kJ/mol
# Density = 2.009136 g / cm^3
# Si number density = 20.137193 Si / 1000 Ang^3
#
#
#
# Elastic Constant Matrix: (Units=GPa)
#
#
# Indices 1 2 3 4 5 6 
#
# 1 151.8300 59.8225 40.1083 0.0000 0.0000 0.0000
# 2 59.8225 107.1535 34.1814 0.0000 0.0000 0.0000
# 3 40.1083 34.1814 50.2943 0.0000 0.0000 0.0000
# 4 0.0000 0.0000 0.0000 18.2607 0.0000 0.0000
# 5 0.0000 0.0000 0.0000 0.0000 32.3990 0.0000
# 6 0.0000 0.0000 0.0000 0.0000 0.0000 33.1917
#
#
#
# Elastic Compliance Matrix: (Units=1/GPa)
#
#
# Indices 1 2 3 4 5 6 
#
# 1 0.009328 -0.003619 -0.004979 0.000000 0.000000 0.000000
# 2 -0.003619 0.013320 -0.006166 0.000000 0.000000 0.000000
# 3 -0.004979 -0.006166 0.028044 0.000000 0.000000 0.000000
# 4 0.000000 0.000000 0.000000 0.054762 0.000000 0.000000
# 5 0.000000 0.000000 0.000000 0.000000 0.030865 0.000000
# 6 0.000000 0.000000 0.000000 0.000000 0.000000 0.030128
#
#
# Mechanical properties :
#
#
# Convention : Reuss Voigt Hill
#
# Bulk Modulus (GPa) = 47.25215 64.16690 55.70953
# Shear Modulus (GPa) = 24.62684 28.44798 26.53741
#
# Velocity S-wave (km/s) = 3.50087 3.76268 3.63413
# Velocity P-wave (km/s) = 6.31328 7.12819 6.73307
#
# Compressibility (1/GPa) = 0.02116306
#
# Stress axis : x y z
#
# Youngs Moduli (GPa) = 107.20933 75.07474 35.65797
#
# Poissons Ratio (x) = 0.27172 0.17753
# Poissons Ratio (y) = 0.38802 0.21988
# Poissons Ratio (z) = 0.53376 0.46294
#
# Static dielectric constant tensor:
#      x y z
#    x 3.855590 0.000000 0.000000 
#    y 0.000000 3.681080 0.000000 
#    z 0.000000 0.000000 3.408800 
# 
# 
# High freq. dielectric constant tensor:
#      x y z
#    x 1.799960 0.000000 0.000000 
#    y 0.000000 1.787640 0.000000 
#    z 0.000000 0.000000 1.765510 
# 
# From -- ./inp_files/9790.got.cif
#   From: 2010.03.12/outbox.cif.g09.slc.cpg/sg55_5_cif.got.tgz:9790.got - 2010.04.16 15:19:21.
