data_PCOD8226933
_publ_section_title
;
Structure prediction by ZEFSAII (Michael W. Deem and Ramdas Pophale) SiO2 
 PCOD8226933
Probable space group: P B A M
;
_chemical_formula_sum "Si O2"
_cell_formula_units_Z 64
_cell_length_a 15.658546
_cell_length_b 23.277961
_cell_length_c 8.634401
_cell_angle_alpha 90.000000
_cell_angle_beta 90.000000
_cell_angle_gamma 90.000000
_cell_volume 3147.230730
_symmetry_space_group_name_H-M "P B A M"
_symmetry_group_IT_number 55
_symmetry_cell_setting 'orthorhombic'
loop_
_space_group_symop_operation_xyz
x,y,z
-x,-y,z
1/2+x,1/2-y,-z
1/2-x,1/2+y,-z
-x,-y,-z
x,y,-z
1/2-x,1/2+y,z
1/2+x,1/2-y,z
loop_
_atom_site_type_symbol
_atom_site_label
_atom_site_fract_x
_atom_site_fract_y
_atom_site_fract_z
Si Si1 0.469384 0.839904 0.179642
Si Si2 0.359270 0.374368 0.822294
Si Si3 0.294596 0.816075 0.318990
Si Si4 0.594187 0.509350 0.319411
Si Si5 0.246701 0.069268 0.683983
Si Si6 0.494875 0.711323 0.823239
Si Si7 0.179505 0.188793 0.318274
Si Si8 0.939124 0.447017 0.682849
O O1 0.387613 0.842431 0.290556
O O2 0.513413 0.778271 0.210433
O O3 0.533338 0.889802 0.228841
O O4 0.443666 0.847002 0.000000
O O5 0.264220 0.354901 0.787379
O O6 0.381287 0.425444 0.707951
O O7 0.418947 0.320971 0.779915
O O8 0.368246 0.394097 0.000000
O O9 0.271521 0.821093 0.500000
O O10 0.287065 0.750354 0.256020
O O11 0.500000 0.500000 0.243742
O O12 0.588897 0.495823 0.500000
O O13 0.669010 0.469125 0.246116
O O14 0.240156 0.069071 0.500000
O O15 0.233625 0.134645 0.747973
O O16 0.339552 0.043389 0.731926
O O17 0.420037 0.683067 0.722437
O O18 0.467528 0.701890 0.000000
O O19 0.188024 0.189233 0.500000
O O20 0.947131 0.437165 0.500000
O O21 0.000000 0.500000 0.735107
#
# Coordination Sequence:
#
# PCOD8226933 Si02
#       8
#     8   8   8   8   8   8   8   8
#     4  10  21  39  60  83 114 151 191 237 289 348
#     4  11  23  37  56  84 119 155 192 235 286 349
#     4  10  21  36  58  87 115 147 187 237 291 347
#     4  10  21  38  61  87 116 156 199 243 294 344
#     4   9  19  36  58  85 118 150 191 245 293 342
#     4   9  20  37  56  82 118 154 184 229 292 349
#     4   9  18  35  59  85 111 144 190 239 287 340
#     4  10  22  38  58  83 113 154 196 242 296 346
#
# _framework density 20.335338
#
# number of rings (size 3 to 8) (size 9 to 14) (size 15 to 20)
#    0.000    2.250    0.000    1.875    3.500    3.500 
#    0.000    1.875    0.000    0.000    0.000    0.000 
#    0.000    0.000    0.000    0.000    0.000    0.000 
#
# Total GULP energy -793429.892080 kJ/mol
# GULP energy per Si atom -12397.342064 kJ/mol
# Density = 2.028905 g / cm^3
# Si number density = 20.335338 Si / 1000 Ang^3
#
#
#
# Elastic Constant Matrix: (Units=GPa)
#
#
# Indices 1 2 3 4 5 6 
#
# 1 132.6028 72.3001 11.0489 0.0000 0.0000 0.0000
# 2 72.3001 114.7718 15.3894 0.0000 0.0000 0.0000
# 3 11.0489 15.3894 17.6571 0.0000 0.0000 0.0000
# 4 0.0000 0.0000 0.0000 24.6610 0.0000 0.0000
# 5 0.0000 0.0000 0.0000 0.0000 18.8230 0.0000
# 6 0.0000 0.0000 0.0000 0.0000 0.0000 37.4926
#
#
#
# Elastic Compliance Matrix: (Units=1/GPa)
#
#
# Indices 1 2 3 4 5 6 
#
# 1 0.011502 -0.007112 -0.000999 0.000000 0.000000 0.000000
# 2 -0.007112 0.014263 -0.007981 0.000000 0.000000 0.000000
# 3 -0.000999 -0.007981 0.064216 0.000000 0.000000 0.000000
# 4 0.000000 0.000000 0.000000 0.040550 0.000000 0.000000
# 5 0.000000 0.000000 0.000000 0.000000 0.053127 0.000000
# 6 0.000000 0.000000 0.000000 0.000000 0.000000 0.026672
#
#
# Mechanical properties :
#
#
# Convention : Reuss Voigt Hill
#
# Bulk Modulus (GPa) = 17.30195 51.38984 34.34589
# Shear Modulus (GPa) = 19.10010 27.28155 23.19083
#
# Velocity S-wave (km/s) = 3.06805 3.66674 3.38067
# Velocity P-wave (km/s) = 4.59101 6.57668 5.67142
#
# Compressibility (1/GPa) = 0.05779696
#
# Stress axis : x y z
#
# Youngs Moduli (GPa) = 86.94003 70.11073 15.57256
#
# Poissons Ratio (x) = 0.49861 0.01556
# Poissons Ratio (y) = 0.61830 0.12429
# Poissons Ratio (z) = 0.08686 0.55956
#
# Static dielectric constant tensor:
#      x y z
#    x 3.832590 0.000000 0.000000 
#    y 0.000000 3.892870 0.000000 
#    z 0.000000 0.000000 3.385220 
# 
# 
# High freq. dielectric constant tensor:
#      x y z
#    x 1.798420 0.000000 0.000000 
#    y 0.000000 1.801850 0.000000 
#    z 0.000000 0.000000 1.768590 
# 
# From -- ./inp_files/6522.got.cif
#   From: 2010.03.12/outbox.cif.g09.slc.cpg/sg55_4_cif.got.tgz:6522.got - 2010.04.16 15:19:21.
