data_PCOD8226979
_publ_section_title
;
Structure prediction by ZEFSAII (Michael W. Deem and Ramdas Pophale) SiO2 
 PCOD8226979
Probable space group: P B A M
;
_chemical_formula_sum "Si O2"
_cell_formula_units_Z 64
_cell_length_a 12.905954
_cell_length_b 26.737855
_cell_length_c 9.049516
_cell_angle_alpha 90.000000
_cell_angle_beta 90.000000
_cell_angle_gamma 90.000000
_cell_volume 3122.784599
_symmetry_space_group_name_H-M "P B A M"
_symmetry_group_IT_number 55
_symmetry_cell_setting 'orthorhombic'
loop_
_space_group_symop_operation_xyz
x,y,z
-x,-y,z
1/2+x,1/2-y,-z
1/2-x,1/2+y,-z
-x,-y,-z
x,y,-z
1/2-x,1/2+y,z
1/2+x,1/2-y,z
loop_
_atom_site_type_symbol
_atom_site_label
_atom_site_fract_x
_atom_site_fract_y
_atom_site_fract_z
Si Si1 0.635075 0.735636 0.828375
Si Si2 0.686249 0.053069 0.830948
Si Si3 0.088196 0.116426 0.325462
Si Si4 0.476456 0.794916 0.336985
Si Si5 0.722344 0.938217 0.171076
Si Si6 0.374493 0.376826 0.175754
Si Si7 0.810919 0.781565 0.662080
Si Si8 0.009817 0.591931 0.674245
O O1 0.526061 0.758342 0.782765
O O2 0.647593 0.679472 0.765873
O O3 0.715469 0.777068 0.771380
O O4 0.646924 0.732730 0.000000
O O5 0.776431 0.090064 0.774059
O O6 0.582048 0.056837 0.734029
O O7 0.730032 0.997604 0.815044
O O8 0.656660 0.065513 0.000000
O O9 0.082446 0.106227 0.500000
O O10 0.178561 0.083248 0.255130
O O11 0.111149 0.174595 0.287288
O O12 0.978252 0.102074 0.252867
O O13 0.528961 0.790088 0.500000
O O14 0.360725 0.773583 0.343957
O O15 0.475697 0.851860 0.284985
O O16 0.617561 0.918744 0.246054
O O17 0.723125 0.921252 0.000000
O O18 0.391242 0.379321 0.000000
O O19 0.768147 0.796200 0.500000
O O20 0.022561 0.583067 0.500000
#
# Coordination Sequence:
#
# PCOD8226979 Si02
#       8
#     8   8   8   8   8   8   8   8
#     4  11  22  34  56  88 118 151 193 245 292 339
#     4  10  23  43  65  88 119 163 207 252 315 377
#     4  11  23  40  63  90 122 162 206 254 305 361
#     4  10  21  38  57  82 117 157 193 227 286 357
#     4  11  24  42  64  88 120 163 206 254 314 375
#     4  10  22  41  62  88 123 160 204 254 304 363
#     4  10  21  37  57  81 115 158 196 232 283 353
#     4  11  23  39  63  94 125 157 202 259 310 364
#
# _framework density 20.494527999999999
#
# number of rings (size 3 to 8) (size 9 to 14) (size 15 to 20)
#    0.000    1.500    1.250    3.375    0.000    9.500 
#    0.000    2.500    0.000    0.000    0.000    0.000 
#    0.000    0.000    0.000    0.000    0.000    0.000 
#
# Total GULP energy -793582.022747 kJ/mol
# GULP energy per Si atom -12399.719105 kJ/mol
# Density = 2.044788 g / cm^3
# Si number density = 20.494528 Si / 1000 Ang^3
#
#
#
# Elastic Constant Matrix: (Units=GPa)
#
#
# Indices 1 2 3 4 5 6 
#
# 1 86.3549 3.9217 36.6720 0.0000 0.0000 0.0000
# 2 3.9217 62.7188 21.2992 0.0000 0.0000 0.0000
# 3 36.6720 21.2992 73.4786 0.0000 0.0000 0.0000
# 4 0.0000 0.0000 0.0000 29.4724 0.0000 0.0000
# 5 0.0000 0.0000 0.0000 0.0000 36.0959 0.0000
# 6 0.0000 0.0000 0.0000 0.0000 0.0000 34.6620
#
#
#
# Elastic Compliance Matrix: (Units=1/GPa)
#
#
# Indices 1 2 3 4 5 6 
#
# 1 0.014868 0.001764 -0.007932 0.000000 0.000000 0.000000
# 2 0.001764 0.017894 -0.006067 0.000000 0.000000 0.000000
# 3 -0.007932 -0.006067 0.019327 0.000000 0.000000 0.000000
# 4 0.000000 0.000000 0.000000 0.033930 0.000000 0.000000
# 5 0.000000 0.000000 0.000000 0.000000 0.027704 0.000000
# 6 0.000000 0.000000 0.000000 0.000000 0.000000 0.028850
#
#
# Mechanical properties :
#
#
# Convention : Reuss Voigt Hill
#
# Bulk Modulus (GPa) = 36.20705 38.48203 37.34454
# Shear Modulus (GPa) = 28.36868 30.75668 29.56268
#
# Velocity S-wave (km/s) = 3.72453 3.87812 3.80210
# Velocity P-wave (km/s) = 6.01674 6.23463 6.12666
#
# Compressibility (1/GPa) = 0.02761893
#
# Stress axis : x y z
#
# Youngs Moduli (GPa) = 67.25665 55.88355 51.74147
#
# Poissons Ratio (x) = -0.09858 0.41041
# Poissons Ratio (y) = -0.11864 0.31394
# Poissons Ratio (z) = 0.53347 0.33907
#
# Static dielectric constant tensor:
#      x y z
#    x 3.615750 0.000000 0.000000 
#    y 0.000000 3.875310 0.000000 
#    z 0.000000 0.000000 3.730260 
# 
# 
# High freq. dielectric constant tensor:
#      x y z
#    x 1.805480 0.000000 0.000000 
#    y 0.000000 1.806120 0.000000 
#    z 0.000000 0.000000 1.800680 
# 
# From -- ./inp_files/4674.got.cif
#   From: 2010.03.12/outbox.cif.g09.slc.cpg/sg55_3_cif.got.tgz:4674.got - 2010.04.16 15:19:21.
