data_PCOD8226666
_publ_section_title
;
Structure prediction by ZEFSAII (Michael W. Deem and Ramdas Pophale) SiO2 
 PCOD8226666
Probable space group: P B A M
;
_chemical_formula_sum "Si O2"
_cell_formula_units_Z 64
_cell_length_a 30.570743
_cell_length_b 11.827378
_cell_length_c 8.785469
_cell_angle_alpha 90.000000
_cell_angle_beta 90.000000
_cell_angle_gamma 90.000000
_cell_volume 3176.577253
_symmetry_space_group_name_H-M "P B A M"
_symmetry_group_IT_number 55
_symmetry_cell_setting 'orthorhombic'
loop_
_space_group_symop_operation_xyz
x,y,z
-x,-y,z
1/2+x,1/2-y,-z
1/2-x,1/2+y,-z
-x,-y,-z
x,y,-z
1/2-x,1/2+y,z
1/2+x,1/2-y,z
loop_
_atom_site_type_symbol
_atom_site_label
_atom_site_fract_x
_atom_site_fract_y
_atom_site_fract_z
Si Si1 0.628276 0.150792 0.819929
Si Si2 0.298460 0.257244 0.821822
Si Si3 0.830591 0.022541 0.326885
Si Si4 0.541229 0.749408 0.821728
Si Si5 0.432211 0.474684 0.671066
Si Si6 0.621973 0.895937 0.180611
Si Si7 0.705961 0.282438 0.322048
Si Si8 0.547381 0.274737 0.676174
O O1 0.674912 0.195115 0.764598
O O2 0.589468 0.229557 0.763018
O O3 0.621738 0.023519 0.756851
O O4 0.628106 0.150594 0.000000
O O5 0.317175 0.381419 0.791228
O O6 0.334093 0.166495 0.763421
O O7 0.255369 0.240066 0.724232
O O8 0.288219 0.243689 0.000000
O O9 0.818662 0.058004 0.500000
O O10 0.881505 0.995815 0.311594
O O11 0.805132 0.910395 0.276690
O O12 0.553699 0.619610 0.790677
O O13 0.579378 0.830274 0.755909
O O14 0.496286 0.784627 0.739210
O O15 0.534491 0.766539 0.000000
O O16 0.442743 0.431041 0.500000
O O17 0.458123 0.590738 0.703906
O O18 0.620511 0.891647 0.000000
O O19 0.699276 0.262058 0.500000
O O20 0.553659 0.246218 0.500000
#
# Coordination Sequence:
#
# PCOD8226666 Si02
#       8
#     8   8   8   8   8   8   8   8
#     4  11  23  42  65  89 118 161 207 252 302 359
#     4  11  23  41  64  93 124 160 205 255 303 359
#     4  10  21  40  64  90 123 162 200 245 304 364
#     4  11  22  39  62  91 121 157 202 251 301 360
#     4  10  20  38  61  87 123 160 195 243 304 361
#     4   9  22  42  61  86 123 158 198 252 306 352
#     4  11  24  43  63  92 127 162 202 251 306 365
#     4  11  23  41  61  89 125 161 198 248 305 363
#
# _framework density 20.147470999999999
#
# number of rings (size 3 to 8) (size 9 to 14) (size 15 to 20)
#    0.000    1.500    2.500    2.250    1.750    4.000 
#    0.000    6.875    0.000    0.000    0.000    0.000 
#    0.000    0.000    0.000    0.000    0.000    0.000 
#
# Total GULP energy -793926.730545 kJ/mol
# GULP energy per Si atom -12405.105165 kJ/mol
# Density = 2.010161 g / cm^3
# Si number density = 20.147471 Si / 1000 Ang^3
#
#
#
# Elastic Constant Matrix: (Units=GPa)
#
#
# Indices 1 2 3 4 5 6 
#
# 1 86.4966 15.6332 16.9378 0.0000 0.0000 0.0000
# 2 15.6332 84.5038 32.1367 0.0000 0.0000 0.0000
# 3 16.9378 32.1367 58.0856 0.0000 0.0000 0.0000
# 4 0.0000 0.0000 0.0000 26.4328 0.0000 0.0000
# 5 0.0000 0.0000 0.0000 0.0000 33.0390 0.0000
# 6 0.0000 0.0000 0.0000 0.0000 0.0000 19.5079
#
#
#
# Elastic Compliance Matrix: (Units=1/GPa)
#
#
# Indices 1 2 3 4 5 6 
#
# 1 0.012350 -0.001159 -0.002960 0.000000 0.000000 0.000000
# 2 -0.001159 0.015096 -0.008014 0.000000 0.000000 0.000000
# 3 -0.002960 -0.008014 0.022513 0.000000 0.000000 0.000000
# 4 0.000000 0.000000 0.000000 0.037832 0.000000 0.000000
# 5 0.000000 0.000000 0.000000 0.000000 0.030267 0.000000
# 6 0.000000 0.000000 0.000000 0.000000 0.000000 0.051261
#
#
# Mechanical properties :
#
#
# Convention : Reuss Voigt Hill
#
# Bulk Modulus (GPa) = 38.92141 39.83352 39.37746
# Shear Modulus (GPa) = 24.73406 26.75449 25.74428
#
# Velocity S-wave (km/s) = 3.50759 3.64803 3.57850
# Velocity P-wave (km/s) = 5.98034 6.12847 6.05485
#
# Compressibility (1/GPa) = 0.02569280
#
# Stress axis : x y z
#
# Youngs Moduli (GPa) = 80.96978 66.24289 44.41869
#
# Poissons Ratio (x) = 0.07678 0.13148
# Poissons Ratio (y) = 0.09385 0.35597
# Poissons Ratio (z) = 0.23968 0.53088
#
# Static dielectric constant tensor:
#      x y z
#    x 3.835410 0.000000 0.000000 
#    y 0.000000 3.707500 0.000000 
#    z 0.000000 0.000000 3.513900 
# 
# 
# High freq. dielectric constant tensor:
#      x y z
#    x 1.804320 0.000000 0.000000 
#    y 0.000000 1.786430 0.000000 
#    z 0.000000 0.000000 1.777610 
# 
# From -- ./inp_files/4656.got.cif
#   From: 2010.03.12/outbox.cif.g09.slc.cpg/sg55_3_cif.got.tgz:4656.got - 2010.04.16 15:19:21.
