data_PCOD8226386
_publ_section_title
;
Structure prediction by ZEFSAII (Michael W. Deem and Ramdas Pophale) SiO2 
 PCOD8226386
Probable space group: P B A M
;
_chemical_formula_sum "Si O2"
_cell_formula_units_Z 56
_cell_length_a 16.524738
_cell_length_b 12.534928
_cell_length_c 13.440281
_cell_angle_alpha 90.000000
_cell_angle_beta 90.000000
_cell_angle_gamma 90.000000
_cell_volume 2783.971435
_symmetry_space_group_name_H-M "P B A M"
_symmetry_group_IT_number 55
_symmetry_cell_setting 'orthorhombic'
loop_
_space_group_symop_operation_xyz
x,y,z
-x,-y,z
1/2+x,1/2-y,-z
1/2-x,1/2+y,-z
-x,-y,-z
x,y,-z
1/2-x,1/2+y,z
1/2+x,1/2-y,z
loop_
_atom_site_type_symbol
_atom_site_label
_atom_site_fract_x
_atom_site_fract_y
_atom_site_fract_z
Si Si1 0.908025 0.518420 0.688703
Si Si2 0.139668 0.251561 0.615053
Si Si3 0.174988 0.000399 0.885671
Si Si4 0.676677 0.812703 0.613516
Si Si5 0.544343 0.393729 0.754574
Si Si6 0.142001 0.564435 0.111185
Si Si7 0.387112 0.289066 0.803798
O O1 0.873971 0.635090 0.667282
O O2 0.847373 0.435224 0.635570
O O3 0.908433 0.502666 0.808207
O O4 0.000000 0.500000 0.649941
O O5 0.120295 0.266364 0.500000
O O6 0.228733 0.205094 0.633852
O O7 0.077092 0.166618 0.658300
O O8 0.172168 0.883593 0.836859
O O9 0.115538 0.082240 0.831560
O O10 0.263857 0.045082 0.871499
O O11 0.148517 0.992770 0.000000
O O12 0.654373 0.783361 0.500000
O O13 0.627423 0.736299 0.687282
O O14 0.500000 0.500000 0.715465
O O15 0.480586 0.321643 0.814942
O O16 0.128105 0.689798 0.124859
O O17 0.115197 0.530066 0.000000
#
# Coordination Sequence:
#
# PCOD8226386 Si02
#       7
#     8   8   8   8   8   8   8
#     4  11  23  40  61  87 122 158 194 241 296 357
#     4  11  23  40  62  86 116 155 196 239 292 351
#     4  10  21  38  59  82 112 151 191 231 283 348
#     4  10  22  39  60  85 114 153 196 237 283 341
#     4  10  22  38  58  86 114 146 187 237 290 343
#     4  10  21  37  59  86 115 150 192 238 285 336
#     4  10  20  36  59  83 114 149 187 236 285 341
#
# _framework density 20.115148000000001
#
# number of rings (size 3 to 8) (size 9 to 14) (size 15 to 20)
#    0.000    1.714    0.000    5.143    0.000    7.714 
#    0.000    7.143    0.000    0.000    0.000    0.000 
#    0.000    0.000    0.000    0.000    0.000    0.000 
#
# Total GULP energy -694556.052042 kJ/mol
# GULP energy per Si atom -12402.786644 kJ/mol
# Density = 2.006937 g / cm^3
# Si number density = 20.115148 Si / 1000 Ang^3
#
#
#
# Elastic Constant Matrix: (Units=GPa)
#
#
# Indices 1 2 3 4 5 6 
#
# 1 88.0168 55.4357 27.0989 0.0000 0.0000 0.0000
# 2 55.4357 130.4704 53.3523 0.0000 0.0000 0.0000
# 3 27.0989 53.3523 100.0430 0.0000 0.0000 0.0000
# 4 0.0000 0.0000 0.0000 22.3781 0.0000 0.0000
# 5 0.0000 0.0000 0.0000 0.0000 21.4387 0.0000
# 6 0.0000 0.0000 0.0000 0.0000 0.0000 34.4208
#
#
#
# Elastic Compliance Matrix: (Units=1/GPa)
#
#
# Indices 1 2 3 4 5 6 
#
# 1 0.015573 -0.006256 -0.000882 0.000000 0.000000 0.000000
# 2 -0.006256 0.012316 -0.004873 0.000000 0.000000 0.000000
# 3 -0.000882 -0.004873 0.012833 0.000000 0.000000 0.000000
# 4 0.000000 0.000000 0.000000 0.044687 0.000000 0.000000
# 5 0.000000 0.000000 0.000000 0.000000 0.046645 0.000000
# 6 0.000000 0.000000 0.000000 0.000000 0.000000 0.029052
#
#
# Mechanical properties :
#
#
# Convention : Reuss Voigt Hill
#
# Bulk Modulus (GPa) = 59.88188 65.58933 62.73561
# Shear Modulus (GPa) = 26.21983 27.82373 27.02178
#
# Velocity S-wave (km/s) = 3.61430 3.72321 3.66916
# Velocity P-wave (km/s) = 6.87399 7.15267 7.01472
#
# Compressibility (1/GPa) = 0.01669954
#
# Stress axis : x y z
#
# Youngs Moduli (GPa) = 64.21184 81.19791 77.92160
#
# Poissons Ratio (x) = 0.50800 0.06872
# Poissons Ratio (y) = 0.40173 0.37972
# Poissons Ratio (z) = 0.05663 0.39569
#
# Static dielectric constant tensor:
#      x y z
#    x 3.738470 0.000000 0.000000 
#    y 0.000000 3.687080 0.000000 
#    z 0.000000 0.000000 3.765430 
# 
# 
# High freq. dielectric constant tensor:
#      x y z
#    x 1.794400 0.000000 0.000000 
#    y 0.000000 1.789970 0.000000 
#    z 0.000000 0.000000 1.789360 
# 
# From -- ./inp_files/18955.got.cif
#   From: 2010.03.12/outbox.cif.g09.slc.cpg/sg55_10_cif.got.tgz:18955.got - 2010.04.16 15:19:21.
