data_PCOD8226690
_publ_section_title
;
Structure prediction by ZEFSAII (Michael W. Deem and Ramdas Pophale) SiO2 
 PCOD8226690
Probable space group: P B A M
;
_chemical_formula_sum "Si O2"
_cell_formula_units_Z 56
_cell_length_a 20.494178
_cell_length_b 9.327522
_cell_length_c 14.142187
_cell_angle_alpha 90.000000
_cell_angle_beta 90.000000
_cell_angle_gamma 90.000000
_cell_volume 2703.418998
_symmetry_space_group_name_H-M "P B A M"
_symmetry_group_IT_number 55
_symmetry_cell_setting 'orthorhombic'
loop_
_space_group_symop_operation_xyz
x,y,z
-x,-y,z
1/2+x,1/2-y,-z
1/2-x,1/2+y,-z
-x,-y,-z
x,y,-z
1/2-x,1/2+y,z
1/2+x,1/2-y,z
loop_
_atom_site_type_symbol
_atom_site_label
_atom_site_fract_x
_atom_site_fract_y
_atom_site_fract_z
Si Si1 0.284702 0.716325 0.388434
Si Si2 0.303253 0.376658 0.104943
Si Si3 0.561263 0.934544 0.231354
Si Si4 0.674377 0.583470 0.687108
Si Si5 0.423966 0.847049 0.607712
Si Si6 0.323407 0.052606 0.101770
Si Si7 0.967278 0.146262 0.312591
O O1 0.271007 0.724698 0.500000
O O2 0.222937 0.783845 0.333303
O O3 0.288861 0.552052 0.356334
O O4 0.353270 0.788788 0.360930
O O5 0.340322 0.434690 0.199022
O O6 0.292858 0.208197 0.115029
O O7 0.230962 0.434470 0.110034
O O8 0.334716 0.415877 0.000000
O O9 0.626257 0.983780 0.182455
O O10 0.552610 0.762242 0.232195
O O11 0.500000 0.000000 0.174021
O O12 0.561026 0.008376 0.334826
O O13 0.602780 0.606985 0.638323
O O14 0.423039 0.895360 0.500000
O O15 0.479547 0.723806 0.620335
O O16 0.358690 0.042832 0.000000
O O17 0.000000 0.000000 0.272167
#
# Coordination Sequence:
#
# PCOD8226690 Si02
#       7
#     8   8   8   8   8   8   8
#     4  11  25  41  61  95 129 167 213 264 319 384
#     4  10  21  37  64  95 124 158 207 257 317 384
#     4  10  22  40  62  87 121 164 210 254 318 373
#     4  12  23  41  68  91 131 170 208 271 327 376
#     4  10  23  43  64  90 127 166 216 264 311 384
#     4  10  20  38  62  94 125 158 205 258 317 388
#     4  11  23  42  64  93 123 175 216 259 320 386
#
# _framework density 20.714509
#
# number of rings (size 3 to 8) (size 9 to 14) (size 15 to 20)
#    0.000    1.429    2.857    2.143    2.000    4.286 
#    0.000    0.000    0.000    1.714    0.000    0.000 
#    0.000    0.000    0.000    0.000    0.000    0.000 
#
# Total GULP energy -693789.665477 kJ/mol
# GULP energy per Si atom -12389.101169 kJ/mol
# Density = 2.066736 g / cm^3
# Si number density = 20.714509 Si / 1000 Ang^3
#
#
#
# Elastic Constant Matrix: (Units=GPa)
#
#
# Indices 1 2 3 4 5 6 
#
# 1 115.4296 36.5869 25.9131 0.0000 0.0000 0.0000
# 2 36.5869 102.6067 24.1202 0.0000 0.0000 0.0000
# 3 25.9131 24.1202 91.5543 0.0000 0.0000 0.0000
# 4 0.0000 0.0000 0.0000 21.4077 0.0000 0.0000
# 5 0.0000 0.0000 0.0000 0.0000 39.2196 0.0000
# 6 0.0000 0.0000 0.0000 0.0000 0.0000 39.1824
#
#
#
# Elastic Compliance Matrix: (Units=1/GPa)
#
#
# Indices 1 2 3 4 5 6 
#
# 1 0.010112 -0.003126 -0.002038 0.000000 0.000000 0.000000
# 2 -0.003126 0.011356 -0.002107 0.000000 0.000000 0.000000
# 3 -0.002038 -0.002107 0.012054 0.000000 0.000000 0.000000
# 4 0.000000 0.000000 0.000000 0.046712 0.000000 0.000000
# 5 0.000000 0.000000 0.000000 0.000000 0.025497 0.000000
# 6 0.000000 0.000000 0.000000 0.000000 0.000000 0.025522
#
#
# Mechanical properties :
#
#
# Convention : Reuss Voigt Hill
#
# Bulk Modulus (GPa) = 52.68981 53.64789 53.16885
# Shear Modulus (GPa) = 32.86805 34.82662 33.84734
#
# Velocity S-wave (km/s) = 3.98768 4.10477 4.04665
# Velocity P-wave (km/s) = 6.83327 6.95848 6.89616
#
# Compressibility (1/GPa) = 0.01897900
#
# Stress axis : x y z
#
# Youngs Moduli (GPa) = 98.89385 88.05882 82.95687
#
# Poissons Ratio (x) = 0.27531 0.16909
# Poissons Ratio (y) = 0.30919 0.17478
# Poissons Ratio (z) = 0.20158 0.18553
#
# Static dielectric constant tensor:
#      x y z
#    x 3.974940 0.000000 0.000000 
#    y 0.000000 3.791450 0.000000 
#    z 0.000000 0.000000 3.891130 
# 
# 
# High freq. dielectric constant tensor:
#      x y z
#    x 1.818390 0.000000 0.000000 
#    y 0.000000 1.819760 0.000000 
#    z 0.000000 0.000000 1.791950 
# 
# From -- ./inp_files/19741.got.cif
#   From: 2010.03.12/outbox.cif.g09.slc.cpg/sg55_10_cif.got.tgz:19741.got - 2010.04.16 15:19:21.
