data_PCOD8226070
_publ_section_title
;
Structure prediction by ZEFSAII (Michael W. Deem and Ramdas Pophale) SiO2 
 PCOD8226070
Probable space group: P B A M
;
_chemical_formula_sum "Si O2"
_cell_formula_units_Z 64
_cell_length_a 15.283121
_cell_length_b 12.152084
_cell_length_c 17.831587
_cell_angle_alpha 90.000000
_cell_angle_beta 90.000000
_cell_angle_gamma 90.000000
_cell_volume 3311.713903
_symmetry_space_group_name_H-M "P B A M"
_symmetry_group_IT_number 55
_symmetry_cell_setting 'orthorhombic'
loop_
_space_group_symop_operation_xyz
x,y,z
-x,-y,z
1/2+x,1/2-y,-z
1/2-x,1/2+y,-z
-x,-y,-z
x,y,-z
1/2-x,1/2+y,z
1/2+x,1/2-y,z
loop_
_atom_site_type_symbol
_atom_site_label
_atom_site_fract_x
_atom_site_fract_y
_atom_site_fract_z
Si Si1 0.850844 0.397303 0.293212
Si Si2 0.967833 0.120066 0.416261
Si Si3 0.734558 0.769358 0.832682
Si Si4 0.176337 0.351619 0.286985
Si Si5 0.074658 0.865651 0.859348
Si Si6 0.888795 0.894897 0.913889
Si Si7 0.496878 0.745116 0.276793
Si Si8 0.789857 0.232959 0.413754
O O1 0.786436 0.368512 0.224344
O O2 0.855485 0.526466 0.300843
O O3 0.946995 0.356018 0.272207
O O4 0.822038 0.344085 0.372532
O O5 0.000110 0.146986 0.500000
O O6 0.013919 0.205663 0.361876
O O7 0.862965 0.136259 0.409721
O O8 0.000000 0.000000 0.392195
O O9 0.752511 0.662453 0.779044
O O10 0.649962 0.725240 0.880165
O O11 0.814138 0.810298 0.884885
O O12 0.206405 0.310566 0.368645
O O13 0.100191 0.275208 0.251589
O O14 0.042575 0.849492 0.773272
O O15 0.986862 0.843286 0.908668
O O16 0.111700 0.988976 0.869544
O O17 0.866993 0.919609 0.000000
O O18 0.765554 0.260629 0.500000
#
# Coordination Sequence:
#
# PCOD8226070 Si02
#       8
#     8   8   8   8   8   8   8   8
#     4   9  20  36  55  80 111 150 191 238 290 347
#     4   9  19  34  52  77 109 147 189 239 293 342
#     4  10  21  38  60  88 117 153 194 243 289 347
#     4  11  20  34  56  82 109 145 197 236 289 351
#     4  10  21  39  60  88 121 157 197 240 292 352
#     4  11  23  39  63  93 121 155 194 238 297 360
#     4  10  20  34  56  81 112 149 192 241 288 344
#     4   9  20  36  51  76 114 150 192 248 300 349
#
# _framework density 19.325340000000001
#
# number of rings (size 3 to 8) (size 9 to 14) (size 15 to 20)
#    0.000    2.125    1.250    2.625    1.750    4.000 
#    0.000    1.250    0.000    3.750    0.000    3.500 
#    0.000    0.000    0.000    0.000    0.000    0.000 
#
# Total GULP energy -793076.560840 kJ/mol
# GULP energy per Si atom -12391.821263 kJ/mol
# Density = 1.928136 g / cm^3
# Si number density = 19.325340 Si / 1000 Ang^3
#
#
#
# Elastic Constant Matrix: (Units=GPa)
#
#
# Indices 1 2 3 4 5 6 
#
# 1 99.0384 47.9255 42.3571 0.0000 0.0000 0.0000
# 2 47.9255 87.5410 41.6419 0.0000 0.0000 0.0000
# 3 42.3571 41.6419 86.7127 0.0000 0.0000 0.0000
# 4 0.0000 0.0000 0.0000 18.7610 0.0000 0.0000
# 5 0.0000 0.0000 0.0000 0.0000 25.2638 0.0000
# 6 0.0000 0.0000 0.0000 0.0000 0.0000 27.9663
#
#
#
# Elastic Compliance Matrix: (Units=1/GPa)
#
#
# Indices 1 2 3 4 5 6 
#
# 1 0.014907 -0.006088 -0.004358 0.000000 0.000000 0.000000
# 2 -0.006088 0.017292 -0.005330 0.000000 0.000000 0.000000
# 3 -0.004358 -0.005330 0.016221 0.000000 0.000000 0.000000
# 4 0.000000 0.000000 0.000000 0.053302 0.000000 0.000000
# 5 0.000000 0.000000 0.000000 0.000000 0.039582 0.000000
# 6 0.000000 0.000000 0.000000 0.000000 0.000000 0.035757
#
#
# Mechanical properties :
#
#
# Convention : Reuss Voigt Hill
#
# Bulk Modulus (GPa) = 59.28697 59.68235 59.48466
# Shear Modulus (GPa) = 23.33876 23.82272 23.58074
#
# Velocity S-wave (km/s) = 3.47893 3.51482 3.49692
# Velocity P-wave (km/s) = 6.84706 6.88636 6.86674
#
# Compressibility (1/GPa) = 0.01686711
#
# Stress axis : x y z
#
# Youngs Moduli (GPa) = 67.08257 57.83158 61.64906
#
# Poissons Ratio (x) = 0.35208 0.26867
# Poissons Ratio (y) = 0.40840 0.32860
# Poissons Ratio (z) = 0.29235 0.30825
#
# Static dielectric constant tensor:
#      x y z
#    x 3.696410 0.000000 0.000000 
#    y 0.000000 3.240150 0.000000 
#    z 0.000000 0.000000 3.467120 
# 
# 
# High freq. dielectric constant tensor:
#      x y z
#    x 1.761360 0.000000 0.000000 
#    y 0.000000 1.733710 0.000000 
#    z 0.000000 0.000000 1.744180 
# 
# From -- ./inp_files/21633.got.cif
#   From: 2010.03.12/outbox.cif.g09.slc.cpg/sg55_11_cif.got.tgz:21633.got - 2010.04.16 15:19:21.
