data_PCOD8226994
_publ_section_title
;
Structure prediction by ZEFSAII (Michael W. Deem and Ramdas Pophale) SiO2 
 PCOD8226994
Probable space group: P B A M
;
_chemical_formula_sum "Si O2"
_cell_formula_units_Z 56
_cell_length_a 15.926083
_cell_length_b 19.850551
_cell_length_c 9.067693
_cell_angle_alpha 90.000000
_cell_angle_beta 90.000000
_cell_angle_gamma 90.000000
_cell_volume 2866.674273
_symmetry_space_group_name_H-M "P B A M"
_symmetry_group_IT_number 55
_symmetry_cell_setting 'orthorhombic'
loop_
_space_group_symop_operation_xyz
x,y,z
-x,-y,z
1/2+x,1/2-y,-z
1/2-x,1/2+y,-z
-x,-y,-z
x,y,-z
1/2-x,1/2+y,z
1/2+x,1/2-y,z
loop_
_atom_site_type_symbol
_atom_site_label
_atom_site_fract_x
_atom_site_fract_y
_atom_site_fract_z
Si Si1 0.436807 0.795647 0.168437
Si Si2 0.070917 0.446764 0.171214
Si Si3 0.247170 0.760885 0.169448
Si Si4 0.865397 0.116213 0.824658
Si Si5 0.476353 0.666018 0.326285
Si Si6 0.758813 0.516421 0.325924
Si Si7 0.788666 0.867086 0.328597
O O1 0.466036 0.872051 0.201228
O O2 0.337825 0.792830 0.201001
O O3 0.486007 0.743675 0.273347
O O4 0.456727 0.775261 0.000000
O O5 0.151601 0.457918 0.271745
O O6 0.000000 0.500000 0.216462
O O7 0.097358 0.454103 0.000000
O O8 0.179607 0.814789 0.225026
O O9 0.233250 0.690761 0.252989
O O10 0.233475 0.744381 0.000000
O O11 0.958372 0.117846 0.757264
O O12 0.816529 0.053685 0.755997
O O13 0.868024 0.107799 0.000000
O O14 0.492075 0.662124 0.500000
O O15 0.385555 0.637961 0.278099
O O16 0.750593 0.528534 0.500000
O O17 0.750009 0.438276 0.283402
O O18 0.782875 0.853536 0.500000
#
# Coordination Sequence:
#
# PCOD8226994 Si02
#       7
#     8   8   8   8   8   8   8
#     4   9  17  35  57  80 110 144 186 234 285 338
#     4  10  21  38  60  85 117 155 193 238 293 352
#     4   9  18  34  58  81 106 144 190 239 286 337
#     4  11  22  38  59  86 117 151 196 243 291 349
#     4  10  21  37  57  84 114 151 194 238 290 342
#     4  11  23  39  59  84 117 156 194 240 295 350
#     4   9  21  39  57  82 119 154 190 238 290 347
#
# _framework density 19.534832000000002
#
# number of rings (size 3 to 8) (size 9 to 14) (size 15 to 20)
#    0.000    2.143    1.429    1.286    0.000    5.429 
#    0.000    7.143    0.000    0.000    0.000    0.000 
#    0.000    0.000    0.000    0.000    0.000    0.000 
#
# Total GULP energy -694573.103780 kJ/mol
# GULP energy per Si atom -12403.091139 kJ/mol
# Density = 1.949037 g / cm^3
# Si number density = 19.534832 Si / 1000 Ang^3
#
#
#
# Elastic Constant Matrix: (Units=GPa)
#
#
# Indices 1 2 3 4 5 6 
#
# 1 20.4940 -4.1323 7.4137 0.0000 0.0000 0.0000
# 2 -4.1323 70.1681 26.0185 0.0000 0.0000 0.0000
# 3 7.4137 26.0185 58.1327 0.0000 0.0000 0.0000
# 4 0.0000 0.0000 0.0000 33.5444 0.0000 0.0000
# 5 0.0000 0.0000 0.0000 0.0000 30.6466 0.0000
# 6 0.0000 0.0000 0.0000 0.0000 0.0000 31.2830
#
#
#
# Elastic Compliance Matrix: (Units=1/GPa)
#
#
# Indices 1 2 3 4 5 6 
#
# 1 0.053763 0.006844 -0.009920 0.000000 0.000000 0.000000
# 2 0.006844 0.017959 -0.008911 0.000000 0.000000 0.000000
# 3 -0.009920 -0.008911 0.022455 0.000000 0.000000 0.000000
# 4 0.000000 0.000000 0.000000 0.029811 0.000000 0.000000
# 5 0.000000 0.000000 0.000000 0.000000 0.032630 0.000000
# 6 0.000000 0.000000 0.000000 0.000000 0.000000 0.031966
#
#
# Mechanical properties :
#
#
# Convention : Reuss Voigt Hill
#
# Bulk Modulus (GPa) = 14.24396 23.04384 18.64390
# Shear Modulus (GPa) = 21.19015 27.06111 24.12563
#
# Velocity S-wave (km/s) = 3.29711 3.72597 3.51808
# Velocity P-wave (km/s) = 4.66926 5.50748 5.10560
#
# Compressibility (1/GPa) = 0.07020521
#
# Stress axis : x y z
#
# Youngs Moduli (GPa) = 18.60004 55.68335 44.53293
#
# Poissons Ratio (x) = -0.38112 0.44176
# Poissons Ratio (y) = -0.12731 0.39682
# Poissons Ratio (z) = 0.18451 0.49618
#
# Static dielectric constant tensor:
#      x y z
#    x 3.462950 0.000000 0.000000 
#    y 0.000000 3.726840 0.000000 
#    z 0.000000 0.000000 3.509380 
# 
# 
# High freq. dielectric constant tensor:
#      x y z
#    x 1.751740 0.000000 0.000000 
#    y 0.000000 1.768210 0.000000 
#    z 0.000000 0.000000 1.759150 
# 
# From -- ./inp_files/6119.got.cif
#   From: 2010.03.12/outbox.cif.g09.slc.cpg/sg55_4_cif.got.tgz:6119.got - 2010.04.16 15:19:21.
