data_PCOD8226805
_publ_section_title
;
Structure prediction by ZEFSAII (Michael W. Deem and Ramdas Pophale) SiO2 
 PCOD8226805
Probable space group: P B A M
;
_chemical_formula_sum "Si O2"
_cell_formula_units_Z 64
_cell_length_a 10.941461
_cell_length_b 31.856878
_cell_length_c 9.706141
_cell_angle_alpha 90.000000
_cell_angle_beta 90.000000
_cell_angle_gamma 90.000000
_cell_volume 3383.180158
_symmetry_space_group_name_H-M "P B A M"
_symmetry_group_IT_number 55
_symmetry_cell_setting 'orthorhombic'
loop_
_space_group_symop_operation_xyz
x,y,z
-x,-y,z
1/2+x,1/2-y,-z
1/2-x,1/2+y,-z
-x,-y,-z
x,y,-z
1/2-x,1/2+y,z
1/2+x,1/2-y,z
loop_
_atom_site_type_symbol
_atom_site_label
_atom_site_fract_x
_atom_site_fract_y
_atom_site_fract_z
Si Si1 0.378981 0.341152 0.842208
Si Si2 0.782454 0.735167 0.153911
Si Si3 0.655477 0.097965 0.844656
Si Si4 0.633241 0.017534 0.336941
Si Si5 0.772980 0.308529 0.343093
Si Si6 0.916895 0.878706 0.343330
Si Si7 0.009323 0.674087 0.151523
Si Si8 0.883438 0.973059 0.336557
O O1 0.334193 0.293931 0.808096
O O2 0.274370 0.374836 0.813266
O O3 0.489980 0.351647 0.744203
O O4 0.422625 0.343614 0.000000
O O5 0.801043 0.772682 0.261708
O O6 0.898971 0.706035 0.157937
O O7 0.765130 0.753793 0.000000
O O8 0.649427 0.062130 0.732439
O O9 0.536275 0.126727 0.826591
O O10 0.660427 0.079483 0.000000
O O11 0.637270 0.023704 0.500000
O O12 0.500000 0.000000 0.291456
O O13 0.749866 0.989613 0.286778
O O14 0.788755 0.293623 0.500000
O O15 0.710034 0.353890 0.335769
O O16 0.903576 0.313326 0.274329
O O17 0.965179 0.881432 0.500000
O O18 0.898257 0.925421 0.282091
O O19 0.072031 0.677453 0.000000
O O20 0.885483 0.973964 0.500000
O O21 0.000000 0.000000 0.279603
#
# Coordination Sequence:
#
# PCOD8226805 Si02
#       8
#     8   8   8   8   8   8   8   8
#     4   9  19  37  60  84 108 142 188 233 274 329
#     4   9  20  39  60  80 106 146 192 233 274 331
#     4   9  19  37  59  83 112 143 183 234 283 329
#     4  10  21  34  56  85 111 147 194 234 275 342
#     4  11  24  36  53  83 118 148 181 234 288 331
#     4  10  22  37  55  82 117 149 181 229 287 336
#     4   9  20  39  60  80 107 148 192 228 274 340
#     4   9  18  35  57  80 110 149 188 227 280 345
#
# _framework density 18.917114000000002
#
# number of rings (size 3 to 8) (size 9 to 14) (size 15 to 20)
#    0.000    2.500    0.000    2.625    3.500    4.250 
#    0.000    3.125    0.000    2.250    0.000    0.000 
#    0.000    0.000    0.000    0.000    0.000    0.000 
#
# Total GULP energy -793387.717315 kJ/mol
# GULP energy per Si atom -12396.683083 kJ/mol
# Density = 1.887406 g / cm^3
# Si number density = 18.917114 Si / 1000 Ang^3
#
#
#
# Elastic Constant Matrix: (Units=GPa)
#
#
# Indices 1 2 3 4 5 6 
#
# 1 82.8321 28.3520 32.2353 0.0000 0.0000 0.0000
# 2 28.3520 105.5687 46.9279 0.0000 0.0000 0.0000
# 3 32.2353 46.9279 79.1295 0.0000 0.0000 0.0000
# 4 0.0000 0.0000 0.0000 33.0815 0.0000 0.0000
# 5 0.0000 0.0000 0.0000 0.0000 18.3048 0.0000
# 6 0.0000 0.0000 0.0000 0.0000 0.0000 21.1626
#
#
#
# Elastic Compliance Matrix: (Units=1/GPa)
#
#
# Indices 1 2 3 4 5 6 
#
# 1 0.014577 -0.001732 -0.004911 0.000000 0.000000 0.000000
# 2 -0.001732 0.013069 -0.007045 0.000000 0.000000 0.000000
# 3 -0.004911 -0.007045 0.018816 0.000000 0.000000 0.000000
# 4 0.000000 0.000000 0.000000 0.030228 0.000000 0.000000
# 5 0.000000 0.000000 0.000000 0.000000 0.054630 0.000000
# 6 0.000000 0.000000 0.000000 0.000000 0.000000 0.047253
#
#
# Mechanical properties :
#
#
# Convention : Reuss Voigt Hill
#
# Bulk Modulus (GPa) = 52.39430 53.61787 53.00608
# Shear Modulus (GPa) = 23.55014 25.17746 24.36380
#
# Velocity S-wave (km/s) = 3.53216 3.65216 3.59266
# Velocity P-wave (km/s) = 6.66271 6.79628 6.72983
#
# Compressibility (1/GPa) = 0.01908605
#
# Stress axis : x y z
#
# Youngs Moduli (GPa) = 68.60324 76.51455 53.14485
#
# Poissons Ratio (x) = 0.13249 0.26100
# Poissons Ratio (y) = 0.11879 0.37443
# Poissons Ratio (z) = 0.33692 0.53908
#
# Static dielectric constant tensor:
#      x y z
#    x 3.530640 0.000000 0.000000 
#    y 0.000000 3.603470 0.000000 
#    z 0.000000 0.000000 3.452210 
# 
# 
# High freq. dielectric constant tensor:
#      x y z
#    x 1.736550 0.000000 0.000000 
#    y 0.000000 1.741720 0.000000 
#    z 0.000000 0.000000 1.720130 
# 
# From -- ./inp_files/4692.got.cif
#   From: 2010.03.12/outbox.cif.g09.slc.cpg/sg55_3_cif.got.tgz:4692.got - 2010.04.16 15:19:21.
