data_PCOD8226813
_publ_section_title
;
Structure prediction by ZEFSAII (Michael W. Deem and Ramdas Pophale) SiO2 
 PCOD8226813
Probable space group: P B A M
;
_chemical_formula_sum "Si O2"
_cell_formula_units_Z 64
_cell_length_a 8.891969
_cell_length_b 18.650074
_cell_length_c 20.729166
_cell_angle_alpha 90.000000
_cell_angle_beta 90.000000
_cell_angle_gamma 90.000000
_cell_volume 3437.639482
_symmetry_space_group_name_H-M "P B A M"
_symmetry_group_IT_number 55
_symmetry_cell_setting 'orthorhombic'
loop_
_space_group_symop_operation_xyz
x,y,z
-x,-y,z
1/2+x,1/2-y,-z
1/2-x,1/2+y,-z
-x,-y,-z
x,y,-z
1/2-x,1/2+y,z
1/2+x,1/2-y,z
loop_
_atom_site_type_symbol
_atom_site_label
_atom_site_fract_x
_atom_site_fract_y
_atom_site_fract_z
Si Si1 0.352827 0.661478 0.074788
Si Si2 0.805401 0.192905 0.924870
Si Si3 0.924308 0.700539 0.431726
Si Si4 0.754447 0.342184 0.292122
Si Si5 0.357920 0.903436 0.824527
Si Si6 0.793085 0.435691 0.825576
Si Si7 0.260280 0.657025 0.431542
Si Si8 0.400677 0.807537 0.707620
O O1 0.521031 0.684251 0.094012
O O2 0.242241 0.726489 0.093536
O O3 0.302535 0.591191 0.113414
O O4 0.341876 0.641558 0.000000
O O5 0.703917 0.137022 0.886673
O O6 0.775103 0.178169 0.000000
O O7 0.865812 0.664853 0.500000
O O8 0.890936 0.784628 0.432614
O O9 0.856379 0.666105 0.365691
O O10 0.103250 0.698516 0.430170
O O11 0.721186 0.401604 0.238625
O O12 0.728690 0.382734 0.362016
O O13 0.644059 0.275022 0.281627
O O14 0.921121 0.311278 0.283938
O O15 0.534566 0.913550 0.834463
O O16 0.320666 0.859288 0.759265
O O17 0.274193 0.979297 0.819415
O O18 0.271197 0.611423 0.500000
#
# Coordination Sequence:
#
# PCOD8226813 Si02
#       8
#     8   8   8   8   8   8   8   8
#     4  10  21  37  57  79 101 125 156 196 240 287
#     4  10  21  37  57  79 101 125 156 196 240 287
#     4   8  13  22  38  61  88 116 148 190 238 283
#     4   9  17  29  46  68  93 122 158 199 241 285
#     4  10  21  35  50  70  99 134 167 200 240 285
#     4  10  21  35  50  70  99 134 167 200 240 285
#     4   8  13  22  38  61  88 116 148 190 238 283
#     4   9  17  29  46  68  93 122 158 199 241 285
#
# _framework density 18.617426999999999
#
# number of rings (size 3 to 8) (size 9 to 14) (size 15 to 20)
#    0.000    2.750    0.000    1.500    0.000    5.500 
#    0.000    2.500    0.000    0.750    0.000    5.250 
#    0.000    0.000    0.000   42.750    0.000   21.500 
#
# Total GULP energy -792862.500151 kJ/mol
# GULP energy per Si atom -12388.476565 kJ/mol
# Density = 1.857505 g / cm^3
# Si number density = 18.617427 Si / 1000 Ang^3
#
#
#
# Elastic Constant Matrix: (Units=GPa)
#
#
# Indices 1 2 3 4 5 6 
#
# 1 16.8677 -3.9851 14.2492 0.0000 0.0000 0.0000
# 2 -3.9851 44.6039 32.0947 0.0000 0.0000 0.0000
# 3 14.2492 32.0947 108.4251 0.0000 0.0000 0.0000
# 4 0.0000 0.0000 0.0000 7.2123 0.0000 0.0000
# 5 0.0000 0.0000 0.0000 0.0000 21.8892 0.0000
# 6 0.0000 0.0000 0.0000 0.0000 0.0000 20.5533
#
#
#
# Elastic Compliance Matrix: (Units=1/GPa)
#
#
# Indices 1 2 3 4 5 6 
#
# 1 0.076463 0.017868 -0.015338 0.000000 0.000000 0.000000
# 2 0.017868 0.032662 -0.012016 0.000000 0.000000 0.000000
# 3 -0.015338 -0.012016 0.014796 0.000000 0.000000 0.000000
# 4 0.000000 0.000000 0.000000 0.138653 0.000000 0.000000
# 5 0.000000 0.000000 0.000000 0.000000 0.045685 0.000000
# 6 0.000000 0.000000 0.000000 0.000000 0.000000 0.048654
#
#
# Mechanical properties :
#
#
# Convention : Reuss Voigt Hill
#
# Bulk Modulus (GPa) = 9.52853 28.29047 18.90950
# Shear Modulus (GPa) = 12.16935 18.43347 15.30141
#
# Velocity S-wave (km/s) = 2.55944 3.15003 2.86997
# Velocity P-wave (km/s) = 3.72337 5.33469 4.60013
#
# Compressibility (1/GPa) = 0.10494797
#
# Stress axis : x y z
#
# Youngs Moduli (GPa) = 13.07821 30.61630 67.58761
#
# Poissons Ratio (x) = -0.54704 1.03664
# Poissons Ratio (y) = -0.23368 0.81217
# Poissons Ratio (z) = 0.20059 0.36790
#
# Static dielectric constant tensor:
#      x y z
#    x 3.350120 0.000000 0.000000 
#    y 0.000000 3.054730 0.000000 
#    z 0.000000 0.000000 4.039090 
# 
# 
# High freq. dielectric constant tensor:
#      x y z
#    x 1.717250 0.000000 0.000000 
#    y 0.000000 1.669610 0.000000 
#    z 0.000000 0.000000 1.753970 
# 
# From -- ./inp_files/22709.got.cif
#   From: 2010.03.12/outbox.cif.g09.slc.cpg/sg55_12_cif.got.tgz:22709.got - 2010.04.16 15:19:21.
