data_PCOD8226292
_publ_section_title
;
Structure prediction by ZEFSAII (Michael W. Deem and Ramdas Pophale) SiO2 
 PCOD8226292
Probable space group: P B A M
;
_chemical_formula_sum "Si O2"
_cell_formula_units_Z 64
_cell_length_a 27.002302
_cell_length_b 9.646243
_cell_length_c 13.125087
_cell_angle_alpha 90.000000
_cell_angle_beta 90.000000
_cell_angle_gamma 90.000000
_cell_volume 3418.701473
_symmetry_space_group_name_H-M "P B A M"
_symmetry_group_IT_number 55
_symmetry_cell_setting 'orthorhombic'
loop_
_space_group_symop_operation_xyz
x,y,z
-x,-y,z
1/2+x,1/2-y,-z
1/2-x,1/2+y,-z
-x,-y,-z
x,y,-z
1/2-x,1/2+y,z
1/2+x,1/2-y,z
loop_
_atom_site_type_symbol
_atom_site_label
_atom_site_fract_x
_atom_site_fract_y
_atom_site_fract_z
Si Si1 0.454502 0.599744 0.384336
Si Si2 0.520639 0.851819 0.617676
Si Si3 0.357178 0.508743 0.297053
Si Si4 0.800249 0.490545 0.382151
Si Si5 0.124611 0.695514 0.703967
Si Si6 0.194852 0.672084 0.115384
Si Si7 0.717593 0.293953 0.383717
Si Si8 0.213766 0.984629 0.115847
O O1 0.500000 0.500000 0.366169
O O2 0.433787 0.582205 0.500000
O O3 0.473444 0.754288 0.364764
O O4 0.413557 0.561908 0.299815
O O5 0.538994 0.843002 0.500000
O O6 0.565327 0.809351 0.693435
O O7 0.500000 0.000000 0.648049
O O8 0.355450 0.347141 0.330176
O O9 0.329175 0.604082 0.378791
O O10 0.332237 0.533289 0.186519
O O11 0.788082 0.506537 0.500000
O O12 0.855002 0.428597 0.367657
O O13 0.763444 0.375971 0.330767
O O14 0.792610 0.643346 0.331314
O O15 0.144592 0.663081 0.817729
O O16 0.221615 0.820404 0.126731
O O17 0.234810 0.556479 0.149197
O O18 0.177232 0.646507 0.000000
O O19 0.730852 0.265715 0.500000
O O20 0.200098 0.027080 0.000000
#
# Coordination Sequence:
#
# PCOD8226292 Si02
#       8
#     8   8   8   8   8   8   8   8
#     4  10  20  36  55  77 106 141 180 220 265 318
#     4  10  22  38  55  77 107 142 181 224 269 317
#     4  11  21  33  55  80 104 137 179 222 266 319
#     4  10  21  34  48  71 106 141 173 210 258 317
#     4  11  21  34  55  79 104 138 179 222 269 315
#     4   9  19  36  57  81 109 140 174 216 268 324
#     4  10  21  34  48  72 106 141 173 210 258 317
#     4   9  19  36  56  80 110 140 174 218 267 322
#
# _framework density 18.720558
#
# number of rings (size 3 to 8) (size 9 to 14) (size 15 to 20)
#    0.000    2.000    1.250    2.250    1.750    5.500 
#    0.000    0.000    0.000    1.500    0.000    0.000 
#    0.000    0.000    0.000    0.000    0.000    0.000 
#
# Total GULP energy -793307.029694 kJ/mol
# GULP energy per Si atom -12395.422339 kJ/mol
# Density = 1.867795 g / cm^3
# Si number density = 18.720558 Si / 1000 Ang^3
#
#
#
# Elastic Constant Matrix: (Units=GPa)
#
#
# Indices 1 2 3 4 5 6 
#
# 1 81.6939 30.9114 34.2572 0.0000 0.0000 0.0000
# 2 30.9114 121.0294 25.1941 0.0000 0.0000 0.0000
# 3 34.2572 25.1941 62.3997 0.0000 0.0000 0.0000
# 4 0.0000 0.0000 0.0000 17.5722 0.0000 0.0000
# 5 0.0000 0.0000 0.0000 0.0000 30.9273 0.0000
# 6 0.0000 0.0000 0.0000 0.0000 0.0000 23.3805
#
#
#
# Elastic Compliance Matrix: (Units=1/GPa)
#
#
# Indices 1 2 3 4 5 6 
#
# 1 0.016596 -0.002557 -0.008079 0.000000 0.000000 0.000000
# 2 -0.002557 0.009415 -0.002397 0.000000 0.000000 0.000000
# 3 -0.008079 -0.002397 0.021429 0.000000 0.000000 0.000000
# 4 0.000000 0.000000 0.000000 0.056908 0.000000 0.000000
# 5 0.000000 0.000000 0.000000 0.000000 0.032334 0.000000
# 6 0.000000 0.000000 0.000000 0.000000 0.000000 0.042771
#
#
# Mechanical properties :
#
#
# Convention : Reuss Voigt Hill
#
# Bulk Modulus (GPa) = 46.78755 49.53871 48.16313
# Shear Modulus (GPa) = 23.51360 26.02669 24.77015
#
# Velocity S-wave (km/s) = 3.54790 3.73268 3.64146
# Velocity P-wave (km/s) = 6.46763 6.71542 6.59269
#
# Compressibility (1/GPa) = 0.02137321
#
# Stress axis : x y z
#
# Youngs Moduli (GPa) = 60.25530 106.21825 46.66599
#
# Poissons Ratio (x) = 0.27160 0.37700
# Poissons Ratio (y) = 0.15407 0.11188
# Poissons Ratio (z) = 0.48679 0.25465
#
# Static dielectric constant tensor:
#      x y z
#    x 3.434160 0.000000 0.000000 
#    y 0.000000 3.933550 0.000000 
#    z 0.000000 0.000000 3.298700 
# 
# 
# High freq. dielectric constant tensor:
#      x y z
#    x 1.708680 0.000000 0.000000 
#    y 0.000000 1.748190 0.000000 
#    z 0.000000 0.000000 1.702400 
# 
# From -- ./inp_files/19980.got.cif
#   From: 2010.03.12/outbox.cif.g09.slc.cpg/sg55_10_cif.got.tgz:19980.got - 2010.04.16 15:19:21.
