data_PCOD8226947
_publ_section_title
;
Structure prediction by ZEFSAII (Michael W. Deem and Ramdas Pophale) SiO2 
 PCOD8226947
Probable space group: P B A M
;
_chemical_formula_sum "Si O2"
_cell_formula_units_Z 48
_cell_length_a 28.791439
_cell_length_b 9.399665
_cell_length_c 8.648002
_cell_angle_alpha 90.000000
_cell_angle_beta 90.000000
_cell_angle_gamma 90.000000
_cell_volume 2340.407756
_symmetry_space_group_name_H-M "P B A M"
_symmetry_group_IT_number 55
_symmetry_cell_setting 'orthorhombic'
loop_
_space_group_symop_operation_xyz
x,y,z
-x,-y,z
1/2+x,1/2-y,-z
1/2-x,1/2+y,-z
-x,-y,-z
x,y,-z
1/2-x,1/2+y,z
1/2+x,1/2-y,z
loop_
_atom_site_type_symbol
_atom_site_label
_atom_site_fract_x
_atom_site_fract_y
_atom_site_fract_z
Si Si1 0.021740 0.358869 0.822133
Si Si2 0.202067 0.481956 0.319922
Si Si3 0.779898 0.209242 0.816526
Si Si4 0.137333 0.989880 0.183160
Si Si5 0.960984 0.096738 0.177597
Si Si6 0.619543 0.214933 0.320884
O O1 0.066741 0.305953 0.732287
O O2 0.000000 0.500000 0.748252
O O3 0.977534 0.256887 0.806690
O O4 0.036828 0.379610 0.000000
O O5 0.210806 0.510833 0.500000
O O6 0.234151 0.352503 0.263043
O O7 0.211745 0.626770 0.228031
O O8 0.149368 0.427929 0.288233
O O9 0.821931 0.111166 0.753927
O O10 0.774187 0.201081 0.000000
O O11 0.089282 0.927195 0.254298
O O12 0.143714 0.152531 0.234781
O O13 0.137917 0.983608 0.000000
O O14 0.956496 0.046396 0.000000
O O15 0.000000 0.000000 0.260772
O O16 0.619538 0.252812 0.500000
#
# Coordination Sequence:
#
# PCOD8226947 Si02
#       6
#     8   8   8   8   8   8
#     4  10  21  36  60  87 116 158 203 249 303 357
#     4  11  25  44  64  87 125 168 200 241 310 382
#     4  11  24  41  67  98 122 152 203 264 306 351
#     4  10  21  38  62  90 121 154 197 253 305 355
#     4   9  16  32  57  85 116 151 193 239 294 355
#     4  11  24  40  59  86 122 164 204 245 297 362
#
# _framework density 20.509246999999998
#
# number of rings (size 3 to 8) (size 9 to 14) (size 15 to 20)
#    0.000    1.667    1.667    2.500    2.333    7.000 
#    0.000    1.667    0.000    0.000    0.000    0.000 
#    0.000    0.000    0.000    0.000    0.000    0.000 
#
# Total GULP energy -595139.044315 kJ/mol
# GULP energy per Si atom -12398.730090 kJ/mol
# Density = 2.046257 g / cm^3
# Si number density = 20.509247 Si / 1000 Ang^3
#
#
#
# Elastic Constant Matrix: (Units=GPa)
#
#
# Indices 1 2 3 4 5 6 
#
# 1 88.9160 21.2784 19.3439 0.0000 0.0000 0.0000
# 2 21.2784 101.6369 3.1496 0.0000 0.0000 0.0000
# 3 19.3439 3.1496 26.7929 0.0000 0.0000 0.0000
# 4 0.0000 0.0000 0.0000 24.0210 0.0000 0.0000
# 5 0.0000 0.0000 0.0000 0.0000 17.4507 0.0000
# 6 0.0000 0.0000 0.0000 0.0000 0.0000 40.3199
#
#
#
# Elastic Compliance Matrix: (Units=1/GPa)
#
#
# Indices 1 2 3 4 5 6 
#
# 1 0.014009 -0.002629 -0.009805 0.000000 0.000000 0.000000
# 2 -0.002629 0.010368 0.000679 0.000000 0.000000 0.000000
# 3 -0.009805 0.000679 0.044322 0.000000 0.000000 0.000000
# 4 0.000000 0.000000 0.000000 0.041630 0.000000 0.000000
# 5 0.000000 0.000000 0.000000 0.000000 0.057304 0.000000
# 6 0.000000 0.000000 0.000000 0.000000 0.000000 0.024802
#
#
# Mechanical properties :
#
#
# Convention : Reuss Voigt Hill
#
# Bulk Modulus (GPa) = 22.12876 33.87660 28.00268
# Shear Modulus (GPa) = 21.64422 27.92991 24.78707
#
# Velocity S-wave (km/s) = 3.25212 3.69429 3.48024
# Velocity P-wave (km/s) = 4.99147 5.89496 5.46193
#
# Compressibility (1/GPa) = 0.04519006
#
# Stress axis : x y z
#
# Youngs Moduli (GPa) = 71.38358 96.44783 22.56194
#
# Poissons Ratio (x) = 0.25356 0.22122
# Poissons Ratio (y) = 0.18767 -0.01533
# Poissons Ratio (z) = 0.69992 -0.06551
#
# Static dielectric constant tensor:
#      x y z
#    x 4.063800 0.000000 0.000000 
#    y 0.000000 3.770270 0.000000 
#    z 0.000000 0.000000 3.466260 
# 
# 
# High freq. dielectric constant tensor:
#      x y z
#    x 1.816640 0.000000 0.000000 
#    y 0.000000 1.812790 0.000000 
#    z 0.000000 0.000000 1.775970 
# 
# From -- ./inp_files/2892.got.cif
#   From: 2010.03.12/outbox.cif.g09.slc.cpg/sg55_2_cif.got.tgz:2892.got - 2010.04.16 15:19:21.
