data_PCOD8226519
_publ_section_title
;
Structure prediction by ZEFSAII (Michael W. Deem and Ramdas Pophale) SiO2 
 PCOD8226519
Probable space group: P B A M
;
_chemical_formula_sum "Si O2"
_cell_formula_units_Z 48
_cell_length_a 9.182768
_cell_length_b 30.838063
_cell_length_c 8.605622
_cell_angle_alpha 90.000000
_cell_angle_beta 90.000000
_cell_angle_gamma 90.000000
_cell_volume 2436.929523
_symmetry_space_group_name_H-M "P B A M"
_symmetry_group_IT_number 55
_symmetry_cell_setting 'orthorhombic'
loop_
_space_group_symop_operation_xyz
x,y,z
-x,-y,z
1/2+x,1/2-y,-z
1/2-x,1/2+y,-z
-x,-y,-z
x,y,-z
1/2-x,1/2+y,z
1/2+x,1/2-y,z
loop_
_atom_site_type_symbol
_atom_site_label
_atom_site_fract_x
_atom_site_fract_y
_atom_site_fract_z
Si Si1 0.592543 0.131448 0.182703
Si Si2 0.580359 0.041554 0.679126
Si Si3 0.918708 0.042627 0.679829
Si Si4 0.423838 0.367793 0.181856
Si Si5 0.416301 0.215058 0.182810
Si Si6 0.898916 0.791373 0.681047
O O1 0.526844 0.086448 0.245273
O O2 0.757876 0.139304 0.241449
O O3 0.490680 0.170503 0.240556
O O4 0.593746 0.128269 0.000000
O O5 0.537792 0.044897 0.500000
O O6 0.749673 0.034331 0.707384
O O7 0.500000 0.000000 0.755124
O O8 0.954644 0.052119 0.500000
O O9 0.972492 0.083047 0.782640
O O10 0.000000 0.000000 0.740425
O O11 0.528481 0.337111 0.279625
O O12 0.440180 0.357488 0.000000
O O13 0.487884 0.253995 0.276638
O O14 0.245989 0.214255 0.218308
O O15 0.440249 0.222524 0.000000
O O16 0.859732 0.789453 0.500000
#
# Coordination Sequence:
#
# PCOD8226519 Si02
#       6
#     8   8   8   8   8   8
#     4   9  20  37  58  82 109 145 187 230 277 331
#     4   9  18  32  51  76 107 144 183 225 275 328
#     4   9  18  33  52  76 109 147 187 233 283 334
#     4  10  20  37  59  83 113 150 191 235 285 340
#     4  11  23  41  62  85 115 151 189 231 284 342
#     4  12  25  40  60  88 117 148 189 235 284 339
#
# _framework density 19.696918
#
# number of rings (size 3 to 8) (size 9 to 14) (size 15 to 20)
#    0.000    2.000    0.000    3.500    0.000    5.333 
#    0.000    1.667    0.000    0.000    0.000    0.000 
#    0.000    0.000    0.000    0.000    0.000    0.000 
#
# Total GULP energy -595379.402408 kJ/mol
# GULP energy per Si atom -12403.737550 kJ/mol
# Density = 1.965209 g / cm^3
# Si number density = 19.696918 Si / 1000 Ang^3
#
#
#
# Elastic Constant Matrix: (Units=GPa)
#
#
# Indices 1 2 3 4 5 6 
#
# 1 76.5935 53.8452 11.8184 0.0000 0.0000 0.0000
# 2 53.8452 137.6319 24.3362 0.0000 0.0000 0.0000
# 3 11.8184 24.3362 46.8907 0.0000 0.0000 0.0000
# 4 0.0000 0.0000 0.0000 37.0201 0.0000 0.0000
# 5 0.0000 0.0000 0.0000 0.0000 19.7513 0.0000
# 6 0.0000 0.0000 0.0000 0.0000 0.0000 41.6994
#
#
#
# Elastic Compliance Matrix: (Units=1/GPa)
#
#
# Indices 1 2 3 4 5 6 
#
# 1 0.018049 -0.006889 -0.000974 0.000000 0.000000 0.000000
# 2 -0.006889 0.010629 -0.003780 0.000000 0.000000 0.000000
# 3 -0.000974 -0.003780 0.023534 0.000000 0.000000 0.000000
# 4 0.000000 0.000000 0.000000 0.027012 0.000000 0.000000
# 5 0.000000 0.000000 0.000000 0.000000 0.050630 0.000000
# 6 0.000000 0.000000 0.000000 0.000000 0.000000 0.023981
#
#
# Mechanical properties :
#
#
# Convention : Reuss Voigt Hill
#
# Bulk Modulus (GPa) = 34.57103 49.01284 41.79194
# Shear Modulus (GPa) = 26.77179 31.10192 28.93685
#
# Velocity S-wave (km/s) = 3.69071 3.97801 3.83705
# Velocity P-wave (km/s) = 5.97925 6.78505 6.39485
#
# Compressibility (1/GPa) = 0.02892595
#
# Stress axis : x y z
#
# Youngs Moduli (GPa) = 55.40387 94.07845 42.49247
#
# Poissons Ratio (x) = 0.64812 0.04137
# Poissons Ratio (y) = 0.38169 0.16063
# Poissons Ratio (z) = 0.05395 0.35564
#
# Static dielectric constant tensor:
#      x y z
#    x 3.613880 0.000000 0.000000 
#    y 0.000000 3.901670 0.000000 
#    z 0.000000 0.000000 3.480730 
# 
# 
# High freq. dielectric constant tensor:
#      x y z
#    x 1.762790 0.000000 0.000000 
#    y 0.000000 1.783960 0.000000 
#    z 0.000000 0.000000 1.760870 
# 
# From -- ./inp_files/2883.got.cif
#   From: 2010.03.12/outbox.cif.g09.slc.cpg/sg55_2_cif.got.tgz:2883.got - 2010.04.16 15:19:21.
