data_PCOD8226195
_publ_section_title
;
Structure prediction by ZEFSAII (Michael W. Deem and Ramdas Pophale) SiO2 
 PCOD8226195
Probable space group: P B A M
;
_chemical_formula_sum "Si O2"
_cell_formula_units_Z 56
_cell_length_a 21.028762
_cell_length_b 8.505996
_cell_length_c 13.261372
_cell_angle_alpha 90.000000
_cell_angle_beta 90.000000
_cell_angle_gamma 90.000000
_cell_volume 2372.069108
_symmetry_space_group_name_H-M "P B A M"
_symmetry_group_IT_number 55
_symmetry_cell_setting 'orthorhombic'
loop_
_space_group_symop_operation_xyz
x,y,z
-x,-y,z
1/2+x,1/2-y,-z
1/2-x,1/2+y,-z
-x,-y,-z
x,y,-z
1/2-x,1/2+y,z
1/2+x,1/2-y,z
loop_
_atom_site_type_symbol
_atom_site_label
_atom_site_fract_x
_atom_site_fract_y
_atom_site_fract_z
Si Si1 0.777840 0.639934 0.116955
Si Si2 0.809829 0.877008 0.283708
Si Si3 0.483219 0.181770 0.115957
Si Si4 0.063184 0.434176 0.384543
Si Si5 0.202066 0.436089 0.616252
Si Si6 0.948175 0.875595 0.717873
Si Si7 0.841998 0.316537 0.116490
O O1 0.808413 0.782769 0.178227
O O2 0.803240 0.471048 0.156594
O O3 0.700843 0.659188 0.133986
O O4 0.794438 0.668482 0.000000
O O5 0.800287 0.752515 0.374831
O O6 0.879074 0.959387 0.277996
O O7 0.755957 0.007370 0.305202
O O8 0.532653 0.288926 0.177814
O O9 0.412208 0.205384 0.163572
O O10 0.500000 0.000000 0.125179
O O11 0.487650 0.238370 0.000000
O O12 0.058861 0.482116 0.500000
O O13 0.132059 0.500536 0.347113
O O14 0.059193 0.248225 0.372063
O O15 0.000000 0.500000 0.326349
O O16 0.216692 0.480918 0.500000
O O17 0.000000 0.000000 0.684258
O O18 0.854133 0.350128 0.000000
#
# Coordination Sequence:
#
# PCOD8226195 Si02
#       7
#     8   8   8   8   8   8   8
#     4  10  20  35  56  87 126 162 202 256 312 373
#     4  11  23  39  61  90 119 160 207 248 309 374
#     4  10  21  39  62  85 116 166 223 267 307 367
#     4   9  20  41  67  92 119 157 202 247 302 370
#     4  10  22  41  63  88 120 154 198 255 305 361
#     4  11  25  40  58  89 127 163 200 257 321 375
#     4   9  19  35  56  82 115 159 205 253 311 369
#
# _framework density 23.608080000000001
#
# number of rings (size 3 to 8) (size 9 to 14) (size 15 to 20)
#    0.000    2.000    0.000    2.571    0.000    9.714 
#    0.000    2.857    0.000    0.000    0.000    0.000 
#    0.000    0.000    0.000    0.000    0.000    0.000 
#
# Total GULP energy -693756.616481 kJ/mol
# GULP energy per Si atom -12388.511009 kJ/mol
# Density = 2.355435 g / cm^3
# Si number density = 23.608080 Si / 1000 Ang^3
#
#
#
# Elastic Constant Matrix: (Units=GPa)
#
#
# Indices 1 2 3 4 5 6 
#
# 1 224.1965 56.6777 38.9204 0.0000 0.0000 0.0000
# 2 56.6777 50.2858 3.9101 0.0000 0.0000 0.0000
# 3 38.9204 3.9101 63.7756 0.0000 0.0000 0.0000
# 4 0.0000 0.0000 0.0000 20.2200 0.0000 0.0000
# 5 0.0000 0.0000 0.0000 0.0000 27.4270 0.0000
# 6 0.0000 0.0000 0.0000 0.0000 0.0000 44.8140
#
#
#
# Elastic Compliance Matrix: (Units=1/GPa)
#
#
# Indices 1 2 3 4 5 6 
#
# 1 0.007065 -0.007664 -0.003842 0.000000 0.000000 0.000000
# 2 -0.007664 0.028296 0.002942 0.000000 0.000000 0.000000
# 3 -0.003842 0.002942 0.017844 0.000000 0.000000 0.000000
# 4 0.000000 0.000000 0.000000 0.049456 0.000000 0.000000
# 5 0.000000 0.000000 0.000000 0.000000 0.036460 0.000000
# 6 0.000000 0.000000 0.000000 0.000000 0.000000 0.022314
#
#
# Mechanical properties :
#
#
# Convention : Reuss Voigt Hill
#
# Bulk Modulus (GPa) = 27.71776 59.69717 43.70746
# Shear Modulus (GPa) = 26.23460 34.40884 30.32172
#
# Velocity S-wave (km/s) = 3.33717 3.82187 3.58771
# Velocity P-wave (km/s) = 5.15899 6.69457 5.97630
#
# Compressibility (1/GPa) = 0.03607796
#
# Stress axis : x y z
#
# Youngs Moduli (GPa) = 141.54752 35.34094 56.04140
#
# Poissons Ratio (x) = 0.27086 0.21528
# Poissons Ratio (y) = 1.08483 -0.16489
# Poissons Ratio (z) = 0.54376 -0.10398
#
# Static dielectric constant tensor:
#      x y z
#    x 4.853710 0.000000 0.000000 
#    y 0.000000 3.937650 0.000000 
#    z 0.000000 0.000000 4.104570 
# 
# 
# High freq. dielectric constant tensor:
#      x y z
#    x 1.956760 0.000000 0.000000 
#    y 0.000000 1.902630 0.000000 
#    z 0.000000 0.000000 1.936540 
# 
# From -- ./inp_files/19740.got.cif
#   From: 2010.03.12/outbox.cif.g09.slc.cpg/sg55_10_cif.got.tgz:19740.got - 2010.04.16 15:19:21.
