data_PCOD8226894
_publ_section_title
;
Structure prediction by ZEFSAII (Michael W. Deem and Ramdas Pophale) SiO2 
 PCOD8226894
Probable space group: P B A M
;
_chemical_formula_sum "Si O2"
_cell_formula_units_Z 48
_cell_length_a 9.347473
_cell_length_b 30.369785
_cell_length_c 9.121995
_cell_angle_alpha 90.000000
_cell_angle_beta 90.000000
_cell_angle_gamma 90.000000
_cell_volume 2589.558739
_symmetry_space_group_name_H-M "P B A M"
_symmetry_group_IT_number 55
_symmetry_cell_setting 'orthorhombic'
loop_
_space_group_symop_operation_xyz
x,y,z
-x,-y,z
1/2+x,1/2-y,-z
1/2-x,1/2+y,-z
-x,-y,-z
x,y,-z
1/2-x,1/2+y,z
1/2+x,1/2-y,z
loop_
_atom_site_type_symbol
_atom_site_label
_atom_site_fract_x
_atom_site_fract_y
_atom_site_fract_z
Si Si1 0.902465 0.041641 0.670032
Si Si2 0.576027 0.630320 0.173543
Si Si3 0.383396 0.964002 0.167617
Si Si4 0.577497 0.791934 0.672076
Si Si5 0.906926 0.793469 0.673217
Si Si6 0.596375 0.135561 0.166947
O O1 0.899435 0.054806 0.500000
O O2 0.963245 0.082651 0.761992
O O3 0.745239 0.028200 0.721635
O O4 0.000000 0.000000 0.701538
O O5 0.467751 0.664767 0.242751
O O6 0.739038 0.642544 0.216621
O O7 0.555786 0.628764 0.000000
O O8 0.448613 0.915258 0.188657
O O9 0.500000 0.000000 0.208864
O O10 0.329138 0.969210 0.000000
O O11 0.561513 0.795798 0.500000
O O12 0.742213 0.787409 0.719041
O O13 0.492175 0.749336 0.729275
O O14 0.509949 0.835916 0.736604
O O15 0.925529 0.800661 0.500000
O O16 0.577720 0.150602 0.000000
#
# Coordination Sequence:
#
# PCOD8226894 Si02
#       6
#     8   8   8   8   8   8
#     4  10  21  36  55  81 111 142 179 223 268 317
#     4  10  21  37  57  80 106 141 181 220 268 320
#     4   9  19  36  56  79 109 145 184 224 267 318
#     4  10  21  36  56  80 107 142 179 217 266 320
#     4  10  21  37  56  80 108 139 178 220 264 317
#     4   9  19  35  54  78 107 139 179 223 265 313
#
# _framework density 18.535976999999999
#
# number of rings (size 3 to 8) (size 9 to 14) (size 15 to 20)
#    0.000    2.333    0.000    3.000    0.000    9.000 
#    0.000    3.333    0.000    0.000    0.000    0.000 
#    0.000    0.000    0.000    0.000    0.000    0.000 
#
# Total GULP energy -595335.924664 kJ/mol
# GULP energy per Si atom -12402.831764 kJ/mol
# Density = 1.849379 g / cm^3
# Si number density = 18.535977 Si / 1000 Ang^3
#
#
#
# Elastic Constant Matrix: (Units=GPa)
#
#
# Indices 1 2 3 4 5 6 
#
# 1 124.2962 89.3557 53.5782 0.0000 0.0000 0.0000
# 2 89.3557 132.8972 57.1928 0.0000 0.0000 0.0000
# 3 53.5782 57.1928 51.0745 0.0000 0.0000 0.0000
# 4 0.0000 0.0000 0.0000 32.9678 0.0000 0.0000
# 5 0.0000 0.0000 0.0000 0.0000 48.0990 0.0000
# 6 0.0000 0.0000 0.0000 0.0000 0.0000 38.2500
#
#
#
# Elastic Compliance Matrix: (Units=1/GPa)
#
#
# Indices 1 2 3 4 5 6 
#
# 1 0.017994 -0.007673 -0.010284 0.000000 0.000000 0.000000
# 2 -0.007673 0.017795 -0.011878 0.000000 0.000000 0.000000
# 3 -0.010284 -0.011878 0.043669 0.000000 0.000000 0.000000
# 4 0.000000 0.000000 0.000000 0.030333 0.000000 0.000000
# 5 0.000000 0.000000 0.000000 0.000000 0.020790 0.000000
# 6 0.000000 0.000000 0.000000 0.000000 0.000000 0.026144
#
#
# Mechanical properties :
#
#
# Convention : Reuss Voigt Hill
#
# Bulk Modulus (GPa) = 50.53631 78.72457 64.63044
# Shear Modulus (GPa) = 22.42225 31.07276 26.74751
#
# Velocity S-wave (km/s) = 3.48179 4.09877 3.80281
# Velocity P-wave (km/s) = 6.59446 8.05998 7.36377
#
# Compressibility (1/GPa) = 0.01978775
#
# Stress axis : x y z
#
# Youngs Moduli (GPa) = 55.57256 56.19416 22.89958
#
# Poissons Ratio (x) = 0.43117 0.23551
# Poissons Ratio (y) = 0.42641 0.27200
# Poissons Ratio (z) = 0.57154 0.66748
#
# Static dielectric constant tensor:
#      x y z
#    x 3.407190 0.000000 0.000000 
#    y 0.000000 3.484200 0.000000 
#    z 0.000000 0.000000 3.372110 
# 
# 
# High freq. dielectric constant tensor:
#      x y z
#    x 1.716350 0.000000 0.000000 
#    y 0.000000 1.730340 0.000000 
#    z 0.000000 0.000000 1.718880 
# 
# From -- ./inp_files/2820.got.cif
#   From: 2010.03.12/outbox.cif.g09.slc.cpg/sg55_2_cif.got.tgz:2820.got - 2010.04.16 15:19:21.
