data_PCOD8226373
_publ_section_title
;
Structure prediction by ZEFSAII (Michael W. Deem and Ramdas Pophale) SiO2 
 PCOD8226373
Probable space group: P B A M
;
_chemical_formula_sum "Si O2"
_cell_formula_units_Z 64
_cell_length_a 19.721754
_cell_length_b 14.733761
_cell_length_c 11.013528
_cell_angle_alpha 90.000000
_cell_angle_beta 90.000000
_cell_angle_gamma 90.000000
_cell_volume 3200.262616
_symmetry_space_group_name_H-M "P B A M"
_symmetry_group_IT_number 55
_symmetry_cell_setting 'orthorhombic'
loop_
_space_group_symop_operation_xyz
x,y,z
-x,-y,z
1/2+x,1/2-y,-z
1/2-x,1/2+y,-z
-x,-y,-z
x,y,-z
1/2-x,1/2+y,z
1/2+x,1/2-y,z
loop_
_atom_site_type_symbol
_atom_site_label
_atom_site_fract_x
_atom_site_fract_y
_atom_site_fract_z
Si Si1 0.692437 0.053021 0.216511
Si Si2 0.790264 0.368399 0.361164
Si Si3 0.387978 0.293753 0.636935
Si Si4 0.441886 0.562266 0.138419
Si Si5 0.044602 0.417723 0.862518
Si Si6 0.336589 0.414261 0.864155
Si Si7 0.319457 0.767669 0.633415
Si Si8 0.963013 0.762238 0.713782
O O1 0.623725 0.055859 0.139479
O O2 0.756561 0.068284 0.129829
O O3 0.693198 0.135787 0.308674
O O4 0.697944 0.958074 0.284496
O O5 0.776969 0.398050 0.500000
O O6 0.857285 0.306500 0.350235
O O7 0.725505 0.312764 0.305704
O O8 0.370621 0.332603 0.500000
O O9 0.359006 0.352057 0.750114
O O10 0.469268 0.288203 0.642673
O O11 0.500000 0.500000 0.200785
O O12 0.370326 0.512459 0.155486
O O13 0.439800 0.660998 0.193829
O O14 0.461875 0.578036 0.000000
O O15 0.025675 0.330802 0.784387
O O16 0.000000 0.500000 0.809086
O O17 0.022991 0.397163 0.000000
O O18 0.357459 0.375577 0.000000
O O19 0.288426 0.776217 0.500000
O O20 0.399239 0.746123 0.623947
#
# Coordination Sequence:
#
# PCOD8226373 Si02
#       8
#     8   8   8   8   8   8   8   8
#     4  11  21  38  63  87 120 157 206 254 309 361
#     4  10  21  38  61  88 121 162 206 250 309 374
#     4  11  23  40  62  92 128 163 207 257 307 371
#     4  10  20  36  58  85 120 161 204 249 306 369
#     4  10  22  39  60  87 120 159 205 256 310 366
#     4  11  23  40  62  89 124 162 208 259 310 368
#     4  10  21  37  58  86 119 156 199 251 305 362
#     4  11  21  37  61  87 120 161 204 251 306 365
#
# _framework density 19.998359000000001
#
# number of rings (size 3 to 8) (size 9 to 14) (size 15 to 20)
#    0.000    1.500    2.500    3.000    0.000    1.000 
#    0.000    3.125    0.000    6.000    0.000    0.000 
#    0.000    0.000    0.000    0.000    0.000    0.000 
#
# Total GULP energy -793227.504115 kJ/mol
# GULP energy per Si atom -12394.179752 kJ/mol
# Density = 1.995284 g / cm^3
# Si number density = 19.998359 Si / 1000 Ang^3
#
#
#
# Elastic Constant Matrix: (Units=GPa)
#
#
# Indices 1 2 3 4 5 6 
#
# 1 109.9827 17.8501 19.0934 0.0000 0.0000 0.0000
# 2 17.8501 103.8758 47.2578 0.0000 0.0000 0.0000
# 3 19.0934 47.2578 99.7917 0.0000 0.0000 0.0000
# 4 0.0000 0.0000 0.0000 22.0853 0.0000 0.0000
# 5 0.0000 0.0000 0.0000 0.0000 39.8619 0.0000
# 6 0.0000 0.0000 0.0000 0.0000 0.0000 34.3970
#
#
#
# Elastic Compliance Matrix: (Units=1/GPa)
#
#
# Indices 1 2 3 4 5 6 
#
# 1 0.009490 -0.001026 -0.001330 0.000000 0.000000 0.000000
# 2 -0.001026 0.012381 -0.005667 0.000000 0.000000 0.000000
# 3 -0.001330 -0.005667 0.012959 0.000000 0.000000 0.000000
# 4 0.000000 0.000000 0.000000 0.045279 0.000000 0.000000
# 5 0.000000 0.000000 0.000000 0.000000 0.025087 0.000000
# 6 0.000000 0.000000 0.000000 0.000000 0.000000 0.029072
#
#
# Mechanical properties :
#
#
# Convention : Reuss Voigt Hill
#
# Bulk Modulus (GPa) = 53.23502 53.56143 53.39822
# Shear Modulus (GPa) = 31.93357 34.56544 33.24951
#
# Velocity S-wave (km/s) = 4.00035 4.16193 4.08194
# Velocity P-wave (km/s) = 6.92925 7.06658 6.99825
#
# Compressibility (1/GPa) = 0.01878463
#
# Stress axis : x y z
#
# Youngs Moduli (GPa) = 105.37754 80.76653 77.16596
#
# Poissons Ratio (x) = 0.08284 0.10263
# Poissons Ratio (y) = 0.10808 0.43731
# Poissons Ratio (z) = 0.14015 0.45771
#
# Static dielectric constant tensor:
#      x y z
#    x 4.088620 0.000000 0.000000 
#    y 0.000000 3.585450 0.000000 
#    z 0.000000 0.000000 3.517110 
# 
# 
# High freq. dielectric constant tensor:
#      x y z
#    x 1.799710 0.000000 0.000000 
#    y 0.000000 1.778330 0.000000 
#    z 0.000000 0.000000 1.771860 
# 
# From -- ./inp_files/14979.got.cif
#   From: 2010.03.12/outbox.cif.g09.slc.cpg/sg55_8_cif.got.tgz:14979.got - 2010.04.16 15:19:21.
