data_PCOD8226548
_publ_section_title
;
Structure prediction by ZEFSAII (Michael W. Deem and Ramdas Pophale) SiO2 
 PCOD8226548
Probable space group: P B A M
;
_chemical_formula_sum "Si O2"
_cell_formula_units_Z 64
_cell_length_a 13.363918
_cell_length_b 18.009146
_cell_length_c 13.633850
_cell_angle_alpha 90.000000
_cell_angle_beta 90.000000
_cell_angle_gamma 90.000000
_cell_volume 3281.296178
_symmetry_space_group_name_H-M "P B A M"
_symmetry_group_IT_number 55
_symmetry_cell_setting 'orthorhombic'
loop_
_space_group_symop_operation_xyz
x,y,z
-x,-y,z
1/2+x,1/2-y,-z
1/2-x,1/2+y,-z
-x,-y,-z
x,y,-z
1/2-x,1/2+y,z
1/2+x,1/2-y,z
loop_
_atom_site_type_symbol
_atom_site_label
_atom_site_fract_x
_atom_site_fract_y
_atom_site_fract_z
Si Si1 0.566021 0.599734 0.610104
Si Si2 0.761093 0.413522 0.109813
Si Si3 0.740437 0.290182 0.738152
Si Si4 0.761699 0.025505 0.277220
Si Si5 0.437864 0.224979 0.386977
Si Si6 0.612354 0.152615 0.729759
Si Si7 0.991958 0.418517 0.891361
Si Si8 0.845482 0.900091 0.390482
O O1 0.608646 0.580963 0.500000
O O2 0.639240 0.573173 0.696403
O O3 0.547316 0.687229 0.619499
O O4 0.455579 0.562801 0.622183
O O5 0.723142 0.339470 0.164316
O O6 0.735208 0.491038 0.166747
O O7 0.877512 0.397586 0.102119
O O8 0.714420 0.419337 0.000000
O O9 0.849882 0.297536 0.688776
O O10 0.706052 0.205960 0.756118
O O11 0.658687 0.321146 0.662262
O O12 0.662911 0.073859 0.298457
O O13 0.759846 0.954592 0.348694
O O14 0.412943 0.202458 0.500000
O O15 0.539643 0.181978 0.355874
O O16 0.548762 0.143051 0.828433
O O17 0.000000 0.500000 0.842364
O O18 0.041176 0.419872 0.000000
O O19 0.817495 0.882913 0.500000
#
# Coordination Sequence:
#
# PCOD8226548 Si02
#       8
#     8   8   8   8   8   8   8   8
#     4  10  20  37  60  85 116 159 207 243 288 358
#     4  10  22  41  64  87 117 159 199 248 310 368
#     4  11  22  39  61  86 123 160 201 250 303 361
#     4  11  22  35  61  91 120 150 201 256 298 352
#     4  11  23  37  56  87 126 162 200 243 295 356
#     4  12  23  37  61  93 120 154 201 252 303 348
#     4  10  20  38  63  86 112 149 198 247 297 360
#     4  10  21  38  58  85 118 163 208 245 293 356
#
# _framework density 19.504486
#
# number of rings (size 3 to 8) (size 9 to 14) (size 15 to 20)
#    0.000    1.375    5.000    1.125    0.000    3.000 
#    0.000    0.000    0.000    9.375    0.000    0.000 
#    0.000    0.000    0.000    0.000    0.000    0.000 
#
# Total GULP energy -793136.530855 kJ/mol
# GULP energy per Si atom -12392.758295 kJ/mol
# Density = 1.946009 g / cm^3
# Si number density = 19.504486 Si / 1000 Ang^3
#
#
#
# Elastic Constant Matrix: (Units=GPa)
#
#
# Indices 1 2 3 4 5 6 
#
# 1 76.1045 28.7262 49.8287 0.0000 0.0000 0.0000
# 2 28.7262 70.9137 46.8785 0.0000 0.0000 0.0000
# 3 49.8287 46.8785 135.5637 0.0000 0.0000 0.0000
# 4 0.0000 0.0000 0.0000 21.8507 0.0000 0.0000
# 5 0.0000 0.0000 0.0000 0.0000 17.9703 0.0000
# 6 0.0000 0.0000 0.0000 0.0000 0.0000 36.3291
#
#
#
# Elastic Compliance Matrix: (Units=1/GPa)
#
#
# Indices 1 2 3 4 5 6 
#
# 1 0.018059 -0.003795 -0.005326 0.000000 0.000000 0.000000
# 2 -0.003795 0.019078 -0.005202 0.000000 0.000000 0.000000
# 3 -0.005326 -0.005202 0.011133 0.000000 0.000000 0.000000
# 4 0.000000 0.000000 0.000000 0.045765 0.000000 0.000000
# 5 0.000000 0.000000 0.000000 0.000000 0.055647 0.000000
# 6 0.000000 0.000000 0.000000 0.000000 0.000000 0.027526
#
#
# Mechanical properties :
#
#
# Convention : Reuss Voigt Hill
#
# Bulk Modulus (GPa) = 50.95687 59.27206 55.11446
# Shear Modulus (GPa) = 23.54089 25.70659 24.62374
#
# Velocity S-wave (km/s) = 3.47788 3.63434 3.55697
# Velocity P-wave (km/s) = 6.50461 6.93298 6.72221
#
# Compressibility (1/GPa) = 0.01962444
#
# Stress axis : x y z
#
# Youngs Moduli (GPa) = 55.37354 52.41629 89.82191
#
# Poissons Ratio (x) = 0.19892 0.47836
# Poissons Ratio (y) = 0.21014 0.46729
# Poissons Ratio (z) = 0.29490 0.27269
#
# Static dielectric constant tensor:
#      x y z
#    x 3.533160 0.000000 0.000000 
#    y 0.000000 3.661360 0.000000 
#    z 0.000000 0.000000 3.684390 
# 
# 
# High freq. dielectric constant tensor:
#      x y z
#    x 1.752500 0.000000 0.000000 
#    y 0.000000 1.770230 0.000000 
#    z 0.000000 0.000000 1.747170 
# 
# From -- ./inp_files/18564.got.cif
#   From: 2010.03.12/outbox.cif.g09.slc.cpg/sg55_10_cif.got.tgz:18564.got - 2010.04.16 15:19:21.
