data_PCOD8226205
_publ_section_title
;
Structure prediction by ZEFSAII (Michael W. Deem and Ramdas Pophale) SiO2 
 PCOD8226205
Probable space group: P B A M
;
_chemical_formula_sum "Si O2"
_cell_formula_units_Z 40
_cell_length_a 14.806753
_cell_length_b 13.737850
_cell_length_c 10.136471
_cell_angle_alpha 90.000000
_cell_angle_beta 90.000000
_cell_angle_gamma 90.000000
_cell_volume 2061.889486
_symmetry_space_group_name_H-M "P B A M"
_symmetry_group_IT_number 55
_symmetry_cell_setting 'orthorhombic'
loop_
_space_group_symop_operation_xyz
x,y,z
-x,-y,z
1/2+x,1/2-y,-z
1/2-x,1/2+y,-z
-x,-y,-z
x,y,-z
1/2-x,1/2+y,z
1/2+x,1/2-y,z
loop_
_atom_site_type_symbol
_atom_site_label
_atom_site_fract_x
_atom_site_fract_y
_atom_site_fract_z
Si Si1 0.477243 0.260495 0.851886
Si Si2 0.245696 0.495822 0.652314
Si Si3 0.791827 0.211462 0.249730
Si Si4 0.592661 0.866699 0.643316
Si Si5 0.657618 0.363689 0.150457
O O1 0.380279 0.315139 0.839103
O O2 0.479218 0.164890 0.755630
O O3 0.554915 0.336216 0.812129
O O4 0.492414 0.222252 0.000000
O O5 0.274163 0.513764 0.500000
O O6 0.247581 0.382249 0.684685
O O7 0.142048 0.531033 0.676275
O O8 0.313642 0.551876 0.749394
O O9 0.826382 0.286164 0.362947
O O10 0.717821 0.266350 0.161095
O O11 0.544675 0.871385 0.500000
O O12 0.664576 0.402387 0.000000
#
# Coordination Sequence:
#
# PCOD8226205 Si02
#       5
#     8   8   8   8   8
#     4   9  19  35  55  78 109 142 179 223 266 319
#     4  10  20  35  57  83 110 143 182 222 268 324
#     4   9  19  34  57  75 109 142 175 221 271 315
#     4   8  17  33  54  75 104 141 178 220 265 315
#     4  10  21  37  57  82 108 142 184 222 269 323
#
# _framework density 19.399681999999999
#
# number of rings (size 3 to 8) (size 9 to 14) (size 15 to 20)
#    1.200    1.600    0.000    1.200    0.000    4.000 
#    0.000    4.000    0.000    4.800    0.000    0.000 
#    0.000    0.000    0.000    0.000    0.000    0.000 
#
# Total GULP energy -495526.534908 kJ/mol
# GULP energy per Si atom -12388.163373 kJ/mol
# Density = 1.935553 g / cm^3
# Si number density = 19.399682 Si / 1000 Ang^3
#
#
#
# Elastic Constant Matrix: (Units=GPa)
#
#
# Indices 1 2 3 4 5 6 
#
# 1 8.0117 -3.8127 8.3454 0.0000 0.0000 0.0000
# 2 -3.8127 68.4856 13.2669 0.0000 0.0000 0.0000
# 3 8.3454 13.2669 81.6790 0.0000 0.0000 0.0000
# 4 0.0000 0.0000 0.0000 25.1963 0.0000 0.0000
# 5 0.0000 0.0000 0.0000 0.0000 25.3588 0.0000
# 6 0.0000 0.0000 0.0000 0.0000 0.0000 10.5926
#
#
#
# Elastic Compliance Matrix: (Units=1/GPa)
#
#
# Indices 1 2 3 4 5 6 
#
# 1 0.148009 0.011532 -0.016996 0.000000 0.000000 0.000000
# 2 0.011532 0.015975 -0.003773 0.000000 0.000000 0.000000
# 3 -0.016996 -0.003773 0.014592 0.000000 0.000000 0.000000
# 4 0.000000 0.000000 0.000000 0.039688 0.000000 0.000000
# 5 0.000000 0.000000 0.000000 0.000000 0.039434 0.000000
# 6 0.000000 0.000000 0.000000 0.000000 0.000000 0.094406
#
#
# Mechanical properties :
#
#
# Convention : Reuss Voigt Hill
#
# Bulk Modulus (GPa) = 6.24597 21.53061 13.88829
# Shear Modulus (GPa) = 11.79399 21.58800 16.69099
#
# Velocity S-wave (km/s) = 2.46833 3.33949 2.93640
# Velocity P-wave (km/s) = 3.36900 5.09824 4.32101
#
# Compressibility (1/GPa) = 0.16010330
#
# Stress axis : x y z
#
# Youngs Moduli (GPa) = 6.75633 62.59961 68.52876
#
# Poissons Ratio (x) = -0.72192 1.16470
# Poissons Ratio (y) = -0.07792 0.25856
# Poissons Ratio (z) = 0.11483 0.23619
#
# Static dielectric constant tensor:
#      x y z
#    x 3.364140 0.000000 0.000000 
#    y 0.000000 3.263370 0.000000 
#    z 0.000000 0.000000 3.462500 
# 
# 
# High freq. dielectric constant tensor:
#      x y z
#    x 1.740630 0.000000 0.000000 
#    y 0.000000 1.735340 0.000000 
#    z 0.000000 0.000000 1.757240 
# 
# From -- ./inp_files/5192.got.cif
#   From: 2010.03.12/outbox.cif.g09.slc.cpg/sg55_3_cif.got.tgz:5192.got - 2010.04.16 15:19:21.
