data_PCOD8226683
_publ_section_title
;
Structure prediction by ZEFSAII (Michael W. Deem and Ramdas Pophale) SiO2 
 PCOD8226683
Probable space group: P B A M
;
_chemical_formula_sum "Si O2"
_cell_formula_units_Z 64
_cell_length_a 22.992228
_cell_length_b 15.384127
_cell_length_c 8.751402
_cell_angle_alpha 90.000000
_cell_angle_beta 90.000000
_cell_angle_gamma 90.000000
_cell_volume 3095.505270
_symmetry_space_group_name_H-M "P B A M"
_symmetry_group_IT_number 55
_symmetry_cell_setting 'orthorhombic'
loop_
_space_group_symop_operation_xyz
x,y,z
-x,-y,z
1/2+x,1/2-y,-z
1/2-x,1/2+y,-z
-x,-y,-z
x,y,-z
1/2-x,1/2+y,z
1/2+x,1/2-y,z
loop_
_atom_site_type_symbol
_atom_site_label
_atom_site_fract_x
_atom_site_fract_y
_atom_site_fract_z
Si Si1 0.071146 0.749983 0.820108
Si Si2 0.549048 0.568778 0.680378
Si Si3 0.661067 0.487200 0.176956
Si Si4 0.002546 0.400960 0.321659
Si Si5 0.687173 0.317354 0.328677
Si Si6 0.132817 0.364970 0.670934
Si Si7 0.792670 0.497914 0.823378
Si Si8 0.818037 0.320837 0.322202
O O1 0.039420 0.834749 0.748954
O O2 0.041442 0.660131 0.769495
O O3 0.138432 0.742839 0.768253
O O4 0.068179 0.760158 0.000000
O O5 0.500000 0.500000 0.740540
O O6 0.544166 0.576844 0.500000
O O7 0.613430 0.537677 0.724950
O O8 0.658329 0.384777 0.211861
O O9 0.726022 0.516947 0.225858
O O10 0.647925 0.504956 0.000000
O O11 0.986385 0.395033 0.500000
O O12 0.000000 0.500000 0.263146
O O13 0.066306 0.368563 0.282838
O O14 0.688143 0.357656 0.500000
O O15 0.646627 0.235334 0.320817
O O16 0.752681 0.290149 0.282292
O O17 0.143620 0.402443 0.500000
O O18 0.171509 0.415352 0.792948
O O19 0.823201 0.421359 0.727777
O O20 0.794990 0.471445 0.000000
O O21 0.833288 0.313064 0.500000
#
# Coordination Sequence:
#
# PCOD8226683 Si02
#       8
#     8   8   8   8   8   8   8   8
#     4  12  26  42  65  96 131 166 207 262 321 381
#     4  11  26  46  68  90 119 165 218 269 315 373
#     4  10  22  40  62  91 126 162 200 252 317 375
#     4  10  22  41  64  91 126 169 213 257 307 368
#     4   9  20  37  59  89 120 159 206 254 304 367
#     4  10  21  36  59  89 121 158 208 257 300 365
#     4  10  21  37  59  92 129 164 199 248 313 374
#     4  10  20  38  62  88 121 162 207 252 305 368
#
# _framework density 20.675139000000001
#
# number of rings (size 3 to 8) (size 9 to 14) (size 15 to 20)
#    0.000    1.750    0.000    3.375    3.500    5.250 
#    0.000    0.000    0.000    0.000    0.000    0.000 
#    0.000    0.000    0.000    0.000    0.000    0.000 
#
# Total GULP energy -793751.833183 kJ/mol
# GULP energy per Si atom -12402.372393 kJ/mol
# Density = 2.062808 g / cm^3
# Si number density = 20.675139 Si / 1000 Ang^3
#
#
#
# Elastic Constant Matrix: (Units=GPa)
#
#
# Indices 1 2 3 4 5 6 
#
# 1 83.4481 48.2326 29.4706 0.0000 0.0000 0.0000
# 2 48.2326 92.8428 34.2134 0.0000 0.0000 0.0000
# 3 29.4706 34.2134 79.9698 0.0000 0.0000 0.0000
# 4 0.0000 0.0000 0.0000 25.9018 0.0000 0.0000
# 5 0.0000 0.0000 0.0000 0.0000 26.4922 0.0000
# 6 0.0000 0.0000 0.0000 0.0000 0.0000 34.7293
#
#
#
# Elastic Compliance Matrix: (Units=1/GPa)
#
#
# Indices 1 2 3 4 5 6 
#
# 1 0.017743 -0.008082 -0.003081 0.000000 0.000000 0.000000
# 2 -0.008082 0.016469 -0.004067 0.000000 0.000000 0.000000
# 3 -0.003081 -0.004067 0.015380 0.000000 0.000000 0.000000
# 4 0.000000 0.000000 0.000000 0.038607 0.000000 0.000000
# 5 0.000000 0.000000 0.000000 0.000000 0.037747 0.000000
# 6 0.000000 0.000000 0.000000 0.000000 0.000000 0.028794
#
#
# Mechanical properties :
#
#
# Convention : Reuss Voigt Hill
#
# Bulk Modulus (GPa) = 52.27123 53.34374 52.80748
# Shear Modulus (GPa) = 26.09902 27.04759 26.57331
#
# Velocity S-wave (km/s) = 3.55679 3.62085 3.58897
# Velocity P-wave (km/s) = 6.49652 6.58314 6.53997
#
# Compressibility (1/GPa) = 0.01913098
#
# Stress axis : x y z
#
# Youngs Moduli (GPa) = 56.35995 60.72180 65.01887
#
# Poissons Ratio (x) = 0.49078 0.20031
# Poissons Ratio (y) = 0.45552 0.26444
# Poissons Ratio (z) = 0.17364 0.24697
#
# Static dielectric constant tensor:
#      x y z
#    x 3.820020 0.000000 0.000000 
#    y 0.000000 3.667880 0.000000 
#    z 0.000000 0.000000 3.721270 
# 
# 
# High freq. dielectric constant tensor:
#      x y z
#    x 1.816990 0.000000 0.000000 
#    y 0.000000 1.809300 0.000000 
#    z 0.000000 0.000000 1.804290 
# 
# From -- ./inp_files/9824.got.cif
#   From: 2010.03.12/outbox.cif.g09.slc.cpg/sg55_5_cif.got.tgz:9824.got - 2010.04.16 15:19:21.
