data_PCOD8226341
_publ_section_title
;
Structure prediction by ZEFSAII (Michael W. Deem and Ramdas Pophale) SiO2 
 PCOD8226341
Probable space group: P B A M
;
_chemical_formula_sum "Si O2"
_cell_formula_units_Z 48
_cell_length_a 8.943747
_cell_length_b 15.336914
_cell_length_c 18.236810
_cell_angle_alpha 90.000000
_cell_angle_beta 90.000000
_cell_angle_gamma 90.000000
_cell_volume 2501.533719
_symmetry_space_group_name_H-M "P B A M"
_symmetry_group_IT_number 55
_symmetry_cell_setting 'orthorhombic'
loop_
_space_group_symop_operation_xyz
x,y,z
-x,-y,z
1/2+x,1/2-y,-z
1/2-x,1/2+y,-z
-x,-y,-z
x,y,-z
1/2-x,1/2+y,z
1/2+x,1/2-y,z
loop_
_atom_site_type_symbol
_atom_site_label
_atom_site_fract_x
_atom_site_fract_y
_atom_site_fract_z
Si Si1 0.833128 0.659633 0.336825
Si Si2 0.322961 0.988653 0.082603
Si Si3 0.670916 0.501899 0.585297
Si Si4 0.203943 0.649323 0.176582
Si Si5 0.858839 0.676070 0.168218
Si Si6 0.316831 0.160735 0.345754
O O1 0.761338 0.574790 0.371595
O O2 0.809570 0.651614 0.250090
O O3 0.750552 0.745468 0.366624
O O4 0.006360 0.664499 0.358059
O O5 0.281062 0.893863 0.114488
O O6 0.500000 0.000000 0.085401
O O7 0.247043 0.062690 0.133012
O O8 0.261329 0.996588 0.000000
O O9 0.500000 0.500000 0.612806
O O10 0.679422 0.524530 0.500000
O O11 0.746160 0.408722 0.599276
O O12 0.306468 0.727402 0.147125
O O13 0.226095 0.633142 0.263026
O O14 0.035485 0.675434 0.158866
#
# Coordination Sequence:
#
# PCOD8226341 Si02
#       6
#     8   8   8   8   8   8
#     4  10  20  36  58  81 106 138 178 222 265 312
#     4   9  17  30  49  73 104 141 174 206 252 309
#     4  11  24  39  55  79 110 141 174 214 262 317
#     4   9  18  33  53  77 102 132 173 216 257 303
#     4   9  18  33  53  77 102 132 173 216 257 303
#     4  10  20  36  58  81 106 138 178 222 265 312
#
# _framework density 19.188227999999999
#
# number of rings (size 3 to 8) (size 9 to 14) (size 15 to 20)
#    0.000    2.333    0.000    2.500    0.000    6.667 
#    0.000    0.833    0.000    1.000    0.000    0.000 
#    0.000    0.000    0.000    0.000    0.000    0.000 
#
# Total GULP energy -595349.216004 kJ/mol
# GULP energy per Si atom -12403.108667 kJ/mol
# Density = 1.914455 g / cm^3
# Si number density = 19.188228 Si / 1000 Ang^3
#
#
#
# Elastic Constant Matrix: (Units=GPa)
#
#
# Indices 1 2 3 4 5 6 
#
# 1 70.8834 29.9855 18.7245 0.0000 0.0000 0.0000
# 2 29.9855 71.9596 9.3684 0.0000 0.0000 0.0000
# 3 18.7245 9.3684 39.6805 0.0000 0.0000 0.0000
# 4 0.0000 0.0000 0.0000 35.5893 0.0000 0.0000
# 5 0.0000 0.0000 0.0000 0.0000 18.3931 0.0000
# 6 0.0000 0.0000 0.0000 0.0000 0.0000 38.2894
#
#
#
# Elastic Compliance Matrix: (Units=1/GPa)
#
#
# Indices 1 2 3 4 5 6 
#
# 1 0.018983 -0.006958 -0.007315 0.000000 0.000000 0.000000
# 2 -0.006958 0.016888 -0.000704 0.000000 0.000000 0.000000
# 3 -0.007315 -0.000704 0.028819 0.000000 0.000000 0.000000
# 4 0.000000 0.000000 0.000000 0.028098 0.000000 0.000000
# 5 0.000000 0.000000 0.000000 0.000000 0.054368 0.000000
# 6 0.000000 0.000000 0.000000 0.000000 0.000000 0.026117
#
#
# Mechanical properties :
#
#
# Convention : Reuss Voigt Hill
#
# Bulk Modulus (GPa) = 28.78809 33.18670 30.98740
# Shear Modulus (GPa) = 23.27672 26.75069 25.01371
#
# Velocity S-wave (km/s) = 3.48670 3.73784 3.61445
# Velocity P-wave (km/s) = 5.58972 5.99679 5.79683
#
# Compressibility (1/GPa) = 0.03473658
#
# Stress axis : x y z
#
# Youngs Moduli (GPa) = 52.67741 59.21469 34.69891
#
# Poissons Ratio (x) = 0.41202 0.25383
# Poissons Ratio (y) = 0.36653 0.02442
# Poissons Ratio (z) = 0.38534 0.04167
#
# Static dielectric constant tensor:
#      x y z
#    x 3.413320 0.000000 0.000000 
#    y 0.000000 3.727210 0.000000 
#    z 0.000000 0.000000 3.490310 
# 
# 
# High freq. dielectric constant tensor:
#      x y z
#    x 1.733720 0.000000 0.000000 
#    y 0.000000 1.760520 0.000000 
#    z 0.000000 0.000000 1.737620 
# 
# From -- ./inp_files/20772.got.cif
#   From: 2010.03.12/outbox.cif.g09.slc.cpg/sg55_11_cif.got.tgz:20772.got - 2010.04.16 15:19:21.
