data_PCOD8226048
_publ_section_title
;
Structure prediction by ZEFSAII (Michael W. Deem and Ramdas Pophale) SiO2 
 PCOD8226048
Probable space group: P B A M
;
_chemical_formula_sum "Si O2"
_cell_formula_units_Z 56
_cell_length_a 16.845392
_cell_length_b 20.071846
_cell_length_c 8.712481
_cell_angle_alpha 90.000000
_cell_angle_beta 90.000000
_cell_angle_gamma 90.000000
_cell_volume 2945.847644
_symmetry_space_group_name_H-M "P B A M"
_symmetry_group_IT_number 55
_symmetry_cell_setting 'orthorhombic'
loop_
_space_group_symop_operation_xyz
x,y,z
-x,-y,z
1/2+x,1/2-y,-z
1/2-x,1/2+y,-z
-x,-y,-z
x,y,-z
1/2-x,1/2+y,z
1/2+x,1/2-y,z
loop_
_atom_site_type_symbol
_atom_site_label
_atom_site_fract_x
_atom_site_fract_y
_atom_site_fract_z
Si Si1 0.435334 0.554373 0.318464
Si Si2 0.354387 0.129022 0.320804
Si Si3 0.268766 0.736142 0.321988
Si Si4 0.521870 0.170944 0.316999
Si Si5 0.071770 0.194072 0.819890
Si Si6 0.239685 0.015319 0.683633
Si Si7 0.688872 0.120185 0.319916
O O1 0.500000 0.500000 0.267925
O O2 0.434206 0.564277 0.500000
O O3 0.460726 0.623909 0.242321
O O4 0.348854 0.531018 0.257322
O O5 0.359663 0.114934 0.500000
O O6 0.314193 0.200484 0.287281
O O7 0.443749 0.132457 0.253864
O O8 0.301530 0.069863 0.248653
O O9 0.294174 0.728217 0.500000
O O10 0.335768 0.700378 0.222329
O O11 0.260026 0.814025 0.278898
O O12 0.521194 0.175648 0.500000
O O13 0.521811 0.246104 0.254874
O O14 0.599034 0.130459 0.257146
O O15 0.060179 0.197098 0.000000
O O16 0.239459 0.015639 0.500000
O O17 0.268328 0.944186 0.752519
O O18 0.684038 0.108849 0.500000
#
# Coordination Sequence:
#
# PCOD8226048 Si02
#       7
#     8   8   8   8   8   8   8
#     4  10  20  34  55  79 104 136 175 220 266 317
#     4   9  16  27  50  77 102 132 171 219 264 308
#     4   9  16  31  53  75 100 133 172 217 260 308
#     4   9  18  32  51  77 103 134 173 215 263 312
#     4  11  21  34  52  73 102 139 175 216 261 308
#     4   9  16  28  48  78 107 132 166 213 265 312
#     4   8  15  26  44  72 106 132 159 206 261 311
#
# _framework density 19.009806999999999
#
# number of rings (size 3 to 8) (size 9 to 14) (size 15 to 20)
#    0.000    2.714    1.429    2.143    0.000    2.000 
#    0.000    7.857    0.000    3.429    0.000    4.000 
#    0.000    0.000    0.000    0.000    0.000    0.000 
#
# Total GULP energy -694141.760757 kJ/mol
# GULP energy per Si atom -12395.388585 kJ/mol
# Density = 1.896654 g / cm^3
# Si number density = 19.009807 Si / 1000 Ang^3
#
#
#
# Elastic Constant Matrix: (Units=GPa)
#
#
# Indices 1 2 3 4 5 6 
#
# 1 102.9433 67.5744 9.8619 0.0000 0.0000 0.0000
# 2 67.5744 145.7738 15.2264 0.0000 0.0000 0.0000
# 3 9.8619 15.2264 26.9615 0.0000 0.0000 0.0000
# 4 0.0000 0.0000 0.0000 6.1546 0.0000 0.0000
# 5 0.0000 0.0000 0.0000 0.0000 5.4096 0.0000
# 6 0.0000 0.0000 0.0000 0.0000 0.0000 30.3402
#
#
#
# Elastic Compliance Matrix: (Units=1/GPa)
#
#
# Indices 1 2 3 4 5 6 
#
# 1 0.014023 -0.006339 -0.001550 0.000000 0.000000 0.000000
# 2 -0.006339 0.010155 -0.003417 0.000000 0.000000 0.000000
# 3 -0.001550 -0.003417 0.039586 0.000000 0.000000 0.000000
# 4 0.000000 0.000000 0.000000 0.162480 0.000000 0.000000
# 5 0.000000 0.000000 0.000000 0.000000 0.184858 0.000000
# 6 0.000000 0.000000 0.000000 0.000000 0.000000 0.032960
#
#
# Mechanical properties :
#
#
# Convention : Reuss Voigt Hill
#
# Bulk Modulus (GPa) = 24.29843 51.22266 37.76055
# Shear Modulus (GPa) = 10.40819 20.58193 15.49506
#
# Velocity S-wave (km/s) = 2.34245 3.29401 2.85811
# Velocity P-wave (km/s) = 4.48619 6.43982 5.54964
#
# Compressibility (1/GPa) = 0.04115492
#
# Stress axis : x y z
#
# Youngs Moduli (GPa) = 71.30897 98.47165 25.26133
#
# Poissons Ratio (x) = 0.62419 0.03915
# Poissons Ratio (y) = 0.45201 0.08631
# Poissons Ratio (z) = 0.11050 0.33643
#
# Static dielectric constant tensor:
#      x y z
#    x 3.681160 0.000000 0.000000 
#    y 0.000000 3.767790 0.000000 
#    z 0.000000 0.000000 2.887910 
# 
# 
# High freq. dielectric constant tensor:
#      x y z
#    x 1.737110 0.000000 0.000000 
#    y 0.000000 1.749370 0.000000 
#    z 0.000000 0.000000 1.677300 
# 
# From -- ./inp_files/7884.got.cif
#   From: 2010.03.12/outbox.cif.g09.slc.cpg/sg55_4_cif.got.tgz:7884.got - 2010.04.16 15:19:21.
