data_PCOD8226187
_publ_section_title
;
Structure prediction by ZEFSAII (Michael W. Deem and Ramdas Pophale) SiO2 
 PCOD8226187
Probable space group: P B A M
;
_chemical_formula_sum "Si O2"
_cell_formula_units_Z 64
_cell_length_a 28.641675
_cell_length_b 12.485478
_cell_length_c 9.063378
_cell_angle_alpha 90.000000
_cell_angle_beta 90.000000
_cell_angle_gamma 90.000000
_cell_volume 3241.109318
_symmetry_space_group_name_H-M "P B A M"
_symmetry_group_IT_number 55
_symmetry_cell_setting 'orthorhombic'
loop_
_space_group_symop_operation_xyz
x,y,z
-x,-y,z
1/2+x,1/2-y,-z
1/2-x,1/2+y,-z
-x,-y,-z
x,y,-z
1/2-x,1/2+y,z
1/2+x,1/2-y,z
loop_
_atom_site_type_symbol
_atom_site_label
_atom_site_fract_x
_atom_site_fract_y
_atom_site_fract_z
Si Si1 0.432268 0.256747 0.674252
Si Si2 0.158108 0.714215 0.830341
Si Si3 0.704016 0.568058 0.175309
Si Si4 0.878968 0.663935 0.324747
Si Si5 0.193181 0.484014 0.829806
Si Si6 0.051141 0.971052 0.169317
Si Si7 0.017251 0.386033 0.675174
Si Si8 0.136077 0.118082 0.170016
O O1 0.428548 0.254663 0.500000
O O2 0.388965 0.190500 0.739622
O O3 0.428161 0.377131 0.731892
O O4 0.480680 0.203982 0.728598
O O5 0.184588 0.818534 0.765475
O O6 0.191687 0.612314 0.813349
O O7 0.144231 0.734180 0.000000
O O8 0.756771 0.553796 0.232106
O O9 0.672055 0.470376 0.233190
O O10 0.702823 0.567102 0.000000
O O11 0.877915 0.666598 0.500000
O O12 0.847094 0.567728 0.268016
O O13 0.931486 0.643905 0.264191
O O14 0.858570 0.775053 0.264515
O O15 0.186193 0.449692 0.000000
O O16 0.083538 0.074555 0.187752
O O17 0.049799 0.932089 0.000000
O O18 0.000000 0.000000 0.228271
O O19 0.018939 0.392107 0.500000
O O20 0.000000 0.500000 0.739439
O O21 0.147320 0.145093 0.000000
#
# Coordination Sequence:
#
# PCOD8226187 Si02
#       8
#     8   8   8   8   8   8   8   8
#     4  11  21  34  57  85 114 153 195 240 290 352
#     4  10  20  38  61  87 117 148 193 247 293 345
#     4   9  19  37  62  87 111 149 195 241 291 349
#     4  11  23  39  59  86 122 156 190 242 296 346
#     4  10  22  38  63  90 112 149 200 246 292 352
#     4  10  20  35  56  83 115 151 190 240 295 341
#     4   9  19  36  56  78 111 158 201 230 278 350
#     4  10  20  37  60  83 114 154 195 236 284 348
#
# _framework density 19.746326
#
# number of rings (size 3 to 8) (size 9 to 14) (size 15 to 20)
#    0.000    2.000    1.250    2.250    1.750    2.250 
#    0.000    3.125    0.000    4.500    0.000    0.000 
#    0.000    0.000    0.000    0.000    0.000    0.000 
#
# Total GULP energy -793800.661542 kJ/mol
# GULP energy per Si atom -12403.135337 kJ/mol
# Density = 1.970138 g / cm^3
# Si number density = 19.746326 Si / 1000 Ang^3
#
#
#
# Elastic Constant Matrix: (Units=GPa)
#
#
# Indices 1 2 3 4 5 6 
#
# 1 140.0924 47.2157 31.3924 0.0000 0.0000 0.0000
# 2 47.2157 119.6189 31.8607 0.0000 0.0000 0.0000
# 3 31.3924 31.8607 51.0341 0.0000 0.0000 0.0000
# 4 0.0000 0.0000 0.0000 23.5197 0.0000 0.0000
# 5 0.0000 0.0000 0.0000 0.0000 23.1412 0.0000
# 6 0.0000 0.0000 0.0000 0.0000 0.0000 34.8301
#
#
#
# Elastic Compliance Matrix: (Units=1/GPa)
#
#
# Indices 1 2 3 4 5 6 
#
# 1 0.008839 -0.002448 -0.003909 0.000000 0.000000 0.000000
# 2 -0.002448 0.010705 -0.005178 0.000000 0.000000 0.000000
# 3 -0.003909 -0.005178 0.025232 0.000000 0.000000 0.000000
# 4 0.000000 0.000000 0.000000 0.042518 0.000000 0.000000
# 5 0.000000 0.000000 0.000000 0.000000 0.043213 0.000000
# 6 0.000000 0.000000 0.000000 0.000000 0.000000 0.028711
#
#
# Mechanical properties :
#
#
# Convention : Reuss Voigt Hill
#
# Bulk Modulus (GPa) = 46.06769 59.07590 52.57180
# Shear Modulus (GPa) = 26.38222 29.64995 28.01609
#
# Velocity S-wave (km/s) = 3.65918 3.87918 3.77078
# Velocity P-wave (km/s) = 6.42131 7.07435 6.75572
#
# Compressibility (1/GPa) = 0.02170719
#
# Stress axis : x y z
#
# Youngs Moduli (GPa) = 113.13408 93.41328 39.63280
#
# Poissons Ratio (x) = 0.22865 0.15492
# Poissons Ratio (y) = 0.27693 0.20520
# Poissons Ratio (z) = 0.44224 0.48365
#
# Static dielectric constant tensor:
#      x y z
#    x 3.838420 0.000000 0.000000 
#    y 0.000000 3.607060 0.000000 
#    z 0.000000 0.000000 3.243160 
# 
# 
# High freq. dielectric constant tensor:
#      x y z
#    x 1.781580 0.000000 0.000000 
#    y 0.000000 1.778550 0.000000 
#    z 0.000000 0.000000 1.733800 
# 
# From -- ./inp_files/10738.got.cif
#   From: 2010.03.12/outbox.cif.g09.slc.cpg/sg55_6_cif.got.tgz:10738.got - 2010.04.16 15:19:21.
