data_PCOD8226233
_publ_section_title
;
Structure prediction by ZEFSAII (Michael W. Deem and Ramdas Pophale) SiO2 
 PCOD8226233
Probable space group: P B A M
;
_chemical_formula_sum "Si O2"
_cell_formula_units_Z 32
_cell_length_a 14.282030
_cell_length_b 12.330830
_cell_length_c 9.133169
_cell_angle_alpha 90.000000
_cell_angle_beta 90.000000
_cell_angle_gamma 90.000000
_cell_volume 1608.435853
_symmetry_space_group_name_H-M "P B A M"
_symmetry_group_IT_number 55
_symmetry_cell_setting 'orthorhombic'
loop_
_space_group_symop_operation_xyz
x,y,z
-x,-y,z
1/2+x,1/2-y,-z
1/2-x,1/2+y,-z
-x,-y,-z
x,y,-z
1/2-x,1/2+y,z
1/2+x,1/2-y,z
loop_
_atom_site_type_symbol
_atom_site_label
_atom_site_fract_x
_atom_site_fract_y
_atom_site_fract_z
Si Si1 0.102246 0.534734 0.331353
Si Si2 0.720016 0.541131 0.826745
Si Si3 0.560030 0.391680 0.838889
Si Si4 0.905469 0.213082 0.331265
O O1 0.116080 0.501211 0.500000
O O2 0.175917 0.468388 0.234969
O O3 0.117565 0.661832 0.308541
O O4 0.000000 0.500000 0.276205
O O5 0.663032 0.430517 0.785898
O O6 0.671510 0.646429 0.757710
O O7 0.722344 0.558616 0.000000
O O8 0.500000 0.500000 0.849804
O O9 0.511434 0.309095 0.726283
O O10 0.565390 0.336822 0.000000
O O11 0.901893 0.178136 0.500000
#
# Coordination Sequence:
#
# PCOD8226233 Si02
#       4
#     8   8   8   8
#     4  10  23  41  57  79 113 149 188 232 276 328
#     4  10  21  37  58  84 113 147 188 231 276 332
#     4   8  16  32  53  79 110 140 177 226 272 322
#     4  10  20  35  58  84 111 146 185 230 282 330
#
# _framework density 19.895105999999998
#
# number of rings (size 3 to 8) (size 9 to 14) (size 15 to 20)
#    0.000    2.500    0.000    3.000    0.000   10.000 
#    0.000    7.500    0.000    0.000    0.000    0.000 
#    0.000    0.000    0.000    0.000    0.000    0.000 
#
# Total GULP energy -396765.660286 kJ/mol
# GULP energy per Si atom -12398.926884 kJ/mol
# Density = 1.984982 g / cm^3
# Si number density = 19.895106 Si / 1000 Ang^3
#
#
#
# Elastic Constant Matrix: (Units=GPa)
#
#
# Indices 1 2 3 4 5 6 
#
# 1 149.3563 40.5851 68.4906 0.0000 0.0000 0.0000
# 2 40.5851 54.5397 46.2476 0.0000 0.0000 0.0000
# 3 68.4906 46.2476 111.2950 0.0000 0.0000 0.0000
# 4 0.0000 0.0000 0.0000 3.9210 0.0000 0.0000
# 5 0.0000 0.0000 0.0000 0.0000 36.6313 0.0000
# 6 0.0000 0.0000 0.0000 0.0000 0.0000 26.4954
#
#
#
# Elastic Compliance Matrix: (Units=1/GPa)
#
#
# Indices 1 2 3 4 5 6 
#
# 1 0.009704 -0.003331 -0.004588 0.000000 0.000000 0.000000
# 2 -0.003331 0.029454 -0.010190 0.000000 0.000000 0.000000
# 3 -0.004588 -0.010190 0.016043 0.000000 0.000000 0.000000
# 4 0.000000 0.000000 0.000000 0.255035 0.000000 0.000000
# 5 0.000000 0.000000 0.000000 0.000000 0.027299 0.000000
# 6 0.000000 0.000000 0.000000 0.000000 0.000000 0.037742
#
#
# Mechanical properties :
#
#
# Convention : Reuss Voigt Hill
#
# Bulk Modulus (GPa) = 52.67464 69.53749 61.10607
# Shear Modulus (GPa) = 11.96677 24.06741 18.01709
#
# Velocity S-wave (km/s) = 2.45520 3.48187 3.01259
# Velocity P-wave (km/s) = 5.87971 7.15489 6.54841
#
# Compressibility (1/GPa) = 0.01898447
#
# Stress axis : x y z
#
# Youngs Moduli (GPa) = 103.04556 33.95073 62.33380
#
# Poissons Ratio (x) = 0.11309 0.28598
# Poissons Ratio (y) = 0.34326 0.63515
# Poissons Ratio (z) = 0.47276 0.34594
#
# Static dielectric constant tensor:
#      x y z
#    x 3.917170 0.000000 0.000000 
#    y 0.000000 3.376860 0.000000 
#    z 0.000000 0.000000 3.664940 
# 
# 
# High freq. dielectric constant tensor:
#      x y z
#    x 1.779590 0.000000 0.000000 
#    y 0.000000 1.757010 0.000000 
#    z 0.000000 0.000000 1.778710 
# 
# From -- ./inp_files/3314.got.cif
#   From: 2010.03.12/outbox.cif.g09.slc.cpg/sg55_2_cif.got.tgz:3314.got - 2010.04.16 15:19:21.
