data_PCOD8226468
_publ_section_title
;
Structure prediction by ZEFSAII (Michael W. Deem and Ramdas Pophale) SiO2 
 PCOD8226468
Probable space group: P B A M
;
_chemical_formula_sum "Si O2"
_cell_formula_units_Z 48
_cell_length_a 13.254147
_cell_length_b 13.038892
_cell_length_c 15.836688
_cell_angle_alpha 90.000000
_cell_angle_beta 90.000000
_cell_angle_gamma 90.000000
_cell_volume 2736.886780
_symmetry_space_group_name_H-M "P B A M"
_symmetry_group_IT_number 55
_symmetry_cell_setting 'orthorhombic'
loop_
_space_group_symop_operation_xyz
x,y,z
-x,-y,z
1/2+x,1/2-y,-z
1/2-x,1/2+y,-z
-x,-y,-z
x,y,-z
1/2-x,1/2+y,z
1/2+x,1/2-y,z
loop_
_atom_site_type_symbol
_atom_site_label
_atom_site_fract_x
_atom_site_fract_y
_atom_site_fract_z
Si Si1 0.724470 0.104673 0.725037
Si Si2 0.670439 0.968116 0.000000
Si Si3 0.113892 0.534566 0.405279
Si Si4 0.071083 0.255903 0.819636
Si Si5 0.966428 0.658610 0.000000
Si Si6 0.769437 0.917476 0.828494
Si Si7 0.872586 0.286024 0.720642
O O1 0.637276 0.148708 0.786267
O O2 0.799841 0.193027 0.695165
O O3 0.678187 0.051564 0.642718
O O4 0.788252 0.021436 0.776967
O O5 0.572782 0.897415 0.000000
O O6 0.745036 0.946201 0.923569
O O7 0.630893 0.084521 0.000000
O O8 0.157317 0.544015 0.500000
O O9 0.117020 0.646395 0.363185
O O10 0.000000 0.500000 0.406182
O O11 0.130525 0.149384 0.818362
O O12 0.977811 0.243117 0.755806
O O13 0.037276 0.273231 0.915888
O O14 0.672680 0.856626 0.794172
#
# Coordination Sequence:
#
# PCOD8226468 Si02
#       7
#     8   4   8   8   4   8   8
#     4  10  21  37  57  83 109 148 187 230 277 336
#     4  11  19  32  52  79 108 146 194 243 287 325
#     4  10  20  36  62  90 113 141 179 225 279 339
#     4  11  20  36  54  79 113 152 189 237 283 327
#     4  11  21  30  56  79 110 150 190 245 285 321
#     4  10  21  34  54  78 110 149 192 234 279 333
#     4  10  21  36  58  81 111 146 189 225 278 335
#
# _framework density 17.538176
#
# number of rings (size 3 to 8) (size 9 to 14) (size 15 to 20)
#    0.000    1.667    5.000    0.500    0.000    1.333 
#    0.000    0.833    0.000    2.000    0.000    4.667 
#    0.000    0.000    0.000    0.000    0.000    0.000 
#
# Total GULP energy -595267.026939 kJ/mol
# GULP energy per Si atom -12401.396395 kJ/mol
# Density = 1.749826 g / cm^3
# Si number density = 17.538176 Si / 1000 Ang^3
#
#
#
# Elastic Constant Matrix: (Units=GPa)
#
#
# Indices 1 2 3 4 5 6 
#
# 1 69.9750 38.7471 39.7276 0.0000 0.0000 0.0000
# 2 38.7471 89.4910 57.0073 0.0000 0.0000 0.0000
# 3 39.7276 57.0073 143.1007 0.0000 0.0000 0.0000
# 4 0.0000 0.0000 0.0000 11.3497 0.0000 0.0000
# 5 0.0000 0.0000 0.0000 0.0000 35.5102 0.0000
# 6 0.0000 0.0000 0.0000 0.0000 0.0000 26.8663
#
#
#
# Elastic Compliance Matrix: (Units=1/GPa)
#
#
# Indices 1 2 3 4 5 6 
#
# 1 0.019578 -0.006719 -0.002758 0.000000 0.000000 0.000000
# 2 -0.006719 0.017281 -0.005019 0.000000 0.000000 0.000000
# 3 -0.002758 -0.005019 0.009753 0.000000 0.000000 0.000000
# 4 0.000000 0.000000 0.000000 0.088108 0.000000 0.000000
# 5 0.000000 0.000000 0.000000 0.000000 0.028161 0.000000
# 6 0.000000 0.000000 0.000000 0.000000 0.000000 0.037221
#
#
# Mechanical properties :
#
#
# Convention : Reuss Voigt Hill
#
# Bulk Modulus (GPa) = 56.75849 63.72563 60.24206
# Shear Modulus (GPa) = 21.27960 25.88424 23.58192
#
# Velocity S-wave (km/s) = 3.48707 3.84589 3.67086
# Velocity P-wave (km/s) = 6.97466 7.49235 7.23814
#
# Compressibility (1/GPa) = 0.01761851
#
# Stress axis : x y z
#
# Youngs Moduli (GPa) = 51.07891 57.86831 102.53126
#
# Poissons Ratio (x) = 0.38884 0.28281
# Poissons Ratio (y) = 0.34322 0.51457
# Poissons Ratio (z) = 0.14089 0.29042
#
# Static dielectric constant tensor:
#      x y z
#    x 3.134360 0.000000 0.000000 
#    y 0.000000 3.297330 0.000000 
#    z 0.000000 0.000000 3.372470 
# 
# 
# High freq. dielectric constant tensor:
#      x y z
#    x 1.671120 0.000000 0.000000 
#    y 0.000000 1.679960 0.000000 
#    z 0.000000 0.000000 1.678280 
# 
# From -- ./inp_files/18313.got.cif
#   From: 2010.03.12/outbox.cif.g09.slc.cpg/sg55_10_cif.got.tgz:18313.got - 2010.04.16 15:19:21.
