data_PCOD8226086
_publ_section_title
;
Structure prediction by ZEFSAII (Michael W. Deem and Ramdas Pophale) SiO2 
 PCOD8226086
Probable space group: P B A M
;
_chemical_formula_sum "Si O2"
_cell_formula_units_Z 64
_cell_length_a 24.640698
_cell_length_b 14.218337
_cell_length_c 8.888531
_cell_angle_alpha 90.000000
_cell_angle_beta 90.000000
_cell_angle_gamma 90.000000
_cell_volume 3114.094597
_symmetry_space_group_name_H-M "P B A M"
_symmetry_group_IT_number 55
_symmetry_cell_setting 'orthorhombic'
loop_
_space_group_symop_operation_xyz
x,y,z
-x,-y,z
1/2+x,1/2-y,-z
1/2-x,1/2+y,-z
-x,-y,-z
x,y,-z
1/2-x,1/2+y,z
1/2+x,1/2-y,z
loop_
_atom_site_type_symbol
_atom_site_label
_atom_site_fract_x
_atom_site_fract_y
_atom_site_fract_z
Si Si1 0.299258 0.814118 0.676814
Si Si2 0.411283 0.714008 0.325500
Si Si3 0.673161 0.997704 0.821909
Si Si4 0.938795 0.978919 0.177419
Si Si5 0.444729 0.037745 0.824363
Si Si6 0.300845 0.215888 0.178242
Si Si7 0.387111 0.353110 0.330242
Si Si8 0.975469 0.290247 0.333710
O O1 0.287271 0.813236 0.500000
O O2 0.357849 0.771867 0.717024
O O3 0.257292 0.748184 0.762764
O O4 0.293402 0.921522 0.735950
O O5 0.411828 0.683047 0.500000
O O6 0.417600 0.623296 0.222237
O O7 0.461634 0.782401 0.288663
O O8 0.610480 0.010741 0.768182
O O9 0.692482 0.893449 0.774031
O O10 0.679917 0.011720 0.000000
O O11 0.893242 0.048768 0.244273
O O12 0.937749 0.989642 0.000000
O O13 0.000000 0.000000 0.237578
O O14 0.442574 0.147778 0.786150
O O15 0.500000 0.000000 0.744833
O O16 0.448447 0.023298 0.000000
O O17 0.346193 0.281899 0.250760
O O18 0.304682 0.226552 0.000000
O O19 0.366209 0.370923 0.500000
O O20 0.447903 0.311559 0.330362
O O21 0.969621 0.335222 0.500000
#
# Coordination Sequence:
#
# PCOD8226086 Si02
#       8
#     8   8   8   8   8   8   8   8
#     4  11  25  43  66  94 125 163 211 261 309 365
#     4  10  22  41  61  88 127 169 211 260 316 373
#     4  10  22  41  64  91 124 164 204 250 312 369
#     4  11  23  37  59  92 128 169 214 260 314 376
#     4  10  20  34  56  88 124 161 201 247 304 370
#     4  11  24  44  68  91 124 164 208 259 310 369
#     4  11  22  38  63  91 122 161 206 256 311 370
#     4  10  20  34  57  87 120 159 201 250 309 368
#
# _framework density 20.551721000000001
#
# number of rings (size 3 to 8) (size 9 to 14) (size 15 to 20)
#    0.000    1.500    2.500    2.250    0.000    5.250 
#    0.000    2.500    0.000    0.000    0.000    0.000 
#    0.000    0.000    0.000    0.000    0.000    0.000 
#
# Total GULP energy -793522.036497 kJ/mol
# GULP energy per Si atom -12398.781820 kJ/mol
# Density = 2.050494 g / cm^3
# Si number density = 20.551721 Si / 1000 Ang^3
#
#
#
# Elastic Constant Matrix: (Units=GPa)
#
#
# Indices 1 2 3 4 5 6 
#
# 1 90.0062 27.3400 31.7793 0.0000 0.0000 0.0000
# 2 27.3400 98.7355 35.7360 0.0000 0.0000 0.0000
# 3 31.7793 35.7360 63.3494 0.0000 0.0000 0.0000
# 4 0.0000 0.0000 0.0000 35.9321 0.0000 0.0000
# 5 0.0000 0.0000 0.0000 0.0000 30.9823 0.0000
# 6 0.0000 0.0000 0.0000 0.0000 0.0000 31.6692
#
#
#
# Elastic Compliance Matrix: (Units=1/GPa)
#
#
# Indices 1 2 3 4 5 6 
#
# 1 0.013711 -0.001642 -0.005951 0.000000 0.000000 0.000000
# 2 -0.001642 0.012923 -0.006466 0.000000 0.000000 0.000000
# 3 -0.005951 -0.006466 0.022419 0.000000 0.000000 0.000000
# 4 0.000000 0.000000 0.000000 0.027830 0.000000 0.000000
# 5 0.000000 0.000000 0.000000 0.000000 0.032276 0.000000
# 6 0.000000 0.000000 0.000000 0.000000 0.000000 0.031576
#
#
# Mechanical properties :
#
#
# Convention : Reuss Voigt Hill
#
# Bulk Modulus (GPa) = 47.77290 49.08906 48.43098
# Shear Modulus (GPa) = 28.43606 30.19910 29.31758
#
# Velocity S-wave (km/s) = 3.72376 3.83746 3.78104
# Velocity P-wave (km/s) = 6.46407 6.60093 6.53286
#
# Compressibility (1/GPa) = 0.02093237
#
# Stress axis : x y z
#
# Youngs Moduli (GPa) = 72.93647 77.38013 44.60579
#
# Poissons Ratio (x) = 0.12709 0.26547
# Poissons Ratio (y) = 0.11979 0.28843
# Poissons Ratio (z) = 0.43407 0.50035
#
# Static dielectric constant tensor:
#      x y z
#    x 3.886670 0.000000 0.000000 
#    y 0.000000 3.650640 0.000000 
#    z 0.000000 0.000000 3.626650 
# 
# 
# High freq. dielectric constant tensor:
#      x y z
#    x 1.806260 0.000000 0.000000 
#    y 0.000000 1.806780 0.000000 
#    z 0.000000 0.000000 1.800260 
# 
# From -- ./inp_files/9666.got.cif
#   From: 2010.03.12/outbox.cif.g09.slc.cpg/sg55_5_cif.got.tgz:9666.got - 2010.04.16 15:19:21.
