data_PCOD8226322
_publ_section_title
;
Structure prediction by ZEFSAII (Michael W. Deem and Ramdas Pophale) SiO2 
 PCOD8226322
Probable space group: P B A M
;
_chemical_formula_sum "Si O2"
_cell_formula_units_Z 64
_cell_length_a 12.427835
_cell_length_b 28.959302
_cell_length_c 9.085956
_cell_angle_alpha 90.000000
_cell_angle_beta 90.000000
_cell_angle_gamma 90.000000
_cell_volume 3270.048530
_symmetry_space_group_name_H-M "P B A M"
_symmetry_group_IT_number 55
_symmetry_cell_setting 'orthorhombic'
loop_
_space_group_symop_operation_xyz
x,y,z
-x,-y,z
1/2+x,1/2-y,-z
1/2-x,1/2+y,-z
-x,-y,-z
x,y,-z
1/2-x,1/2+y,z
1/2+x,1/2-y,z
loop_
_atom_site_type_symbol
_atom_site_label
_atom_site_fract_x
_atom_site_fract_y
_atom_site_fract_z
Si Si1 0.122677 0.999971 0.174032
Si Si2 0.998751 0.554501 0.329760
Si Si3 0.786376 0.174420 0.666729
Si Si4 0.295367 0.681035 0.164420
Si Si5 0.718980 0.919244 0.825658
Si Si6 0.778447 0.582529 0.824782
Si Si7 0.592267 0.244912 0.663832
Si Si8 0.899321 0.249168 0.163319
O O1 0.190917 0.044259 0.228565
O O2 0.189778 0.955143 0.225367
O O3 0.113538 0.001102 0.000000
O O4 0.000000 0.000000 0.239876
O O5 0.994568 0.570125 0.500000
O O6 0.106234 0.574047 0.256037
O O7 0.000000 0.500000 0.313619
O O8 0.893725 0.573592 0.248307
O O9 0.813355 0.158908 0.500000
O O10 0.766216 0.131036 0.770106
O O11 0.685512 0.208038 0.669667
O O12 0.882738 0.203904 0.736001
O O13 0.263826 0.630532 0.220776
O O14 0.378453 0.703969 0.276722
O O15 0.193207 0.713757 0.162340
O O16 0.345018 0.677959 0.000000
O O17 0.697850 0.923402 0.000000
O O18 0.793477 0.582736 0.000000
O O19 0.548082 0.251352 0.500000
O O20 0.500747 0.223987 0.768646
O O21 0.923983 0.231379 0.000000
#
# Coordination Sequence:
#
# PCOD8226322 Si02
#       8
#     8   8   8   8   8   8   8   8
#     4   9  19  36  58  85 117 151 190 237 291 347
#     4  11  23  38  58  85 121 158 195 244 298 351
#     4  10  22  39  57  83 118 154 194 238 292 353
#     4   9  20  36  56  84 112 146 191 243 289 337
#     4  10  20  37  60  87 117 152 197 244 293 351
#     4  11  22  37  61  89 117 153 198 244 296 353
#     4  10  21  37  57  81 114 155 191 233 290 349
#     4  10  20  36  57  82 113 149 195 245 289 340
#
# _framework density 19.571573999999998
#
# number of rings (size 3 to 8) (size 9 to 14) (size 15 to 20)
#    0.000    2.000    1.250    1.875    1.750    4.000 
#    0.000    2.500    0.000    3.375    0.000    0.000 
#    0.000    0.000    0.000    0.000    0.000    0.000 
#
# Total GULP energy -793432.735687 kJ/mol
# GULP energy per Si atom -12397.386495 kJ/mol
# Density = 1.952703 g / cm^3
# Si number density = 19.571574 Si / 1000 Ang^3
#
#
#
# Elastic Constant Matrix: (Units=GPa)
#
#
# Indices 1 2 3 4 5 6 
#
# 1 90.8757 19.4398 33.3205 0.0000 0.0000 0.0000
# 2 19.4398 105.3429 31.5887 0.0000 0.0000 0.0000
# 3 33.3205 31.5887 89.5427 0.0000 0.0000 0.0000
# 4 0.0000 0.0000 0.0000 33.5614 0.0000 0.0000
# 5 0.0000 0.0000 0.0000 0.0000 24.9258 0.0000
# 6 0.0000 0.0000 0.0000 0.0000 0.0000 -42.2562
#
#
#
# Elastic Compliance Matrix: (Units=1/GPa)
#
#
# Indices 1 2 3 4 5 6 
#
# 1 0.012845 -0.001048 -0.004410 0.000000 0.000000 0.000000
# 2 -0.001048 0.010701 -0.003385 0.000000 0.000000 0.000000
# 3 -0.004410 -0.003385 0.014003 0.000000 0.000000 0.000000
# 4 0.000000 0.000000 0.000000 0.029796 0.000000 0.000000
# 5 0.000000 0.000000 0.000000 0.000000 0.040119 0.000000
# 6 0.000000 0.000000 0.000000 0.000000 0.000000 -0.023665
#
#
# Mechanical properties :
#
#
# Convention : Reuss Voigt Hill
#
# Bulk Modulus (GPa) = 50.34506 50.49547 50.42027
# Shear Modulus (GPa) = 46.25016 16.67369 31.46193
#
# Velocity S-wave (km/s) = 4.86648 2.92196 4.01375
# Velocity P-wave (km/s) = 7.57339 6.10248 6.87737
#
# Compressibility (1/GPa) = 0.01986292
#
# Stress axis : x y z
#
# Youngs Moduli (GPa) = 77.84951 93.44657 71.41204
#
# Poissons Ratio (x) = 0.09793 0.31495
# Poissons Ratio (y) = 0.08158 0.24175
# Poissons Ratio (z) = 0.34334 0.31634
#
# Static dielectric constant tensor:
#      x y z
#    x 3.037760 0.000000 0.000000 
#    y 0.000000 3.608760 0.000000 
#    z 0.000000 0.000000 3.698500 
# 
# 
# High freq. dielectric constant tensor:
#      x y z
#    x 1.769020 0.000000 0.000000 
#    y 0.000000 1.763730 0.000000 
#    z 0.000000 0.000000 1.757910 
# 
# From -- ./inp_files/4658.got.cif
#   From: 2010.03.12/outbox.cif.g09.slc.cpg/sg55_3_cif.got.tgz:4658.got - 2010.04.16 15:19:21.
