data_PCOD8226497
_publ_section_title
;
Structure prediction by ZEFSAII (Michael W. Deem and Ramdas Pophale) SiO2 
 PCOD8226497
Probable space group: P B A M
;
_chemical_formula_sum "Si O2"
_cell_formula_units_Z 56
_cell_length_a 14.766274
_cell_length_b 8.736198
_cell_length_c 21.518232
_cell_angle_alpha 90.000000
_cell_angle_beta 90.000000
_cell_angle_gamma 90.000000
_cell_volume 2775.875456
_symmetry_space_group_name_H-M "P B A M"
_symmetry_group_IT_number 55
_symmetry_cell_setting 'orthorhombic'
loop_
_space_group_symop_operation_xyz
x,y,z
-x,-y,z
1/2+x,1/2-y,-z
1/2-x,1/2+y,-z
-x,-y,-z
x,y,-z
1/2-x,1/2+y,z
1/2+x,1/2-y,z
loop_
_atom_site_type_symbol
_atom_site_label
_atom_site_fract_x
_atom_site_fract_y
_atom_site_fract_z
Si Si1 0.130665 0.808577 0.500000
Si Si2 0.319386 0.678807 0.366162
Si Si3 0.026510 0.324401 0.709107
Si Si4 0.628374 0.667096 0.636284
Si Si5 0.967268 0.672460 0.851970
Si Si6 0.306805 0.917749 0.071270
Si Si7 0.203564 0.129439 0.500000
Si Si8 0.128323 0.756165 0.928913
O O1 0.079842 0.821540 0.433116
O O2 0.188652 0.654551 0.500000
O O3 0.202575 0.946823 0.500000
O O4 0.380299 0.794553 0.326916
O O5 0.213622 0.718864 0.356723
O O6 0.338410 0.503413 0.346913
O O7 0.344246 0.700186 0.439053
O O8 0.947505 0.213923 0.685103
O O9 0.042765 0.281621 0.780537
O O10 0.000000 0.500000 0.699301
O O11 0.041409 0.781454 0.884942
O O12 0.000000 0.500000 0.860516
O O13 0.870636 0.688551 0.885813
O O14 0.201900 0.885747 0.087254
O O15 0.323079 0.095128 0.084338
O O16 0.327618 0.873133 0.000000
O O17 0.095006 0.765854 0.000000
#
# Coordination Sequence:
#
# PCOD8226497 Si02
#       8
#     4   8   8   8   8   8   4   8
#     4   8  16  31  54  79 102 130 168 217 270 319
#     4  10  20  37  58  80 106 137 175 221 271 319
#     4  11  23  37  52  76 109 146 185 218 256 311
#     4  10  20  37  58  80 106 137 175 221 271 319
#     4   9  19  35  53  73 102 140 177 210 248 302
#     4   9  17  32  55  80 103 130 167 211 258 305
#     4   8  16  31  54  79 102 130 168 217 270 319
#     4   9  17  32  55  80 103 130 167 211 258 305
#
# _framework density 20.173815999999999
#
# number of rings (size 3 to 8) (size 9 to 14) (size 15 to 20)
#    0.000    2.571    0.000    1.714    0.000    4.571 
#    0.000    9.286    0.000    3.429    0.000    0.000 
#    0.000    0.000    0.000    0.000    0.000    0.000 
#
# Total GULP energy -694114.934691 kJ/mol
# GULP energy per Si atom -12394.909548 kJ/mol
# Density = 2.012790 g / cm^3
# Si number density = 20.173816 Si / 1000 Ang^3
#
#
#
# Elastic Constant Matrix: (Units=GPa)
#
#
# Indices 1 2 3 4 5 6 
#
# 1 47.5179 -2.0292 20.8099 0.0000 0.0000 0.0000
# 2 -2.0292 38.2499 17.0509 0.0000 0.0000 0.0000
# 3 20.8099 17.0509 87.3362 0.0000 0.0000 0.0000
# 4 0.0000 0.0000 0.0000 21.0985 0.0000 0.0000
# 5 0.0000 0.0000 0.0000 0.0000 27.6683 0.0000
# 6 0.0000 0.0000 0.0000 0.0000 0.0000 31.6290
#
#
#
# Elastic Compliance Matrix: (Units=1/GPa)
#
#
# Indices 1 2 3 4 5 6 
#
# 1 0.024098 0.004204 -0.006563 0.000000 0.000000 0.000000
# 2 0.004204 0.029369 -0.006736 0.000000 0.000000 0.000000
# 3 -0.006563 -0.006736 0.014329 0.000000 0.000000 0.000000
# 4 0.000000 0.000000 0.000000 0.047397 0.000000 0.000000
# 5 0.000000 0.000000 0.000000 0.000000 0.036142 0.000000
# 6 0.000000 0.000000 0.000000 0.000000 0.000000 0.031617
#
#
# Mechanical properties :
#
#
# Convention : Reuss Voigt Hill
#
# Bulk Modulus (GPa) = 20.15813 27.19636 23.67724
# Shear Modulus (GPa) = 22.96983 25.23066 24.10024
#
# Velocity S-wave (km/s) = 3.37797 3.54031 3.46009
# Velocity P-wave (km/s) = 5.02276 5.49745 5.26546
#
# Compressibility (1/GPa) = 0.04960778
#
# Stress axis : x y z
#
# Youngs Moduli (GPa) = 41.49666 34.04900 69.78980
#
# Poissons Ratio (x) = -0.14314 0.45801
# Poissons Ratio (y) = -0.17445 0.47007
# Poissons Ratio (z) = 0.27233 0.22934
#
# Static dielectric constant tensor:
#      x y z
#    x 3.535970 0.000000 0.000000 
#    y 0.000000 3.530620 0.000000 
#    z 0.000000 0.000000 3.796440 
# 
# 
# High freq. dielectric constant tensor:
#      x y z
#    x 1.775570 0.000000 0.000000 
#    y 0.000000 1.775390 0.000000 
#    z 0.000000 0.000000 1.787800 
# 
# From -- ./inp_files/22654.got.cif
#   From: 2010.03.12/outbox.cif.g09.slc.cpg/sg55_12_cif.got.tgz:22654.got - 2010.04.16 15:19:21.
