data_PCOD8226314
_publ_section_title
;
Structure prediction by ZEFSAII (Michael W. Deem and Ramdas Pophale) SiO2 
 PCOD8226314
Probable space group: P B A M
;
_chemical_formula_sum "Si O2"
_cell_formula_units_Z 40
_cell_length_a 9.556404
_cell_length_b 25.583276
_cell_length_c 8.436309
_cell_angle_alpha 90.000000
_cell_angle_beta 90.000000
_cell_angle_gamma 90.000000
_cell_volume 2062.543591
_symmetry_space_group_name_H-M "P B A M"
_symmetry_group_IT_number 55
_symmetry_cell_setting 'orthorhombic'
loop_
_space_group_symop_operation_xyz
x,y,z
-x,-y,z
1/2+x,1/2-y,-z
1/2-x,1/2+y,-z
-x,-y,-z
x,y,-z
1/2-x,1/2+y,z
1/2+x,1/2-y,z
loop_
_atom_site_type_symbol
_atom_site_label
_atom_site_fract_x
_atom_site_fract_y
_atom_site_fract_z
Si Si1 0.842513 0.501266 0.310970
Si Si2 0.153212 0.091303 0.686666
Si Si3 0.339473 0.401661 0.688303
Si Si4 0.666985 0.291234 0.316610
Si Si5 0.867047 0.207499 0.182365
O O1 0.843804 0.498659 0.500000
O O2 0.757390 0.451830 0.239256
O O3 0.768585 0.554396 0.253276
O O4 0.000000 0.500000 0.243319
O O5 0.151322 0.083977 0.500000
O O6 0.206171 0.149281 0.731368
O O7 0.994910 0.082554 0.748417
O O8 0.336649 0.394825 0.500000
O O9 0.294449 0.346916 0.766606
O O10 0.700241 0.280092 0.500000
O O11 0.756593 0.253508 0.206931
O O12 0.502937 0.281588 0.288650
O O13 0.911920 0.205325 0.000000
#
# Coordination Sequence:
#
# PCOD8226314 Si02
#       5
#     8   8   8   8   8
#     4   9  16  26  45  76 105 127 163 219 272 310
#     4   8  15  28  47  71  98 131 171 215 259 308
#     4   9  17  31  51  72  99 137 176 211 255 317
#     4  10  20  36  57  79 105 141 185 224 264 320
#     4  11  22  36  54  79 111 142 177 223 274 320
#
# _framework density 19.393529000000001
#
# number of rings (size 3 to 8) (size 9 to 14) (size 15 to 20)
#    0.000    2.600    0.000    4.200    0.000    4.000 
#    0.000    4.000    0.000   11.400    0.000    0.000 
#    0.000    0.000    0.000    0.000    0.000    0.000 
#
# Total GULP energy -495984.376571 kJ/mol
# GULP energy per Si atom -12399.609414 kJ/mol
# Density = 1.934939 g / cm^3
# Si number density = 19.393529 Si / 1000 Ang^3
#
#
#
# Elastic Constant Matrix: (Units=GPa)
#
#
# Indices 1 2 3 4 5 6 
#
# 1 98.9608 69.1142 11.8910 0.0000 0.0000 0.0000
# 2 69.1142 128.0991 24.3088 0.0000 0.0000 0.0000
# 3 11.8910 24.3088 37.8836 0.0000 0.0000 0.0000
# 4 0.0000 0.0000 0.0000 7.0509 0.0000 0.0000
# 5 0.0000 0.0000 0.0000 0.0000 14.1360 0.0000
# 6 0.0000 0.0000 0.0000 0.0000 0.0000 37.9780
#
#
#
# Elastic Compliance Matrix: (Units=1/GPa)
#
#
# Indices 1 2 3 4 5 6 
#
# 1 0.016227 -0.008868 0.000597 0.000000 0.000000 0.000000
# 2 -0.008868 0.013736 -0.006030 0.000000 0.000000 0.000000
# 3 0.000597 -0.006030 0.030079 0.000000 0.000000 0.000000
# 4 0.000000 0.000000 0.000000 0.141825 0.000000 0.000000
# 5 0.000000 0.000000 0.000000 0.000000 0.070741 0.000000
# 6 0.000000 0.000000 0.000000 0.000000 0.000000 0.026331
#
#
# Mechanical properties :
#
#
# Convention : Reuss Voigt Hill
#
# Bulk Modulus (GPa) = 31.80805 52.84126 42.32465
# Shear Modulus (GPa) = 14.79200 22.47496 18.63348
#
# Velocity S-wave (km/s) = 2.76475 3.40794 3.10305
# Velocity P-wave (km/s) = 5.16031 6.54151 5.89153
#
# Compressibility (1/GPa) = 0.03143859
#
# Stress axis : x y z
#
# Youngs Moduli (GPa) = 61.62605 72.80375 33.24630
#
# Poissons Ratio (x) = 0.64565 -0.01986
# Poissons Ratio (y) = 0.54652 0.20048
# Poissons Ratio (z) = -0.03680 0.43901
#
# Static dielectric constant tensor:
#      x y z
#    x 3.619490 0.000000 0.000000 
#    y 0.000000 3.755000 0.000000 
#    z 0.000000 0.000000 3.045190 
# 
# 
# High freq. dielectric constant tensor:
#      x y z
#    x 1.748450 0.000000 0.000000 
#    y 0.000000 1.767060 0.000000 
#    z 0.000000 0.000000 1.713180 
# 
# From -- ./inp_files/2286.got.cif
#   From: 2010.03.12/outbox.cif.g09.slc.cpg/sg55_2_cif.got.tgz:2286.got - 2010.04.16 15:19:21.
