data_PCOD8226973
_publ_section_title
;
Structure prediction by ZEFSAII (Michael W. Deem and Ramdas Pophale) SiO2 
 PCOD8226973
Probable space group: P B A M
;
_chemical_formula_sum "Si O2"
_cell_formula_units_Z 48
_cell_length_a 14.842230
_cell_length_b 18.318799
_cell_length_c 9.532555
_cell_angle_alpha 90.000000
_cell_angle_beta 90.000000
_cell_angle_gamma 90.000000
_cell_volume 2591.823805
_symmetry_space_group_name_H-M "P B A M"
_symmetry_group_IT_number 55
_symmetry_cell_setting 'orthorhombic'
loop_
_space_group_symop_operation_xyz
x,y,z
-x,-y,z
1/2+x,1/2-y,-z
1/2-x,1/2+y,-z
-x,-y,-z
x,y,-z
1/2-x,1/2+y,z
1/2+x,1/2-y,z
loop_
_atom_site_type_symbol
_atom_site_label
_atom_site_fract_x
_atom_site_fract_y
_atom_site_fract_z
Si Si1 0.051296 0.427298 0.661829
Si Si2 0.301847 0.265803 0.160496
Si Si3 0.099957 0.023672 0.335046
Si Si4 0.996263 0.288254 0.835477
Si Si5 0.861778 0.834031 0.160060
Si Si6 0.244254 0.904712 0.661965
O O1 0.031153 0.408952 0.500000
O O2 0.157574 0.439416 0.687142
O O3 0.000000 0.500000 0.709785
O O4 0.013163 0.362312 0.754074
O O5 0.400827 0.244390 0.211914
O O6 0.239686 0.194632 0.177653
O O7 0.262891 0.330646 0.252538
O O8 0.302389 0.292892 0.000000
O O9 0.107504 0.037701 0.500000
O O10 0.125438 0.097763 0.259412
O O11 0.169329 0.961625 0.284756
O O12 0.000000 0.000000 0.290532
O O13 0.071161 0.229834 0.791906
O O14 0.998903 0.305964 0.000000
O O15 0.881985 0.857222 0.000000
O O16 0.228046 0.885402 0.500000
#
# Coordination Sequence:
#
# PCOD8226973 Si02
#       6
#     8   8   8   8   8   8
#     4  10  22  38  56  81 113 149 189 231 276 331
#     4  10  21  37  58  84 112 144 184 230 278 331
#     4  10  22  38  57  83 114 146 185 231 276 329
#     4  10  21  38  59  83 112 145 185 232 279 331
#     4  10  21  37  56  83 114 143 183 229 275 331
#     4  10  21  38  58  83 114 149 188 228 276 333
#
# _framework density 18.519777999999999
#
# number of rings (size 3 to 8) (size 9 to 14) (size 15 to 20)
#    0.000    2.000    1.667    1.000    2.333    3.333 
#    0.000    0.000    0.000    0.000    0.000    0.000 
#    0.000    0.000    0.000    0.000    0.000    0.000 
#
# Total GULP energy -595436.395713 kJ/mol
# GULP energy per Si atom -12404.924911 kJ/mol
# Density = 1.847763 g / cm^3
# Si number density = 18.519778 Si / 1000 Ang^3
#
#
#
# Elastic Constant Matrix: (Units=GPa)
#
#
# Indices 1 2 3 4 5 6 
#
# 1 104.9637 29.8789 25.8460 0.0000 0.0000 0.0000
# 2 29.8789 103.7558 48.7036 0.0000 0.0000 0.0000
# 3 25.8460 48.7036 50.5306 0.0000 0.0000 0.0000
# 4 0.0000 0.0000 0.0000 43.7171 0.0000 0.0000
# 5 0.0000 0.0000 0.0000 0.0000 22.3510 0.0000
# 6 0.0000 0.0000 0.0000 0.0000 0.0000 32.3483
#
#
#
# Elastic Compliance Matrix: (Units=1/GPa)
#
#
# Indices 1 2 3 4 5 6 
#
# 1 0.010952 -0.000958 -0.004679 0.000000 0.000000 0.000000
# 2 -0.000958 0.017685 -0.016556 0.000000 0.000000 0.000000
# 3 -0.004679 -0.016556 0.038141 0.000000 0.000000 0.000000
# 4 0.000000 0.000000 0.000000 0.022874 0.000000 0.000000
# 5 0.000000 0.000000 0.000000 0.000000 0.044741 0.000000
# 6 0.000000 0.000000 0.000000 0.000000 0.000000 0.030914
#
#
# Mechanical properties :
#
#
# Convention : Reuss Voigt Hill
#
# Bulk Modulus (GPa) = 44.65720 52.01191 48.33455
# Shear Modulus (GPa) = 23.02498 30.00472 26.51485
#
# Velocity S-wave (km/s) = 3.52982 4.02947 3.78789
# Velocity P-wave (km/s) = 6.38580 7.05651 6.72952
#
# Compressibility (1/GPa) = 0.02239281
#
# Stress axis : x y z
#
# Youngs Moduli (GPa) = 91.30939 56.54414 26.21877
#
# Poissons Ratio (x) = 0.05414 0.12267
# Poissons Ratio (y) = 0.08743 0.43408
# Poissons Ratio (z) = 0.42722 0.93615
#
# Static dielectric constant tensor:
#      x y z
#    x 0.047160 0.000000 0.000000 
#    y 0.000000 3.281120 0.000000 
#    z 0.000000 0.000000 3.339900 
# 
# 
# High freq. dielectric constant tensor:
#      x y z
#    x 1.740060 0.000000 0.000000 
#    y 0.000000 1.717090 0.000000 
#    z 0.000000 0.000000 1.713330 
# 
# From -- ./inp_files/5556.got.cif
#   From: 2010.03.12/outbox.cif.g09.slc.cpg/sg55_3_cif.got.tgz:5556.got - 2010.04.16 15:19:21.
