data_PCOD8226000
_publ_section_title
;
Structure prediction by ZEFSAII (Michael W. Deem and Ramdas Pophale) SiO2 
 PCOD8226000
Probable space group: P B A M
;
_chemical_formula_sum "Si O2"
_cell_formula_units_Z 56
_cell_length_a 13.913795
_cell_length_b 23.384787
_cell_length_c 8.844515
_cell_angle_alpha 90.000000
_cell_angle_beta 90.000000
_cell_angle_gamma 90.000000
_cell_volume 2877.749861
_symmetry_space_group_name_H-M "P B A M"
_symmetry_group_IT_number 55
_symmetry_cell_setting 'orthorhombic'
loop_
_space_group_symop_operation_xyz
x,y,z
-x,-y,z
1/2+x,1/2-y,-z
1/2-x,1/2+y,-z
-x,-y,-z
x,y,-z
1/2-x,1/2+y,z
1/2+x,1/2-y,z
loop_
_atom_site_type_symbol
_atom_site_label
_atom_site_fract_x
_atom_site_fract_y
_atom_site_fract_z
Si Si1 0.888717 0.060133 0.835603
Si Si2 0.971016 0.172403 0.821134
Si Si3 0.811796 0.827836 0.176429
Si Si4 0.778455 0.957346 0.819533
Si Si5 0.394083 0.977777 0.675665
Si Si6 0.709253 0.726456 0.678270
Si Si7 0.189486 0.375015 0.832968
O O1 0.956281 0.107304 0.753352
O O2 0.784809 0.088475 0.849496
O O3 0.867568 0.998177 0.758108
O O4 0.934676 0.048746 0.000000
O O5 0.897762 0.215632 0.741530
O O6 0.079188 0.192220 0.789489
O O7 0.947178 0.171123 0.000000
O O8 0.799510 0.892974 0.230188
O O9 0.739018 0.790152 0.273799
O O10 0.787329 0.821039 0.000000
O O11 0.677797 0.976810 0.750353
O O12 0.772824 0.964055 0.000000
O O13 0.369309 0.973587 0.500000
O O14 0.387647 0.913979 0.745221
O O15 0.500000 0.000000 0.707658
O O16 0.706635 0.720592 0.500000
O O17 0.788948 0.683246 0.743498
O O18 0.149601 0.359114 0.000000
#
# Coordination Sequence:
#
# PCOD8226000 Si02
#       7
#     8   8   8   8   8   8   8
#     4   7  12  26  51  80 105 129 163 212 266 319
#     4   9  18  35  59  83 109 144 187 233 281 340
#     4  10  21  37  57  83 115 151 193 237 282 337
#     4   9  18  33  54  81 113 148 185 229 280 334
#     4  10  20  34  53  81 116 150 185 230 285 344
#     4  11  22  37  57  80 111 149 188 236 290 343
#     4   9  17  33  57  79 102 139 187 233 275 325
#
# _framework density 19.459648000000001
#
# number of rings (size 3 to 8) (size 9 to 14) (size 15 to 20)
#    0.000    2.714    0.000    3.857    0.000    2.857 
#    2.571    2.857    0.000    0.000    0.000    7.000 
#    0.000    0.000    0.000    0.000    0.000    0.000 
#
# Total GULP energy -693956.195286 kJ/mol
# GULP energy per Si atom -12392.074916 kJ/mol
# Density = 1.941536 g / cm^3
# Si number density = 19.459648 Si / 1000 Ang^3
#
#
#
# Elastic Constant Matrix: (Units=GPa)
#
#
# Indices 1 2 3 4 5 6 
#
# 1 63.1186 32.8756 32.6641 0.0000 0.0000 0.0000
# 2 32.8756 111.4280 36.6034 0.0000 0.0000 0.0000
# 3 32.6641 36.6034 84.1697 0.0000 0.0000 0.0000
# 4 0.0000 0.0000 0.0000 22.3297 0.0000 0.0000
# 5 0.0000 0.0000 0.0000 0.0000 18.5416 0.0000
# 6 0.0000 0.0000 0.0000 0.0000 0.0000 28.8872
#
#
#
# Elastic Compliance Matrix: (Units=1/GPa)
#
#
# Indices 1 2 3 4 5 6 
#
# 1 0.021371 -0.004178 -0.006477 0.000000 0.000000 0.000000
# 2 -0.004178 0.011287 -0.003287 0.000000 0.000000 0.000000
# 3 -0.006477 -0.003287 0.015824 0.000000 0.000000 0.000000
# 4 0.000000 0.000000 0.000000 0.044783 0.000000 0.000000
# 5 0.000000 0.000000 0.000000 0.000000 0.053933 0.000000
# 6 0.000000 0.000000 0.000000 0.000000 0.000000 0.034617
#
#
# Mechanical properties :
#
#
# Convention : Reuss Voigt Hill
#
# Bulk Modulus (GPa) = 48.54757 51.44472 49.99614
# Shear Modulus (GPa) = 23.08785 24.38991 23.73888
#
# Velocity S-wave (km/s) = 3.44822 3.54412 3.49650
# Velocity P-wave (km/s) = 6.39184 6.57584 6.48449
#
# Compressibility (1/GPa) = 0.02059835
#
# Stress axis : x y z
#
# Youngs Moduli (GPa) = 46.79265 88.59933 63.19638
#
# Poissons Ratio (x) = 0.37014 0.40931
# Poissons Ratio (y) = 0.19548 0.20773
# Poissons Ratio (z) = 0.30306 0.29123
#
# Static dielectric constant tensor:
#      x y z
#    x 3.382140 0.000000 0.000000 
#    y 0.000000 3.808290 0.000000 
#    z 0.000000 0.000000 3.360650 
# 
# 
# High freq. dielectric constant tensor:
#      x y z
#    x 1.743120 0.000000 0.000000 
#    y 0.000000 1.764910 0.000000 
#    z 0.000000 0.000000 1.731360 
# 
# From -- ./inp_files/6023.got.cif
#   From: 2010.03.12/outbox.cif.g09.slc.cpg/sg55_4_cif.got.tgz:6023.got - 2010.04.16 15:19:21.
