data_PCOD8226601
_publ_section_title
;
Structure prediction by ZEFSAII (Michael W. Deem and Ramdas Pophale) SiO2 
 PCOD8226601
Probable space group: P B A M
;
_chemical_formula_sum "Si O2"
_cell_formula_units_Z 52
_cell_length_a 12.129959
_cell_length_b 8.606937
_cell_length_c 24.345909
_cell_angle_alpha 90.000000
_cell_angle_beta 90.000000
_cell_angle_gamma 90.000000
_cell_volume 2541.756550
_symmetry_space_group_name_H-M "P B A M"
_symmetry_group_IT_number 55
_symmetry_cell_setting 'orthorhombic'
loop_
_space_group_symop_operation_xyz
x,y,z
-x,-y,z
1/2+x,1/2-y,-z
1/2-x,1/2+y,-z
-x,-y,-z
x,y,-z
1/2-x,1/2+y,z
1/2+x,1/2-y,z
loop_
_atom_site_type_symbol
_atom_site_label
_atom_site_fract_x
_atom_site_fract_y
_atom_site_fract_z
Si Si1 0.798108 0.310206 0.623299
Si Si2 0.208345 0.794940 0.124416
Si Si3 0.700618 0.464929 0.796830
Si Si4 0.626902 0.980001 0.937062
Si Si5 0.164176 0.300002 0.275577
Si Si6 0.872442 0.016303 0.563367
Si Si7 0.500000 0.000000 0.664171
O O1 0.762567 0.229787 0.680517
O O2 0.834803 0.188733 0.577715
O O3 0.690197 0.394366 0.601080
O O4 0.898852 0.431711 0.628946
O O5 0.135141 0.919697 0.160607
O O6 0.240425 0.664213 0.167213
O O7 0.147926 0.703237 0.075776
O O8 0.309385 0.894381 0.099791
O O9 0.630125 0.364894 0.753128
O O10 0.792584 0.568443 0.765993
O O11 0.500000 0.000000 0.924936
O O12 0.659074 0.010508 0.000000
O O13 0.049268 0.359224 0.300224
O O14 0.846612 0.982493 0.500000
O O15 0.000000 0.000000 0.577305
#
# Coordination Sequence:
#
# PCOD8226601 Si02
#       7
#     8   8   8   8   8   8   4
#     4  12  23  44  66  95 127 162 213 258 308 379
#     4   9  19  38  59  86 126 160 200 255 310 358
#     4   9  19  38  59  85 128 158 202 253 297 370
#     4  10  20  37  62  89 118 161 209 255 310 368
#     4  11  20  40  62  91 124 163 206 252 303 369
#     4  11  25  44  67  95 127 164 205 260 318 372
#     4  12  24  38  69  92 124 168 207 256 312 362
#
# _framework density 20.458293000000001
#
# number of rings (size 3 to 8) (size 9 to 14) (size 15 to 20)
#    0.000    1.538    3.077    1.846    0.000    0.000 
#   12.462    5.385    0.000    8.308    0.000    0.000 
#    0.000    0.000    0.000    0.000    0.000    0.000 
#
# Total GULP energy -644270.285330 kJ/mol
# GULP energy per Si atom -12389.813179 kJ/mol
# Density = 2.041173 g / cm^3
# Si number density = 20.458293 Si / 1000 Ang^3
#
#
#
# Elastic Constant Matrix: (Units=GPa)
#
#
# Indices 1 2 3 4 5 6 
#
# 1 85.8805 52.0788 51.6740 0.0000 0.0000 0.0000
# 2 52.0788 143.8450 57.4676 0.0000 0.0000 0.0000
# 3 51.6740 57.4676 91.4149 0.0000 0.0000 0.0000
# 4 0.0000 0.0000 0.0000 41.8380 0.0000 0.0000
# 5 0.0000 0.0000 0.0000 0.0000 68.8405 0.0000
# 6 0.0000 0.0000 0.0000 0.0000 0.0000 30.6575
#
#
#
# Elastic Compliance Matrix: (Units=1/GPa)
#
#
# Indices 1 2 3 4 5 6 
#
# 1 0.018830 -0.003425 -0.008491 0.000000 0.000000 0.000000
# 2 -0.003425 0.009907 -0.004292 0.000000 0.000000 0.000000
# 3 -0.008491 -0.004292 0.018437 0.000000 0.000000 0.000000
# 4 0.000000 0.000000 0.000000 0.023902 0.000000 0.000000
# 5 0.000000 0.000000 0.000000 0.000000 0.014526 0.000000
# 6 0.000000 0.000000 0.000000 0.000000 0.000000 0.032618
#
#
# Mechanical properties :
#
#
# Convention : Reuss Voigt Hill
#
# Bulk Modulus (GPa) = 67.75954 71.50902 69.63428
# Shear Modulus (GPa) = 32.14315 38.92852 35.53584
#
# Velocity S-wave (km/s) = 3.96808 4.36687 4.17224
# Velocity P-wave (km/s) = 7.36118 7.77531 7.57108
#
# Compressibility (1/GPa) = 0.01475807
#
# Stress axis : x y z
#
# Youngs Moduli (GPa) = 53.10665 100.94348 54.24002
#
# Poissons Ratio (x) = 0.34575 0.46054
# Poissons Ratio (y) = 0.18190 0.23277
# Poissons Ratio (z) = 0.45092 0.43320
#
# Static dielectric constant tensor:
#      x y z
#    x 3.451100 0.000000 0.000000 
#    y 0.000000 4.532580 0.000000 
#    z 0.000000 0.000000 4.098350 
# 
# 
# High freq. dielectric constant tensor:
#      x y z
#    x 1.765390 0.000000 0.000000 
#    y 0.000000 1.827480 0.000000 
#    z 0.000000 0.000000 1.815240 
# 
# From -- ./inp_files/23936.got.cif
#   From: 2010.03.12/outbox.cif.g09.slc.cpg/sg55_12_cif.got.tgz:23936.got - 2010.04.16 15:19:21.
