data_PCOD8226893
_publ_section_title
;
Structure prediction by ZEFSAII (Michael W. Deem and Ramdas Pophale) SiO2 
 PCOD8226893
Probable space group: P B A M
;
_chemical_formula_sum "Si O2"
_cell_formula_units_Z 56
_cell_length_a 19.267418
_cell_length_b 16.523217
_cell_length_c 9.216929
_cell_angle_alpha 90.000000
_cell_angle_beta 90.000000
_cell_angle_gamma 90.000000
_cell_volume 2934.299015
_symmetry_space_group_name_H-M "P B A M"
_symmetry_group_IT_number 55
_symmetry_cell_setting 'orthorhombic'
loop_
_space_group_symop_operation_xyz
x,y,z
-x,-y,z
1/2+x,1/2-y,-z
1/2-x,1/2+y,-z
-x,-y,-z
x,y,-z
1/2-x,1/2+y,z
1/2+x,1/2-y,z
loop_
_atom_site_type_symbol
_atom_site_label
_atom_site_fract_x
_atom_site_fract_y
_atom_site_fract_z
Si Si1 0.945316 0.564290 0.671466
Si Si2 0.691695 0.976082 0.332558
Si Si3 0.519948 0.241909 0.669135
Si Si4 0.632664 0.699217 0.666926
Si Si5 0.776242 0.319061 0.169834
Si Si6 0.153013 0.982086 0.666770
Si Si7 0.120251 0.138370 0.170031
O O1 0.954819 0.567385 0.500000
O O2 0.867854 0.538377 0.716951
O O3 0.960266 0.653812 0.732515
O O4 0.000000 0.500000 0.737682
O O5 0.681821 0.951183 0.500000
O O6 0.684036 0.894699 0.240325
O O7 0.764584 0.019703 0.304074
O O8 0.539033 0.251099 0.500000
O O9 0.438572 0.254090 0.695925
O O10 0.561232 0.308454 0.757955
O O11 0.656157 0.706063 0.500000
O O12 0.693472 0.736729 0.764320
O O13 0.622959 0.605317 0.709387
O O14 0.694788 0.322732 0.207236
O O15 0.790117 0.321063 0.000000
O O16 0.137059 0.004013 0.500000
O O17 0.115331 0.047936 0.766445
O O18 0.106853 0.133415 0.000000
#
# Coordination Sequence:
#
# PCOD8226893 Si02
#       7
#     8   8   8   8   8   8   8
#     4   9  17  30  52  81 111 140 176 222 276 333
#     4   9  17  32  54  78 103 138 182 228 273 324
#     4  10  21  36  57  84 113 147 184 230 284 333
#     4  10  21  36  57  85 112 142 185 233 281 332
#     4  10  21  36  55  80 111 148 184 225 277 332
#     4   9  19  35  56  81 106 138 185 235 278 325
#     4  10  22  39  56  79 112 149 189 230 277 334
#
# _framework density 19.084626
#
# number of rings (size 3 to 8) (size 9 to 14) (size 15 to 20)
#    0.000    2.429    0.000    1.714    2.000    5.714 
#    0.000    3.571    0.000    1.714    0.000    0.000 
#    0.000    0.000    0.000    0.000    0.000    0.000 
#
# Total GULP energy -694593.678770 kJ/mol
# GULP energy per Si atom -12403.458549 kJ/mol
# Density = 1.904119 g / cm^3
# Si number density = 19.084626 Si / 1000 Ang^3
#
#
#
# Elastic Constant Matrix: (Units=GPa)
#
#
# Indices 1 2 3 4 5 6 
#
# 1 32.7460 18.1289 21.3822 0.0000 0.0000 0.0000
# 2 18.1289 95.7464 35.2077 0.0000 0.0000 0.0000
# 3 21.3822 35.2077 63.3099 0.0000 0.0000 0.0000
# 4 0.0000 0.0000 0.0000 13.0117 0.0000 0.0000
# 5 0.0000 0.0000 0.0000 0.0000 21.8867 0.0000
# 6 0.0000 0.0000 0.0000 0.0000 0.0000 38.7565
#
#
#
# Elastic Compliance Matrix: (Units=1/GPa)
#
#
# Indices 1 2 3 4 5 6 
#
# 1 0.039978 -0.003274 -0.011681 0.000000 0.000000 0.000000
# 2 -0.003274 0.013397 -0.006345 0.000000 0.000000 0.000000
# 3 -0.011681 -0.006345 0.023269 0.000000 0.000000 0.000000
# 4 0.000000 0.000000 0.000000 0.076854 0.000000 0.000000
# 5 0.000000 0.000000 0.000000 0.000000 0.045690 0.000000
# 6 0.000000 0.000000 0.000000 0.000000 0.000000 0.025802
#
#
# Mechanical properties :
#
#
# Convention : Reuss Voigt Hill
#
# Bulk Modulus (GPa) = 29.37365 37.91556 33.64460
# Shear Modulus (GPa) = 17.92508 22.53653 20.23081
#
# Velocity S-wave (km/s) = 3.06803 3.44011 3.25939
# Velocity P-wave (km/s) = 5.28915 5.97406 5.64201
#
# Compressibility (1/GPa) = 0.03404412
#
# Stress axis : x y z
#
# Youngs Moduli (GPa) = 25.01357 74.64228 42.97579
#
# Poissons Ratio (x) = 0.24439 0.50202
# Poissons Ratio (y) = 0.08190 0.27267
# Poissons Ratio (z) = 0.29219 0.47358
#
# Static dielectric constant tensor:
#      x y z
#    x 3.451970 0.000000 0.000000 
#    y 0.000000 3.592480 0.000000 
#    z 0.000000 0.000000 3.282160 
# 
# 
# High freq. dielectric constant tensor:
#      x y z
#    x 1.742900 0.000000 0.000000 
#    y 0.000000 1.750370 0.000000 
#    z 0.000000 0.000000 1.717960 
# 
# From -- ./inp_files/6140.got.cif
#   From: 2010.03.12/outbox.cif.g09.slc.cpg/sg55_4_cif.got.tgz:6140.got - 2010.04.16 15:19:21.
