data_PCOD8226265
_publ_section_title
;
Structure prediction by ZEFSAII (Michael W. Deem and Ramdas Pophale) SiO2 
 PCOD8226265
Probable space group: P B A M
;
_chemical_formula_sum "Si O2"
_cell_formula_units_Z 48
_cell_length_a 28.757368
_cell_length_b 10.149729
_cell_length_c 8.636013
_cell_angle_alpha 90.000000
_cell_angle_beta 90.000000
_cell_angle_gamma 90.000000
_cell_volume 2520.675087
_symmetry_space_group_name_H-M "P B A M"
_symmetry_group_IT_number 55
_symmetry_cell_setting 'orthorhombic'
loop_
_space_group_symop_operation_xyz
x,y,z
-x,-y,z
1/2+x,1/2-y,-z
1/2-x,1/2+y,-z
-x,-y,-z
x,y,-z
1/2-x,1/2+y,z
1/2+x,1/2-y,z
loop_
_atom_site_type_symbol
_atom_site_label
_atom_site_fract_x
_atom_site_fract_y
_atom_site_fract_z
Si Si1 0.887387 0.256041 0.321434
Si Si2 0.386655 0.520946 0.820405
Si Si3 0.973056 0.371566 0.180756
Si Si4 0.526738 0.365520 0.321568
Si Si5 0.781512 0.998579 0.180302
Si Si6 0.218860 0.721843 0.321521
O O1 0.894153 0.216117 0.500000
O O2 0.899077 0.129572 0.217930
O O3 0.924017 0.367840 0.272288
O O4 0.835415 0.307182 0.290654
O O5 0.419028 0.618802 0.722055
O O6 0.333268 0.548989 0.773895
O O7 0.396066 0.546812 0.000000
O O8 0.000000 0.500000 0.240027
O O9 0.004679 0.245845 0.215326
O O10 0.962051 0.380123 0.000000
O O11 0.500000 0.500000 0.285360
O O12 0.522012 0.324312 0.500000
O O13 0.767847 0.129589 0.274194
O O14 0.746643 0.881405 0.218443
O O15 0.779008 0.033973 0.000000
O O16 0.232213 0.701789 0.500000
#
# Coordination Sequence:
#
# PCOD8226265 Si02
#       6
#     8   8   8   8   8   8
#     4  10  20  36  59  85 113 149 191 231 281 342
#     4  10  20  35  59  87 114 147 189 236 283 333
#     4  11  24  40  58  83 115 152 191 234 285 339
#     4  11  22  36  59  88 114 147 189 233 280 333
#     4  10  21  38  60  87 117 151 191 237 287 342
#     4  10  21  38  61  87 116 151 190 236 288 344
#
# _framework density 19.042517
#
# number of rings (size 3 to 8) (size 9 to 14) (size 15 to 20)
#    0.000    1.667    1.667    3.000    0.000    6.000 
#    3.000    0.000    0.000    0.000    0.000    0.000 
#    0.000    0.000    0.000    0.000    0.000    0.000 
#
# Total GULP energy -595440.063909 kJ/mol
# GULP energy per Si atom -12405.001331 kJ/mol
# Density = 1.899918 g / cm^3
# Si number density = 19.042517 Si / 1000 Ang^3
#
#
#
# Elastic Constant Matrix: (Units=GPa)
#
#
# Indices 1 2 3 4 5 6 
#
# 1 113.1312 50.0495 27.9086 0.0000 0.0000 0.0000
# 2 50.0495 71.6509 19.9796 0.0000 0.0000 0.0000
# 3 27.9086 19.9796 42.8769 0.0000 0.0000 0.0000
# 4 0.0000 0.0000 0.0000 27.1291 0.0000 0.0000
# 5 0.0000 0.0000 0.0000 0.0000 30.7006 0.0000
# 6 0.0000 0.0000 0.0000 0.0000 0.0000 32.6580
#
#
#
# Elastic Compliance Matrix: (Units=1/GPa)
#
#
# Indices 1 2 3 4 5 6 
#
# 1 0.013708 -0.008145 -0.005127 0.000000 0.000000 0.000000
# 2 -0.008145 0.020881 -0.004428 0.000000 0.000000 0.000000
# 3 -0.005127 -0.004428 0.028723 0.000000 0.000000 0.000000
# 4 0.000000 0.000000 0.000000 0.036861 0.000000 0.000000
# 5 0.000000 0.000000 0.000000 0.000000 0.032573 0.000000
# 6 0.000000 0.000000 0.000000 0.000000 0.000000 0.030620
#
#
# Mechanical properties :
#
#
# Convention : Reuss Voigt Hill
#
# Bulk Modulus (GPa) = 35.82822 47.05938 41.44380
# Shear Modulus (GPa) = 24.03039 26.74561 25.38800
#
# Velocity S-wave (km/s) = 3.55622 3.75176 3.65530
# Velocity P-wave (km/s) = 5.97645 6.59803 6.29492
#
# Compressibility (1/GPa) = 0.02791096
#
# Stress axis : x y z
#
# Youngs Moduli (GPa) = 72.95237 47.89021 34.81533
#
# Poissons Ratio (x) = 0.39009 0.17849
# Poissons Ratio (y) = 0.59423 0.15417
# Poissons Ratio (z) = 0.37401 0.21207
#
# Static dielectric constant tensor:
#      x y z
#    x 3.679900 0.000000 0.000000 
#    y 0.000000 3.283620 0.000000 
#    z 0.000000 0.000000 3.504390 
# 
# 
# High freq. dielectric constant tensor:
#      x y z
#    x 1.750890 0.000000 0.000000 
#    y 0.000000 1.718650 0.000000 
#    z 0.000000 0.000000 1.753310 
# 
# From -- ./inp_files/10517.got.cif
#   From: 2010.03.12/outbox.cif.g09.slc.cpg/sg55_6_cif.got.tgz:10517.got - 2010.04.16 15:19:21.
