data_PCOD8226888
_publ_section_title
;
Structure prediction by ZEFSAII (Michael W. Deem and Ramdas Pophale) SiO2 
 PCOD8226888
Probable space group: P B A M
;
_chemical_formula_sum "Si O2"
_cell_formula_units_Z 48
_cell_length_a 30.725841
_cell_length_b 9.312875
_cell_length_c 8.779498
_cell_angle_alpha 90.000000
_cell_angle_beta 90.000000
_cell_angle_gamma 90.000000
_cell_volume 2512.217502
_symmetry_space_group_name_H-M "P B A M"
_symmetry_group_IT_number 55
_symmetry_cell_setting 'orthorhombic'
loop_
_space_group_symop_operation_xyz
x,y,z
-x,-y,z
1/2+x,1/2-y,-z
1/2-x,1/2+y,-z
-x,-y,-z
x,y,-z
1/2-x,1/2+y,z
1/2+x,1/2-y,z
loop_
_atom_site_type_symbol
_atom_site_label
_atom_site_fract_x
_atom_site_fract_y
_atom_site_fract_z
Si Si1 0.784321 0.910385 0.678909
Si Si2 0.960371 0.084334 0.673689
Si Si3 0.789061 0.601768 0.822536
Si Si4 0.368576 0.098067 0.176629
Si Si5 0.134670 0.898188 0.320476
Si Si6 0.041120 0.583576 0.325872
O O1 0.774537 0.926005 0.500000
O O2 0.785150 0.744311 0.722748
O O3 0.747706 0.989723 0.774875
O O4 0.830457 0.981439 0.723121
O O5 0.958530 0.030721 0.500000
O O6 0.912621 0.053940 0.746966
O O7 0.970929 0.250812 0.686971
O O8 0.000000 0.000000 0.757813
O O9 0.835428 0.530195 0.787535
O O10 0.783644 0.639860 0.000000
O O11 0.351525 0.243437 0.255747
O O12 0.415432 0.045530 0.234338
O O13 0.371261 0.132641 0.000000
O O14 0.130366 0.875233 0.500000
O O15 0.049029 0.536446 0.500000
O O16 0.000000 0.500000 0.254994
#
# Coordination Sequence:
#
# PCOD8226888 Si02
#       6
#     8   8   8   8   8   8
#     4  11  23  38  59  85 110 141 184 233 279 324
#     4   8  14  27  48  73 101 132 167 209 259 314
#     4  11  24  40  57  80 112 148 183 222 276 338
#     4  10  21  36  55  78 107 146 184 220 268 326
#     4   9  19  35  55  80 108 138 177 226 274 320
#     4   9  18  32  52  77 104 138 179 223 270 317
#
# _framework density 19.106625999999999
#
# number of rings (size 3 to 8) (size 9 to 14) (size 15 to 20)
#    0.000    2.333    0.000    3.500    0.000    8.333 
#    0.000    3.333    0.000    8.000    0.000    0.000 
#    0.000    0.000    0.000    0.000    0.000    0.000 
#
# Total GULP energy -595165.811219 kJ/mol
# GULP energy per Si atom -12399.287734 kJ/mol
# Density = 1.906314 g / cm^3
# Si number density = 19.106626 Si / 1000 Ang^3
#
#
#
# Elastic Constant Matrix: (Units=GPa)
#
#
# Indices 1 2 3 4 5 6 
#
# 1 123.3699 57.7268 31.3449 0.0000 0.0000 0.0000
# 2 57.7268 83.5925 19.8065 0.0000 0.0000 0.0000
# 3 31.3449 19.8065 33.8626 0.0000 0.0000 0.0000
# 4 0.0000 0.0000 0.0000 23.4329 0.0000 0.0000
# 5 0.0000 0.0000 0.0000 0.0000 24.9396 0.0000
# 6 0.0000 0.0000 0.0000 0.0000 0.0000 38.5619
#
#
#
# Elastic Compliance Matrix: (Units=1/GPa)
#
#
# Indices 1 2 3 4 5 6 
#
# 1 0.013735 -0.007514 -0.008319 0.000000 0.000000 0.000000
# 2 -0.007514 0.017998 -0.003572 0.000000 0.000000 0.000000
# 3 -0.008319 -0.003572 0.039321 0.000000 0.000000 0.000000
# 4 0.000000 0.000000 0.000000 0.042675 0.000000 0.000000
# 5 0.000000 0.000000 0.000000 0.000000 0.040097 0.000000
# 6 0.000000 0.000000 0.000000 0.000000 0.000000 0.025932
#
#
# Mechanical properties :
#
#
# Convention : Reuss Voigt Hill
#
# Bulk Modulus (GPa) = 31.01315 50.95350 40.98333
# Shear Modulus (GPa) = 21.80391 26.18333 23.99362
#
# Velocity S-wave (km/s) = 3.38179 3.70588 3.54754
# Velocity P-wave (km/s) = 5.61387 6.71098 6.18679
#
# Compressibility (1/GPa) = 0.03224438
#
# Stress axis : x y z
#
# Youngs Moduli (GPa) = 72.80493 55.56120 25.43180
#
# Poissons Ratio (x) = 0.41749 0.21157
# Poissons Ratio (y) = 0.54707 0.09084
# Poissons Ratio (z) = 0.60567 0.19845
#
# Static dielectric constant tensor:
#      x y z
#    x 3.945250 0.000000 0.000000 
#    y 0.000000 3.416510 0.000000 
#    z 0.000000 0.000000 3.333130 
# 
# 
# High freq. dielectric constant tensor:
#      x y z
#    x 1.761730 0.000000 0.000000 
#    y 0.000000 1.739460 0.000000 
#    z 0.000000 0.000000 1.722750 
# 
# From -- ./inp_files/2774.got.cif
#   From: 2010.03.12/outbox.cif.g09.slc.cpg/sg55_2_cif.got.tgz:2774.got - 2010.04.16 15:19:21.
