data_PCOD8226075
_publ_section_title
;
Structure prediction by ZEFSAII (Michael W. Deem and Ramdas Pophale) SiO2 
 PCOD8226075
Probable space group: P B A M
;
_chemical_formula_sum "Si O2"
_cell_formula_units_Z 40
_cell_length_a 13.496956
_cell_length_b 17.979881
_cell_length_c 8.521217
_cell_angle_alpha 90.000000
_cell_angle_beta 90.000000
_cell_angle_gamma 90.000000
_cell_volume 2067.874940
_symmetry_space_group_name_H-M "P B A M"
_symmetry_group_IT_number 55
_symmetry_cell_setting 'orthorhombic'
loop_
_space_group_symop_operation_xyz
x,y,z
-x,-y,z
1/2+x,1/2-y,-z
1/2-x,1/2+y,-z
-x,-y,-z
x,y,-z
1/2-x,1/2+y,z
1/2+x,1/2-y,z
loop_
_atom_site_type_symbol
_atom_site_label
_atom_site_fract_x
_atom_site_fract_y
_atom_site_fract_z
Si Si1 0.190961 0.018914 0.316710
Si Si2 0.321648 0.808974 0.317280
Si Si3 0.373501 0.370792 0.817771
Si Si4 0.404566 0.661210 0.819030
Si Si5 0.599575 0.033927 0.314859
O O1 0.183757 0.999956 0.500000
O O2 0.152271 0.101054 0.285208
O O3 0.125347 0.958271 0.224722
O O4 0.304937 0.012963 0.258010
O O5 0.334408 0.789919 0.500000
O O6 0.206638 0.826101 0.284184
O O7 0.358010 0.741067 0.213091
O O8 0.387496 0.880013 0.266310
O O9 0.479991 0.337026 0.773880
O O10 0.348481 0.360476 0.000000
O O11 0.390343 0.639710 0.000000
O O12 0.591055 0.027775 0.500000
O O13 0.500000 0.000000 0.236151
#
# Coordination Sequence:
#
# PCOD8226075 Si02
#       5
#     8   8   8   8   8
#     4  10  20  34  56  84 109 140 186 233 275 325
#     4  10  21  36  56  82 110 142 182 230 279 326
#     4  10  21  38  57  77 109 149 183 223 278 335
#     4  11  23  37  55  80 111 147 184 226 280 335
#     4   8  16  33  55  79 107 138 174 219 270 322
#
# _framework density 19.343530000000001
#
# number of rings (size 3 to 8) (size 9 to 14) (size 15 to 20)
#    0.000    2.200    0.000    4.200    0.000    7.200 
#    0.000    2.000    0.000   20.400    0.000    0.000 
#    0.000    0.000    0.000    0.000    0.000    0.000 
#
# Total GULP energy -496095.376733 kJ/mol
# GULP energy per Si atom -12402.384418 kJ/mol
# Density = 1.929950 g / cm^3
# Si number density = 19.343530 Si / 1000 Ang^3
#
#
#
# Elastic Constant Matrix: (Units=GPa)
#
#
# Indices 1 2 3 4 5 6 
#
# 1 100.7523 57.0910 25.3239 0.0000 0.0000 0.0000
# 2 57.0910 104.1048 11.1257 0.0000 0.0000 0.0000
# 3 25.3239 11.1257 36.2804 0.0000 0.0000 0.0000
# 4 0.0000 0.0000 0.0000 31.3568 0.0000 0.0000
# 5 0.0000 0.0000 0.0000 0.0000 25.5587 0.0000
# 6 0.0000 0.0000 0.0000 0.0000 0.0000 28.5313
#
#
#
# Elastic Compliance Matrix: (Units=1/GPa)
#
#
# Indices 1 2 3 4 5 6 
#
# 1 0.016974 -0.008315 -0.009298 0.000000 0.000000 0.000000
# 2 -0.008315 0.014004 0.001509 0.000000 0.000000 0.000000
# 3 -0.009298 0.001509 0.033590 0.000000 0.000000 0.000000
# 4 0.000000 0.000000 0.000000 0.031891 0.000000 0.000000
# 5 0.000000 0.000000 0.000000 0.000000 0.039126 0.000000
# 6 0.000000 0.000000 0.000000 0.000000 0.000000 0.035049
#
#
# Mechanical properties :
#
#
# Convention : Reuss Voigt Hill
#
# Bulk Modulus (GPa) = 30.90110 47.57985 39.24048
# Shear Modulus (GPa) = 23.40507 26.92915 25.16711
#
# Velocity S-wave (km/s) = 3.48223 3.73520 3.61094
# Velocity P-wave (km/s) = 5.67252 6.57670 6.14128
#
# Compressibility (1/GPa) = 0.03236130
#
# Stress axis : x y z
#
# Youngs Moduli (GPa) = 58.91379 71.40697 29.77038
#
# Poissons Ratio (x) = 0.59374 0.27681
# Poissons Ratio (y) = 0.48986 -0.04493
# Poissons Ratio (z) = 0.54779 -0.10777
#
# Static dielectric constant tensor:
#      x y z
#    x 3.799160 0.000000 0.000000 
#    y 0.000000 3.438310 0.000000 
#    z 0.000000 0.000000 3.354270 
# 
# 
# High freq. dielectric constant tensor:
#      x y z
#    x 1.760100 0.000000 0.000000 
#    y 0.000000 1.749490 0.000000 
#    z 0.000000 0.000000 1.744240 
# 
# From -- ./inp_files/3611.got.cif
#   From: 2010.03.12/outbox.cif.g09.slc.cpg/sg55_2_cif.got.tgz:3611.got - 2010.04.16 15:19:21.
