data_PCOD8226859
_publ_section_title
;
Structure prediction by ZEFSAII (Michael W. Deem and Ramdas Pophale) SiO2 
 PCOD8226859
Probable space group: P B A M
;
_chemical_formula_sum "Si O2"
_cell_formula_units_Z 56
_cell_length_a 13.339655
_cell_length_b 18.615022
_cell_length_c 13.469551
_cell_angle_alpha 90.000000
_cell_angle_beta 90.000000
_cell_angle_gamma 90.000000
_cell_volume 3344.731579
_symmetry_space_group_name_H-M "P B A M"
_symmetry_group_IT_number 55
_symmetry_cell_setting 'orthorhombic'
loop_
_space_group_symop_operation_xyz
x,y,z
-x,-y,z
1/2+x,1/2-y,-z
1/2-x,1/2+y,-z
-x,-y,-z
x,y,-z
1/2-x,1/2+y,z
1/2+x,1/2-y,z
loop_
_atom_site_type_symbol
_atom_site_label
_atom_site_fract_x
_atom_site_fract_y
_atom_site_fract_z
Si Si1 0.299498 0.643282 0.800027
Si Si2 0.112512 0.713828 0.884171
Si Si3 0.697070 0.642444 0.804950
Si Si4 0.383399 0.583779 0.612145
Si Si5 0.384719 0.785215 0.115654
Si Si6 0.888852 0.998520 0.115164
Si Si7 0.616734 0.582239 0.612546
O O1 0.183199 0.660910 0.820835
O O2 0.319322 0.637021 0.681936
O O3 0.370203 0.703869 0.847571
O O4 0.324547 0.567059 0.845806
O O5 0.126628 0.794950 0.847225
O O6 0.998405 0.690227 0.865835
O O7 0.141353 0.708865 0.000000
O O8 0.813493 0.661282 0.822808
O O9 0.670172 0.571067 0.863820
O O10 0.679901 0.632263 0.687078
O O11 0.347428 0.597643 0.500000
O O12 0.500325 0.601838 0.623182
O O13 0.364742 0.500768 0.641743
O O14 0.356156 0.789030 0.000000
O O15 0.902378 0.987200 0.000000
O O16 0.000000 0.000000 0.165519
O O17 0.652999 0.596914 0.500000
#
# Coordination Sequence:
#
# PCOD8226859 Si02
#       7
#     8   8   8   8   8   8   8
#     4  11  19  32  53  75 100 133 168 208 255 300
#     4  10  21  36  51  70 103 143 174 200 243 308
#     4  11  19  32  53  75 100 133 168 208 255 300
#     4   9  17  30  50  77 105 130 160 205 262 310
#     4  10  21  36  51  70 103 143 174 200 243 308
#     4  11  20  28  46  78 104 121 158 216 260 291
#     4   9  17  30  50  77 105 130 160 205 262 310
#
# _framework density 16.742750000000001
#
# number of rings (size 3 to 8) (size 9 to 14) (size 15 to 20)
#    0.000    1.857    1.429    6.857    0.000    2.286 
#    0.000    3.571    0.000    5.143    0.000    2.000 
#    0.000    0.000    0.000    0.000    0.000    0.000 
#
# Total GULP energy -694404.258714 kJ/mol
# GULP energy per Si atom -12400.076048 kJ/mol
# Density = 1.670464 g / cm^3
# Si number density = 16.742750 Si / 1000 Ang^3
#
#
#
# Elastic Constant Matrix: (Units=GPa)
#
#
# Indices 1 2 3 4 5 6 
#
# 1 113.7446 49.5321 56.2879 0.0000 0.0000 0.0000
# 2 49.5321 88.6824 40.4050 0.0000 0.0000 0.0000
# 3 56.2879 40.4050 116.6469 0.0000 0.0000 0.0000
# 4 0.0000 0.0000 0.0000 34.9749 0.0000 0.0000
# 5 0.0000 0.0000 0.0000 0.0000 28.4607 0.0000
# 6 0.0000 0.0000 0.0000 0.0000 0.0000 14.8609
#
#
#
# Elastic Compliance Matrix: (Units=1/GPa)
#
#
# Indices 1 2 3 4 5 6 
#
# 1 0.013422 -0.005398 -0.004607 0.000000 0.000000 0.000000
# 2 -0.005398 0.015560 -0.002785 0.000000 0.000000 0.000000
# 3 -0.004607 -0.002785 0.011761 0.000000 0.000000 0.000000
# 4 0.000000 0.000000 0.000000 0.028592 0.000000 0.000000
# 5 0.000000 0.000000 0.000000 0.000000 0.035136 0.000000
# 6 0.000000 0.000000 0.000000 0.000000 0.000000 0.067291
#
#
# Mechanical properties :
#
#
# Convention : Reuss Voigt Hill
#
# Bulk Modulus (GPa) = 65.95013 67.94709 66.94861
# Shear Modulus (GPa) = 24.70414 27.18258 25.94336
#
# Velocity S-wave (km/s) = 3.84541 4.03369 3.94068
# Velocity P-wave (km/s) = 7.69363 7.89717 7.79607
#
# Compressibility (1/GPa) = 0.01516297
#
# Stress axis : x y z
#
# Youngs Moduli (GPa) = 74.50469 64.26793 85.02834
#
# Poissons Ratio (x) = 0.34689 0.39174
# Poissons Ratio (y) = 0.40214 0.23682
# Poissons Ratio (z) = 0.34325 0.17900
#
# Static dielectric constant tensor:
#      x y z
#    x 3.034520 0.000000 0.000000 
#    y 0.000000 3.024160 0.000000 
#    z 0.000000 0.000000 3.326360 
# 
# 
# High freq. dielectric constant tensor:
#      x y z
#    x 1.629250 0.000000 0.000000 
#    y 0.000000 1.633530 0.000000 
#    z 0.000000 0.000000 1.656290 
# 
# From -- ./inp_files/19101.got.cif
#   From: 2010.03.12/outbox.cif.g09.slc.cpg/sg55_10_cif.got.tgz:19101.got - 2010.04.16 15:19:21.
