data_PCOD8226802
_publ_section_title
;
Structure prediction by ZEFSAII (Michael W. Deem and Ramdas Pophale) SiO2 
 PCOD8226802
Probable space group: P B A M
;
_chemical_formula_sum "Si O2"
_cell_formula_units_Z 64
_cell_length_a 9.960017
_cell_length_b 27.569687
_cell_length_c 14.023891
_cell_angle_alpha 90.000000
_cell_angle_beta 90.000000
_cell_angle_gamma 90.000000
_cell_volume 3850.884055
_symmetry_space_group_name_H-M "P B A M"
_symmetry_group_IT_number 55
_symmetry_cell_setting 'orthorhombic'
loop_
_space_group_symop_operation_xyz
x,y,z
-x,-y,z
1/2+x,1/2-y,-z
1/2-x,1/2+y,-z
-x,-y,-z
x,y,-z
1/2-x,1/2+y,z
1/2+x,1/2-y,z
loop_
_atom_site_type_symbol
_atom_site_label
_atom_site_fract_x
_atom_site_fract_y
_atom_site_fract_z
Si Si1 0.401388 0.959790 0.888132
Si Si2 0.998247 0.643295 0.887774
Si Si3 0.585078 0.694477 0.606855
Si Si4 0.598145 0.543813 0.110792
Si Si5 0.545380 0.644690 0.200970
Si Si6 0.293246 0.724106 0.394228
Si Si7 0.260935 0.787015 0.110909
Si Si8 0.756004 0.817034 0.796349
O O1 0.433715 0.906309 0.847443
O O2 0.248431 0.973778 0.864867
O O3 0.500000 0.000000 0.841393
O O4 0.427034 0.958332 0.000000
O O5 0.902195 0.688219 0.861997
O O6 0.140292 0.649532 0.837521
O O7 0.022276 0.640553 0.000000
O O8 0.587497 0.671447 0.500000
O O9 0.576514 0.652546 0.686540
O O10 0.721175 0.724558 0.625150
O O11 0.455009 0.730077 0.616688
O O12 0.500000 0.500000 0.135827
O O13 0.561054 0.588351 0.178327
O O14 0.586202 0.559529 0.000000
O O15 0.642553 0.676079 0.135014
O O16 0.396030 0.660135 0.171642
O O17 0.255500 0.705274 0.500000
O O18 0.242758 0.684112 0.318615
O O19 0.244363 0.738066 0.168965
O O20 0.253351 0.774284 0.000000
#
# Coordination Sequence:
#
# PCOD8226802 Si02
#       8
#     8   8   8   8   8   8   8   8
#     4   9  18  34  53  71  94 127 166 213 259 293
#     4  10  21  34  48  70 102 136 171 207 245 295
#     4   9  18  33  53  75 101 133 169 213 257 300
#     4  10  21  36  54  75 100 132 172 217 260 301
#     4  11  21  34  52  75 104 134 171 215 254 306
#     4   9  18  32  49  71  99 131 170 211 250 290
#     4  11  21  34  47  66 104 144 173 202 242 290
#     4  11  22  31  48  75 102 138 174 201 244 298
#
# _framework density 16.619561000000001
#
# number of rings (size 3 to 8) (size 9 to 14) (size 15 to 20)
#    0.000    2.000    2.500    1.500    3.500    3.000 
#    0.000    0.000    0.000    0.375    0.000    0.000 
#    0.000    1.000    0.000    0.000    0.000    0.000 
#
# Total GULP energy -793532.489633 kJ/mol
# GULP energy per Si atom -12398.945151 kJ/mol
# Density = 1.658173 g / cm^3
# Si number density = 16.619561 Si / 1000 Ang^3
#
#
#
# Elastic Constant Matrix: (Units=GPa)
#
#
# Indices 1 2 3 4 5 6 
#
# 1 85.9731 35.5297 39.2367 0.0000 0.0000 0.0000
# 2 35.5297 85.8872 33.0620 0.0000 0.0000 0.0000
# 3 39.2367 33.0620 59.8631 0.0000 0.0000 0.0000
# 4 0.0000 0.0000 0.0000 15.1595 0.0000 0.0000
# 5 0.0000 0.0000 0.0000 0.0000 21.3964 0.0000
# 6 0.0000 0.0000 0.0000 0.0000 0.0000 27.5072
#
#
#
# Elastic Compliance Matrix: (Units=1/GPa)
#
#
# Indices 1 2 3 4 5 6 
#
# 1 0.017417 -0.003569 -0.009444 0.000000 0.000000 0.000000
# 2 -0.003569 0.015518 -0.006231 0.000000 0.000000 0.000000
# 3 -0.009444 -0.006231 0.026336 0.000000 0.000000 0.000000
# 4 0.000000 0.000000 0.000000 0.065965 0.000000 0.000000
# 5 0.000000 0.000000 0.000000 0.000000 0.046737 0.000000
# 6 0.000000 0.000000 0.000000 0.000000 0.000000 0.036354
#
#
# Mechanical properties :
#
#
# Convention : Reuss Voigt Hill
#
# Bulk Modulus (GPa) = 48.11897 49.70891 48.91394
# Shear Modulus (GPa) = 19.70479 21.07229 20.38854
#
# Velocity S-wave (km/s) = 3.44705 3.56465 3.50634
# Velocity P-wave (km/s) = 6.69768 6.84961 6.77407
#
# Compressibility (1/GPa) = 0.02078183
#
# Stress axis : x y z
#
# Youngs Moduli (GPa) = 57.41547 64.43939 37.97017
#
# Poissons Ratio (x) = 0.23001 0.35860
# Poissons Ratio (y) = 0.20494 0.23660
# Poissons Ratio (z) = 0.54225 0.40154
#
# Static dielectric constant tensor:
#      x y z
#    x 3.348160 0.000000 0.000000 
#    y 0.000000 3.004600 0.000000 
#    z 0.000000 0.000000 3.150830 
# 
# 
# High freq. dielectric constant tensor:
#      x y z
#    x 1.659680 0.000000 0.000000 
#    y 0.000000 1.613260 0.000000 
#    z 0.000000 0.000000 1.623610 
# 
# From -- ./inp_files/17917.got.cif
#   From: 2010.03.12/outbox.cif.g09.slc.cpg/sg55_9_cif.got.tgz:17917.got - 2010.04.16 15:19:21.
