data_PCOD8226638
_publ_section_title
;
Structure prediction by ZEFSAII (Michael W. Deem and Ramdas Pophale) SiO2 
 PCOD8226638
Probable space group: P B A M
;
_chemical_formula_sum "Si O2"
_cell_formula_units_Z 48
_cell_length_a 8.637955
_cell_length_b 17.571678
_cell_length_c 15.507127
_cell_angle_alpha 90.000000
_cell_angle_beta 90.000000
_cell_angle_gamma 90.000000
_cell_volume 2353.723900
_symmetry_space_group_name_H-M "P B A M"
_symmetry_group_IT_number 55
_symmetry_cell_setting 'orthorhombic'
loop_
_space_group_symop_operation_xyz
x,y,z
-x,-y,z
1/2+x,1/2-y,-z
1/2-x,1/2+y,-z
-x,-y,-z
x,y,-z
1/2-x,1/2+y,z
1/2+x,1/2-y,z
loop_
_atom_site_type_symbol
_atom_site_label
_atom_site_fract_x
_atom_site_fract_y
_atom_site_fract_z
Si Si1 0.194481 0.354590 0.595595
Si Si2 0.966623 0.234145 0.659932
Si Si3 0.609901 0.387810 0.237965
Si Si4 0.726076 0.550231 0.241469
Si Si5 0.862817 0.642944 0.904151
Si Si6 0.168450 0.719863 0.844369
O O1 0.178665 0.390642 0.500000
O O2 0.040403 0.308030 0.617543
O O3 0.339313 0.297330 0.594522
O O4 0.218237 0.419805 0.666028
O O5 0.093998 0.167388 0.678233
O O6 0.887271 0.255913 0.749927
O O7 0.721633 0.459613 0.254950
O O8 0.439732 0.416811 0.212138
O O9 0.687461 0.338961 0.161471
O O10 0.845255 0.575491 0.166459
O O11 0.728857 0.705583 0.892664
O O12 0.030441 0.681329 0.896464
O O13 0.847680 0.607881 0.000000
#
# Coordination Sequence:
#
# PCOD8226638 Si02
#       6
#     8   8   8   8   8   8
#     4  11  21  36  60  88 119 153 194 245 291 345
#     4  11  18  37  61  86 113 151 203 240 289 340
#     4  10  20  37  66  83 115 162 193 238 299 344
#     4  10  21  41  59  86 123 158 192 236 297 361
#     4  12  23  38  61  89 119 155 198 245 295 348
#     4  12  19  39  63  87 115 155 201 245 288 342
#
# _framework density 20.393217
#
# number of rings (size 3 to 8) (size 9 to 14) (size 15 to 20)
#    0.000    1.000    8.333    1.000    0.000    0.667 
#    0.000   12.500    0.000    1.000    0.000    0.000 
#    0.000    0.000    0.000    0.000    0.000    0.000 
#
# Total GULP energy -595079.017496 kJ/mol
# GULP energy per Si atom -12397.479531 kJ/mol
# Density = 2.034680 g / cm^3
# Si number density = 20.393217 Si / 1000 Ang^3
#
#
#
# Elastic Constant Matrix: (Units=GPa)
#
#
# Indices 1 2 3 4 5 6 
#
# 1 43.5446 -6.7607 15.8288 0.0000 0.0000 0.0000
# 2 -6.7607 65.5238 19.2573 0.0000 0.0000 0.0000
# 3 15.8288 19.2573 132.8734 0.0000 0.0000 0.0000
# 4 0.0000 0.0000 0.0000 9.0658 0.0000 0.0000
# 5 0.0000 0.0000 0.0000 0.0000 21.6126 0.0000
# 6 0.0000 0.0000 0.0000 0.0000 0.0000 25.3479
#
#
#
# Elastic Compliance Matrix: (Units=1/GPa)
#
#
# Indices 1 2 3 4 5 6 
#
# 1 0.024782 0.003577 -0.003471 0.000000 0.000000 0.000000
# 2 0.003577 0.016457 -0.002811 0.000000 0.000000 0.000000
# 3 -0.003471 -0.002811 0.008347 0.000000 0.000000 0.000000
# 4 0.000000 0.000000 0.000000 0.110304 0.000000 0.000000
# 5 0.000000 0.000000 0.000000 0.000000 0.046269 0.000000
# 6 0.000000 0.000000 0.000000 0.000000 0.000000 0.039451
#
#
# Mechanical properties :
#
#
# Convention : Reuss Voigt Hill
#
# Bulk Modulus (GPa) = 22.63674 33.17695 27.90685
# Shear Modulus (GPa) = 18.81503 25.44637 22.13070
#
# Velocity S-wave (km/s) = 3.04075 3.53623 3.29781
# Velocity P-wave (km/s) = 4.84277 5.74258 5.31176
#
# Compressibility (1/GPa) = 0.04417598
#
# Stress axis : x y z
#
# Youngs Moduli (GPa) = 40.35200 60.76478 119.80603
#
# Poissons Ratio (x) = -0.21735 0.41580
# Poissons Ratio (y) = -0.14434 0.33680
# Poissons Ratio (z) = 0.14005 0.17082
#
# Static dielectric constant tensor:
#      x y z
#    x 3.871680 0.000000 0.000000 
#    y 0.000000 3.844970 0.000000 
#    z 0.000000 0.000000 3.498830 
# 
# 
# High freq. dielectric constant tensor:
#      x y z
#    x 1.806380 0.000000 0.000000 
#    y 0.000000 1.789510 0.000000 
#    z 0.000000 0.000000 1.770770 
# 
# From -- ./inp_files/17374.got.cif
#   From: 2010.03.12/outbox.cif.g09.slc.cpg/sg55_9_cif.got.tgz:17374.got - 2010.04.16 15:19:21.
