data_PCOD8226214
_publ_section_title
;
Structure prediction by ZEFSAII (Michael W. Deem and Ramdas Pophale) SiO2 
 PCOD8226214
Probable space group: P B A M
;
_chemical_formula_sum "Si O2"
_cell_formula_units_Z 48
_cell_length_a 25.095140
_cell_length_b 10.415523
_cell_length_c 9.370858
_cell_angle_alpha 90.000000
_cell_angle_beta 90.000000
_cell_angle_gamma 90.000000
_cell_volume 2449.345567
_symmetry_space_group_name_H-M "P B A M"
_symmetry_group_IT_number 55
_symmetry_cell_setting 'orthorhombic'
loop_
_space_group_symop_operation_xyz
x,y,z
-x,-y,z
1/2+x,1/2-y,-z
1/2-x,1/2+y,-z
-x,-y,-z
x,y,-z
1/2-x,1/2+y,z
1/2+x,1/2-y,z
loop_
_atom_site_type_symbol
_atom_site_label
_atom_site_fract_x
_atom_site_fract_y
_atom_site_fract_z
Si Si1 0.284086 0.366529 0.167887
Si Si2 0.561581 0.009830 0.837057
Si Si3 0.489956 0.354851 0.652879
Si Si4 0.599748 0.238995 0.670416
Si Si5 0.699090 0.341633 0.830580
Si Si6 0.396103 0.272598 0.161852
O O1 0.237149 0.273738 0.225770
O O2 0.276235 0.517352 0.207657
O O3 0.339437 0.311117 0.231257
O O4 0.284724 0.348068 0.000000
O O5 0.598518 0.096491 0.735575
O O6 0.500000 0.000000 0.783346
O O7 0.592428 0.876960 0.825770
O O8 0.561797 0.061439 0.000000
O O9 0.500000 0.500000 0.619113
O O10 0.476605 0.286917 0.500000
O O11 0.542819 0.293754 0.719458
O O12 0.441563 0.349653 0.759707
O O13 0.608172 0.238004 0.500000
O O14 0.644408 0.326424 0.744350
O O15 0.688195 0.332551 0.000000
O O16 0.397327 0.320522 0.000000
#
# Coordination Sequence:
#
# PCOD8226214 Si02
#       6
#     8   8   8   8   8   8
#     4   9  20  37  61  89 113 145 189 241 292 343
#     4  10  20  35  57  86 117 153 193 236 287 342
#     4  10  21  36  54  78 111 152 188 227 288 352
#     4  11  23  37  56  83 117 152 191 236 286 345
#     4  10  21  39  62  86 113 148 191 237 290 344
#     4  10  20  35  57  85 114 144 190 241 287 343
#
# _framework density 19.597072000000001
#
# number of rings (size 3 to 8) (size 9 to 14) (size 15 to 20)
#    0.000    2.000    1.667    1.500    2.333    2.000 
#    0.000    1.667    0.000    0.000    0.000    0.000 
#    0.000    0.000    0.000    0.000    0.000    0.000 
#
# Total GULP energy -594977.254721 kJ/mol
# GULP energy per Si atom -12395.359473 kJ/mol
# Density = 1.955247 g / cm^3
# Si number density = 19.597072 Si / 1000 Ang^3
#
#
#
# Elastic Constant Matrix: (Units=GPa)
#
#
# Indices 1 2 3 4 5 6 
#
# 1 96.2235 32.2223 28.4285 0.0000 0.0000 0.0000
# 2 32.2223 92.2407 24.8132 0.0000 0.0000 0.0000
# 3 28.4285 24.8132 51.7887 0.0000 0.0000 0.0000
# 4 0.0000 0.0000 0.0000 12.3691 0.0000 0.0000
# 5 0.0000 0.0000 0.0000 0.0000 -23.3903 0.0000
# 6 0.0000 0.0000 0.0000 0.0000 0.0000 40.7797
#
#
#
# Elastic Compliance Matrix: (Units=1/GPa)
#
#
# Indices 1 2 3 4 5 6 
#
# 1 0.013104 -0.003034 -0.005740 0.000000 0.000000 0.000000
# 2 -0.003034 0.013147 -0.004634 0.000000 0.000000 0.000000
# 3 -0.005740 -0.004634 0.024680 0.000000 0.000000 0.000000
# 4 0.000000 0.000000 0.000000 0.080847 0.000000 0.000000
# 5 0.000000 0.000000 0.000000 0.000000 -0.042753 0.000000
# 6 0.000000 0.000000 0.000000 0.000000 0.000000 0.024522
#
#
# Mechanical properties :
#
#
# Convention : Reuss Voigt Hill
#
# Bulk Modulus (GPa) = 41.46450 45.68675 43.57563
# Shear Modulus (GPa) = 33.69229 16.27095 24.98162
#
# Velocity S-wave (km/s) = 4.15088 2.88457 3.57426
# Velocity P-wave (km/s) = 6.64662 5.87010 6.27039
#
# Compressibility (1/GPa) = 0.02411702
#
# Stress axis : x y z
#
# Youngs Moduli (GPa) = 76.31198 76.06009 40.51816
#
# Poissons Ratio (x) = 0.23074 0.23257
# Poissons Ratio (y) = 0.23150 0.18776
# Poissons Ratio (z) = 0.43801 0.35247
#
# Static dielectric constant tensor:
#      x y z
#    x 4.776230 0.000000 0.000000 
#    y 0.000000 3.648180 0.000000 
#    z 0.000000 0.000000 3.438660 
# 
# 
# High freq. dielectric constant tensor:
#      x y z
#    x 1.765560 0.000000 0.000000 
#    y 0.000000 1.772460 0.000000 
#    z 0.000000 0.000000 1.738650 
# 
# From -- ./inp_files/9435.got.cif
#   From: 2010.03.12/outbox.cif.g09.slc.cpg/sg55_5_cif.got.tgz:9435.got - 2010.04.16 15:19:21.
