data_PCOD8226288
_publ_section_title
;
Structure prediction by ZEFSAII (Michael W. Deem and Ramdas Pophale) SiO2 
 PCOD8226288
Probable space group: P B A M
;
_chemical_formula_sum "Si O2"
_cell_formula_units_Z 48
_cell_length_a 30.430992
_cell_length_b 10.031692
_cell_length_c 8.410991
_cell_angle_alpha 90.000000
_cell_angle_beta 90.000000
_cell_angle_gamma 90.000000
_cell_volume 2567.659718
_symmetry_space_group_name_H-M "P B A M"
_symmetry_group_IT_number 55
_symmetry_cell_setting 'orthorhombic'
loop_
_space_group_symop_operation_xyz
x,y,z
-x,-y,z
1/2+x,1/2-y,-z
1/2-x,1/2+y,-z
-x,-y,-z
x,y,-z
1/2-x,1/2+y,z
1/2+x,1/2-y,z
loop_
_atom_site_type_symbol
_atom_site_label
_atom_site_fract_x
_atom_site_fract_y
_atom_site_fract_z
Si Si1 0.781469 0.653341 0.314373
Si Si2 0.451442 0.650437 0.689457
Si Si3 0.877832 0.348379 0.310734
Si Si4 0.119358 0.353669 0.687861
Si Si5 0.549227 0.647852 0.311032
Si Si6 0.716065 0.865947 0.184006
O O1 0.774041 0.680585 0.500000
O O2 0.831383 0.685323 0.260480
O O3 0.750909 0.749765 0.213446
O O4 0.770667 0.498561 0.280669
O O5 0.449813 0.654699 0.500000
O O6 0.415970 0.752274 0.764840
O O7 0.439851 0.501443 0.748593
O O8 0.500468 0.690141 0.747624
O O9 0.873826 0.339535 0.500000
O O10 0.891451 0.496671 0.254951
O O11 0.914559 0.248491 0.241025
O O12 0.831003 0.308970 0.238058
O O13 0.115681 0.346782 0.500000
O O14 0.550449 0.652726 0.500000
O O15 0.715025 0.903489 0.000000
#
# Coordination Sequence:
#
# PCOD8226288 Si02
#       6
#     8   8   8   8   8   8
#     4  10  20  36  55  76 101 134 173 214 256 307
#     4   8  13  23  38  64  97 124 152 197 250 296
#     4   9  17  30  46  68  95 127 164 202 244 297
#     4   8  15  26  42  64  92 122 158 201 246 292
#     4   8  14  23  39  64  97 128 156 195 247 298
#     4  11  22  36  53  76 104 135 169 213 262 308
#
# _framework density 18.694064999999998
#
# number of rings (size 3 to 8) (size 9 to 14) (size 15 to 20)
#    0.000    3.000    0.000    4.000    0.000    2.000 
#    0.000    6.667    0.000    0.000    0.000   12.833 
#    0.000    0.000    0.000    0.000    0.000    0.000 
#
# Total GULP energy -595018.469178 kJ/mol
# GULP energy per Si atom -12396.218108 kJ/mol
# Density = 1.865152 g / cm^3
# Si number density = 18.694065 Si / 1000 Ang^3
#
#
#
# Elastic Constant Matrix: (Units=GPa)
#
#
# Indices 1 2 3 4 5 6 
#
# 1 150.6298 103.9013 13.3656 0.0000 0.0000 0.0000
# 2 103.9013 118.2519 7.3840 0.0000 0.0000 0.0000
# 3 13.3656 7.3840 30.4669 0.0000 0.0000 0.0000
# 4 0.0000 0.0000 0.0000 12.2618 0.0000 0.0000
# 5 0.0000 0.0000 0.0000 0.0000 3.6006 0.0000
# 6 0.0000 0.0000 0.0000 0.0000 0.0000 45.4126
#
#
#
# Elastic Compliance Matrix: (Units=1/GPa)
#
#
# Indices 1 2 3 4 5 6 
#
# 1 0.017313 -0.014964 -0.003968 0.000000 0.000000 0.000000
# 2 -0.014964 0.021520 0.001349 0.000000 0.000000 0.000000
# 3 -0.003968 0.001349 0.034236 0.000000 0.000000 0.000000
# 4 0.000000 0.000000 0.000000 0.081554 0.000000 0.000000
# 5 0.000000 0.000000 0.000000 0.000000 0.277732 0.000000
# 6 0.000000 0.000000 0.000000 0.000000 0.000000 0.022020
#
#
# Mechanical properties :
#
#
# Convention : Reuss Voigt Hill
#
# Bulk Modulus (GPa) = 26.38333 60.96116 43.67225
# Shear Modulus (GPa) = 9.95666 23.90150 16.92908
#
# Velocity S-wave (km/s) = 2.31034 3.57958 3.01256
# Velocity P-wave (km/s) = 4.61094 7.05444 5.95928
#
# Compressibility (1/GPa) = 0.03790272
#
# Stress axis : x y z
#
# Youngs Moduli (GPa) = 57.76108 46.46789 29.20869
#
# Poissons Ratio (x) = 0.69534 0.11591
# Poissons Ratio (y) = 0.86433 -0.03940
# Poissons Ratio (z) = 0.22921 -0.06268
#
# Static dielectric constant tensor:
#      x y z
#    x 3.703560 0.000000 0.000000 
#    y 0.000000 3.670940 0.000000 
#    z 0.000000 0.000000 2.893800 
# 
# 
# High freq. dielectric constant tensor:
#      x y z
#    x 1.731890 0.000000 0.000000 
#    y 0.000000 1.727740 0.000000 
#    z 0.000000 0.000000 1.678130 
# 
# From -- ./inp_files/10078.got.cif
#   From: 2010.03.12/outbox.cif.g09.slc.cpg/sg55_6_cif.got.tgz:10078.got - 2010.04.16 15:19:21.
