data_PCOD8226056
_publ_section_title
;
Structure prediction by ZEFSAII (Michael W. Deem and Ramdas Pophale) SiO2 
 PCOD8226056
Probable space group: P B A M
;
_chemical_formula_sum "Si O2"
_cell_formula_units_Z 56
_cell_length_a 16.531408
_cell_length_b 20.170796
_cell_length_c 8.762203
_cell_angle_alpha 90.000000
_cell_angle_beta 90.000000
_cell_angle_gamma 90.000000
_cell_volume 2921.771121
_symmetry_space_group_name_H-M "P B A M"
_symmetry_group_IT_number 55
_symmetry_cell_setting 'orthorhombic'
loop_
_space_group_symop_operation_xyz
x,y,z
-x,-y,z
1/2+x,1/2-y,-z
1/2-x,1/2+y,-z
-x,-y,-z
x,y,-z
1/2-x,1/2+y,z
1/2+x,1/2-y,z
loop_
_atom_site_type_symbol
_atom_site_label
_atom_site_fract_x
_atom_site_fract_y
_atom_site_fract_z
Si Si1 0.310529 0.388444 0.319003
Si Si2 0.851872 0.855722 0.820386
Si Si3 0.980448 0.165808 0.681751
Si Si4 0.063651 0.553051 0.318594
Si Si5 0.183764 0.282017 0.676945
Si Si6 0.246723 0.529218 0.680923
Si Si7 0.002832 0.311471 0.675829
O O1 0.303884 0.387537 0.500000
O O2 0.402056 0.374973 0.264292
O O3 0.252508 0.330412 0.255745
O O4 0.282409 0.459730 0.258057
O O5 0.813986 0.786000 0.769585
O O6 0.792996 0.912827 0.765170
O O7 0.940253 0.868869 0.749337
O O8 0.859953 0.857249 0.000000
O O9 0.989936 0.166516 0.500000
O O10 0.973687 0.241246 0.746390
O O11 0.054677 0.555592 0.500000
O O12 0.153246 0.532146 0.269734
O O13 0.042169 0.625621 0.247999
O O14 0.000000 0.500000 0.251400
O O15 0.198792 0.264293 0.500000
O O16 0.098882 0.319859 0.697789
O O17 0.257392 0.537208 0.500000
O O18 0.978622 0.310140 0.500000
#
# Coordination Sequence:
#
# PCOD8226056 Si02
#       7
#     8   8   8   8   8   8   8
#     4   9  18  32  56  86 108 133 178 232 279 327
#     4  11  23  38  53  75 109 147 189 226 267 323
#     4   9  18  34  55  77 102 134 180 231 278 321
#     4   9  16  26  47  80 114 139 166 210 266 327
#     4   9  17  33  58  82 108 138 176 226 277 323
#     4  10  20  34  55  83 112 143 179 223 277 327
#     4   8  14  25  45  74 103 133 167 207 258 318
#
# _framework density 19.166456
#
# number of rings (size 3 to 8) (size 9 to 14) (size 15 to 20)
#    0.000    2.714    0.000    3.000    2.000    4.000 
#    0.000    5.000    0.000    0.429    0.000    0.000 
#    0.000    0.000    0.000    0.000    0.000    0.000 
#
# Total GULP energy -694287.420763 kJ/mol
# GULP energy per Si atom -12397.989656 kJ/mol
# Density = 1.912283 g / cm^3
# Si number density = 19.166456 Si / 1000 Ang^3
#
#
#
# Elastic Constant Matrix: (Units=GPa)
#
#
# Indices 1 2 3 4 5 6 
#
# 1 126.5050 80.8817 31.3638 0.0000 0.0000 0.0000
# 2 80.8817 126.2539 26.5521 0.0000 0.0000 0.0000
# 3 31.3638 26.5521 38.9758 0.0000 0.0000 0.0000
# 4 0.0000 0.0000 0.0000 1.9207 0.0000 0.0000
# 5 0.0000 0.0000 0.0000 0.0000 2.6964 0.0000
# 6 0.0000 0.0000 0.0000 0.0000 0.0000 41.0830
#
#
#
# Elastic Compliance Matrix: (Units=1/GPa)
#
#
# Indices 1 2 3 4 5 6 
#
# 1 0.014594 -0.008030 -0.006274 0.000000 0.000000 0.000000
# 2 -0.008030 0.013663 -0.002846 0.000000 0.000000 0.000000
# 3 -0.006274 -0.002846 0.032644 0.000000 0.000000 0.000000
# 4 0.000000 0.000000 0.000000 0.520657 0.000000 0.000000
# 5 0.000000 0.000000 0.000000 0.000000 0.370871 0.000000
# 6 0.000000 0.000000 0.000000 0.000000 0.000000 0.024341
#
#
# Mechanical properties :
#
#
# Convention : Reuss Voigt Hill
#
# Bulk Modulus (GPa) = 37.59106 63.25889 50.42497
# Shear Modulus (GPa) = 4.90226 19.33582 12.11904
#
# Velocity S-wave (km/s) = 1.60102 3.17966 2.51729
# Velocity P-wave (km/s) = 4.80346 6.82327 5.90043
#
# Compressibility (1/GPa) = 0.02660207
#
# Stress axis : x y z
#
# Youngs Moduli (GPa) = 68.51980 73.18777 30.63324
#
# Poissons Ratio (x) = 0.58771 0.19218
# Poissons Ratio (y) = 0.55022 0.08719
# Poissons Ratio (z) = 0.42986 0.20832
#
# Static dielectric constant tensor:
#      x y z
#    x 3.633900 0.000000 0.000000 
#    y 0.000000 3.767040 0.000000 
#    z 0.000000 0.000000 2.919320 
# 
# 
# High freq. dielectric constant tensor:
#      x y z
#    x 1.755340 0.000000 0.000000 
#    y 0.000000 1.756920 0.000000 
#    z 0.000000 0.000000 1.682360 
# 
# From -- ./inp_files/6131.got.cif
#   From: 2010.03.12/outbox.cif.g09.slc.cpg/sg55_4_cif.got.tgz:6131.got - 2010.04.16 15:19:21.
