data_PCOD8226738
_publ_section_title
;
Structure prediction by ZEFSAII (Michael W. Deem and Ramdas Pophale) SiO2 
 PCOD8226738
Probable space group: P B A M
;
_chemical_formula_sum "Si O2"
_cell_formula_units_Z 64
_cell_length_a 23.843645
_cell_length_b 15.503430
_cell_length_c 8.983234
_cell_angle_alpha 90.000000
_cell_angle_beta 90.000000
_cell_angle_gamma 90.000000
_cell_volume 3320.726840
_symmetry_space_group_name_H-M "P B A M"
_symmetry_group_IT_number 55
_symmetry_cell_setting 'orthorhombic'
loop_
_space_group_symop_operation_xyz
x,y,z
-x,-y,z
1/2+x,1/2-y,-z
1/2-x,1/2+y,-z
-x,-y,-z
x,y,-z
1/2-x,1/2+y,z
1/2+x,1/2-y,z
loop_
_atom_site_type_symbol
_atom_site_label
_atom_site_fract_x
_atom_site_fract_y
_atom_site_fract_z
Si Si1 0.007247 0.863491 0.823846
Si Si2 0.412537 0.512446 0.176276
Si Si3 0.213136 0.996346 0.175612
Si Si4 0.733146 0.168509 0.675718
Si Si5 0.387038 0.090966 0.327293
Si Si6 0.215769 0.664135 0.175076
Si Si7 0.113394 0.398177 0.675131
Si Si8 0.000647 0.314984 0.672052
O O1 0.948285 0.904933 0.768056
O O2 0.017002 0.771379 0.753562
O O3 0.058095 0.924395 0.768455
O O4 0.007733 0.853853 0.000000
O O5 0.349218 0.517924 0.235207
O O6 0.413464 0.512891 0.000000
O O7 0.233134 0.912134 0.260941
O O8 0.251500 0.077189 0.218307
O O9 0.214034 0.977516 0.000000
O O10 0.742592 0.172227 0.500000
O O11 0.753791 0.256089 0.748699
O O12 0.667543 0.158344 0.716659
O O13 0.369468 0.096613 0.500000
O O14 0.347437 0.155872 0.235493
O O15 0.451633 0.115861 0.304057
O O16 0.379473 0.994761 0.260791
O O17 0.214727 0.680739 0.000000
O O18 0.104760 0.407989 0.500000
O O19 0.058053 0.352885 0.742762
O O20 0.009523 0.292927 0.500000
#
# Coordination Sequence:
#
# PCOD8226738 Si02
#       8
#     8   8   8   8   8   8   8   8
#     4   9  18  35  57  81 109 146 186 227 276 339
#     4   8  17  35  57  78 108 148 186 222 276 339
#     4  10  21  39  61  86 116 154 195 241 292 344
#     4  11  23  39  61  87 118 155 197 239 289 349
#     4  10  20  39  62  82 111 149 193 237 285 343
#     4  11  24  39  59  87 121 156 195 240 292 346
#     4   9  19  38  60  82 111 149 188 233 287 341
#     4  10  21  35  57  86 112 142 186 237 288 339
#
# _framework density 19.27289
#
# number of rings (size 3 to 8) (size 9 to 14) (size 15 to 20)
#    0.000    2.250    1.250    1.875    3.500    2.500 
#    0.000    3.125    0.000    1.500    0.000    0.000 
#    0.000    0.000    0.000    0.000    0.000    0.000 
#
# Total GULP energy -793651.978265 kJ/mol
# GULP energy per Si atom -12400.812160 kJ/mol
# Density = 1.922902 g / cm^3
# Si number density = 19.272890 Si / 1000 Ang^3
#
#
#
# Elastic Constant Matrix: (Units=GPa)
#
#
# Indices 1 2 3 4 5 6 
#
# 1 112.6418 27.0951 30.2534 0.0000 0.0000 0.0000
# 2 27.0951 105.8347 33.7763 0.0000 0.0000 0.0000
# 3 30.2534 33.7763 46.1980 0.0000 0.0000 0.0000
# 4 0.0000 0.0000 0.0000 16.9565 0.0000 0.0000
# 5 0.0000 0.0000 0.0000 0.0000 22.3442 0.0000
# 6 0.0000 0.0000 0.0000 0.0000 0.0000 29.0862
#
#
#
# Elastic Compliance Matrix: (Units=1/GPa)
#
#
# Indices 1 2 3 4 5 6 
#
# 1 0.010808 -0.000663 -0.006593 0.000000 0.000000 0.000000
# 2 -0.000663 0.012365 -0.008606 0.000000 0.000000 0.000000
# 3 -0.006593 -0.008606 0.032256 0.000000 0.000000 0.000000
# 4 0.000000 0.000000 0.000000 0.058975 0.000000 0.000000
# 5 0.000000 0.000000 0.000000 0.000000 0.044754 0.000000
# 6 0.000000 0.000000 0.000000 0.000000 0.000000 0.034381
#
#
# Mechanical properties :
#
#
# Convention : Reuss Voigt Hill
#
# Bulk Modulus (GPa) = 42.18644 49.65822 45.92233
# Shear Modulus (GPa) = 21.44416 25.24736 23.34576
#
# Velocity S-wave (km/s) = 3.33927 3.62331 3.48419
# Velocity P-wave (km/s) = 6.06665 6.58227 6.32971
#
# Compressibility (1/GPa) = 0.02370430
#
# Stress axis : x y z
#
# Youngs Moduli (GPa) = 92.52472 80.87349 31.00229
#
# Poissons Ratio (x) = 0.05361 0.20440
# Poissons Ratio (y) = 0.06133 0.26681
# Poissons Ratio (z) = 0.61002 0.69601
#
# Static dielectric constant tensor:
#      x y z
#    x 3.864170 0.000000 0.000000 
#    y 0.000000 3.571450 0.000000 
#    z 0.000000 0.000000 3.252490 
# 
# 
# High freq. dielectric constant tensor:
#      x y z
#    x 1.765670 0.000000 0.000000 
#    y 0.000000 1.757500 0.000000 
#    z 0.000000 0.000000 1.720150 
# 
# From -- ./inp_files/9736.got.cif
#   From: 2010.03.12/outbox.cif.g09.slc.cpg/sg55_5_cif.got.tgz:9736.got - 2010.04.16 15:19:21.
