data_PCOD8226245
_publ_section_title
;
Structure prediction by ZEFSAII (Michael W. Deem and Ramdas Pophale) SiO2 
 PCOD8226245
Probable space group: P B A M
;
_chemical_formula_sum "Si O2"
_cell_formula_units_Z 48
_cell_length_a 18.446627
_cell_length_b 14.843990
_cell_length_c 9.135927
_cell_angle_alpha 90.000000
_cell_angle_beta 90.000000
_cell_angle_gamma 90.000000
_cell_volume 2501.613662
_symmetry_space_group_name_H-M "P B A M"
_symmetry_group_IT_number 55
_symmetry_cell_setting 'orthorhombic'
loop_
_space_group_symop_operation_xyz
x,y,z
-x,-y,z
1/2+x,1/2-y,-z
1/2-x,1/2+y,-z
-x,-y,-z
x,y,-z
1/2-x,1/2+y,z
1/2+x,1/2-y,z
loop_
_atom_site_type_symbol
_atom_site_label
_atom_site_fract_x
_atom_site_fract_y
_atom_site_fract_z
Si Si1 0.734185 0.300383 0.667999
Si Si2 0.981244 0.098937 0.828425
Si Si3 0.591439 0.245529 0.827609
Si Si4 0.219655 0.504867 0.673774
Si Si5 0.663978 0.637901 0.333096
Si Si6 0.065497 0.434385 0.327165
O O1 0.707028 0.306673 0.500000
O O2 0.671600 0.257109 0.764887
O O3 0.756872 0.397284 0.732348
O O4 0.804732 0.238146 0.678702
O O5 0.908606 0.136155 0.758433
O O6 0.046524 0.165288 0.787091
O O7 0.967836 0.094400 0.000000
O O8 0.000000 0.000000 0.765884
O O9 0.552575 0.160172 0.753602
O O10 0.595636 0.229630 0.000000
O O11 0.216902 0.504967 0.500000
O O12 0.277880 0.432789 0.732175
O O13 0.139974 0.478883 0.731891
O O14 0.645940 0.612486 0.500000
O O15 0.068479 0.415911 0.500000
O O16 0.000000 0.500000 0.284873
#
# Coordination Sequence:
#
# PCOD8226245 Si02
#       6
#     8   8   8   8   8   8
#     4  10  20  36  60  85 114 147 187 238 285 341
#     4  10  23  41  58  80 116 156 194 235 283 344
#     4  11  23  39  59  85 119 156 193 237 289 343
#     4   9  18  35  57  86 115 142 184 238 287 335
#     4  10  20  35  58  87 114 142 186 239 286 333
#     4  10  21  38  62  86 114 155 197 239 292 347
#
# _framework density 19.187615000000001
#
# number of rings (size 3 to 8) (size 9 to 14) (size 15 to 20)
#    0.000    2.000    1.667    1.500    2.333    2.667 
#    0.000    0.833    0.000    0.000    0.000    0.000 
#    0.000    0.000    0.000    0.000    0.000    0.000 
#
# Total GULP energy -595384.436433 kJ/mol
# GULP energy per Si atom -12403.842426 kJ/mol
# Density = 1.914394 g / cm^3
# Si number density = 19.187615 Si / 1000 Ang^3
#
#
#
# Elastic Constant Matrix: (Units=GPa)
#
#
# Indices 1 2 3 4 5 6 
#
# 1 89.3942 20.0560 35.9833 0.0000 0.0000 0.0000
# 2 20.0560 123.6679 37.7793 0.0000 0.0000 0.0000
# 3 35.9833 37.7793 42.7079 0.0000 0.0000 0.0000
# 4 0.0000 0.0000 0.0000 24.7334 0.0000 0.0000
# 5 0.0000 0.0000 0.0000 0.0000 21.5453 0.0000
# 6 0.0000 0.0000 0.0000 0.0000 0.0000 32.1633
#
#
#
# Elastic Compliance Matrix: (Units=1/GPa)
#
#
# Indices 1 2 3 4 5 6 
#
# 1 0.017379 0.002267 -0.016648 0.000000 0.000000 0.000000
# 2 0.002267 0.011376 -0.011974 0.000000 0.000000 0.000000
# 3 -0.016648 -0.011974 0.048034 0.000000 0.000000 0.000000
# 4 0.000000 0.000000 0.000000 0.040431 0.000000 0.000000
# 5 0.000000 0.000000 0.000000 0.000000 0.046414 0.000000
# 6 0.000000 0.000000 0.000000 0.000000 0.000000 0.031091
#
#
# Mechanical properties :
#
#
# Convention : Reuss Voigt Hill
#
# Bulk Modulus (GPa) = 41.52887 49.26748 45.39818
# Shear Modulus (GPa) = 19.57237 26.48515 23.02876
#
# Velocity S-wave (km/s) = 3.19729 3.71930 3.46813
# Velocity P-wave (km/s) = 5.94313 6.64656 6.30466
#
# Compressibility (1/GPa) = 0.02407963
#
# Stress axis : x y z
#
# Youngs Moduli (GPa) = 57.54038 87.90163 20.81860
#
# Poissons Ratio (x) = -0.19931 0.34660
# Poissons Ratio (y) = -0.13047 0.24928
# Poissons Ratio (z) = 0.95796 1.05253
#
# Static dielectric constant tensor:
#      x y z
#    x 3.484250 0.000000 0.000000 
#    y 0.000000 3.809910 0.000000 
#    z 0.000000 0.000000 3.249480 
# 
# 
# High freq. dielectric constant tensor:
#      x y z
#    x 1.751730 0.000000 0.000000 
#    y 0.000000 1.764650 0.000000 
#    z 0.000000 0.000000 1.717950 
# 
# From -- ./inp_files/5601.got.cif
#   From: 2010.03.12/outbox.cif.g09.slc.cpg/sg55_3_cif.got.tgz:5601.got - 2010.04.16 15:19:21.
