data_PCOD8226854
_publ_section_title
;
Structure prediction by ZEFSAII (Michael W. Deem and Ramdas Pophale) SiO2 
 PCOD8226854
Probable space group: P B A M
;
_chemical_formula_sum "Si O2"
_cell_formula_units_Z 64
_cell_length_a 10.913892
_cell_length_b 32.558762
_cell_length_c 9.260602
_cell_angle_alpha 90.000000
_cell_angle_beta 90.000000
_cell_angle_gamma 90.000000
_cell_volume 3290.688357
_symmetry_space_group_name_H-M "P B A M"
_symmetry_group_IT_number 55
_symmetry_cell_setting 'orthorhombic'
loop_
_space_group_symop_operation_xyz
x,y,z
-x,-y,z
1/2+x,1/2-y,-z
1/2-x,1/2+y,-z
-x,-y,-z
x,y,-z
1/2-x,1/2+y,z
1/2+x,1/2-y,z
loop_
_atom_site_type_symbol
_atom_site_label
_atom_site_fract_x
_atom_site_fract_y
_atom_site_fract_z
Si Si1 0.616657 0.973671 0.328870
Si Si2 0.020254 0.829228 0.338391
Si Si3 0.079432 0.617636 0.669841
Si Si4 0.258015 0.192108 0.660836
Si Si5 0.881204 0.101776 0.162514
Si Si6 0.701276 0.726887 0.168598
Si Si7 0.136368 0.345840 0.158699
Si Si8 0.866593 0.018935 0.331169
O O1 0.608307 0.972969 0.500000
O O2 0.605966 0.927514 0.264271
O O3 0.500000 0.000000 0.268423
O O4 0.751131 0.990569 0.283374
O O5 0.074834 0.835112 0.500000
O O6 0.019756 0.872990 0.256002
O O7 0.092363 0.794704 0.252706
O O8 0.884845 0.813015 0.348356
O O9 0.070475 0.613183 0.500000
O O10 0.184835 0.649312 0.716781
O O11 0.951230 0.635668 0.722148
O O12 0.308993 0.203088 0.500000
O O13 0.289553 0.227099 0.774611
O O14 0.759620 0.128394 0.159712
O O15 0.851785 0.059227 0.237460
O O16 0.930706 0.094576 0.000000
O O17 0.827788 0.701522 0.194640
O O18 0.667802 0.727729 0.000000
O O19 0.074639 0.348252 0.000000
O O20 0.857358 0.029721 0.500000
O O21 0.000000 0.000000 0.295780
#
# Coordination Sequence:
#
# PCOD8226854 Si02
#       8
#     8   8   8   8   8   8   8   8
#     4   9  18  34  57  86 117 148 188 238 294 353
#     4  10  21  38  61  85 114 149 194 243 290 344
#     4  10  21  36  58  85 116 149 187 239 293 344
#     4  10  23  38  56  84 116 151 192 243 294 340
#     4  10  21  38  59  84 117 153 193 237 290 349
#     4  10  22  39  59  83 115 153 193 238 290 346
#     4   9  20  38  57  82 112 148 191 234 280 342
#     4  10  21  35  59  88 114 151 198 244 293 351
#
# _framework density 19.448817999999999
#
# number of rings (size 3 to 8) (size 9 to 14) (size 15 to 20)
#    0.000    2.250    0.000    2.625    3.500    5.750 
#    0.000    0.625    0.000    2.250    0.000    0.000 
#    0.000    0.000    0.000    0.000    0.000    0.000 
#
# Total GULP energy -793412.074917 kJ/mol
# GULP energy per Si atom -12397.063671 kJ/mol
# Density = 1.940455 g / cm^3
# Si number density = 19.448818 Si / 1000 Ang^3
#
#
#
# Elastic Constant Matrix: (Units=GPa)
#
#
# Indices 1 2 3 4 5 6 
#
# 1 82.8234 43.4155 21.9811 0.0000 0.0000 0.0000
# 2 43.4155 154.6727 56.6019 0.0000 0.0000 0.0000
# 3 21.9811 56.6019 71.4129 0.0000 0.0000 0.0000
# 4 0.0000 0.0000 0.0000 -0.8642 0.0000 0.0000
# 5 0.0000 0.0000 0.0000 0.0000 5.4884 0.0000
# 6 0.0000 0.0000 0.0000 0.0000 0.0000 22.6265
#
#
#
# Elastic Compliance Matrix: (Units=1/GPa)
#
#
# Indices 1 2 3 4 5 6 
#
# 1 0.014305 -0.003386 -0.001719 0.000000 0.000000 0.000000
# 2 -0.003386 0.009908 -0.006811 0.000000 0.000000 0.000000
# 3 -0.001719 -0.006811 0.019931 0.000000 0.000000 0.000000
# 4 0.000000 0.000000 0.000000 -1.157098 0.000000 0.000000
# 5 0.000000 0.000000 0.000000 0.000000 0.182201 0.000000
# 6 0.000000 0.000000 0.000000 0.000000 0.000000 0.044196
#
#
# Mechanical properties :
#
#
# Convention : Reuss Voigt Hill
#
# Bulk Modulus (GPa) = 49.23403 61.43400 55.33401
# Shear Modulus (GPa) = -5.84144 17.91083 6.03470
#
# Velocity S-wave (km/s) = -1.73494 3.03796 1.76340
# Velocity P-wave (km/s) = 4.62128 6.63036 5.71480
#
# Compressibility (1/GPa) = 0.02031116
#
# Stress axis : x y z
#
# Youngs Moduli (GPa) = 69.90460 100.92658 50.17399
#
# Poissons Ratio (x) = 0.34176 0.08626
# Poissons Ratio (y) = 0.23671 0.34173
# Poissons Ratio (z) = 0.12019 0.68741
#
# Static dielectric constant tensor:
#      x y z
#    x 3.539350 0.000000 0.000000 
#    y 0.000000 3.863610 0.000000 
#    z 0.000000 0.000000 3.720390 
# 
# 
# High freq. dielectric constant tensor:
#      x y z
#    x 1.752360 0.000000 0.000000 
#    y 0.000000 1.768160 0.000000 
#    z 0.000000 0.000000 1.746740 
# 
# From -- ./inp_files/4633.got.cif
#   From: 2010.03.12/outbox.cif.g09.slc.cpg/sg55_3_cif.got.tgz:4633.got - 2010.04.16 15:19:21.
