data_PCOD8226661
_publ_section_title
;
Structure prediction by ZEFSAII (Michael W. Deem and Ramdas Pophale) SiO2 
 PCOD8226661
Probable space group: P B A M
;
_chemical_formula_sum "Si O2"
_cell_formula_units_Z 64
_cell_length_a 24.300340
_cell_length_b 15.290096
_cell_length_c 8.845694
_cell_angle_alpha 90.000000
_cell_angle_beta 90.000000
_cell_angle_gamma 90.000000
_cell_volume 3286.657689
_symmetry_space_group_name_H-M "P B A M"
_symmetry_group_IT_number 55
_symmetry_cell_setting 'orthorhombic'
loop_
_space_group_symop_operation_xyz
x,y,z
-x,-y,z
1/2+x,1/2-y,-z
1/2-x,1/2+y,-z
-x,-y,-z
x,y,-z
1/2-x,1/2+y,z
1/2+x,1/2-y,z
loop_
_atom_site_type_symbol
_atom_site_label
_atom_site_fract_x
_atom_site_fract_y
_atom_site_fract_z
Si Si1 0.573072 0.553642 0.677071
Si Si2 0.455536 0.794211 0.323897
Si Si3 0.223411 0.516282 0.823965
Si Si4 0.694167 0.616668 0.675718
Si Si5 0.310522 0.187477 0.323011
Si Si6 0.464025 0.616707 0.178934
Si Si7 0.570568 0.878272 0.675224
Si Si8 0.897281 0.547801 0.823824
O O1 0.559477 0.548607 0.500000
O O2 0.630201 0.601204 0.708310
O O3 0.574832 0.456652 0.746802
O O4 0.525935 0.609502 0.758607
O O5 0.447456 0.774270 0.500000
O O6 0.439361 0.709677 0.226833
O O7 0.518406 0.818830 0.286633
O O8 0.413976 0.869487 0.274769
O O9 0.271360 0.454140 0.766146
O O10 0.227298 0.613606 0.753997
O O11 0.165648 0.472223 0.781345
O O12 0.230624 0.528537 0.000000
O O13 0.707799 0.605080 0.500000
O O14 0.708072 0.715593 0.730271
O O15 0.302035 0.177796 0.500000
O O16 0.374703 0.175092 0.280321
O O17 0.463777 0.605339 0.000000
O O18 0.571107 0.906390 0.500000
O O19 0.565534 0.965436 0.775624
O O20 0.905916 0.567165 0.000000
#
# Coordination Sequence:
#
# PCOD8226661 Si02
#       8
#     8   8   8   8   8   8   8   8
#     4  10  20  38  61  84 112 145 185 230 278 332
#     4  11  21  34  54  81 111 149 192 229 276 335
#     4  10  22  39  57  81 115 151 186 233 289 339
#     4  10  21  38  63  89 110 144 193 239 281 332
#     4   9  18  36  60  84 110 142 184 234 282 333
#     4  11  22  36  55  83 118 151 183 224 280 335
#     4   9  18  33  55  81 109 142 184 231 279 332
#     4  10  21  36  52  76 112 149 186 230 284 338
#
# _framework density 19.472670000000001
#
# number of rings (size 3 to 8) (size 9 to 14) (size 15 to 20)
#    0.000    2.000    0.000    4.500    0.000    7.500 
#    2.250    2.500    0.000    0.000    0.000    0.000 
#    0.000    0.000    0.000    0.000    0.000    0.000 
#
# Total GULP energy -793790.521201 kJ/mol
# GULP energy per Si atom -12402.976894 kJ/mol
# Density = 1.942835 g / cm^3
# Si number density = 19.472670 Si / 1000 Ang^3
#
#
#
# Elastic Constant Matrix: (Units=GPa)
#
#
# Indices 1 2 3 4 5 6 
#
# 1 31.6785 30.0963 17.1643 0.0000 0.0000 0.0000
# 2 30.0963 134.7552 28.3667 0.0000 0.0000 0.0000
# 3 17.1643 28.3667 39.7840 0.0000 0.0000 0.0000
# 4 0.0000 0.0000 0.0000 17.8845 0.0000 0.0000
# 5 0.0000 0.0000 0.0000 0.0000 25.0291 0.0000
# 6 0.0000 0.0000 0.0000 0.0000 0.0000 23.9536
#
#
#
# Elastic Compliance Matrix: (Units=1/GPa)
#
#
# Indices 1 2 3 4 5 6 
#
# 1 0.046536 -0.007256 -0.014904 0.000000 0.000000 0.000000
# 2 -0.007256 0.009863 -0.003902 0.000000 0.000000 0.000000
# 3 -0.014904 -0.003902 0.034348 0.000000 0.000000 0.000000
# 4 0.000000 0.000000 0.000000 0.055914 0.000000 0.000000
# 5 0.000000 0.000000 0.000000 0.000000 0.039954 0.000000
# 6 0.000000 0.000000 0.000000 0.000000 0.000000 0.041747
#
#
# Mechanical properties :
#
#
# Convention : Reuss Voigt Hill
#
# Bulk Modulus (GPa) = 25.89093 39.71914 32.80503
# Shear Modulus (GPa) = 17.04394 22.07946 19.56170
#
# Velocity S-wave (km/s) = 2.96171 3.37095 3.17294
# Velocity P-wave (km/s) = 5.00206 5.96596 5.50515
#
# Compressibility (1/GPa) = 0.03862356
#
# Stress axis : x y z
#
# Youngs Moduli (GPa) = 21.48872 101.39118 29.11400
#
# Poissons Ratio (x) = 0.73570 0.43390
# Poissons Ratio (y) = 0.15592 0.11360
# Poissons Ratio (z) = 0.32026 0.39561
#
# Static dielectric constant tensor:
#      x y z
#    x 3.401910 0.000000 0.000000 
#    y 0.000000 3.719140 0.000000 
#    z 0.000000 0.000000 3.534020 
# 
# 
# High freq. dielectric constant tensor:
#      x y z
#    x 1.740100 0.000000 0.000000 
#    y 0.000000 1.770700 0.000000 
#    z 0.000000 0.000000 1.760560 
# 
# From -- ./inp_files/9695.got.cif
#   From: 2010.03.12/outbox.cif.g09.slc.cpg/sg55_5_cif.got.tgz:9695.got - 2010.04.16 15:19:21.
