data_PCOD8226886
_publ_section_title
;
Structure prediction by ZEFSAII (Michael W. Deem and Ramdas Pophale) SiO2 
 PCOD8226886
Probable space group: P B A M
;
_chemical_formula_sum "Si O2"
_cell_formula_units_Z 48
_cell_length_a 10.185231
_cell_length_b 25.058971
_cell_length_c 9.077407
_cell_angle_alpha 90.000000
_cell_angle_beta 90.000000
_cell_angle_gamma 90.000000
_cell_volume 2316.839372
_symmetry_space_group_name_H-M "P B A M"
_symmetry_group_IT_number 55
_symmetry_cell_setting 'orthorhombic'
loop_
_space_group_symop_operation_xyz
x,y,z
-x,-y,z
1/2+x,1/2-y,-z
1/2-x,1/2+y,-z
-x,-y,-z
x,y,-z
1/2-x,1/2+y,z
1/2+x,1/2-y,z
loop_
_atom_site_type_symbol
_atom_site_label
_atom_site_fract_x
_atom_site_fract_y
_atom_site_fract_z
Si Si1 0.802835 0.397109 0.167902
Si Si2 0.701141 0.283370 0.173311
Si Si3 0.836859 0.106512 0.663872
Si Si4 0.933422 0.219987 0.323396
Si Si5 0.443677 0.923546 0.335277
Si Si6 0.748786 0.513092 0.170443
O O1 0.710350 0.346957 0.200129
O O2 0.718219 0.450783 0.201402
O O3 0.933253 0.393700 0.265173
O O4 0.851668 0.397430 0.000000
O O5 0.826943 0.256977 0.246780
O O6 0.573166 0.262290 0.258163
O O7 0.693509 0.269225 0.000000
O O8 0.888512 0.094230 0.500000
O O9 0.908028 0.158806 0.726442
O O10 0.679216 0.118120 0.663185
O O11 0.862481 0.052671 0.760836
O O12 0.928949 0.226739 0.500000
O O13 0.480772 0.941659 0.500000
O O14 0.392102 0.975521 0.244422
O O15 0.757449 0.526609 0.000000
#
# Coordination Sequence:
#
# PCOD8226886 Si02
#       6
#     8   8   8   8   8   8
#     4  10  21  36  54  84 124 160 201 250 302 361
#     4  11  26  45  66  93 125 162 207 261 315 371
#     4   8  19  36  56  84 117 152 195 245 296 354
#     4  11  24  46  68  91 122 161 209 258 312 375
#     4   9  18  31  52  84 119 157 199 245 296 353
#     4   9  17  31  54  85 120 161 201 245 299 359
#
# _framework density 20.717877999999999
#
# number of rings (size 3 to 8) (size 9 to 14) (size 15 to 20)
#    1.000    1.333    0.000    2.000    2.333    6.000 
#    0.000    0.833    0.000    5.000    0.000    0.000 
#    0.000    0.000    0.000    0.000    0.000    0.000 
#
# Total GULP energy -594825.569846 kJ/mol
# GULP energy per Si atom -12392.199372 kJ/mol
# Density = 2.067072 g / cm^3
# Si number density = 20.717878 Si / 1000 Ang^3
#
#
#
# Elastic Constant Matrix: (Units=GPa)
#
#
# Indices 1 2 3 4 5 6 
#
# 1 74.3626 39.4847 33.8050 0.0000 0.0000 0.0000
# 2 39.4847 91.8050 55.7802 0.0000 0.0000 0.0000
# 3 33.8050 55.7802 117.4017 0.0000 0.0000 0.0000
# 4 0.0000 0.0000 0.0000 24.4440 0.0000 0.0000
# 5 0.0000 0.0000 0.0000 0.0000 27.7009 0.0000
# 6 0.0000 0.0000 0.0000 0.0000 0.0000 24.8038
#
#
#
# Elastic Compliance Matrix: (Units=1/GPa)
#
#
# Indices 1 2 3 4 5 6 
#
# 1 0.017785 -0.006379 -0.002090 0.000000 0.000000 0.000000
# 2 -0.006379 0.017602 -0.006526 0.000000 0.000000 0.000000
# 3 -0.002090 -0.006526 0.012220 0.000000 0.000000 0.000000
# 4 0.000000 0.000000 0.000000 0.040910 0.000000 0.000000
# 5 0.000000 0.000000 0.000000 0.000000 0.036100 0.000000
# 6 0.000000 0.000000 0.000000 0.000000 0.000000 0.040316
#
#
# Mechanical properties :
#
#
# Convention : Reuss Voigt Hill
#
# Bulk Modulus (GPa) = 56.76667 60.18988 58.47827
# Shear Modulus (GPa) = 24.90094 25.68971 25.29533
#
# Velocity S-wave (km/s) = 3.47061 3.52515 3.49799
# Velocity P-wave (km/s) = 6.59693 6.75900 6.67846
#
# Compressibility (1/GPa) = 0.01761597
#
# Stress axis : x y z
#
# Youngs Moduli (GPa) = 56.22710 56.81334 81.83129
#
# Poissons Ratio (x) = 0.36243 0.17104
# Poissons Ratio (y) = 0.35869 0.53403
# Poissons Ratio (z) = 0.11752 0.37076
#
# Static dielectric constant tensor:
#      x y z
#    x 3.401000 0.000000 0.000000 
#    y 0.000000 3.763760 0.000000 
#    z 0.000000 0.000000 3.778610 
# 
# 
# High freq. dielectric constant tensor:
#      x y z
#    x 1.786880 0.000000 0.000000 
#    y 0.000000 1.807030 0.000000 
#    z 0.000000 0.000000 1.817910 
# 
# From -- ./inp_files/4184.got.cif
#   From: 2010.03.12/outbox.cif.g09.slc.cpg/sg55_3_cif.got.tgz:4184.got - 2010.04.16 15:19:21.
