data_PCOD8226726
_publ_section_title
;
Structure prediction by ZEFSAII (Michael W. Deem and Ramdas Pophale) SiO2 
 PCOD8226726
Probable space group: P B A M
;
_chemical_formula_sum "Si O2"
_cell_formula_units_Z 48
_cell_length_a 17.916819
_cell_length_b 8.842424
_cell_length_c 13.990976
_cell_angle_alpha 90.000000
_cell_angle_beta 90.000000
_cell_angle_gamma 90.000000
_cell_volume 2216.563889
_symmetry_space_group_name_H-M "P B A M"
_symmetry_group_IT_number 55
_symmetry_cell_setting 'orthorhombic'
loop_
_space_group_symop_operation_xyz
x,y,z
-x,-y,z
1/2+x,1/2-y,-z
1/2-x,1/2+y,-z
-x,-y,-z
x,y,-z
1/2-x,1/2+y,z
1/2+x,1/2-y,z
loop_
_atom_site_type_symbol
_atom_site_label
_atom_site_fract_x
_atom_site_fract_y
_atom_site_fract_z
Si Si1 0.715926 0.633718 0.894233
Si Si2 0.842363 0.771206 0.610660
Si Si3 0.744493 0.998521 0.296879
Si Si4 0.524672 0.328588 0.259011
Si Si5 0.884893 0.359274 0.799236
Si Si6 0.885468 0.678977 0.106939
O O1 0.712801 0.517439 0.805456
O O2 0.650645 0.757612 0.883713
O O3 0.797379 0.711519 0.890280
O O4 0.705849 0.556501 0.000000
O O5 0.846275 0.730065 0.500000
O O6 0.790424 0.653783 0.666408
O O7 0.804269 0.935049 0.627440
O O8 0.926378 0.772926 0.650917
O O9 0.677356 0.879099 0.283159
O O10 0.500000 0.500000 0.273421
O O11 0.453874 0.219391 0.252235
O O12 0.573692 0.314713 0.162648
O O13 0.907310 0.520367 0.843421
O O14 0.917168 0.677265 0.000000
#
# Coordination Sequence:
#
# PCOD8226726 Si02
#       6
#     8   8   8   8   8   8
#     4  10  20  38  70 104 136 177 228 275 330 397
#     4  12  26  48  73 100 129 174 233 289 349 399
#     4  11  22  45  71 102 133 176 225 287 333 398
#     4  12  26  43  64  95 141 180 217 284 342 404
#     4  11  21  40  68  94 140 182 222 267 339 399
#     4  10  22  41  66  96 137 185 231 273 331 409
#
# _framework density 21.655139999999999
#
# number of rings (size 3 to 8) (size 9 to 14) (size 15 to 20)
#    0.000    1.000    5.000    2.500    0.000    4.667 
#    0.000    8.333    0.000    0.000    0.000    0.000 
#    0.000    0.000    0.000    0.000    0.000    0.000 
#
# Total GULP energy -595175.953609 kJ/mol
# GULP energy per Si atom -12399.499034 kJ/mol
# Density = 2.160585 g / cm^3
# Si number density = 21.655140 Si / 1000 Ang^3
#
#
#
# Elastic Constant Matrix: (Units=GPa)
#
#
# Indices 1 2 3 4 5 6 
#
# 1 96.1544 40.8631 42.7810 0.0000 0.0000 0.0000
# 2 40.8631 65.3319 32.1610 0.0000 0.0000 0.0000
# 3 42.7810 32.1610 139.6128 0.0000 0.0000 0.0000
# 4 0.0000 0.0000 0.0000 24.1960 0.0000 0.0000
# 5 0.0000 0.0000 0.0000 0.0000 25.5194 0.0000
# 6 0.0000 0.0000 0.0000 0.0000 0.0000 39.9105
#
#
#
# Elastic Compliance Matrix: (Units=1/GPa)
#
#
# Indices 1 2 3 4 5 6 
#
# 1 0.015050 -0.008057 -0.002756 0.000000 0.000000 0.000000
# 2 -0.008057 0.021577 -0.002502 0.000000 0.000000 0.000000
# 3 -0.002756 -0.002502 0.008583 0.000000 0.000000 0.000000
# 4 0.000000 0.000000 0.000000 0.041329 0.000000 0.000000
# 5 0.000000 0.000000 0.000000 0.000000 0.039186 0.000000
# 6 0.000000 0.000000 0.000000 0.000000 0.000000 0.025056
#
#
# Mechanical properties :
#
#
# Convention : Reuss Voigt Hill
#
# Bulk Modulus (GPa) = 53.81500 59.18994 56.50247
# Shear Modulus (GPa) = 27.23253 30.27811 28.75532
#
# Velocity S-wave (km/s) = 3.55005 3.74330 3.64796
# Velocity P-wave (km/s) = 6.45822 6.78789 6.62511
#
# Compressibility (1/GPa) = 0.01858218
#
# Stress axis : x y z
#
# Youngs Moduli (GPa) = 66.44562 46.34526 116.50399
#
# Poissons Ratio (x) = 0.37339 0.32106
# Poissons Ratio (y) = 0.53533 0.29146
# Poissons Ratio (z) = 0.18311 0.11594
#
# Static dielectric constant tensor:
#      x y z
#    x 4.007860 0.000000 0.000000 
#    y 0.000000 3.807350 0.000000 
#    z 0.000000 0.000000 3.856870 
# 
# 
# High freq. dielectric constant tensor:
#      x y z
#    x 1.854460 0.000000 0.000000 
#    y 0.000000 1.848900 0.000000 
#    z 0.000000 0.000000 1.833050 
# 
# From -- ./inp_files/17359.got.cif
#   From: 2010.03.12/outbox.cif.g09.slc.cpg/sg55_9_cif.got.tgz:17359.got - 2010.04.16 15:19:21.
