data_PCOD8226349
_publ_section_title
;
Structure prediction by ZEFSAII (Michael W. Deem and Ramdas Pophale) SiO2 
 PCOD8226349
Probable space group: P B A M
;
_chemical_formula_sum "Si O2"
_cell_formula_units_Z 56
_cell_length_a 21.430049
_cell_length_b 14.920365
_cell_length_c 8.865923
_cell_angle_alpha 90.000000
_cell_angle_beta 90.000000
_cell_angle_gamma 90.000000
_cell_volume 2834.827041
_symmetry_space_group_name_H-M "P B A M"
_symmetry_group_IT_number 55
_symmetry_cell_setting 'orthorhombic'
loop_
_space_group_symop_operation_xyz
x,y,z
-x,-y,z
1/2+x,1/2-y,-z
1/2-x,1/2+y,-z
-x,-y,-z
x,y,-z
1/2-x,1/2+y,z
1/2+x,1/2-y,z
loop_
_atom_site_type_symbol
_atom_site_label
_atom_site_fract_x
_atom_site_fract_y
_atom_site_fract_z
Si Si1 0.431463 0.478352 0.822102
Si Si2 0.808077 0.930896 0.823783
Si Si3 0.728022 0.075186 0.325885
Si Si4 0.104100 0.782995 0.821979
Si Si5 0.523408 0.857569 0.321501
Si Si6 0.407668 0.965404 0.678313
Si Si7 0.769613 0.273697 0.672815
O O1 0.500000 0.500000 0.751819
O O2 0.382029 0.558068 0.783890
O O3 0.404459 0.384051 0.758659
O O4 0.438642 0.467350 0.000000
O O5 0.775945 0.849469 0.737503
O O6 0.778233 0.025444 0.776436
O O7 0.798324 0.915224 0.000000
O O8 0.735685 0.045291 0.500000
O O9 0.660940 0.049897 0.256658
O O10 0.733818 0.180987 0.308390
O O11 0.042216 0.730534 0.770132
O O12 0.163947 0.732425 0.753942
O O13 0.111057 0.781661 0.000000
O O14 0.527666 0.839633 0.500000
O O15 0.453905 0.885814 0.269017
O O16 0.569116 0.937629 0.269544
O O17 0.406679 0.962083 0.500000
O O18 0.783270 0.298070 0.500000
#
# Coordination Sequence:
#
# PCOD8226349 Si02
#       7
#     8   8   8   8   8   8   8
#     4   9  20  39  60  82 115 157 196 240 298 354
#     4  11  22  38  61  87 117 154 199 249 296 350
#     4  10  20  36  58  82 114 152 191 237 291 347
#     4  11  21  36  58  84 113 149 198 245 292 352
#     4   9  17  32  55  80 110 147 186 227 284 349
#     4   8  16  32  53  78 109 148 186 226 282 348
#     4  11  23  37  57  84 116 154 195 243 299 355
#
# _framework density 19.754292
#
# number of rings (size 3 to 8) (size 9 to 14) (size 15 to 20)
#    0.000    2.143    1.429    3.000    0.000    2.857 
#    0.000    2.143    0.000    6.000    0.000    0.000 
#    0.000    0.000    0.000    0.000    0.000    0.000 
#
# Total GULP energy -694252.439320 kJ/mol
# GULP energy per Si atom -12397.364988 kJ/mol
# Density = 1.970933 g / cm^3
# Si number density = 19.754292 Si / 1000 Ang^3
#
#
#
# Elastic Constant Matrix: (Units=GPa)
#
#
# Indices 1 2 3 4 5 6 
#
# 1 128.8484 40.0956 31.0352 0.0000 0.0000 0.0000
# 2 40.0956 93.3691 31.5819 0.0000 0.0000 0.0000
# 3 31.0352 31.5819 64.1478 0.0000 0.0000 0.0000
# 4 0.0000 0.0000 0.0000 24.3118 0.0000 0.0000
# 5 0.0000 0.0000 0.0000 0.0000 23.9392 0.0000
# 6 0.0000 0.0000 0.0000 0.0000 0.0000 32.7781
#
#
#
# Elastic Compliance Matrix: (Units=1/GPa)
#
#
# Indices 1 2 3 4 5 6 
#
# 1 0.009441 -0.003011 -0.003085 0.000000 0.000000 0.000000
# 2 -0.003011 0.013810 -0.005343 0.000000 0.000000 0.000000
# 3 -0.003085 -0.005343 0.019712 0.000000 0.000000 0.000000
# 4 0.000000 0.000000 0.000000 0.041132 0.000000 0.000000
# 5 0.000000 0.000000 0.000000 0.000000 0.041772 0.000000
# 6 0.000000 0.000000 0.000000 0.000000 0.000000 0.030508
#
#
# Mechanical properties :
#
#
# Convention : Reuss Voigt Hill
#
# Bulk Modulus (GPa) = 49.78597 54.64341 52.21469
# Shear Modulus (GPa) = 26.88908 28.44932 27.66920
#
# Velocity S-wave (km/s) = 3.69342 3.79906 3.74661
# Velocity P-wave (km/s) = 6.59134 6.85313 6.72351
#
# Compressibility (1/GPa) = 0.02008598
#
# Stress axis : x y z
#
# Youngs Moduli (GPa) = 105.91977 72.41037 50.73029
#
# Poissons Ratio (x) = 0.21800 0.15653
# Poissons Ratio (y) = 0.31889 0.27103
# Poissons Ratio (z) = 0.32681 0.38686
#
# Static dielectric constant tensor:
#      x y z
#    x 4.161450 0.000000 0.000000 
#    y 0.000000 3.647440 0.000000 
#    z 0.000000 0.000000 3.295700 
# 
# 
# High freq. dielectric constant tensor:
#      x y z
#    x 1.782450 0.000000 0.000000 
#    y 0.000000 1.772510 0.000000 
#    z 0.000000 0.000000 1.740140 
# 
# From -- ./inp_files/5980.got.cif
#   From: 2010.03.12/outbox.cif.g09.slc.cpg/sg55_3_cif.got.tgz:5980.got - 2010.04.16 15:19:21.
