data_PCOD8226946
_publ_section_title
;
Structure prediction by ZEFSAII (Michael W. Deem and Ramdas Pophale) SiO2 
 PCOD8226946
Probable space group: P B A M
;
_chemical_formula_sum "Si O2"
_cell_formula_units_Z 64
_cell_length_a 24.017537
_cell_length_b 15.232235
_cell_length_c 9.272941
_cell_angle_alpha 90.000000
_cell_angle_beta 90.000000
_cell_angle_gamma 90.000000
_cell_volume 3392.419854
_symmetry_space_group_name_H-M "P B A M"
_symmetry_group_IT_number 55
_symmetry_cell_setting 'orthorhombic'
loop_
_space_group_symop_operation_xyz
x,y,z
-x,-y,z
1/2+x,1/2-y,-z
1/2-x,1/2+y,-z
-x,-y,-z
x,y,-z
1/2-x,1/2+y,z
1/2+x,1/2-y,z
loop_
_atom_site_type_symbol
_atom_site_label
_atom_site_fract_x
_atom_site_fract_y
_atom_site_fract_z
Si Si1 0.949072 0.252340 0.171210
Si Si2 0.367795 0.638662 0.337373
Si Si3 0.676833 0.746296 0.170615
Si Si4 0.527729 0.406154 0.163664
Si Si5 0.743406 0.402324 0.829333
Si Si6 0.133031 0.340663 0.339205
Si Si7 0.761680 0.601047 0.829463
Si Si8 0.514035 0.098780 0.332227
O O1 0.885937 0.242637 0.231482
O O2 0.974933 0.339074 0.238891
O O3 0.984200 0.167089 0.219316
O O4 0.948760 0.263073 0.000000
O O5 0.359884 0.602976 0.500000
O O6 0.417930 0.587167 0.262278
O O7 0.311873 0.627874 0.248619
O O8 0.384347 0.739758 0.337502
O O9 0.706786 0.837087 0.218874
O O10 0.710799 0.661277 0.229303
O O11 0.675226 0.741545 0.000000
O O12 0.500000 0.500000 0.173149
O O13 0.545961 0.384380 0.000000
O O14 0.756319 0.500945 0.776887
O O15 0.733457 0.397956 0.000000
O O16 0.151888 0.369376 0.500000
O O17 0.181356 0.359550 0.227745
O O18 0.078378 0.391928 0.288455
O O19 0.764328 0.606197 0.000000
O O20 0.504585 0.121058 0.500000
O O21 0.500000 0.000000 0.292670
#
# Coordination Sequence:
#
# PCOD8226946 Si02
#       8
#     8   8   8   8   8   8   8   8
#     4  10  21  37  58  84 115 147 184 238 288 333
#     4  11  22  38  60  84 115 152 192 241 286 333
#     4   9  19  36  54  80 115 144 179 229 280 329
#     4  10  22  38  60  87 114 151 195 238 289 348
#     4  10  21  37  59  85 114 149 189 233 283 342
#     4  10  21  38  58  81 114 149 189 238 281 335
#     4  10  21  36  60  86 110 147 188 230 283 337
#     4  10  22  40  59  81 113 155 191 227 283 342
#
# _framework density 18.865589
#
# number of rings (size 3 to 8) (size 9 to 14) (size 15 to 20)
#    0.000    2.000    2.500    0.375    3.500    2.000 
#    0.000    1.250    0.000    0.000    0.000    0.000 
#    0.000    0.000    0.000    0.000    0.000    0.000 
#
# Total GULP energy -793678.189050 kJ/mol
# GULP energy per Si atom -12401.221704 kJ/mol
# Density = 1.882265 g / cm^3
# Si number density = 18.865589 Si / 1000 Ang^3
#
#
#
# Elastic Constant Matrix: (Units=GPa)
#
#
# Indices 1 2 3 4 5 6 
#
# 1 116.0960 34.3523 28.7824 0.0000 0.0000 0.0000
# 2 34.3523 93.5560 18.7216 0.0000 0.0000 0.0000
# 3 28.7824 18.7216 30.6201 0.0000 0.0000 0.0000
# 4 0.0000 0.0000 0.0000 16.7723 0.0000 0.0000
# 5 0.0000 0.0000 0.0000 0.0000 1.6343 0.0000
# 6 0.0000 0.0000 0.0000 0.0000 0.0000 30.5101
#
#
#
# Elastic Compliance Matrix: (Units=1/GPa)
#
#
# Indices 1 2 3 4 5 6 
#
# 1 0.011679 -0.002383 -0.009521 0.000000 0.000000 0.000000
# 2 -0.002383 0.012665 -0.005504 0.000000 0.000000 0.000000
# 3 -0.009521 -0.005504 0.044973 0.000000 0.000000 0.000000
# 4 0.000000 0.000000 0.000000 0.059622 0.000000 0.000000
# 5 0.000000 0.000000 0.000000 0.000000 0.611885 0.000000
# 6 0.000000 0.000000 0.000000 0.000000 0.000000 0.032776
#
#
# Mechanical properties :
#
#
# Convention : Reuss Voigt Hill
#
# Bulk Modulus (GPa) = 28.98414 44.88721 36.93568
# Shear Modulus (GPa) = 6.09818 20.34438 13.22128
#
# Velocity S-wave (km/s) = 1.79985 3.28744 2.65016
# Velocity P-wave (km/s) = 4.44028 6.18502 5.38380
#
# Compressibility (1/GPa) = 0.03450162
#
# Stress axis : x y z
#
# Youngs Moduli (GPa) = 85.62223 78.95674 22.23551
#
# Poissons Ratio (x) = 0.18816 0.21171
# Poissons Ratio (y) = 0.20405 0.12238
# Poissons Ratio (z) = 0.81523 0.43455
#
# Static dielectric constant tensor:
#      x y z
#    x 3.769720 0.000000 0.000000 
#    y 0.000000 3.978710 0.000000 
#    z 0.000000 0.000000 3.333660 
# 
# 
# High freq. dielectric constant tensor:
#      x y z
#    x 1.743010 0.000000 0.000000 
#    y 0.000000 1.742040 0.000000 
#    z 0.000000 0.000000 1.712550 
# 
# From -- ./inp_files/9710.got.cif
#   From: 2010.03.12/outbox.cif.g09.slc.cpg/sg55_5_cif.got.tgz:9710.got - 2010.04.16 15:19:21.
