data_PCOD8226656
_publ_section_title
;
Structure prediction by ZEFSAII (Michael W. Deem and Ramdas Pophale) SiO2 
 PCOD8226656
Probable space group: P B A M
;
_chemical_formula_sum "Si O2"
_cell_formula_units_Z 64
_cell_length_a 13.064727
_cell_length_b 26.932734
_cell_length_c 9.167865
_cell_angle_alpha 90.000000
_cell_angle_beta 90.000000
_cell_angle_gamma 90.000000
_cell_volume 3225.885813
_symmetry_space_group_name_H-M "P B A M"
_symmetry_group_IT_number 55
_symmetry_cell_setting 'orthorhombic'
loop_
_space_group_symop_operation_xyz
x,y,z
-x,-y,z
1/2+x,1/2-y,-z
1/2-x,1/2+y,-z
-x,-y,-z
x,y,-z
1/2-x,1/2+y,z
1/2+x,1/2-y,z
loop_
_atom_site_type_symbol
_atom_site_label
_atom_site_fract_x
_atom_site_fract_y
_atom_site_fract_z
Si Si1 0.696201 0.729200 0.829735
Si Si2 0.698989 0.058533 0.830757
Si Si3 0.113497 0.126349 0.172013
Si Si4 0.554724 0.794554 0.337766
Si Si5 0.699645 0.943492 0.167498
Si Si6 0.385872 0.376871 0.171204
Si Si7 0.865820 0.772232 0.336536
Si Si8 0.001889 0.595912 0.671623
O O1 0.641297 0.780119 0.778346
O O2 0.633625 0.680261 0.785459
O O3 0.803169 0.728679 0.744804
O O4 0.716919 0.732030 0.000000
O O5 0.796205 0.088373 0.762630
O O6 0.596260 0.071488 0.745233
O O7 0.724369 0.001018 0.810280
O O8 0.681133 0.072253 0.000000
O O9 0.197031 0.085135 0.214154
O O10 0.144470 0.176766 0.250382
O O11 0.000157 0.108643 0.226327
O O12 0.110542 0.137028 0.000000
O O13 0.602017 0.801326 0.500000
O O14 0.480001 0.747772 0.338785
O O15 0.501295 0.845677 0.289883
O O16 0.605400 0.928353 0.268376
O O17 0.670743 0.931722 0.000000
O O18 0.381055 0.384508 0.000000
O O19 0.824213 0.780274 0.500000
O O20 0.995993 0.585764 0.500000
#
# Coordination Sequence:
#
# PCOD8226656 Si02
#       8
#     8   8   8   8   8   8   8   8
#     4  11  21  34  56  84 114 149 189 234 282 334
#     4  10  21  39  61  86 116 151 193 241 297 350
#     4  10  20  38  60  86 119 152 194 239 287 346
#     4  10  22  38  55  80 113 150 189 227 279 341
#     4  10  22  38  60  87 115 152 194 241 294 350
#     4   9  19  36  59  87 118 150 190 240 287 341
#     4  11  22  36  55  81 115 153 191 231 280 339
#     4  11  23  39  59  84 116 152 194 245 295 347
#
# _framework density 19.839511000000002
#
# number of rings (size 3 to 8) (size 9 to 14) (size 15 to 20)
#    0.000    1.750    1.250    3.000    0.000    6.500 
#    0.000    3.750    0.000    0.000    0.000    2.625 
#    0.000    0.000    0.000    0.000    0.000    0.000 
#
# Total GULP energy -793535.920308 kJ/mol
# GULP energy per Si atom -12398.998755 kJ/mol
# Density = 1.979436 g / cm^3
# Si number density = 19.839511 Si / 1000 Ang^3
#
#
#
# Elastic Constant Matrix: (Units=GPa)
#
#
# Indices 1 2 3 4 5 6 
#
# 1 140.8787 42.7198 46.6581 0.0000 0.0000 0.0000
# 2 42.7198 83.3107 37.3555 0.0000 0.0000 0.0000
# 3 46.6581 37.3555 68.1291 0.0000 0.0000 0.0000
# 4 0.0000 0.0000 0.0000 19.8680 0.0000 0.0000
# 5 0.0000 0.0000 0.0000 0.0000 19.0083 0.0000
# 6 0.0000 0.0000 0.0000 0.0000 0.0000 36.3996
#
#
#
# Elastic Compliance Matrix: (Units=1/GPa)
#
#
# Indices 1 2 3 4 5 6 
#
# 1 0.009592 -0.002616 -0.005135 0.000000 0.000000 0.000000
# 2 -0.002616 0.016630 -0.007326 0.000000 0.000000 0.000000
# 3 -0.005135 -0.007326 0.022212 0.000000 0.000000 0.000000
# 4 0.000000 0.000000 0.000000 0.050332 0.000000 0.000000
# 5 0.000000 0.000000 0.000000 0.000000 0.052609 0.000000
# 6 0.000000 0.000000 0.000000 0.000000 0.000000 0.027473
#
#
# Mechanical properties :
#
#
# Convention : Reuss Voigt Hill
#
# Bulk Modulus (GPa) = 54.70813 60.64283 57.67548
# Shear Modulus (GPa) = 23.24549 26.09418 24.66983
#
# Velocity S-wave (km/s) = 3.42669 3.63059 3.53011
# Velocity P-wave (km/s) = 6.57963 6.94320 6.76385
#
# Compressibility (1/GPa) = 0.01827882
#
# Stress axis : x y z
#
# Youngs Moduli (GPa) = 104.25069 60.13238 45.02141
#
# Poissons Ratio (x) = 0.15733 0.23117
# Poissons Ratio (y) = 0.27276 0.32985
# Poissons Ratio (z) = 0.53529 0.44056
#
# Static dielectric constant tensor:
#      x y z
#    x 3.839590 0.000000 0.000000 
#    y 0.000000 3.641730 0.000000 
#    z 0.000000 0.000000 3.533010 
# 
# 
# High freq. dielectric constant tensor:
#      x y z
#    x 1.787150 0.000000 0.000000 
#    y 0.000000 1.774180 0.000000 
#    z 0.000000 0.000000 1.758480 
# 
# From -- ./inp_files/4673.got.cif
#   From: 2010.03.12/outbox.cif.g09.slc.cpg/sg55_3_cif.got.tgz:4673.got - 2010.04.16 15:19:21.
