data_PCOD8226591
_publ_section_title
;
Structure prediction by ZEFSAII (Michael W. Deem and Ramdas Pophale) SiO2 
 PCOD8226591
Probable space group: P B A M
;
_chemical_formula_sum "Si O2"
_cell_formula_units_Z 64
_cell_length_a 20.419707
_cell_length_b 9.401605
_cell_length_c 16.860582
_cell_angle_alpha 90.000000
_cell_angle_beta 90.000000
_cell_angle_gamma 90.000000
_cell_volume 3236.861139
_symmetry_space_group_name_H-M "P B A M"
_symmetry_group_IT_number 55
_symmetry_cell_setting 'orthorhombic'
loop_
_space_group_symop_operation_xyz
x,y,z
-x,-y,z
1/2+x,1/2-y,-z
1/2-x,1/2+y,-z
-x,-y,-z
x,y,-z
1/2-x,1/2+y,z
1/2+x,1/2-y,z
loop_
_atom_site_type_symbol
_atom_site_label
_atom_site_fract_x
_atom_site_fract_y
_atom_site_fract_z
Si Si1 0.930797 0.825472 0.406057
Si Si2 0.562211 0.087980 0.905678
Si Si3 0.798295 0.915544 0.090465
Si Si4 0.195868 0.661252 0.593500
Si Si5 0.444157 0.595952 0.092484
Si Si6 0.804597 0.613375 0.160837
Si Si7 0.313468 0.845115 0.657191
Si Si8 0.922176 0.145465 0.593938
O O1 0.922603 0.811083 0.500000
O O2 0.886308 0.706733 0.364606
O O3 0.006199 0.797958 0.380201
O O4 0.910166 0.983634 0.376514
O O5 0.550784 0.246403 0.872603
O O6 0.628117 0.032238 0.863061
O O7 0.500000 0.000000 0.876517
O O8 0.571834 0.078740 0.000000
O O9 0.872337 0.968796 0.107653
O O10 0.793127 0.746511 0.102702
O O11 0.752822 0.999598 0.150921
O O12 0.778016 0.948242 0.000000
O O13 0.190145 0.638230 0.500000
O O14 0.262151 0.745334 0.611978
O O15 0.196754 0.508388 0.634199
O O16 0.134203 0.751082 0.627686
O O17 0.500000 0.500000 0.134199
O O18 0.459347 0.607592 0.000000
O O19 0.804274 0.671585 0.249474
O O20 0.918614 0.142251 0.500000
#
# Coordination Sequence:
#
# PCOD8226591 Si02
#       8
#     8   8   8   8   8   8   8   8
#     4   9  17  35  60  86 111 151 199 246 296 350
#     4   9  18  35  58  79 106 146 191 237 280 342
#     4  10  20  37  62  83 110 151 195 242 286 349
#     4  11  22  38  58  85 112 156 208 246 288 352
#     4   8  15  29  52  82 107 131 175 233 278 319
#     4  11  23  39  55  85 122 150 191 240 302 356
#     4  12  24  37  57  83 123 160 186 250 305 358
#     4   8  17  34  60  86 111 141 196 258 291 333
#
# _framework density 19.772241000000001
#
# number of rings (size 3 to 8) (size 9 to 14) (size 15 to 20)
#    0.000    2.250    0.000    5.250    0.000    2.500 
#    2.250    4.375   13.750    0.000    0.000    0.000 
#    0.000    0.000    0.000    0.000    0.000    0.000 
#
# Total GULP energy -793578.623398 kJ/mol
# GULP energy per Si atom -12399.665991 kJ/mol
# Density = 1.972724 g / cm^3
# Si number density = 19.772241 Si / 1000 Ang^3
#
#
#
# Elastic Constant Matrix: (Units=GPa)
#
#
# Indices 1 2 3 4 5 6 
#
# 1 116.8700 49.3108 21.6575 0.0000 0.0000 0.0000
# 2 49.3108 82.1744 11.6541 0.0000 0.0000 0.0000
# 3 21.6575 11.6541 49.1726 0.0000 0.0000 0.0000
# 4 0.0000 0.0000 0.0000 21.7328 0.0000 0.0000
# 5 0.0000 0.0000 0.0000 0.0000 12.5587 0.0000
# 6 0.0000 0.0000 0.0000 0.0000 0.0000 45.5228
#
#
#
# Elastic Compliance Matrix: (Units=1/GPa)
#
#
# Indices 1 2 3 4 5 6 
#
# 1 0.012084 -0.006722 -0.003729 0.000000 0.000000 0.000000
# 2 -0.006722 0.016332 -0.000910 0.000000 0.000000 0.000000
# 3 -0.003729 -0.000910 0.022195 0.000000 0.000000 0.000000
# 4 0.000000 0.000000 0.000000 0.046013 0.000000 0.000000
# 5 0.000000 0.000000 0.000000 0.000000 0.079626 0.000000
# 6 0.000000 0.000000 0.000000 0.000000 0.000000 0.021967
#
#
# Mechanical properties :
#
#
# Convention : Reuss Voigt Hill
#
# Bulk Modulus (GPa) = 35.85776 45.94021 40.89898
# Shear Modulus (GPa) = 21.71684 27.00251 24.35968
#
# Velocity S-wave (km/s) = 3.31773 3.69952 3.51381
# Velocity P-wave (km/s) = 5.73160 6.44467 6.09856
#
# Compressibility (1/GPa) = 0.02788797
#
# Stress axis : x y z
#
# Youngs Moduli (GPa) = 82.75461 61.22858 45.05608
#
# Poissons Ratio (x) = 0.41160 0.16801
# Poissons Ratio (y) = 0.55631 0.04100
# Poissons Ratio (z) = 0.30859 0.05572
#
# Static dielectric constant tensor:
#      x y z
#    x 3.929380 0.000000 0.000000 
#    y 0.000000 3.646600 0.000000 
#    z 0.000000 0.000000 3.237670 
# 
# 
# High freq. dielectric constant tensor:
#      x y z
#    x 1.785170 0.000000 0.000000 
#    y 0.000000 1.766790 0.000000 
#    z 0.000000 0.000000 1.741940 
# 
# From -- ./inp_files/21960.got.cif
#   From: 2010.03.12/outbox.cif.g09.slc.cpg/sg55_11_cif.got.tgz:21960.got - 2010.04.16 15:19:21.
