data_PCOD8226318
_publ_section_title
;
Structure prediction by ZEFSAII (Michael W. Deem and Ramdas Pophale) SiO2 
 PCOD8226318
Probable space group: P B A M
;
_chemical_formula_sum "Si O2"
_cell_formula_units_Z 64
_cell_length_a 28.481790
_cell_length_b 12.599834
_cell_length_c 9.282100
_cell_angle_alpha 90.000000
_cell_angle_beta 90.000000
_cell_angle_gamma 90.000000
_cell_volume 3331.028484
_symmetry_space_group_name_H-M "P B A M"
_symmetry_group_IT_number 55
_symmetry_cell_setting 'orthorhombic'
loop_
_space_group_symop_operation_xyz
x,y,z
-x,-y,z
1/2+x,1/2-y,-z
1/2-x,1/2+y,-z
-x,-y,-z
x,y,-z
1/2-x,1/2+y,z
1/2+x,1/2-y,z
loop_
_atom_site_type_symbol
_atom_site_label
_atom_site_fract_x
_atom_site_fract_y
_atom_site_fract_z
Si Si1 0.940881 0.254733 0.167562
Si Si2 0.877644 0.841012 0.669673
Si Si3 0.336773 0.284770 0.167284
Si Si4 0.948923 0.461716 0.336356
Si Si5 0.861065 0.601789 0.335721
Si Si6 0.015711 0.117200 0.668921
Si Si7 0.693957 0.490360 0.169539
Si Si8 0.700715 0.936660 0.830332
O O1 0.891874 0.194400 0.196287
O O2 0.932535 0.372628 0.225754
O O3 0.983153 0.200454 0.250422
O O4 0.953432 0.259005 0.000000
O O5 0.872309 0.858391 0.500000
O O6 0.861867 0.723354 0.716101
O O7 0.931061 0.862774 0.717576
O O8 0.845114 0.923190 0.750794
O O9 0.309087 0.387651 0.226075
O O10 0.318156 0.174567 0.237682
O O11 0.326200 0.271493 0.000000
O O12 0.948984 0.417274 0.500000
O O13 0.914081 0.560395 0.320362
O O14 0.000000 0.500000 0.290158
O O15 0.843790 0.592679 0.500000
O O16 0.825462 0.536159 0.238645
O O17 0.009036 0.136337 0.500000
O O18 0.000000 0.000000 0.715100
O O19 0.744574 0.443935 0.208199
O O20 0.683419 0.485722 0.000000
O O21 0.691753 0.944251 0.000000
#
# Coordination Sequence:
#
# PCOD8226318 Si02
#       8
#     8   8   8   8   8   8   8   8
#     4  11  21  34  56  84 118 152 186 242 297 342
#     4  10  22  40  59  85 122 155 190 243 294 338
#     4   9  19  37  56  84 120 147 184 240 293 338
#     4  10  20  36  57  80 110 150 193 235 285 345
#     4  10  21  37  57  82 115 152 189 236 290 344
#     4  10  21  38  60  84 115 158 203 239 283 349
#     4  10  22  38  62  87 112 151 195 237 289 352
#     4  10  21  38  61  85 113 150 191 240 292 345
#
# _framework density 19.213284999999999
#
# number of rings (size 3 to 8) (size 9 to 14) (size 15 to 20)
#    0.000    2.000    1.250    1.875    1.750    4.000 
#    0.000    2.500    0.000    0.000    0.000    0.000 
#    0.000    0.000    0.000    0.000    0.000    0.000 
#
# Total GULP energy -793735.380933 kJ/mol
# GULP energy per Si atom -12402.115327 kJ/mol
# Density = 1.916955 g / cm^3
# Si number density = 19.213285 Si / 1000 Ang^3
#
#
#
# Elastic Constant Matrix: (Units=GPa)
#
#
# Indices 1 2 3 4 5 6 
#
# 1 112.5132 66.5351 42.4381 0.0000 0.0000 0.0000
# 2 66.5351 140.6030 36.9038 0.0000 0.0000 0.0000
# 3 42.4381 36.9038 38.2539 0.0000 0.0000 0.0000
# 4 0.0000 0.0000 0.0000 31.6174 0.0000 0.0000
# 5 0.0000 0.0000 0.0000 0.0000 26.6508 0.0000
# 6 0.0000 0.0000 0.0000 0.0000 0.0000 36.9858
#
#
#
# Elastic Compliance Matrix: (Units=1/GPa)
#
#
# Indices 1 2 3 4 5 6 
#
# 1 0.016894 -0.004118 -0.014769 0.000000 0.000000 0.000000
# 2 -0.004118 0.010527 -0.005588 0.000000 0.000000 0.000000
# 3 -0.014769 -0.005588 0.047916 0.000000 0.000000 0.000000
# 4 0.000000 0.000000 0.000000 0.031628 0.000000 0.000000
# 5 0.000000 0.000000 0.000000 0.000000 0.037522 0.000000
# 6 0.000000 0.000000 0.000000 0.000000 0.000000 0.027037
#
#
# Mechanical properties :
#
#
# Convention : Reuss Voigt Hill
#
# Bulk Modulus (GPa) = 37.89580 64.79156 51.34368
# Shear Modulus (GPa) = 21.80844 28.75034 25.27939
#
# Velocity S-wave (km/s) = 3.37274 3.87250 3.63123
# Velocity P-wave (km/s) = 5.91047 7.33420 6.66049
#
# Compressibility (1/GPa) = 0.02638815
#
# Stress axis : x y z
#
# Youngs Moduli (GPa) = 59.19432 94.99005 20.87001
#
# Poissons Ratio (x) = 0.39116 0.30822
# Poissons Ratio (y) = 0.24376 0.11661
# Poissons Ratio (z) = 0.87423 0.53076
#
# Static dielectric constant tensor:
#      x y z
#    x 3.569860 0.000000 0.000000 
#    y 0.000000 3.771910 0.000000 
#    z 0.000000 0.000000 3.328260 
# 
# 
# High freq. dielectric constant tensor:
#      x y z
#    x 1.757660 0.000000 0.000000 
#    y 0.000000 1.760010 0.000000 
#    z 0.000000 0.000000 1.726660 
# 
# From -- ./inp_files/4677.got.cif
#   From: 2010.03.12/outbox.cif.g09.slc.cpg/sg55_3_cif.got.tgz:4677.got - 2010.04.16 15:19:21.
