data_PCOD8226390
_publ_section_title
;
Structure prediction by ZEFSAII (Michael W. Deem and Ramdas Pophale) SiO2 
 PCOD8226390
Probable space group: P B A M
;
_chemical_formula_sum "Si O2"
_cell_formula_units_Z 64
_cell_length_a 19.874661
_cell_length_b 19.295531
_cell_length_c 8.613997
_cell_angle_alpha 90.000000
_cell_angle_beta 90.000000
_cell_angle_gamma 90.000000
_cell_volume 3303.400121
_symmetry_space_group_name_H-M "P B A M"
_symmetry_group_IT_number 55
_symmetry_cell_setting 'orthorhombic'
loop_
_space_group_symop_operation_xyz
x,y,z
-x,-y,z
1/2+x,1/2-y,-z
1/2-x,1/2+y,-z
-x,-y,-z
x,y,-z
1/2-x,1/2+y,z
1/2+x,1/2-y,z
loop_
_atom_site_type_symbol
_atom_site_label
_atom_site_fract_x
_atom_site_fract_y
_atom_site_fract_z
Si Si1 0.068332 0.461323 0.320283
Si Si2 0.274351 0.748968 0.819822
Si Si3 0.007338 0.792003 0.680841
Si Si4 0.316363 0.599481 0.817456
Si Si5 0.038680 0.066584 0.184023
Si Si6 0.091269 0.315702 0.821263
Si Si7 0.141892 0.714390 0.681304
Si Si8 0.170050 0.566362 0.182003
O O1 0.070906 0.440539 0.500000
O O2 0.068624 0.392584 0.218532
O O3 0.131156 0.509545 0.280825
O O4 0.000000 0.500000 0.276923
O O5 0.308720 0.678183 0.758872
O O6 0.328287 0.809936 0.791280
O O7 0.206672 0.762094 0.721290
O O8 0.253764 0.742601 0.000000
O O9 0.007980 0.808774 0.500000
O O10 0.076574 0.756436 0.734877
O O11 0.000389 0.863818 0.771336
O O12 0.946729 0.740031 0.716944
O O13 0.384838 0.567037 0.746232
O O14 0.248925 0.557179 0.772411
O O15 0.324975 0.600930 0.000000
O O16 0.040650 0.061368 0.000000
O O17 0.000000 0.000000 0.254356
O O18 0.074636 0.299238 0.000000
O O19 0.139336 0.696338 0.500000
O O20 0.144442 0.643061 0.776838
O O21 0.158033 0.553656 0.000000
#
# Coordination Sequence:
#
# PCOD8226390 Si02
#       8
#     8   8   8   8   8   8   8   8
#     4  11  24  40  56  81 119 156 193 238 290 347
#     4   9  18  35  58  82 109 142 186 238 282 330
#     4  11  23  38  57  85 120 153 185 231 288 345
#     4   8  15  33  57  82 111 140 182 235 279 325
#     4  10  20  37  61  85 111 148 192 238 286 340
#     4  11  22  38  62  87 113 148 195 244 286 339
#     4  10  21  36  56  84 119 153 189 233 283 341
#     4  10  20  36  59  84 115 153 196 242 284 335
#
# _framework density 19.373977
#
# number of rings (size 3 to 8) (size 9 to 14) (size 15 to 20)
#    0.000    2.000    1.250    3.375    0.000    7.250 
#    2.250    0.625    0.000    0.000    0.000    0.000 
#    0.000    0.000    0.000    0.000    0.000    0.000 
#
# Total GULP energy -793612.789929 kJ/mol
# GULP energy per Si atom -12400.199843 kJ/mol
# Density = 1.932988 g / cm^3
# Si number density = 19.373977 Si / 1000 Ang^3
#
#
#
# Elastic Constant Matrix: (Units=GPa)
#
#
# Indices 1 2 3 4 5 6 
#
# 1 119.0860 45.7465 25.9300 0.0000 0.0000 0.0000
# 2 45.7465 86.3681 5.9884 0.0000 0.0000 0.0000
# 3 25.9300 5.9884 23.5561 0.0000 0.0000 0.0000
# 4 0.0000 0.0000 0.0000 19.3441 0.0000 0.0000
# 5 0.0000 0.0000 0.0000 0.0000 32.8315 0.0000
# 6 0.0000 0.0000 0.0000 0.0000 0.0000 31.3562
#
#
#
# Elastic Compliance Matrix: (Units=1/GPa)
#
#
# Indices 1 2 3 4 5 6 
#
# 1 0.013798 -0.006368 -0.013570 0.000000 0.000000 0.000000
# 2 -0.006368 0.014725 0.003266 0.000000 0.000000 0.000000
# 3 -0.013570 0.003266 0.056559 0.000000 0.000000 0.000000
# 4 0.000000 0.000000 0.000000 0.051695 0.000000 0.000000
# 5 0.000000 0.000000 0.000000 0.000000 0.030459 0.000000
# 6 0.000000 0.000000 0.000000 0.000000 0.000000 0.031892
#
#
# Mechanical properties :
#
#
# Convention : Reuss Voigt Hill
#
# Bulk Modulus (GPa) = 19.32789 42.70444 31.01617
# Shear Modulus (GPa) = 20.02273 26.79603 23.40938
#
# Velocity S-wave (km/s) = 3.21827 3.72303 3.47982
# Velocity P-wave (km/s) = 4.87930 6.36956 5.67357
#
# Compressibility (1/GPa) = 0.05173870
#
# Stress axis : x y z
#
# Youngs Moduli (GPa) = 72.47393 67.91361 17.68070
#
# Poissons Ratio (x) = 0.43244 0.23992
# Poissons Ratio (y) = 0.46148 -0.05774
# Poissons Ratio (z) = 0.98346 -0.22180
#
# Static dielectric constant tensor:
#      x y z
#    x 3.920560 0.000000 0.000000 
#    y 0.000000 3.470750 0.000000 
#    z 0.000000 0.000000 3.376430 
# 
# 
# High freq. dielectric constant tensor:
#      x y z
#    x 1.770400 0.000000 0.000000 
#    y 0.000000 1.737960 0.000000 
#    z 0.000000 0.000000 1.742810 
# 
# From -- ./inp_files/9061.got.cif
#   From: 2010.03.12/outbox.cif.g09.slc.cpg/sg55_5_cif.got.tgz:9061.got - 2010.04.16 15:19:21.
