data_PCOD8226442
_publ_section_title
;
Structure prediction by ZEFSAII (Michael W. Deem and Ramdas Pophale) SiO2 
 PCOD8226442
Probable space group: P B A M
;
_chemical_formula_sum "Si O2"
_cell_formula_units_Z 64
_cell_length_a 23.925021
_cell_length_b 14.972404
_cell_length_c 8.631224
_cell_angle_alpha 90.000000
_cell_angle_beta 90.000000
_cell_angle_gamma 90.000000
_cell_volume 3091.834597
_symmetry_space_group_name_H-M "P B A M"
_symmetry_group_IT_number 55
_symmetry_cell_setting 'orthorhombic'
loop_
_space_group_symop_operation_xyz
x,y,z
-x,-y,z
1/2+x,1/2-y,-z
1/2-x,1/2+y,-z
-x,-y,-z
x,y,-z
1/2-x,1/2+y,z
1/2+x,1/2-y,z
loop_
_atom_site_type_symbol
_atom_site_label
_atom_site_fract_x
_atom_site_fract_y
_atom_site_fract_z
Si Si1 0.456555 0.071026 0.318404
Si Si2 0.960353 0.078935 0.820290
Si Si3 0.516010 0.254064 0.318161
Si Si4 0.754901 0.266513 0.315265
Si Si5 0.170462 0.565584 0.684532
Si Si6 0.133802 0.195534 0.677223
Si Si7 0.857139 0.004536 0.323154
Si Si8 0.248074 0.925713 0.819691
O O1 0.452565 0.052957 0.500000
O O2 0.482518 0.165956 0.279305
O O3 0.393423 0.066541 0.251338
O O4 0.500000 0.000000 0.243598
O O5 0.988780 0.172417 0.789525
O O6 0.903044 0.077255 0.723564
O O7 0.946003 0.067261 0.000000
O O8 0.000000 0.000000 0.760577
O O9 0.512611 0.280142 0.500000
O O10 0.581304 0.244487 0.266211
O O11 0.756156 0.268061 0.500000
O O12 0.797168 0.344684 0.255628
O O13 0.693022 0.283625 0.241496
O O14 0.770649 0.168144 0.256783
O O15 0.172176 0.562933 0.500000
O O16 0.197650 0.473566 0.746495
O O17 0.145149 0.217740 0.500000
O O18 0.116080 0.092907 0.701802
O O19 0.837834 0.019639 0.500000
O O20 0.803572 0.008861 0.212697
O O21 0.258655 0.911828 0.000000
#
# Coordination Sequence:
#
# PCOD8226442 Si02
#       8
#     8   8   8   8   8   8   8   8
#     4   9  20  37  62  93 121 153 206 267 311 347
#     4  11  23  37  54  86 129 167 198 240 303 369
#     4  10  20  36  60  90 119 159 207 254 303 360
#     4  10  21  39  63  92 119 156 209 262 310 366
#     4  10  21  41  66  92 122 161 211 262 309 365
#     4   9  18  34  60  90 116 147 203 262 307 357
#     4  11  21  39  63  88 118 158 207 256 301 361
#     4  12  26  41  60  91 126 163 200 248 321 386
#
# _framework density 20.699684999999999
#
# number of rings (size 3 to 8) (size 9 to 14) (size 15 to 20)
#    0.000    1.750    2.500    1.875    3.500    1.000 
#    0.000    1.250    0.000    0.750    0.000    0.000 
#    0.000    0.000    0.000    0.000    0.000    0.000 
#
# Total GULP energy -793381.709175 kJ/mol
# GULP energy per Si atom -12396.589206 kJ/mol
# Density = 2.065257 g / cm^3
# Si number density = 20.699685 Si / 1000 Ang^3
#
#
#
# Elastic Constant Matrix: (Units=GPa)
#
#
# Indices 1 2 3 4 5 6 
#
# 1 162.9208 49.9085 23.5378 0.0000 0.0000 0.0000
# 2 49.9085 88.7715 20.7417 0.0000 0.0000 0.0000
# 3 23.5378 20.7417 32.9555 0.0000 0.0000 0.0000
# 4 0.0000 0.0000 0.0000 15.0683 0.0000 0.0000
# 5 0.0000 0.0000 0.0000 0.0000 16.2939 0.0000
# 6 0.0000 0.0000 0.0000 0.0000 0.0000 35.9839
#
#
#
# Elastic Compliance Matrix: (Units=1/GPa)
#
#
# Indices 1 2 3 4 5 6 
#
# 1 0.007702 -0.003570 -0.003254 0.000000 0.000000 0.000000
# 2 -0.003570 0.014862 -0.006804 0.000000 0.000000 0.000000
# 3 -0.003254 -0.006804 0.036951 0.000000 0.000000 0.000000
# 4 0.000000 0.000000 0.000000 0.066364 0.000000 0.000000
# 5 0.000000 0.000000 0.000000 0.000000 0.061373 0.000000
# 6 0.000000 0.000000 0.000000 0.000000 0.000000 0.027790
#
#
# Mechanical properties :
#
#
# Convention : Reuss Voigt Hill
#
# Bulk Modulus (GPa) = 30.99996 52.55820 41.77908
# Shear Modulus (GPa) = 19.75902 26.16655 22.96279
#
# Velocity S-wave (km/s) = 3.09294 3.55928 3.33427
# Velocity P-wave (km/s) = 5.26912 6.50671 5.92034
#
# Compressibility (1/GPa) = 0.03225811
#
# Stress axis : x y z
#
# Youngs Moduli (GPa) = 129.84351 67.28768 27.06322
#
# Poissons Ratio (x) = 0.24019 0.08806
# Poissons Ratio (y) = 0.46349 0.18414
# Poissons Ratio (z) = 0.42252 0.45783
#
# Static dielectric constant tensor:
#      x y z
#    x 4.623600 0.000000 0.000000 
#    y 0.000000 3.768850 0.000000 
#    z 0.000000 0.000000 3.285570 
# 
# 
# High freq. dielectric constant tensor:
#      x y z
#    x 1.828010 0.000000 0.000000 
#    y 0.000000 1.809810 0.000000 
#    z 0.000000 0.000000 1.766720 
# 
# From -- ./inp_files/9788.got.cif
#   From: 2010.03.12/outbox.cif.g09.slc.cpg/sg55_5_cif.got.tgz:9788.got - 2010.04.16 15:19:21.
