data_PCOD8226965
_publ_section_title
;
Structure prediction by ZEFSAII (Michael W. Deem and Ramdas Pophale) SiO2 
 PCOD8226965
Probable space group: P B A M
;
_chemical_formula_sum "Si O2"
_cell_formula_units_Z 64
_cell_length_a 23.494997
_cell_length_b 17.543959
_cell_length_c 8.894172
_cell_angle_alpha 90.000000
_cell_angle_beta 90.000000
_cell_angle_gamma 90.000000
_cell_volume 3666.135576
_symmetry_space_group_name_H-M "P B A M"
_symmetry_group_IT_number 55
_symmetry_cell_setting 'orthorhombic'
loop_
_space_group_symop_operation_xyz
x,y,z
-x,-y,z
1/2+x,1/2-y,-z
1/2-x,1/2+y,-z
-x,-y,-z
x,y,-z
1/2-x,1/2+y,z
1/2+x,1/2-y,z
loop_
_atom_site_type_symbol
_atom_site_label
_atom_site_fract_x
_atom_site_fract_y
_atom_site_fract_z
Si Si1 0.132417 0.997706 0.824453
Si Si2 0.064761 0.288791 0.177297
Si Si3 0.937934 0.870070 0.675116
Si Si4 0.646734 0.094949 0.330072
Si Si5 0.236527 0.493304 0.176094
Si Si6 0.143636 0.572747 0.329940
Si Si7 0.554061 0.805325 0.675610
Si Si8 0.931391 0.132188 0.327883
O O1 0.099491 0.059778 0.728022
O O2 0.198165 0.002625 0.778715
O O3 0.109331 0.914218 0.782926
O O4 0.122935 0.013155 0.000000
O O5 0.080684 0.205391 0.237152
O O6 0.113796 0.346077 0.227086
O O7 0.004798 0.318589 0.239230
O O8 0.061795 0.285938 0.000000
O O9 0.928236 0.854359 0.500000
O O10 0.003544 0.889971 0.707402
O O11 0.651736 0.126517 0.500000
O O12 0.710137 0.080982 0.260900
O O13 0.615105 0.012041 0.328296
O O14 0.201737 0.569096 0.230700
O O15 0.228707 0.481774 0.000000
O O16 0.160004 0.596545 0.500000
O O17 0.099679 0.633896 0.261698
O O18 0.541423 0.818019 0.500000
O O19 0.578647 0.721257 0.705483
O O20 0.916336 0.112184 0.500000
#
# Coordination Sequence:
#
# PCOD8226965 Si02
#       8
#     8   8   8   8   8   8   8   8
#     4  11  22  35  54  78 105 138 173 214 267 316
#     4  11  21  33  52  80 111 139 168 209 263 314
#     4  10  21  37  56  78 105 137 174 214 256 307
#     4   9  18  34  55  76 102 139 180 217 256 300
#     4   9  19  35  52  74 104 137 174 219 262 304
#     4   8  17  33  55  76 101 138 178 218 256 300
#     4   9  18  35  54  77 108 138 171 212 258 307
#     4   9  19  34  54  78 105 136 171 213 257 307
#
# _framework density 17.457073000000001
#
# number of rings (size 3 to 8) (size 9 to 14) (size 15 to 20)
#    0.750    1.750    0.000    3.375    0.000    7.000 
#    0.000    3.750    0.000    6.000    0.000    0.000 
#    0.000    0.000    0.000    0.000    0.000    0.000 
#
# Total GULP energy -793364.837100 kJ/mol
# GULP energy per Si atom -12396.325580 kJ/mol
# Density = 1.741734 g / cm^3
# Si number density = 17.457073 Si / 1000 Ang^3
#
#
#
# Elastic Constant Matrix: (Units=GPa)
#
#
# Indices 1 2 3 4 5 6 
#
# 1 49.5499 18.2390 29.8433 0.0000 0.0000 0.0000
# 2 18.2390 50.0132 21.9036 0.0000 0.0000 0.0000
# 3 29.8433 21.9036 80.5092 0.0000 0.0000 0.0000
# 4 0.0000 0.0000 0.0000 23.7138 0.0000 0.0000
# 5 0.0000 0.0000 0.0000 0.0000 29.4126 0.0000
# 6 0.0000 0.0000 0.0000 0.0000 0.0000 3.6972
#
#
#
# Elastic Compliance Matrix: (Units=1/GPa)
#
#
# Indices 1 2 3 4 5 6 
#
# 1 0.027653 -0.006352 -0.008522 0.000000 0.000000 0.000000
# 2 -0.006352 0.024159 -0.004218 0.000000 0.000000 0.000000
# 3 -0.008522 -0.004218 0.016727 0.000000 0.000000 0.000000
# 4 0.000000 0.000000 0.000000 0.042170 0.000000 0.000000
# 5 0.000000 0.000000 0.000000 0.000000 0.033999 0.000000
# 6 0.000000 0.000000 0.000000 0.000000 0.000000 0.270475
#
#
# Mechanical properties :
#
#
# Convention : Reuss Voigt Hill
#
# Bulk Modulus (GPa) = 32.94449 35.56044 34.25247
# Shear Modulus (GPa) = 10.78783 18.70381 14.74582
#
# Velocity S-wave (km/s) = 2.48858 3.27680 2.90951
# Velocity P-wave (km/s) = 5.21249 5.89330 5.56332
#
# Compressibility (1/GPa) = 0.03035409
#
# Stress axis : x y z
#
# Youngs Moduli (GPa) = 36.16292 41.39320 59.78180
#
# Poissons Ratio (x) = 0.26294 0.50947
# Poissons Ratio (y) = 0.22971 0.25216
# Poissons Ratio (z) = 0.30819 0.17460
#
# Static dielectric constant tensor:
#      x y z
#    x 3.146000 0.000000 0.000000 
#    y 0.000000 3.208620 0.000000 
#    z 0.000000 0.000000 3.233290 
# 
# 
# High freq. dielectric constant tensor:
#      x y z
#    x 1.660270 0.000000 0.000000 
#    y 0.000000 1.667670 0.000000 
#    z 0.000000 0.000000 1.681680 
# 
# From -- ./inp_files/10307.got.cif
#   From: 2010.03.12/outbox.cif.g09.slc.cpg/sg55_6_cif.got.tgz:10307.got - 2010.04.16 15:19:21.
