data_PCOD8226841
_publ_section_title
;
Structure prediction by ZEFSAII (Michael W. Deem and Ramdas Pophale) SiO2 
 PCOD8226841
Probable space group: P B A M
;
_chemical_formula_sum "Si O2"
_cell_formula_units_Z 40
_cell_length_a 23.191871
_cell_length_b 10.221234
_cell_length_c 9.185543
_cell_angle_alpha 90.000000
_cell_angle_beta 90.000000
_cell_angle_gamma 90.000000
_cell_volume 2177.428746
_symmetry_space_group_name_H-M "P B A M"
_symmetry_group_IT_number 55
_symmetry_cell_setting 'orthorhombic'
loop_
_space_group_symop_operation_xyz
x,y,z
-x,-y,z
1/2+x,1/2-y,-z
1/2-x,1/2+y,-z
-x,-y,-z
x,y,-z
1/2-x,1/2+y,z
1/2+x,1/2-y,z
loop_
_atom_site_type_symbol
_atom_site_label
_atom_site_fract_x
_atom_site_fract_y
_atom_site_fract_z
Si Si1 0.757909 0.347760 0.664422
Si Si2 0.125342 0.766239 0.335853
Si Si3 0.648886 0.973012 0.830958
Si Si4 0.146273 0.233155 0.165679
Si Si5 0.434582 0.497291 0.831590
O O1 0.748189 0.398882 0.500000
O O2 0.804395 0.227520 0.665025
O O3 0.786311 0.463753 0.762138
O O4 0.697595 0.302493 0.727326
O O5 0.101110 0.759077 0.500000
O O6 0.107054 0.632458 0.249937
O O7 0.101760 0.893990 0.258889
O O8 0.624973 0.118935 0.805015
O O9 0.651830 0.936440 0.000000
O O10 0.091794 0.140543 0.195189
O O11 0.168640 0.218855 0.000000
O O12 0.500000 0.500000 0.774909
O O13 0.431918 0.456064 0.000000
#
# Coordination Sequence:
#
# PCOD8226841 Si02
#       5
#     8   8   8   8   8
#     4   9  20  33  52  81 115 146 179 225 285 342
#     4   9  20  36  55  81 113 147 186 228 281 342
#     4   9  18  34  55  80 109 142 181 226 279 336
#     4  10  21  35  56  84 112 146 190 236 284 341
#     4  10  22  40  60  83 113 153 199 243 287 337
#
# _framework density 18.370291999999999
#
# number of rings (size 3 to 8) (size 9 to 14) (size 15 to 20)
#    1.200    1.400    0.000    1.200    2.800    2.800 
#    0.000    1.000    0.000    6.000    0.000    0.000 
#    0.000    0.000    0.000    0.000    0.000    0.000 
#
# Total GULP energy -495671.174424 kJ/mol
# GULP energy per Si atom -12391.779361 kJ/mol
# Density = 1.832848 g / cm^3
# Si number density = 18.370292 Si / 1000 Ang^3
#
#
#
# Elastic Constant Matrix: (Units=GPa)
#
#
# Indices 1 2 3 4 5 6 
#
# 1 52.1648 12.4456 21.2403 0.0000 0.0000 0.0000
# 2 12.4456 94.6081 42.5938 0.0000 0.0000 0.0000
# 3 21.2403 42.5938 103.9067 0.0000 0.0000 0.0000
# 4 0.0000 0.0000 0.0000 9.8388 0.0000 0.0000
# 5 0.0000 0.0000 0.0000 0.0000 16.0714 0.0000
# 6 0.0000 0.0000 0.0000 0.0000 0.0000 16.7990
#
#
#
# Elastic Compliance Matrix: (Units=1/GPa)
#
#
# Indices 1 2 3 4 5 6 
#
# 1 0.020990 -0.001017 -0.003874 0.000000 0.000000 0.000000
# 2 -0.001017 0.013011 -0.005126 0.000000 0.000000 0.000000
# 3 -0.003874 -0.005126 0.012517 0.000000 0.000000 0.000000
# 4 0.000000 0.000000 0.000000 0.101638 0.000000 0.000000
# 5 0.000000 0.000000 0.000000 0.000000 0.062222 0.000000
# 6 0.000000 0.000000 0.000000 0.000000 0.000000 0.059527
#
#
# Mechanical properties :
#
#
# Convention : Reuss Voigt Hill
#
# Bulk Modulus (GPa) = 37.75715 44.80434 41.28075
# Shear Modulus (GPa) = 16.73537 20.16849 18.45193
#
# Velocity S-wave (km/s) = 3.02156 3.31703 3.17274
# Velocity P-wave (km/s) = 5.72460 6.25402 5.99516
#
# Compressibility (1/GPa) = 0.02648505
#
# Stress axis : x y z
#
# Youngs Moduli (GPa) = 47.64178 76.85563 79.89106
#
# Poissons Ratio (x) = 0.07818 0.30948
# Poissons Ratio (y) = 0.04846 0.40950
# Poissons Ratio (z) = 0.18455 0.39394
#
# Static dielectric constant tensor:
#      x y z
#    x 3.066230 0.000000 0.000000 
#    y 0.000000 3.298010 0.000000 
#    z 0.000000 0.000000 3.467800 
# 
# 
# High freq. dielectric constant tensor:
#      x y z
#    x 1.674580 0.000000 0.000000 
#    y 0.000000 1.709280 0.000000 
#    z 0.000000 0.000000 1.724000 
# 
# From -- ./inp_files/10001.got.cif
#   From: 2010.03.12/outbox.cif.g09.slc.cpg/sg55_6_cif.got.tgz:10001.got - 2010.04.16 15:19:21.
