data_PCOD8226695
_publ_section_title
;
Structure prediction by ZEFSAII (Michael W. Deem and Ramdas Pophale) SiO2 
 PCOD8226695
Probable space group: P B A M
;
_chemical_formula_sum "Si O2"
_cell_formula_units_Z 64
_cell_length_a 12.408319
_cell_length_b 29.051157
_cell_length_c 9.221686
_cell_angle_alpha 90.000000
_cell_angle_beta 90.000000
_cell_angle_gamma 90.000000
_cell_volume 3324.196698
_symmetry_space_group_name_H-M "P B A M"
_symmetry_group_IT_number 55
_symmetry_cell_setting 'orthorhombic'
loop_
_space_group_symop_operation_xyz
x,y,z
-x,-y,z
1/2+x,1/2-y,-z
1/2-x,1/2+y,-z
-x,-y,-z
x,y,-z
1/2-x,1/2+y,z
1/2+x,1/2-y,z
loop_
_atom_site_type_symbol
_atom_site_label
_atom_site_fract_x
_atom_site_fract_y
_atom_site_fract_z
Si Si1 0.078835 0.911809 0.664750
Si Si2 0.671696 0.933130 0.172265
Si Si3 0.958365 0.591586 0.334382
Si Si4 0.264840 0.976973 0.665110
Si Si5 0.533884 0.286868 0.664322
Si Si6 0.654063 0.674431 0.170032
Si Si7 0.362977 0.811495 0.663812
Si Si8 0.651707 0.379157 0.333759
O O1 0.098045 0.894486 0.500000
O O2 0.950218 0.913649 0.694264
O O3 0.141032 0.960020 0.687917
O O4 0.133418 0.876508 0.773304
O O5 0.550656 0.926834 0.228953
O O6 0.749462 0.893097 0.231682
O O7 0.715838 0.982156 0.223786
O O8 0.670913 0.931362 0.000000
O O9 0.994990 0.583190 0.500000
O O10 0.847494 0.564570 0.301874
O O11 0.941473 0.645651 0.303632
O O12 0.280104 0.994705 0.500000
O O13 0.496416 0.296332 0.500000
O O14 0.431914 0.289720 0.768242
O O15 0.575378 0.235843 0.683857
O O16 0.620760 0.326455 0.705571
O O17 0.770448 0.690872 0.218441
O O18 0.646409 0.674484 0.000000
O O19 0.316853 0.816229 0.500000
O O20 0.690147 0.383149 0.500000
#
# Coordination Sequence:
#
# PCOD8226695 Si02
#       8
#     8   8   8   8   8   8   8   8
#     4   9  18  37  64  88 110 144 196 246 284 336
#     4  12  26  39  54  81 123 163 193 235 291 357
#     4  10  21  39  63  86 112 148 195 247 292 342
#     4  10  20  38  64  89 112 146 195 249 296 343
#     4   9  20  38  62  86 111 149 198 246 287 338
#     4  11  21  33  54  84 121 154 180 228 294 354
#     4  10  20  38  63  88 111 145 198 248 287 338
#     4   9  19  38  61  84 113 151 195 241 290 343
#
# _framework density 19.252773000000001
#
# number of rings (size 3 to 8) (size 9 to 14) (size 15 to 20)
#    0.000    2.000    1.250    3.375    0.000    7.000 
#    0.000    7.500    0.000    0.000    0.000    0.000 
#    0.000    0.000    0.000    0.000    0.000    0.000 
#
# Total GULP energy -793596.751468 kJ/mol
# GULP energy per Si atom -12399.949242 kJ/mol
# Density = 1.920895 g / cm^3
# Si number density = 19.252773 Si / 1000 Ang^3
#
#
#
# Elastic Constant Matrix: (Units=GPa)
#
#
# Indices 1 2 3 4 5 6 
#
# 1 31.0716 -3.9284 18.0268 0.0000 0.0000 0.0000
# 2 -3.9284 72.0878 17.5740 0.0000 0.0000 0.0000
# 3 18.0268 17.5740 103.7122 0.0000 0.0000 0.0000
# 4 0.0000 0.0000 0.0000 0.1442 0.0000 0.0000
# 5 0.0000 0.0000 0.0000 0.0000 8.1217 0.0000
# 6 0.0000 0.0000 0.0000 0.0000 0.0000 15.0372
#
#
#
# Elastic Compliance Matrix: (Units=1/GPa)
#
#
# Indices 1 2 3 4 5 6 
#
# 1 0.036721 0.003710 -0.007011 0.000000 0.000000 0.000000
# 2 0.003710 0.014845 -0.003160 0.000000 0.000000 0.000000
# 3 -0.007011 -0.003160 0.011396 0.000000 0.000000 0.000000
# 4 0.000000 0.000000 0.000000 6.935322 0.000000 0.000000
# 5 0.000000 0.000000 0.000000 0.000000 0.123127 0.000000
# 6 0.000000 0.000000 0.000000 0.000000 0.000000 0.066502
#
#
# Mechanical properties :
#
#
# Convention : Reuss Voigt Hill
#
# Bulk Modulus (GPa) = 19.98448 30.02406 25.00427
# Shear Modulus (GPa) = 0.69276 16.34057 8.51666
#
# Velocity S-wave (km/s) = 0.60050 2.91647 2.10552
# Velocity P-wave (km/s) = 3.29900 5.19323 4.35046
#
# Compressibility (1/GPa) = 0.05003882
#
# Stress axis : x y z
#
# Youngs Moduli (GPa) = 27.23266 67.36454 87.74811
#
# Poissons Ratio (x) = -0.24994 0.61523
# Poissons Ratio (y) = -0.10104 0.27731
# Poissons Ratio (z) = 0.19094 0.21289
#
# Static dielectric constant tensor:
#      x y z
#    x 3.538330 0.000000 0.000000 
#    y 0.000000 3.514990 0.000000 
#    z 0.000000 0.000000 3.398980 
# 
# 
# High freq. dielectric constant tensor:
#      x y z
#    x 1.750450 0.000000 0.000000 
#    y 0.000000 1.749590 0.000000 
#    z 0.000000 0.000000 1.734250 
# 
# From -- ./inp_files/4564.got.cif
#   From: 2010.03.12/outbox.cif.g09.slc.cpg/sg55_3_cif.got.tgz:4564.got - 2010.04.16 15:19:21.
