data_PCOD8226528
_publ_section_title
;
Structure prediction by ZEFSAII (Michael W. Deem and Ramdas Pophale) SiO2 
 PCOD8226528
Probable space group: P B A M
;
_chemical_formula_sum "Si O2"
_cell_formula_units_Z 48
_cell_length_a 29.022658
_cell_length_b 9.400850
_cell_length_c 9.105427
_cell_angle_alpha 90.000000
_cell_angle_beta 90.000000
_cell_angle_gamma 90.000000
_cell_volume 2484.303346
_symmetry_space_group_name_H-M "P B A M"
_symmetry_group_IT_number 55
_symmetry_cell_setting 'orthorhombic'
loop_
_space_group_symop_operation_xyz
x,y,z
-x,-y,z
1/2+x,1/2-y,-z
1/2-x,1/2+y,-z
-x,-y,-z
x,y,-z
1/2-x,1/2+y,z
1/2+x,1/2-y,z
loop_
_atom_site_type_symbol
_atom_site_label
_atom_site_fract_x
_atom_site_fract_y
_atom_site_fract_z
Si Si1 0.119460 0.789109 0.673849
Si Si2 0.515718 0.660028 0.336022
Si Si3 0.711648 0.193121 0.675239
Si Si4 0.701221 0.514059 0.327695
Si Si5 0.135307 0.497383 0.825269
Si Si6 0.036283 0.386672 0.172587
O O1 0.122357 0.760219 0.500000
O O2 0.067524 0.822473 0.727273
O O3 0.151170 0.924569 0.717126
O O4 0.139772 0.654442 0.759225
O O5 0.500000 0.500000 0.335819
O O6 0.514631 0.723263 0.500000
O O7 0.477364 0.735855 0.238580
O O8 0.704703 0.185346 0.500000
O O9 0.760010 0.125001 0.726672
O O10 0.708919 0.355260 0.736299
O O11 0.672652 0.103860 0.754646
O O12 0.705658 0.499638 0.500000
O O13 0.086592 0.432226 0.776226
O O14 0.140966 0.504571 0.000000
O O15 0.000000 0.500000 0.235479
O O16 0.032755 0.374127 0.000000
#
# Coordination Sequence:
#
# PCOD8226528 Si02
#       6
#     8   8   8   8   8   8
#     4  10  20  37  59  85 116 150 187 231 282 336
#     4  10  22  36  56  88 120 146 185 238 284 328
#     4  10  20  37  62  87 112 146 185 230 281 339
#     4   9  19  36  61  89 114 144 186 228 278 344
#     4  11  23  38  57  83 114 149 193 238 279 330
#     4  10  21  39  58  78 111 155 197 230 271 334
#
# _framework density 19.321311000000001
#
# number of rings (size 3 to 8) (size 9 to 14) (size 15 to 20)
#    0.000    2.000    1.667    1.500    2.333    4.667 
#    0.000    4.167    0.000    0.000    0.000    0.000 
#    0.000    0.000    0.000    0.000    0.000    0.000 
#
# Total GULP energy -595205.993969 kJ/mol
# GULP energy per Si atom -12400.124874 kJ/mol
# Density = 1.927733 g / cm^3
# Si number density = 19.321311 Si / 1000 Ang^3
#
#
#
# Elastic Constant Matrix: (Units=GPa)
#
#
# Indices 1 2 3 4 5 6 
#
# 1 100.4381 50.4102 26.4747 0.0000 0.0000 0.0000
# 2 50.4102 128.1242 24.6457 0.0000 0.0000 0.0000
# 3 26.4747 24.6457 26.8576 0.0000 0.0000 0.0000
# 4 0.0000 0.0000 0.0000 8.8914 0.0000 0.0000
# 5 0.0000 0.0000 0.0000 0.0000 25.4563 0.0000
# 6 0.0000 0.0000 0.0000 0.0000 0.0000 42.1070
#
#
#
# Elastic Compliance Matrix: (Units=1/GPa)
#
#
# Indices 1 2 3 4 5 6 
#
# 1 0.014733 -0.003647 -0.011176 0.000000 0.000000 0.000000
# 2 -0.003647 0.010381 -0.005931 0.000000 0.000000 0.000000
# 3 -0.011176 -0.005931 0.053693 0.000000 0.000000 0.000000
# 4 0.000000 0.000000 0.000000 0.112468 0.000000 0.000000
# 5 0.000000 0.000000 0.000000 0.000000 0.039283 0.000000
# 6 0.000000 0.000000 0.000000 0.000000 0.000000 0.023749
#
#
# Mechanical properties :
#
#
# Convention : Reuss Voigt Hill
#
# Bulk Modulus (GPa) = 26.81089 50.94233 38.87661
# Shear Modulus (GPa) = 16.22077 25.55023 20.88550
#
# Velocity S-wave (km/s) = 2.90060 3.64041 3.29136
# Velocity P-wave (km/s) = 5.01243 6.64027 5.88293
#
# Compressibility (1/GPa) = 0.03729827
#
# Stress axis : x y z
#
# Youngs Moduli (GPa) = 67.87657 96.33381 18.62447
#
# Poissons Ratio (x) = 0.35130 0.20815
# Poissons Ratio (y) = 0.24752 0.11046
# Poissons Ratio (z) = 0.75860 0.57135
#
# Static dielectric constant tensor:
#      x y z
#    x 3.809580 0.000000 0.000000 
#    y 0.000000 3.753200 0.000000 
#    z 0.000000 0.000000 3.286320 
# 
# 
# High freq. dielectric constant tensor:
#      x y z
#    x 1.766340 0.000000 0.000000 
#    y 0.000000 1.762300 0.000000 
#    z 0.000000 0.000000 1.723480 
# 
# From -- ./inp_files/2788.got.cif
#   From: 2010.03.12/outbox.cif.g09.slc.cpg/sg55_2_cif.got.tgz:2788.got - 2010.04.16 15:19:21.
