data_PCOD8226564
_publ_section_title
;
Structure prediction by ZEFSAII (Michael W. Deem and Ramdas Pophale) SiO2 
 PCOD8226564
Probable space group: P B A M
;
_chemical_formula_sum "Si O2"
_cell_formula_units_Z 48
_cell_length_a 23.868004
_cell_length_b 11.768987
_cell_length_c 8.906838
_cell_angle_alpha 90.000000
_cell_angle_beta 90.000000
_cell_angle_gamma 90.000000
_cell_volume 2501.950646
_symmetry_space_group_name_H-M "P B A M"
_symmetry_group_IT_number 55
_symmetry_cell_setting 'orthorhombic'
loop_
_space_group_symop_operation_xyz
x,y,z
-x,-y,z
1/2+x,1/2-y,-z
1/2-x,1/2+y,-z
-x,-y,-z
x,y,-z
1/2-x,1/2+y,z
1/2+x,1/2-y,z
loop_
_atom_site_type_symbol
_atom_site_label
_atom_site_fract_x
_atom_site_fract_y
_atom_site_fract_z
Si Si1 0.032437 0.264063 0.676810
Si Si2 0.917880 0.280730 0.174979
Si Si3 0.670649 0.623057 0.322186
Si Si4 0.798710 0.659528 0.322791
Si Si5 0.101922 0.457523 0.824695
Si Si6 0.637761 0.378350 0.675687
O O1 0.026634 0.281123 0.500000
O O2 0.054972 0.380887 0.746169
O O3 0.074882 0.161154 0.715689
O O4 0.973017 0.230109 0.746325
O O5 0.863485 0.222164 0.243348
O O6 0.914193 0.413650 0.208884
O O7 0.921215 0.254191 0.000000
O O8 0.661863 0.632172 0.500000
O O9 0.735028 0.639637 0.276859
O O10 0.650440 0.501779 0.254568
O O11 0.808765 0.647045 0.500000
O O12 0.836493 0.564828 0.242080
O O13 0.818067 0.784188 0.265346
O O14 0.101825 0.429597 0.000000
O O15 0.646456 0.390253 0.500000
#
# Coordination Sequence:
#
# PCOD8226564 Si02
#       6
#     8   8   8   8   8   8
#     4  10  20  37  61  84 111 146 190 237 281 333
#     4  11  24  38  53  81 119 150 187 232 280 336
#     4  10  21  36  58  83 111 148 187 231 278 328
#     4   9  19  35  59  85 110 143 187 234 276 333
#     4  10  21  37  57  82 115 151 182 229 287 333
#     4   8  17  35  55  82 112 139 179 232 284 325
#
# _framework density 19.185029
#
# number of rings (size 3 to 8) (size 9 to 14) (size 15 to 20)
#    0.000    2.333    0.000    3.000    2.333    6.000 
#    0.000    7.500    0.000    0.000    0.000    0.000 
#    0.000    0.000    0.000    0.000    0.000    0.000 
#
# Total GULP energy -595285.005192 kJ/mol
# GULP energy per Si atom -12401.770942 kJ/mol
# Density = 1.914136 g / cm^3
# Si number density = 19.185029 Si / 1000 Ang^3
#
#
#
# Elastic Constant Matrix: (Units=GPa)
#
#
# Indices 1 2 3 4 5 6 
#
# 1 126.5756 23.5170 45.7339 0.0000 0.0000 0.0000
# 2 23.5170 35.6749 24.0549 0.0000 0.0000 0.0000
# 3 45.7339 24.0549 57.8463 0.0000 0.0000 0.0000
# 4 0.0000 0.0000 0.0000 23.1986 0.0000 0.0000
# 5 0.0000 0.0000 0.0000 0.0000 19.7405 0.0000
# 6 0.0000 0.0000 0.0000 0.0000 0.0000 21.6611
#
#
#
# Elastic Compliance Matrix: (Units=1/GPa)
#
#
# Indices 1 2 3 4 5 6 
#
# 1 0.011157 -0.001955 -0.008008 0.000000 0.000000 0.000000
# 2 -0.001955 0.039296 -0.014795 0.000000 0.000000 0.000000
# 3 -0.008008 -0.014795 0.029771 0.000000 0.000000 0.000000
# 4 0.000000 0.000000 0.000000 0.043106 0.000000 0.000000
# 5 0.000000 0.000000 0.000000 0.000000 0.050657 0.000000
# 6 0.000000 0.000000 0.000000 0.000000 0.000000 0.046166
#
#
# Mechanical properties :
#
#
# Convention : Reuss Voigt Hill
#
# Bulk Modulus (GPa) = 32.56548 45.18981 38.87765
# Shear Modulus (GPa) = 17.86326 21.37277 19.61802
#
# Velocity S-wave (km/s) = 3.05471 3.34134 3.20123
# Velocity P-wave (km/s) = 5.42706 6.20418 5.82859
#
# Compressibility (1/GPa) = 0.03070736
#
# Stress axis : x y z
#
# Youngs Moduli (GPa) = 89.62948 25.44808 33.59022
#
# Poissons Ratio (x) = 0.04976 0.26898
# Poissons Ratio (y) = 0.17525 0.49696
# Poissons Ratio (z) = 0.71773 0.37650
#
# Static dielectric constant tensor:
#      x y z
#    x 3.600960 0.000000 0.000000 
#    y 0.000000 3.640600 0.000000 
#    z 0.000000 0.000000 3.354850 
# 
# 
# High freq. dielectric constant tensor:
#      x y z
#    x 1.757030 0.000000 0.000000 
#    y 0.000000 1.746840 0.000000 
#    z 0.000000 0.000000 1.731060 
# 
# From -- ./inp_files/4044.got.cif
#   From: 2010.03.12/outbox.cif.g09.slc.cpg/sg55_3_cif.got.tgz:4044.got - 2010.04.16 15:19:21.
