data_PCOD8226948
_publ_section_title
;
Structure prediction by ZEFSAII (Michael W. Deem and Ramdas Pophale) SiO2 
 PCOD8226948
Probable space group: P B A M
;
_chemical_formula_sum "Si O2"
_cell_formula_units_Z 64
_cell_length_a 18.813095
_cell_length_b 12.864130
_cell_length_c 13.225143
_cell_angle_alpha 90.000000
_cell_angle_beta 90.000000
_cell_angle_gamma 90.000000
_cell_volume 3200.671078
_symmetry_space_group_name_H-M "P B A M"
_symmetry_group_IT_number 55
_symmetry_cell_setting 'orthorhombic'
loop_
_space_group_symop_operation_xyz
x,y,z
-x,-y,z
1/2+x,1/2-y,-z
1/2-x,1/2+y,-z
-x,-y,-z
x,y,-z
1/2-x,1/2+y,z
1/2+x,1/2-y,z
loop_
_atom_site_type_symbol
_atom_site_label
_atom_site_fract_x
_atom_site_fract_y
_atom_site_fract_z
Si Si1 0.323667 0.427713 0.780873
Si Si2 0.441983 0.410028 0.617592
Si Si3 0.294615 0.212252 0.116499
Si Si4 0.667354 0.997271 0.782096
Si Si5 0.536301 0.251796 0.268559
Si Si6 0.955245 0.602204 0.108954
Si Si7 0.861635 0.868545 0.115851
Si Si8 0.424895 0.943570 0.613076
O O1 0.370449 0.437336 0.678627
O O2 0.324584 0.311841 0.824682
O O3 0.243914 0.458605 0.754101
O O4 0.351276 0.508365 0.865641
O O5 0.500000 0.500000 0.626557
O O6 0.422790 0.389113 0.500000
O O7 0.475709 0.308455 0.668351
O O8 0.333228 0.111293 0.160143
O O9 0.210257 0.197616 0.128731
O O10 0.316131 0.223717 0.000000
O O11 0.624201 0.080826 0.849982
O O12 0.628221 0.983213 0.675306
O O13 0.501139 0.178566 0.182582
O O14 0.586517 0.329269 0.204729
O O15 0.576958 0.175295 0.346182
O O16 0.000000 0.500000 0.100641
O O17 0.946302 0.655847 0.000000
O O18 0.890213 0.856283 0.000000
O O19 0.396652 0.939327 0.500000
O O20 0.500000 0.000000 0.622202
#
# Coordination Sequence:
#
# PCOD8226948 Si02
#       8
#     8   8   8   8   8   8   8   8
#     4  11  23  40  62  89 122 162 207 256 304 358
#     4  11  25  45  65  84 115 161 213 263 315 362
#     4  10  21  36  61  91 125 165 198 237 300 364
#     4  10  21  38  60  89 128 158 202 251 302 361
#     4  11  20  38  62  87 116 159 203 252 299 360
#     4  10  21  36  60  94 130 168 203 239 294 367
#     4  10  21  39  61  91 125 163 202 240 294 366
#     4  10  22  39  63  91 120 157 201 251 309 363
#
# _framework density 19.995806999999999
#
# number of rings (size 3 to 8) (size 9 to 14) (size 15 to 20)
#    0.000    1.625    1.250    4.500    3.500    3.000 
#    0.000    2.500    0.000    0.750    0.000    0.000 
#    0.000    0.000    0.000    0.000    0.000    0.000 
#
# Total GULP energy -793219.044281 kJ/mol
# GULP energy per Si atom -12394.047567 kJ/mol
# Density = 1.995030 g / cm^3
# Si number density = 19.995807 Si / 1000 Ang^3
#
#
#
# Elastic Constant Matrix: (Units=GPa)
#
#
# Indices 1 2 3 4 5 6 
#
# 1 77.3672 22.3814 52.6777 0.0000 0.0000 0.0000
# 2 22.3814 93.2305 44.3457 0.0000 0.0000 0.0000
# 3 52.6777 44.3457 175.4205 0.0000 0.0000 0.0000
# 4 0.0000 0.0000 0.0000 -390.8302 0.0000 0.0000
# 5 0.0000 0.0000 0.0000 0.0000 -10.5627 0.0000
# 6 0.0000 0.0000 0.0000 0.0000 0.0000 28.8879
#
#
#
# Elastic Compliance Matrix: (Units=1/GPa)
#
#
# Indices 1 2 3 4 5 6 
#
# 1 0.016516 -0.001825 -0.004498 0.000000 0.000000 0.000000
# 2 -0.001825 0.012394 -0.002585 0.000000 0.000000 0.000000
# 3 -0.004498 -0.002585 0.007705 0.000000 0.000000 0.000000
# 4 0.000000 0.000000 0.000000 -0.002559 0.000000 0.000000
# 5 0.000000 0.000000 0.000000 0.000000 -0.094672 0.000000
# 6 0.000000 0.000000 0.000000 0.000000 0.000000 0.034617
#
#
# Mechanical properties :
#
#
# Convention : Reuss Voigt Hill
#
# Bulk Modulus (GPa) = 53.19789 64.98087 59.08938
# Shear Modulus (GPa) = -2608.85723 -59.39344 -1334.12534
#
# Velocity S-wave (km/s) = -36.15985 -5.45595 -25.85829
# Velocity P-wave (km/s) = 41.43329 2.66873 29.35847
#
# Compressibility (1/GPa) = 0.01879774
#
# Stress axis : x y z
#
# Youngs Moduli (GPa) = 60.54661 80.68500 129.78801
#
# Poissons Ratio (x) = 0.14728 0.58382
# Poissons Ratio (y) = 0.11052 0.33550
# Poissons Ratio (z) = 0.27236 0.20857
#
# Static dielectric constant tensor:
#      x y z
#    x 3.520800 0.000000 0.000000 
#    y 0.000000 3.854580 0.000000 
#    z 0.000000 0.000000 4.052800 
# 
# 
# High freq. dielectric constant tensor:
#      x y z
#    x 1.767700 0.000000 0.000000 
#    y 0.000000 1.791200 0.000000 
#    z 0.000000 0.000000 1.788570 
# 
# From -- ./inp_files/19529.got.cif
#   From: 2010.03.12/outbox.cif.g09.slc.cpg/sg55_10_cif.got.tgz:19529.got - 2010.04.16 15:19:21.
