data_PCOD8226384
_publ_section_title
;
Structure prediction by ZEFSAII (Michael W. Deem and Ramdas Pophale) SiO2 
 PCOD8226384
Probable space group: P B A M
;
_chemical_formula_sum "Si O2"
_cell_formula_units_Z 56
_cell_length_a 19.431785
_cell_length_b 16.314036
_cell_length_c 9.397047
_cell_angle_alpha 90.000000
_cell_angle_beta 90.000000
_cell_angle_gamma 90.000000
_cell_volume 2978.965763
_symmetry_space_group_name_H-M "P B A M"
_symmetry_group_IT_number 55
_symmetry_cell_setting 'orthorhombic'
loop_
_space_group_symop_operation_xyz
x,y,z
-x,-y,z
1/2+x,1/2-y,-z
1/2-x,1/2+y,-z
-x,-y,-z
x,y,-z
1/2-x,1/2+y,z
1/2+x,1/2-y,z
loop_
_atom_site_type_symbol
_atom_site_label
_atom_site_fract_x
_atom_site_fract_y
_atom_site_fract_z
Si Si1 0.367627 0.305315 0.835434
Si Si2 0.883077 0.855840 0.334716
Si Si3 0.517858 0.243402 0.163410
Si Si4 0.690506 0.067397 0.339103
Si Si5 0.741680 0.247534 0.662381
Si Si6 0.941556 0.562613 0.831910
Si Si7 0.157078 0.964225 0.665493
O O1 0.436576 0.253296 0.816856
O O2 0.307511 0.251633 0.764488
O O3 0.376574 0.393024 0.759381
O O4 0.349628 0.320643 0.000000
O O5 0.896124 0.837869 0.500000
O O6 0.944304 0.814544 0.249088
O O7 0.808646 0.820583 0.290058
O O8 0.883656 0.952501 0.301612
O O9 0.538200 0.153638 0.220364
O O10 0.539726 0.253139 0.000000
O O11 0.669982 0.044999 0.500000
O O12 0.698594 0.164531 0.319664
O O13 0.630368 0.034988 0.237344
O O14 0.762311 0.024069 0.296443
O O15 0.767221 0.258045 0.500000
O O16 0.000000 0.500000 0.779855
O O17 0.932500 0.558617 0.000000
O O18 0.150993 0.938556 0.500000
#
# Coordination Sequence:
#
# PCOD8226384 Si02
#       7
#     8   8   8   8   8   8   8
#     4  10  21  36  54  78 112 151 186 223 275 329
#     4  10  20  36  59  83 108 144 186 227 280 334
#     4  10  22  38  54  78 113 148 183 228 275 328
#     4   9  17  33  54  77 105 134 171 222 272 318
#     4   9  18  34  56  80 106 138 181 231 276 325
#     4  10  21  36  54  77 108 145 181 221 273 327
#     4   9  20  37  56  81 111 141 180 232 278 321
#
# _framework density 18.798470999999999
#
# number of rings (size 3 to 8) (size 9 to 14) (size 15 to 20)
#    0.000    2.429    1.429    1.286    0.000    6.571 
#    0.000    2.857    0.000    0.000    0.000    0.000 
#    0.000    0.000    0.000    0.000    0.000    0.000 
#
# Total GULP energy -694514.252075 kJ/mol
# GULP energy per Si atom -12402.040216 kJ/mol
# Density = 1.875568 g / cm^3
# Si number density = 18.798471 Si / 1000 Ang^3
#
#
#
# Elastic Constant Matrix: (Units=GPa)
#
#
# Indices 1 2 3 4 5 6 
#
# 1 74.1412 16.2117 38.5733 0.0000 0.0000 0.0000
# 2 16.2117 35.0318 17.4347 0.0000 0.0000 0.0000
# 3 38.5733 17.4347 62.2979 0.0000 0.0000 0.0000
# 4 0.0000 0.0000 0.0000 23.6678 0.0000 0.0000
# 5 0.0000 0.0000 0.0000 0.0000 37.6790 0.0000
# 6 0.0000 0.0000 0.0000 0.0000 0.0000 27.7642
#
#
#
# Elastic Compliance Matrix: (Units=1/GPa)
#
#
# Indices 1 2 3 4 5 6 
#
# 1 0.020290 -0.003645 -0.011543 0.000000 0.000000 0.000000
# 2 -0.003645 0.033819 -0.007208 0.000000 0.000000 0.000000
# 3 -0.011543 -0.007208 0.025216 0.000000 0.000000 0.000000
# 4 0.000000 0.000000 0.000000 0.042251 0.000000 0.000000
# 5 0.000000 0.000000 0.000000 0.000000 0.026540 0.000000
# 6 0.000000 0.000000 0.000000 0.000000 0.000000 0.036018
#
#
# Mechanical properties :
#
#
# Convention : Reuss Voigt Hill
#
# Bulk Modulus (GPa) = 28.95684 35.10116 32.02900
# Shear Modulus (GPa) = 20.79532 24.43895 22.61713
#
# Velocity S-wave (km/s) = 3.32960 3.60953 3.47239
# Velocity P-wave (km/s) = 5.49718 6.00704 5.75775
#
# Compressibility (1/GPa) = 0.03453415
#
# Stress axis : x y z
#
# Youngs Moduli (GPa) = 49.28448 29.56876 39.65673
#
# Poissons Ratio (x) = 0.10778 0.45777
# Poissons Ratio (y) = 0.17964 0.28584
# Poissons Ratio (z) = 0.56890 0.21313
#
# Static dielectric constant tensor:
#      x y z
#    x 3.343060 0.000000 0.000000 
#    y 0.000000 3.426500 0.000000 
#    z 0.000000 0.000000 3.387640 
# 
# 
# High freq. dielectric constant tensor:
#      x y z
#    x 1.730360 0.000000 0.000000 
#    y 0.000000 1.724280 0.000000 
#    z 0.000000 0.000000 1.723630 
# 
# From -- ./inp_files/8685.got.cif
#   From: 2010.03.12/outbox.cif.g09.slc.cpg/sg55_5_cif.got.tgz:8685.got - 2010.04.16 15:19:21.
