data_PCOD8226575
_publ_section_title
;
Structure prediction by ZEFSAII (Michael W. Deem and Ramdas Pophale) SiO2 
 PCOD8226575
Probable space group: P B A M
;
_chemical_formula_sum "Si O2"
_cell_formula_units_Z 48
_cell_length_a 11.787096
_cell_length_b 23.396677
_cell_length_c 8.958197
_cell_angle_alpha 90.000000
_cell_angle_beta 90.000000
_cell_angle_gamma 90.000000
_cell_volume 2470.481516
_symmetry_space_group_name_H-M "P B A M"
_symmetry_group_IT_number 55
_symmetry_cell_setting 'orthorhombic'
loop_
_space_group_symop_operation_xyz
x,y,z
-x,-y,z
1/2+x,1/2-y,-z
1/2-x,1/2+y,-z
-x,-y,-z
x,y,-z
1/2-x,1/2+y,z
1/2+x,1/2-y,z
loop_
_atom_site_type_symbol
_atom_site_label
_atom_site_fract_x
_atom_site_fract_y
_atom_site_fract_z
Si Si1 0.034504 0.094884 0.671821
Si Si2 0.666887 0.290496 0.672748
Si Si3 0.385747 0.826067 0.174845
Si Si4 0.228936 0.031852 0.173913
Si Si5 0.725491 0.583865 0.324224
Si Si6 0.859302 0.354726 0.827246
O O1 0.049960 0.076909 0.500000
O O2 0.077954 0.158794 0.700142
O O3 0.104586 0.049618 0.768893
O O4 0.904915 0.092113 0.722719
O O5 0.675393 0.272974 0.500000
O O6 0.620817 0.238440 0.769040
O O7 0.791372 0.309079 0.727975
O O8 0.292980 0.863123 0.258867
O O9 0.509157 0.850870 0.213404
O O10 0.360789 0.828037 0.000000
O O11 0.319269 0.081262 0.211567
O O12 0.272379 0.975126 0.256431
O O13 0.221782 0.018764 0.000000
O O14 0.742049 0.582871 0.500000
O O15 0.835644 0.340300 0.000000
#
# Coordination Sequence:
#
# PCOD8226575 Si02
#       6
#     8   8   8   8   8   8
#     4   9  20  38  59  85 117 153 190 236 291 345
#     4  10  21  38  61  86 114 149 191 239 293 348
#     4  11  24  40  58  84 116 153 196 241 290 343
#     4  10  20  37  61  87 116 152 195 241 291 342
#     4  11  23  38  57  86 121 155 194 238 291 346
#     4   9  21  41  61  83 114 154 195 238 290 348
#
# _framework density 19.429411000000002
#
# number of rings (size 3 to 8) (size 9 to 14) (size 15 to 20)
#    0.000    2.000    0.000    2.500    2.333    6.667 
#    0.000    3.333    0.000    0.000    0.000    0.000 
#    0.000    0.000    0.000    0.000    0.000    0.000 
#
# Total GULP energy -595494.063615 kJ/mol
# GULP energy per Si atom -12406.126325 kJ/mol
# Density = 1.938519 g / cm^3
# Si number density = 19.429411 Si / 1000 Ang^3
#
#
#
# Elastic Constant Matrix: (Units=GPa)
#
#
# Indices 1 2 3 4 5 6 
#
# 1 59.4555 21.0028 31.3026 0.0000 0.0000 0.0000
# 2 21.0028 88.9829 34.9728 0.0000 0.0000 0.0000
# 3 31.3026 34.9728 76.8443 0.0000 0.0000 0.0000
# 4 0.0000 0.0000 0.0000 39.9735 0.0000 0.0000
# 5 0.0000 0.0000 0.0000 0.0000 29.8196 0.0000
# 6 0.0000 0.0000 0.0000 0.0000 0.0000 18.0329
#
#
#
# Elastic Compliance Matrix: (Units=1/GPa)
#
#
# Indices 1 2 3 4 5 6 
#
# 1 0.021702 -0.002007 -0.007927 0.000000 0.000000 0.000000
# 2 -0.002007 0.013872 -0.005496 0.000000 0.000000 0.000000
# 3 -0.007927 -0.005496 0.018744 0.000000 0.000000 0.000000
# 4 0.000000 0.000000 0.000000 0.025017 0.000000 0.000000
# 5 0.000000 0.000000 0.000000 0.000000 0.033535 0.000000
# 6 0.000000 0.000000 0.000000 0.000000 0.000000 0.055454
#
#
# Mechanical properties :
#
#
# Convention : Reuss Voigt Hill
#
# Bulk Modulus (GPa) = 42.62920 44.42659 43.52789
# Shear Modulus (GPa) = 24.15449 26.76548 25.45999
#
# Velocity S-wave (km/s) = 3.52972 3.71560 3.62385
# Velocity P-wave (km/s) = 6.21290 6.42828 6.32151
#
# Compressibility (1/GPa) = 0.02345810
#
# Stress axis : x y z
#
# Youngs Moduli (GPa) = 46.07954 72.08885 53.35176
#
# Poissons Ratio (x) = 0.14467 0.42291
# Poissons Ratio (y) = 0.09247 0.29321
# Poissons Ratio (z) = 0.36527 0.39618
#
# Static dielectric constant tensor:
#      x y z
#    x 3.521840 0.000000 0.000000 
#    y 0.000000 3.604440 0.000000 
#    z 0.000000 0.000000 3.602960 
# 
# 
# High freq. dielectric constant tensor:
#      x y z
#    x 1.754370 0.000000 0.000000 
#    y 0.000000 1.766190 0.000000 
#    z 0.000000 0.000000 1.764840 
# 
# From -- ./inp_files/4049.got.cif
#   From: 2010.03.12/outbox.cif.g09.slc.cpg/sg55_3_cif.got.tgz:4049.got - 2010.04.16 15:19:21.
