data_PCOD8226352
_publ_section_title
;
Structure prediction by ZEFSAII (Michael W. Deem and Ramdas Pophale) SiO2 
 PCOD8226352
Probable space group: P B A M
;
_chemical_formula_sum "Si O2"
_cell_formula_units_Z 48
_cell_length_a 26.737328
_cell_length_b 10.273089
_cell_length_c 8.827658
_cell_angle_alpha 90.000000
_cell_angle_beta 90.000000
_cell_angle_gamma 90.000000
_cell_volume 2424.736521
_symmetry_space_group_name_H-M "P B A M"
_symmetry_group_IT_number 55
_symmetry_cell_setting 'orthorhombic'
loop_
_space_group_symop_operation_xyz
x,y,z
-x,-y,z
1/2+x,1/2-y,-z
1/2-x,1/2+y,-z
-x,-y,-z
x,y,-z
1/2-x,1/2+y,z
1/2+x,1/2-y,z
loop_
_atom_site_type_symbol
_atom_site_label
_atom_site_fract_x
_atom_site_fract_y
_atom_site_fract_z
Si Si1 0.469607 0.623192 0.819543
Si Si2 0.695789 0.606866 0.678180
Si Si3 0.640414 0.847613 0.179472
Si Si4 0.527526 0.873048 0.819405
Si Si5 0.199003 0.395812 0.175288
Si Si6 0.643406 0.368975 0.824165
O O1 0.500000 0.500000 0.756796
O O2 0.497223 0.750068 0.755040
O O3 0.412803 0.617474 0.760403
O O4 0.469465 0.626037 0.000000
O O5 0.691203 0.615639 0.500000
O O6 0.660591 0.715630 0.749800
O O7 0.752589 0.632595 0.725453
O O8 0.679511 0.464318 0.732713
O O9 0.584286 0.869399 0.239848
O O10 0.673543 0.970581 0.230551
O O11 0.641163 0.832016 0.000000
O O12 0.500000 0.000000 0.754439
O O13 0.527065 0.873988 0.000000
O O14 0.160039 0.279377 0.200792
O O15 0.215056 0.405518 0.000000
O O16 0.646385 0.408216 0.000000
#
# Coordination Sequence:
#
# PCOD8226352 Si02
#       6
#     8   8   8   8   8   8
#     4   9  16  27  48  79 110 138 169 208 257 313
#     4  12  25  38  54  78 109 147 189 229 271 321
#     4  10  20  36  59  85 113 144 178 222 275 328
#     4   9  16  28  51  84 114 136 167 216 270 322
#     4  10  21  37  58  83 109 140 181 227 276 328
#     4  10  20  36  58  83 111 143 180 223 271 322
#
# _framework density 19.795966
#
# number of rings (size 3 to 8) (size 9 to 14) (size 15 to 20)
#    0.000    2.000    0.000    4.500    0.000   12.000 
#    0.000    0.000    0.000    5.000    0.000    0.000 
#    0.000    0.000    0.000    0.000    0.000    0.000 
#
# Total GULP energy -595370.057271 kJ/mol
# GULP energy per Si atom -12403.542860 kJ/mol
# Density = 1.975091 g / cm^3
# Si number density = 19.795966 Si / 1000 Ang^3
#
#
#
# Elastic Constant Matrix: (Units=GPa)
#
#
# Indices 1 2 3 4 5 6 
#
# 1 128.5415 31.4747 22.5497 0.0000 0.0000 0.0000
# 2 31.4747 116.0308 14.2713 0.0000 0.0000 0.0000
# 3 22.5497 14.2713 27.0168 0.0000 0.0000 0.0000
# 4 0.0000 0.0000 0.0000 4.5371 0.0000 0.0000
# 5 0.0000 0.0000 0.0000 0.0000 -2.0500 0.0000
# 6 0.0000 0.0000 0.0000 0.0000 0.0000 44.3779
#
#
#
# Elastic Compliance Matrix: (Units=1/GPa)
#
#
# Indices 1 2 3 4 5 6 
#
# 1 0.009417 -0.001698 -0.006963 0.000000 0.000000 0.000000
# 2 -0.001698 0.009523 -0.003613 0.000000 0.000000 0.000000
# 3 -0.006963 -0.003613 0.044734 0.000000 0.000000 0.000000
# 4 0.000000 0.000000 0.000000 0.220404 0.000000 0.000000
# 5 0.000000 0.000000 0.000000 0.000000 -0.487798 0.000000
# 6 0.000000 0.000000 0.000000 0.000000 0.000000 0.022534
#
#
# Mechanical properties :
#
#
# Convention : Reuss Voigt Hill
#
# Bulk Modulus (GPa) = 25.55842 45.35339 35.45591
# Shear Modulus (GPa) = -34.82020 22.92588 -5.94716
#
# Velocity S-wave (km/s) = -4.19854 3.40679 -1.73515
# Velocity P-wave (km/s) = 3.25034 6.19961 3.73299
#
# Compressibility (1/GPa) = 0.03912605
#
# Stress axis : x y z
#
# Youngs Moduli (GPa) = 106.19275 105.00405 22.35423
#
# Poissons Ratio (x) = 0.17830 0.15565
# Poissons Ratio (y) = 0.18032 0.08077
# Poissons Ratio (z) = 0.73940 0.37942
#
# Static dielectric constant tensor:
#      x y z
#    x 3.806250 0.000000 0.000000 
#    y 0.000000 3.767560 0.000000 
#    z 0.000000 0.000000 3.109290 
# 
# 
# High freq. dielectric constant tensor:
#      x y z
#    x 1.790660 0.000000 0.000000 
#    y 0.000000 1.791350 0.000000 
#    z 0.000000 0.000000 1.715270 
# 
# From -- ./inp_files/10534.got.cif
#   From: 2010.03.12/outbox.cif.g09.slc.cpg/sg55_6_cif.got.tgz:10534.got - 2010.04.16 15:19:21.
