data_PCOD8226785
_publ_section_title
;
Structure prediction by ZEFSAII (Michael W. Deem and Ramdas Pophale) SiO2 
 PCOD8226785
Probable space group: P B A M
;
_chemical_formula_sum "Si O2"
_cell_formula_units_Z 32
_cell_length_a 25.403487
_cell_length_b 4.951734
_cell_length_c 11.307435
_cell_angle_alpha 90.000000
_cell_angle_beta 90.000000
_cell_angle_gamma 90.000000
_cell_volume 1422.377065
_symmetry_space_group_name_H-M "P B A M"
_symmetry_group_IT_number 55
_symmetry_cell_setting 'orthorhombic'
loop_
_space_group_symop_operation_xyz
x,y,z
-x,-y,z
1/2+x,1/2-y,-z
1/2-x,1/2+y,-z
-x,-y,-z
x,y,-z
1/2-x,1/2+y,z
1/2+x,1/2-y,z
loop_
_atom_site_type_symbol
_atom_site_label
_atom_site_fract_x
_atom_site_fract_y
_atom_site_fract_z
Si Si1 0.441022 0.109711 0.751402
Si Si2 0.713656 0.528548 0.246135
Si Si3 0.392269 0.607212 0.865104
Si Si4 0.283381 0.578183 0.500000
Si Si5 0.962024 0.253939 0.500000
O O1 0.401857 0.865897 0.781900
O O2 0.500000 0.000000 0.765353
O O3 0.432329 0.362736 0.837855
O O4 0.427493 0.222818 0.619476
O O5 0.738000 0.823578 0.228118
O O6 0.667643 0.490860 0.151533
O O7 0.686974 0.495616 0.377522
O O8 0.400827 0.695917 0.000000
O O9 0.270051 0.896002 0.500000
O O10 0.000000 0.500000 0.500000
O O11 0.000000 0.000000 0.500000
#
# Coordination Sequence:
#
# PCOD8226785 Si02
#       5
#     8   8   8   4   4
#     4  11  24  43  66  93 127 164 206 267 324 372
#     4  10  21  39  61  87 122 161 204 263 318 366
#     4  12  26  41  62  94 127 171 223 252 302 389
#     4   8  16  32  56  84 113 148 195 247 310 373
#     4  10  20  40  68  96 124 158 206 259 322 385
#
# _framework density 22.497551999999999
#
# number of rings (size 3 to 8) (size 9 to 14) (size 15 to 20)
#    0.000    1.500    0.000    6.000    0.000    6.000 
#    0.000    2.500    0.000    0.000    0.000    0.000 
#    0.000    0.000    0.000    0.000    0.000    0.000 
#
# Total GULP energy -396706.751144 kJ/mol
# GULP energy per Si atom -12397.085973 kJ/mol
# Density = 2.244635 g / cm^3
# Si number density = 22.497552 Si / 1000 Ang^3
#
#
#
# Elastic Constant Matrix: (Units=GPa)
#
#
# Indices 1 2 3 4 5 6 
#
# 1 66.5034 16.3629 45.3113 0.0000 0.0000 0.0000
# 2 16.3629 122.7099 35.3610 0.0000 0.0000 0.0000
# 3 45.3113 35.3610 128.9873 0.0000 0.0000 0.0000
# 4 0.0000 0.0000 0.0000 31.0113 0.0000 0.0000
# 5 0.0000 0.0000 0.0000 0.0000 29.4103 0.0000
# 6 0.0000 0.0000 0.0000 0.0000 0.0000 37.1046
#
#
#
# Elastic Compliance Matrix: (Units=1/GPa)
#
#
# Indices 1 2 3 4 5 6 
#
# 1 0.019822 -0.000691 -0.006774 0.000000 0.000000 0.000000
# 2 -0.000691 0.008872 -0.002189 0.000000 0.000000 0.000000
# 3 -0.006774 -0.002189 0.010732 0.000000 0.000000 0.000000
# 4 0.000000 0.000000 0.000000 0.032246 0.000000 0.000000
# 5 0.000000 0.000000 0.000000 0.000000 0.034002 0.000000
# 6 0.000000 0.000000 0.000000 0.000000 0.000000 0.026951
#
#
# Mechanical properties :
#
#
# Convention : Reuss Voigt Hill
#
# Bulk Modulus (GPa) = 49.70656 56.91900 53.31278
# Shear Modulus (GPa) = 31.51776 34.24959 32.88367
#
# Velocity S-wave (km/s) = 3.74698 3.90599 3.82731
# Velocity P-wave (km/s) = 6.39233 6.75998 6.57873
#
# Compressibility (1/GPa) = 0.02011807
#
# Stress axis : x y z
#
# Youngs Moduli (GPa) = 50.44877 112.70887 93.17554
#
# Poissons Ratio (x) = 0.07791 0.63114
# Poissons Ratio (y) = 0.03487 0.20401
# Poissons Ratio (z) = 0.34172 0.24677
#
# Static dielectric constant tensor:
#      x y z
#    x 3.559860 0.000000 0.000000 
#    y 0.000000 4.179470 0.000000 
#    z 0.000000 0.000000 2.914650 
# 
# 
# High freq. dielectric constant tensor:
#      x y z
#    x 1.854750 0.000000 0.000000 
#    y 0.000000 1.908970 0.000000 
#    z 0.000000 0.000000 1.889820 
# 
# From -- ./inp_files/15514.got.cif
#   From: 2010.03.12/outbox.cif.g09.slc.cpg/sg55_8_cif.got.tgz:15514.got - 2010.04.16 15:19:21.
