data_PCOD8226260
_publ_section_title
;
Structure prediction by ZEFSAII (Michael W. Deem and Ramdas Pophale) SiO2 
 PCOD8226260
Probable space group: P B A M
;
_chemical_formula_sum "Si O2"
_cell_formula_units_Z 48
_cell_length_a 9.179894
_cell_length_b 17.416293
_cell_length_c 14.799050
_cell_angle_alpha 90.000000
_cell_angle_beta 90.000000
_cell_angle_gamma 90.000000
_cell_volume 2366.068024
_symmetry_space_group_name_H-M "P B A M"
_symmetry_group_IT_number 55
_symmetry_cell_setting 'orthorhombic'
loop_
_space_group_symop_operation_xyz
x,y,z
-x,-y,z
1/2+x,1/2-y,-z
1/2-x,1/2+y,-z
-x,-y,-z
x,y,-z
1/2-x,1/2+y,z
1/2+x,1/2-y,z
loop_
_atom_site_type_symbol
_atom_site_label
_atom_site_fract_x
_atom_site_fract_y
_atom_site_fract_z
Si Si1 0.145301 0.961408 0.751571
Si Si2 0.712832 0.271165 0.312103
Si Si3 0.135510 0.353054 0.821826
Si Si4 0.450301 0.773678 0.000000
Si Si5 0.328821 0.095533 0.806969
Si Si6 0.751215 0.357108 0.000000
Si Si7 0.935203 0.157832 0.604381
O O1 0.209739 0.897510 0.819528
O O2 0.113229 0.919778 0.656411
O O3 0.264692 0.028863 0.743064
O O4 0.000000 0.000000 0.792308
O O5 0.621741 0.206234 0.260485
O O6 0.791158 0.322475 0.236405
O O7 0.601413 0.321517 0.370965
O O8 0.832077 0.230735 0.375802
O O9 0.003237 0.413424 0.811344
O O10 0.129333 0.309703 0.914944
O O11 0.408067 0.683413 0.000000
O O12 0.622733 0.790484 0.000000
O O13 0.266261 0.091059 0.909846
O O14 0.925222 0.136759 0.500000
#
# Coordination Sequence:
#
# PCOD8226260 Si02
#       7
#     8   8   8   4   8   4   8
#     4  11  24  40  63  87 121 169 205 250 313 366
#     4  11  20  38  68  89 121 158 199 256 311 366
#     4  10  22  38  63  88 128 163 207 249 303 367
#     4  10  20  35  58  97 119 167 207 261 299 348
#     4  11  21  40  59  92 125 170 202 246 315 362
#     4  10  22  33  62  89 129 159 213 257 291 364
#     4  11  24  42  64  94 120 153 207 261 316 375
#
# _framework density 20.286822000000001
#
# number of rings (size 3 to 8) (size 9 to 14) (size 15 to 20)
#    0.000    1.333    5.000    1.000    0.000    2.333 
#    0.000    3.333    0.000    2.000    0.000    0.000 
#    0.000    0.000    0.000    0.000    0.000    0.000 
#
# Total GULP energy -595104.873503 kJ/mol
# GULP energy per Si atom -12398.018198 kJ/mol
# Density = 2.024065 g / cm^3
# Si number density = 20.286822 Si / 1000 Ang^3
#
#
#
# Elastic Constant Matrix: (Units=GPa)
#
#
# Indices 1 2 3 4 5 6 
#
# 1 83.4199 25.5588 42.7208 0.0000 0.0000 0.0000
# 2 25.5588 73.4507 22.9926 0.0000 0.0000 0.0000
# 3 42.7208 22.9926 84.7656 0.0000 0.0000 0.0000
# 4 0.0000 0.0000 0.0000 23.7292 0.0000 0.0000
# 5 0.0000 0.0000 0.0000 0.0000 26.4798 0.0000
# 6 0.0000 0.0000 0.0000 0.0000 0.0000 42.8475
#
#
#
# Elastic Compliance Matrix: (Units=1/GPa)
#
#
# Indices 1 2 3 4 5 6 
#
# 1 0.016953 -0.003524 -0.007588 0.000000 0.000000 0.000000
# 2 -0.003524 0.015610 -0.002458 0.000000 0.000000 0.000000
# 3 -0.007588 -0.002458 0.016289 0.000000 0.000000 0.000000
# 4 0.000000 0.000000 0.000000 0.042142 0.000000 0.000000
# 5 0.000000 0.000000 0.000000 0.000000 0.037765 0.000000
# 6 0.000000 0.000000 0.000000 0.000000 0.000000 0.023339
#
#
# Mechanical properties :
#
#
# Convention : Reuss Voigt Hill
#
# Bulk Modulus (GPa) = 46.05957 47.13117 46.59537
# Shear Modulus (GPa) = 26.81313 28.63558 27.72435
#
# Velocity S-wave (km/s) = 3.63947 3.76112 3.70079
# Velocity P-wave (km/s) = 6.35723 6.49185 6.42490
#
# Compressibility (1/GPa) = 0.02171101
#
# Stress axis : x y z
#
# Youngs Moduli (GPa) = 58.98525 64.06021 61.39280
#
# Poissons Ratio (x) = 0.22574 0.46588
# Poissons Ratio (y) = 0.20786 0.15092
# Poissons Ratio (z) = 0.44761 0.15748
#
# Static dielectric constant tensor:
#      x y z
#    x 3.826780 0.000000 0.000000 
#    y 0.000000 3.635180 0.000000 
#    z 0.000000 0.000000 3.416060 
# 
# 
# High freq. dielectric constant tensor:
#      x y z
#    x 1.803020 0.000000 0.000000 
#    y 0.000000 1.789970 0.000000 
#    z 0.000000 0.000000 1.773900 
# 
# From -- ./inp_files/17399.got.cif
#   From: 2010.03.12/outbox.cif.g09.slc.cpg/sg55_9_cif.got.tgz:17399.got - 2010.04.16 15:19:21.
