data_PCOD8226815
_publ_section_title
;
Structure prediction by ZEFSAII (Michael W. Deem and Ramdas Pophale) SiO2 
 PCOD8226815
Probable space group: P B A M
;
_chemical_formula_sum "Si O2"
_cell_formula_units_Z 64
_cell_length_a 29.997486
_cell_length_b 14.390907
_cell_length_c 8.626019
_cell_angle_alpha 90.000000
_cell_angle_beta 90.000000
_cell_angle_gamma 90.000000
_cell_volume 3723.775038
_symmetry_space_group_name_H-M "P B A M"
_symmetry_group_IT_number 55
_symmetry_cell_setting 'orthorhombic'
loop_
_space_group_symop_operation_xyz
x,y,z
-x,-y,z
1/2+x,1/2-y,-z
1/2-x,1/2+y,-z
-x,-y,-z
x,y,-z
1/2-x,1/2+y,z
1/2+x,1/2-y,z
loop_
_atom_site_type_symbol
_atom_site_label
_atom_site_fract_x
_atom_site_fract_y
_atom_site_fract_z
Si Si1 0.048145 0.406201 0.681391
Si Si2 0.870880 0.690213 0.175742
Si Si3 0.700232 0.333340 0.182154
Si Si4 0.284478 0.274370 0.682774
Si Si5 0.131831 0.653406 0.682881
Si Si6 0.816907 0.507531 0.824526
Si Si7 0.275295 0.482417 0.319681
Si Si8 0.044399 0.607900 0.816710
O O1 0.046535 0.429020 0.500000
O O2 0.087342 0.332661 0.715180
O O3 0.056070 0.501291 0.774802
O O4 0.001664 0.360960 0.736438
O O5 0.845407 0.782410 0.235744
O O6 0.832854 0.612558 0.184656
O O7 0.888531 0.700972 0.000000
O O8 0.744425 0.286655 0.251555
O O9 0.694777 0.440279 0.234360
O O10 0.705150 0.325607 0.000000
O O11 0.277819 0.276677 0.500000
O O12 0.332174 0.231242 0.730068
O O13 0.284686 0.379629 0.748863
O O14 0.129451 0.639544 0.500000
O O15 0.143543 0.556755 0.764940
O O16 0.082832 0.676827 0.750648
O O17 0.775941 0.491597 0.709405
O O18 0.802953 0.480945 0.000000
O O19 0.286272 0.487374 0.500000
O O20 0.040337 0.618413 0.000000
#
# Coordination Sequence:
#
# PCOD8226815 Si02
#       8
#     8   8   8   8   8   8   8   8
#     4  11  21  33  52  76 102 135 172 212 253 307
#     4  10  21  35  50  73 104 138 174 212 256 308
#     4  11  22  35  53  75 102 136 177 218 257 306
#     4  10  22  36  52  73 102 138 175 216 259 304
#     4  11  21  34  51  75 102 136 177 216 255 304
#     4  11  20  31  49  73 103 139 175 212 256 301
#     4  11  22  36  51  72 104 139 177 218 260 304
#     4  11  21  34  51  73 105 139 168 209 257 309
#
# _framework density 17.186858999999998
#
# number of rings (size 3 to 8) (size 9 to 14) (size 15 to 20)
#    0.000    1.250    3.750    4.500    0.000    2.500 
#    0.000    0.000    0.000    0.000    0.000    0.875 
#    0.000    7.000    0.000    0.000    0.000    0.000 
#
# Total GULP energy -793653.508345 kJ/mol
# GULP energy per Si atom -12400.836068 kJ/mol
# Density = 1.714774 g / cm^3
# Si number density = 17.186859 Si / 1000 Ang^3
#
#
#
# Elastic Constant Matrix: (Units=GPa)
#
#
# Indices 1 2 3 4 5 6 
#
# 1 99.6243 29.8738 27.1246 0.0000 0.0000 0.0000
# 2 29.8738 66.9803 19.7182 0.0000 0.0000 0.0000
# 3 27.1246 19.7182 59.7316 0.0000 0.0000 0.0000
# 4 0.0000 0.0000 0.0000 21.2959 0.0000 0.0000
# 5 0.0000 0.0000 0.0000 0.0000 28.1193 0.0000
# 6 0.0000 0.0000 0.0000 0.0000 0.0000 24.5205
#
#
#
# Elastic Compliance Matrix: (Units=1/GPa)
#
#
# Indices 1 2 3 4 5 6 
#
# 1 0.012489 -0.004321 -0.004245 0.000000 0.000000 0.000000
# 2 -0.004321 0.018032 -0.003990 0.000000 0.000000 0.000000
# 3 -0.004245 -0.003990 0.019987 0.000000 0.000000 0.000000
# 4 0.000000 0.000000 0.000000 0.046957 0.000000 0.000000
# 5 0.000000 0.000000 0.000000 0.000000 0.035563 0.000000
# 6 0.000000 0.000000 0.000000 0.000000 0.000000 0.040782
#
#
# Mechanical properties :
#
#
# Convention : Reuss Voigt Hill
#
# Bulk Modulus (GPa) = 39.37787 42.19660 40.78724
# Shear Modulus (GPa) = 24.10953 24.76177 24.43565
#
# Velocity S-wave (km/s) = 3.74945 3.79982 3.77472
# Velocity P-wave (km/s) = 6.45800 6.62243 6.54073
#
# Compressibility (1/GPa) = 0.02539497
#
# Stress axis : x y z
#
# Youngs Moduli (GPa) = 80.06976 55.45849 50.03346
#
# Poissons Ratio (x) = 0.23961 0.21240
# Poissons Ratio (y) = 0.34594 0.19966
# Poissons Ratio (z) = 0.33991 0.22130
#
# Static dielectric constant tensor:
#      x y z
#    x 3.272410 0.000000 0.000000 
#    y 0.000000 3.218240 0.000000 
#    z 0.000000 0.000000 3.238000 
# 
# 
# High freq. dielectric constant tensor:
#      x y z
#    x 1.658430 0.000000 0.000000 
#    y 0.000000 1.633600 0.000000 
#    z 0.000000 0.000000 1.674330 
# 
# From -- ./inp_files/10893.got.cif
#   From: 2010.03.12/outbox.cif.g09.slc.cpg/sg55_6_cif.got.tgz:10893.got - 2010.04.16 15:19:21.
