data_PCOD8226200
_publ_section_title
;
Structure prediction by ZEFSAII (Michael W. Deem and Ramdas Pophale) SiO2 
 PCOD8226200
Probable space group: P B A M
;
_chemical_formula_sum "Si O2"
_cell_formula_units_Z 32
_cell_length_a 9.653999
_cell_length_b 19.394589
_cell_length_c 7.770720
_cell_angle_alpha 90.000000
_cell_angle_beta 90.000000
_cell_angle_gamma 90.000000
_cell_volume 1454.953423
_symmetry_space_group_name_H-M "P B A M"
_symmetry_group_IT_number 55
_symmetry_cell_setting 'orthorhombic'
loop_
_space_group_symop_operation_xyz
x,y,z
-x,-y,z
1/2+x,1/2-y,-z
1/2-x,1/2+y,-z
-x,-y,-z
x,y,-z
1/2-x,1/2+y,z
1/2+x,1/2-y,z
loop_
_atom_site_type_symbol
_atom_site_label
_atom_site_fract_x
_atom_site_fract_y
_atom_site_fract_z
Si Si1 0.108655 0.801978 0.298161
Si Si2 0.581187 0.070931 0.000000
Si Si3 0.920539 0.675787 0.705542
Si Si4 0.925874 0.927490 0.686533
Si Si5 0.665015 0.484552 0.000000
O O1 0.105100 0.803127 0.500000
O O2 0.267404 0.799056 0.237342
O O3 0.026585 0.734882 0.234281
O O4 0.033294 0.871784 0.235440
O O5 0.542614 0.110277 0.176539
O O6 0.500000 0.000000 0.000000
O O7 0.745099 0.053715 0.000000
O O8 0.929384 0.658443 0.500000
O O9 0.864360 0.903316 0.500000
O O10 0.803972 0.938868 0.827779
O O11 0.000000 0.000000 0.657441
O O12 0.500000 0.500000 0.000000
#
# Coordination Sequence:
#
# PCOD8226200 Si02
#       5
#     8   4   8   8   4
#     4   9  19  37  63  93 122 159 203 243 301 369
#     4  12  28  43  59  90 124 160 206 248 307 372
#     4  10  22  42  64  89 125 161 198 250 301 356
#     4   9  17  31  55  87 118 148 191 246 293 340
#     4  10  20  35  57  82 109 150 201 242 284 346
#
# _framework density 21.993829999999999
#
# number of rings (size 3 to 8) (size 9 to 14) (size 15 to 20)
#    0.000    2.250    0.000    3.000    0.000    7.500 
#    0.000    2.500    0.000    0.000    0.000    0.000 
#    0.000    0.000    0.000    0.000    0.000    0.000 
#
# Total GULP energy -396426.021838 kJ/mol
# GULP energy per Si atom -12388.313182 kJ/mol
# Density = 2.194377 g / cm^3
# Si number density = 21.993830 Si / 1000 Ang^3
#
#
#
# Elastic Constant Matrix: (Units=GPa)
#
#
# Indices 1 2 3 4 5 6 
#
# 1 60.4712 60.7657 25.2067 0.0000 0.0000 0.0000
# 2 60.7657 147.4501 46.2992 0.0000 0.0000 0.0000
# 3 25.2067 46.2992 132.5336 0.0000 0.0000 0.0000
# 4 0.0000 0.0000 0.0000 39.3664 0.0000 0.0000
# 5 0.0000 0.0000 0.0000 0.0000 17.9090 0.0000
# 6 0.0000 0.0000 0.0000 0.0000 0.0000 45.8430
#
#
#
# Elastic Compliance Matrix: (Units=1/GPa)
#
#
# Indices 1 2 3 4 5 6 
#
# 1 0.028481 -0.011273 -0.001479 0.000000 0.000000 0.000000
# 2 -0.011273 0.012079 -0.002076 0.000000 0.000000 0.000000
# 3 -0.001479 -0.002076 0.008552 0.000000 0.000000 0.000000
# 4 0.000000 0.000000 0.000000 0.025402 0.000000 0.000000
# 5 0.000000 0.000000 0.000000 0.000000 0.055838 0.000000
# 6 0.000000 0.000000 0.000000 0.000000 0.000000 0.021814
#
#
# Mechanical properties :
#
#
# Convention : Reuss Voigt Hill
#
# Bulk Modulus (GPa) = 51.39515 67.22202 59.30858
# Shear Modulus (GPa) = 26.55242 34.50258 30.52750
#
# Velocity S-wave (km/s) = 3.47834 3.96503 3.72963
# Velocity P-wave (km/s) = 6.28892 7.18278 6.75066
#
# Compressibility (1/GPa) = 0.01945709
#
# Stress axis : x y z
#
# Youngs Moduli (GPa) = 35.11102 82.78503 116.93634
#
# Poissons Ratio (x) = 0.93324 0.17292
# Poissons Ratio (y) = 0.39581 0.24274
# Poissons Ratio (z) = 0.05192 0.17185
#
# Static dielectric constant tensor:
#      x y z
#    x 4.418430 0.000000 0.000000 
#    y 0.000000 4.313220 0.000000 
#    z 0.000000 0.000000 6.761290 
# 
# 
# High freq. dielectric constant tensor:
#      x y z
#    x 1.836470 0.000000 0.000000 
#    y 0.000000 1.862220 0.000000 
#    z 0.000000 0.000000 1.878700 
# 
# From -- ./inp_files/2072.got.cif
#   From: 2010.03.12/outbox.cif.g09.slc.cpg/sg55_2_cif.got.tgz:2072.got - 2010.04.16 15:19:21.
