data_PCOD8226536
_publ_section_title
;
Structure prediction by ZEFSAII (Michael W. Deem and Ramdas Pophale) SiO2 
 PCOD8226536
Probable space group: P B A M
;
_chemical_formula_sum "Si O2"
_cell_formula_units_Z 48
_cell_length_a 14.974837
_cell_length_b 18.648015
_cell_length_c 8.989622
_cell_angle_alpha 90.000000
_cell_angle_beta 90.000000
_cell_angle_gamma 90.000000
_cell_volume 2510.360798
_symmetry_space_group_name_H-M "P B A M"
_symmetry_group_IT_number 55
_symmetry_cell_setting 'orthorhombic'
loop_
_space_group_symop_operation_xyz
x,y,z
-x,-y,z
1/2+x,1/2-y,-z
1/2-x,1/2+y,-z
-x,-y,-z
x,y,-z
1/2-x,1/2+y,z
1/2+x,1/2-y,z
loop_
_atom_site_type_symbol
_atom_site_label
_atom_site_fract_x
_atom_site_fract_y
_atom_site_fract_z
Si Si1 0.989483 0.669032 0.671436
Si Si2 0.836908 0.914317 0.826866
Si Si3 0.847010 0.579524 0.827247
Si Si4 0.506722 0.334607 0.327913
Si Si5 0.346986 0.068697 0.674930
Si Si6 0.641821 0.578253 0.830473
O O1 0.964595 0.655672 0.500000
O O2 0.905506 0.645732 0.770644
O O3 0.010903 0.751474 0.703565
O O4 0.076229 0.624413 0.718233
O O5 0.743889 0.901366 0.744383
O O6 0.908291 0.858309 0.766818
O O7 0.873324 0.994290 0.798304
O O8 0.820128 0.900890 0.000000
O O9 0.874893 0.508187 0.739453
O O10 0.744023 0.599240 0.798749
O O11 0.864269 0.564677 0.000000
O O12 0.526183 0.350229 0.500000
O O13 0.418464 0.377001 0.281136
O O14 0.334060 0.061203 0.500000
O O15 0.614692 0.596261 0.000000
#
# Coordination Sequence:
#
# PCOD8226536 Si02
#       6
#     8   8   8   8   8   8
#     4  10  23  39  54  79 115 150 183 224 274 328
#     4  10  21  38  59  83 111 143 183 232 280 329
#     4  10  21  37  59  86 112 142 184 231 276 326
#     4  11  23  37  55  81 112 147 186 226 273 330
#     4  10  20  37  60  83 110 146 186 229 276 326
#     4   9  20  38  57  80 110 141 178 227 277 325
#
# _framework density 19.120756
#
# number of rings (size 3 to 8) (size 9 to 14) (size 15 to 20)
#    0.000    2.000    0.000    4.000    0.000   12.000 
#    0.000    5.000    0.000    0.000    0.000    0.000 
#    0.000    0.000    0.000    0.000    0.000    0.000 
#
# Total GULP energy -595476.303315 kJ/mol
# GULP energy per Si atom -12405.756319 kJ/mol
# Density = 1.907724 g / cm^3
# Si number density = 19.120756 Si / 1000 Ang^3
#
#
#
# Elastic Constant Matrix: (Units=GPa)
#
#
# Indices 1 2 3 4 5 6 
#
# 1 86.5515 39.3550 43.5300 0.0000 0.0000 0.0000
# 2 39.3550 65.5199 33.7078 0.0000 0.0000 0.0000
# 3 43.5300 33.7078 85.2957 0.0000 0.0000 0.0000
# 4 0.0000 0.0000 0.0000 23.0577 0.0000 0.0000
# 5 0.0000 0.0000 0.0000 0.0000 37.3374 0.0000
# 6 0.0000 0.0000 0.0000 0.0000 0.0000 13.3632
#
#
#
# Elastic Compliance Matrix: (Units=1/GPa)
#
#
# Indices 1 2 3 4 5 6 
#
# 1 0.018203 -0.007725 -0.006237 0.000000 0.000000 0.000000
# 2 -0.007725 0.022436 -0.004924 0.000000 0.000000 0.000000
# 3 -0.006237 -0.004924 0.016853 0.000000 0.000000 0.000000
# 4 0.000000 0.000000 0.000000 0.043369 0.000000 0.000000
# 5 0.000000 0.000000 0.000000 0.000000 0.026783 0.000000
# 6 0.000000 0.000000 0.000000 0.000000 0.000000 0.074833
#
#
# Mechanical properties :
#
#
# Convention : Reuss Voigt Hill
#
# Bulk Modulus (GPa) = 50.71047 52.28362 51.49704
# Shear Modulus (GPa) = 20.25749 22.80327 21.53038
#
# Velocity S-wave (km/s) = 3.25845 3.45714 3.35926
# Velocity P-wave (km/s) = 6.38243 6.58324 6.48361
#
# Compressibility (1/GPa) = 0.01971979
#
# Stress axis : x y z
#
# Youngs Moduli (GPa) = 54.93518 44.57138 59.33738
#
# Poissons Ratio (x) = 0.34432 0.37009
# Poissons Ratio (y) = 0.42439 0.29217
# Poissons Ratio (z) = 0.34263 0.21947
#
# Static dielectric constant tensor:
#      x y z
#    x 3.536860 0.000000 0.000000 
#    y 0.000000 3.455740 0.000000 
#    z 0.000000 0.000000 3.578840 
# 
# 
# High freq. dielectric constant tensor:
#      x y z
#    x 1.753450 0.000000 0.000000 
#    y 0.000000 1.737500 0.000000 
#    z 0.000000 0.000000 1.754060 
# 
# From -- ./inp_files/5589.got.cif
#   From: 2010.03.12/outbox.cif.g09.slc.cpg/sg55_3_cif.got.tgz:5589.got - 2010.04.16 15:19:21.
