data_PCOD8226991
_publ_section_title
;
Structure prediction by ZEFSAII (Michael W. Deem and Ramdas Pophale) SiO2 
 PCOD8226991
Probable space group: P B A M
;
_chemical_formula_sum "Si O2"
_cell_formula_units_Z 64
_cell_length_a 12.956490
_cell_length_b 26.892958
_cell_length_c 9.027198
_cell_angle_alpha 90.000000
_cell_angle_beta 90.000000
_cell_angle_gamma 90.000000
_cell_volume 3145.421899
_symmetry_space_group_name_H-M "P B A M"
_symmetry_group_IT_number 55
_symmetry_cell_setting 'orthorhombic'
loop_
_space_group_symop_operation_xyz
x,y,z
-x,-y,z
1/2+x,1/2-y,-z
1/2-x,1/2+y,-z
-x,-y,-z
x,y,-z
1/2-x,1/2+y,z
1/2+x,1/2-y,z
loop_
_atom_site_type_symbol
_atom_site_label
_atom_site_fract_x
_atom_site_fract_y
_atom_site_fract_z
Si Si1 0.979105 0.557003 0.326329
Si Si2 0.888453 0.759919 0.826818
Si Si3 0.650085 0.874892 0.175328
Si Si4 0.228167 0.798502 0.665738
Si Si5 0.250259 0.411904 0.674006
Si Si6 0.428029 0.218328 0.666016
Si Si7 0.049839 0.947848 0.825266
Si Si8 0.119666 0.128347 0.824837
O O1 0.991118 0.567291 0.500000
O O2 0.864019 0.571972 0.272240
O O3 0.000000 0.500000 0.285993
O O4 0.064398 0.589014 0.242245
O O5 0.778929 0.736562 0.788680
O O6 0.895226 0.815851 0.762900
O O7 0.962444 0.721460 0.743931
O O8 0.910747 0.758857 0.000000
O O9 0.641867 0.819758 0.241864
O O10 0.766425 0.893068 0.216530
O O11 0.634425 0.872116 0.000000
O O12 0.278161 0.794913 0.500000
O O13 0.227616 0.855080 0.720334
O O14 0.114337 0.774884 0.661741
O O15 0.261425 0.420313 0.500000
O O16 0.337081 0.444944 0.753135
O O17 0.440689 0.196992 0.500000
O O18 0.971343 0.906218 0.759980
O O19 0.063962 0.942235 0.000000
O O20 0.000000 0.000000 0.781736
O O21 0.110387 0.129790 0.000000
#
# Coordination Sequence:
#
# PCOD8226991 Si02
#       8
#     8   8   8   8   8   8   8   8
#     4  10  23  42  63  89 124 164 204 255 318 368
#     4  11  21  35  58  85 120 160 200 245 299 356
#     4  11  22  39  63  91 124 160 205 254 307 363
#     4  10  21  37  57  83 117 157 198 243 294 352
#     4  10  22  41  61  85 120 156 199 253 299 358
#     4  11  22  36  56  85 122 159 201 245 297 361
#     4  10  22  40  64  90 119 157 199 247 305 361
#     4   9  20  38  58  89 127 158 195 252 305 358
#
# _framework density 20.347031999999999
#
# number of rings (size 3 to 8) (size 9 to 14) (size 15 to 20)
#    0.000    1.750    1.250    2.625    1.750    3.000 
#    0.000    1.875    0.000    0.000    0.000    0.000 
#    0.000    0.000    0.000    0.000    0.000    0.000 
#
# Total GULP energy -793445.809518 kJ/mol
# GULP energy per Si atom -12397.590774 kJ/mol
# Density = 2.030072 g / cm^3
# Si number density = 20.347032 Si / 1000 Ang^3
#
#
#
# Elastic Constant Matrix: (Units=GPa)
#
#
# Indices 1 2 3 4 5 6 
#
# 1 113.6058 34.3594 37.7548 0.0000 0.0000 0.0000
# 2 34.3594 99.1850 32.0986 0.0000 0.0000 0.0000
# 3 37.7548 32.0986 58.0917 0.0000 0.0000 0.0000
# 4 0.0000 0.0000 0.0000 23.4247 0.0000 0.0000
# 5 0.0000 0.0000 0.0000 0.0000 29.1390 0.0000
# 6 0.0000 0.0000 0.0000 0.0000 0.0000 38.4074
#
#
#
# Elastic Compliance Matrix: (Units=1/GPa)
#
#
# Indices 1 2 3 4 5 6 
#
# 1 0.011517 -0.001909 -0.006430 0.000000 0.000000 0.000000
# 2 -0.001909 0.012594 -0.005718 0.000000 0.000000 0.000000
# 3 -0.006430 -0.005718 0.024553 0.000000 0.000000 0.000000
# 4 0.000000 0.000000 0.000000 0.042690 0.000000 0.000000
# 5 0.000000 0.000000 0.000000 0.000000 0.034318 0.000000
# 6 0.000000 0.000000 0.000000 0.000000 0.000000 0.026037
#
#
# Mechanical properties :
#
#
# Convention : Reuss Voigt Hill
#
# Bulk Modulus (GPa) = 48.66390 53.25648 50.96019
# Shear Modulus (GPa) = 26.78488 29.30553 28.04520
#
# Velocity S-wave (km/s) = 3.63216 3.79923 3.71663
# Velocity P-wave (km/s) = 6.44663 6.74362 6.59679
#
# Compressibility (1/GPa) = 0.02054912
#
# Stress axis : x y z
#
# Youngs Moduli (GPa) = 86.83139 79.40335 40.72824
#
# Poissons Ratio (x) = 0.15155 0.26189
# Poissons Ratio (y) = 0.16572 0.23290
# Poissons Ratio (z) = 0.55835 0.45406
#
# Static dielectric constant tensor:
#      x y z
#    x 3.760950 0.000000 0.000000 
#    y 0.000000 3.796840 0.000000 
#    z 0.000000 0.000000 3.489640 
# 
# 
# High freq. dielectric constant tensor:
#      x y z
#    x 1.806730 0.000000 0.000000 
#    y 0.000000 1.797560 0.000000 
#    z 0.000000 0.000000 1.778090 
# 
# From -- ./inp_files/4503.got.cif
#   From: 2010.03.12/outbox.cif.g09.slc.cpg/sg55_3_cif.got.tgz:4503.got - 2010.04.16 15:19:21.
