data_PCOD8226362
_publ_section_title
;
Structure prediction by ZEFSAII (Michael W. Deem and Ramdas Pophale) SiO2 
 PCOD8226362
Probable space group: P B A M
;
_chemical_formula_sum "Si O2"
_cell_formula_units_Z 56
_cell_length_a 20.120299
_cell_length_b 15.814114
_cell_length_c 9.017482
_cell_angle_alpha 90.000000
_cell_angle_beta 90.000000
_cell_angle_gamma 90.000000
_cell_volume 2869.224824
_symmetry_space_group_name_H-M "P B A M"
_symmetry_group_IT_number 55
_symmetry_cell_setting 'orthorhombic'
loop_
_space_group_symop_operation_xyz
x,y,z
-x,-y,z
1/2+x,1/2-y,-z
1/2-x,1/2+y,-z
-x,-y,-z
x,y,-z
1/2-x,1/2+y,z
1/2+x,1/2-y,z
loop_
_atom_site_type_symbol
_atom_site_label
_atom_site_fract_x
_atom_site_fract_y
_atom_site_fract_z
Si Si1 0.835659 0.339745 0.328006
Si Si2 0.796838 0.820426 0.826213
Si Si3 0.101707 0.322344 0.175612
Si Si4 0.554383 0.567479 0.670862
Si Si5 0.684660 0.512104 0.174812
Si Si6 0.819164 0.534138 0.673912
Si Si7 0.973209 0.259508 0.328670
O O1 0.823470 0.323879 0.500000
O O2 0.773692 0.297116 0.245323
O O3 0.840937 0.438678 0.290445
O O4 0.902152 0.293660 0.273766
O O5 0.851624 0.754427 0.769617
O O6 0.820524 0.913817 0.778027
O O7 0.787199 0.814390 0.000000
O O8 0.124871 0.408066 0.253001
O O9 0.027251 0.303908 0.226290
O O10 0.103817 0.333716 0.000000
O O11 0.500000 0.500000 0.724962
O O12 0.574368 0.551918 0.500000
O O13 0.619298 0.559855 0.771280
O O14 0.522854 0.659265 0.694496
O O15 0.748010 0.554712 0.253136
O O16 0.692656 0.523526 0.000000
O O17 0.814572 0.552234 0.500000
O O18 0.985637 0.284079 0.500000
#
# Coordination Sequence:
#
# PCOD8226362 Si02
#       7
#     8   8   8   8   8   8   8
#     4   9  20  38  59  83 110 146 194 239 283 338
#     4   9  20  37  57  82 115 149 185 232 283 340
#     4  11  23  38  57  85 116 149 192 235 286 347
#     4  10  21  36  56  84 119 154 192 236 284 346
#     4  10  20  36  58  84 114 147 187 235 286 342
#     4  10  21  38  59  82 110 147 190 238 289 338
#     4  10  22  39  57  82 114 151 193 236 285 341
#
# _framework density 19.517467
#
# number of rings (size 3 to 8) (size 9 to 14) (size 15 to 20)
#    0.000    2.143    0.000    2.143    2.000    4.286 
#    0.000    2.857    0.000    0.000    0.000    0.000 
#    0.000    0.000    0.000    0.000    0.000    0.000 
#
# Total GULP energy -694726.411635 kJ/mol
# GULP energy per Si atom -12405.828779 kJ/mol
# Density = 1.947304 g / cm^3
# Si number density = 19.517467 Si / 1000 Ang^3
#
#
#
# Elastic Constant Matrix: (Units=GPa)
#
#
# Indices 1 2 3 4 5 6 
#
# 1 104.9184 24.4957 32.8067 0.0000 0.0000 0.0000
# 2 24.4957 44.8069 21.5067 0.0000 0.0000 0.0000
# 3 32.8067 21.5067 59.0295 0.0000 0.0000 0.0000
# 4 0.0000 0.0000 0.0000 26.3400 0.0000 0.0000
# 5 0.0000 0.0000 0.0000 0.0000 36.3898 0.0000
# 6 0.0000 0.0000 0.0000 0.0000 0.0000 35.3228
#
#
#
# Elastic Compliance Matrix: (Units=1/GPa)
#
#
# Indices 1 2 3 4 5 6 
#
# 1 0.012131 -0.004116 -0.005243 0.000000 0.000000 0.000000
# 2 -0.004116 0.028444 -0.008076 0.000000 0.000000 0.000000
# 3 -0.005243 -0.008076 0.022797 0.000000 0.000000 0.000000
# 4 0.000000 0.000000 0.000000 0.037965 0.000000 0.000000
# 5 0.000000 0.000000 0.000000 0.000000 0.027480 0.000000
# 6 0.000000 0.000000 0.000000 0.000000 0.000000 0.028310
#
#
# Mechanical properties :
#
#
# Convention : Reuss Voigt Hill
#
# Bulk Modulus (GPa) = 35.08315 40.70811 37.89563
# Shear Modulus (GPa) = 24.81408 28.27358 26.54383
#
# Velocity S-wave (km/s) = 3.56951 3.81022 3.69182
# Velocity P-wave (km/s) = 5.91632 6.34504 6.13442
#
# Compressibility (1/GPa) = 0.02850371
#
# Stress axis : x y z
#
# Youngs Moduli (GPa) = 82.43013 35.15629 43.86576
#
# Poissons Ratio (x) = 0.14470 0.22998
# Poissons Ratio (y) = 0.33926 0.35426
# Poissons Ratio (z) = 0.43216 0.28392
#
# Static dielectric constant tensor:
#      x y z
#    x 3.568450 0.000000 0.000000 
#    y 0.000000 3.654410 0.000000 
#    z 0.000000 0.000000 3.485270 
# 
# 
# High freq. dielectric constant tensor:
#      x y z
#    x 1.764800 0.000000 0.000000 
#    y 0.000000 1.763570 0.000000 
#    z 0.000000 0.000000 1.758050 
# 
# From -- ./inp_files/8742.got.cif
#   From: 2010.03.12/outbox.cif.g09.slc.cpg/sg55_5_cif.got.tgz:8742.got - 2010.04.16 15:19:21.
