data_PCOD8226680
_publ_section_title
;
Structure prediction by ZEFSAII (Michael W. Deem and Ramdas Pophale) SiO2 
 PCOD8226680
Probable space group: P B A M
;
_chemical_formula_sum "Si O2"
_cell_formula_units_Z 64
_cell_length_a 19.223908
_cell_length_b 19.244025
_cell_length_c 8.757287
_cell_angle_alpha 90.000000
_cell_angle_beta 90.000000
_cell_angle_gamma 90.000000
_cell_volume 3239.717746
_symmetry_space_group_name_H-M "P B A M"
_symmetry_group_IT_number 55
_symmetry_cell_setting 'orthorhombic'
loop_
_space_group_symop_operation_xyz
x,y,z
-x,-y,z
1/2+x,1/2-y,-z
1/2-x,1/2+y,-z
-x,-y,-z
x,y,-z
1/2-x,1/2+y,z
1/2+x,1/2-y,z
loop_
_atom_site_type_symbol
_atom_site_label
_atom_site_fract_x
_atom_site_fract_y
_atom_site_fract_z
Si Si1 0.530664 0.140239 0.177816
Si Si2 0.359272 0.968729 0.178156
Si Si3 0.961305 0.899494 0.679306
Si Si4 0.126423 0.623765 0.182074
Si Si5 0.387470 0.734667 0.319148
Si Si6 0.270752 0.237456 0.319625
Si Si7 0.104962 0.958899 0.320074
Si Si8 0.771668 0.115938 0.820903
O O1 0.564766 0.064498 0.209641
O O2 0.451676 0.141967 0.238848
O O3 0.578364 0.195120 0.262977
O O4 0.533104 0.158057 0.000000
O O5 0.299892 0.917289 0.244719
O O6 0.355436 0.046691 0.247250
O O7 0.344671 0.975575 0.000000
O O8 0.950248 0.898551 0.500000
O O9 0.930682 0.829440 0.752680
O O10 0.042909 0.904801 0.716568
O O11 0.918750 0.965701 0.739492
O O12 0.180413 0.679315 0.245924
O O13 0.128795 0.624572 0.000000
O O14 0.390156 0.734750 0.500000
O O15 0.308212 0.726369 0.262926
O O16 0.278572 0.231602 0.500000
O O17 0.292948 0.314077 0.267148
O O18 0.123772 0.958065 0.500000
O O19 0.169606 0.940167 0.215216
O O20 0.767055 0.132158 0.000000
#
# Coordination Sequence:
#
# PCOD8226680 Si02
#       8
#     8   8   8   8   8   8   8   8
#     4  10  20  38  62  87 114 152 194 236 288 345
#     4   9  19  38  61  85 115 153 191 233 288 345
#     4   8  17  35  57  81 110 149 189 230 284 342
#     4  10  22  39  63  90 116 148 193 241 288 343
#     4  10  21  37  57  81 114 154 194 235 282 341
#     4  11  24  40  57  83 117 155 193 235 286 338
#     4   9  18  35  59  83 110 147 191 233 284 346
#     4  11  22  37  58  83 116 153 191 237 287 339
#
# _framework density 19.754807
#
# number of rings (size 3 to 8) (size 9 to 14) (size 15 to 20)
#    0.000    2.250    1.250    1.875    3.500    2.500 
#    0.000    3.125    0.000    1.500    0.000    0.000 
#    0.000    0.000    0.000    0.000    0.000    0.000 
#
# Total GULP energy -793454.291065 kJ/mol
# GULP energy per Si atom -12397.723298 kJ/mol
# Density = 1.970984 g / cm^3
# Si number density = 19.754807 Si / 1000 Ang^3
#
#
#
# Elastic Constant Matrix: (Units=GPa)
#
#
# Indices 1 2 3 4 5 6 
#
# 1 125.0152 66.2016 22.9110 0.0000 0.0000 0.0000
# 2 66.2016 119.8273 16.8409 0.0000 0.0000 0.0000
# 3 22.9110 16.8409 18.1584 0.0000 0.0000 0.0000
# 4 0.0000 0.0000 0.0000 21.9124 0.0000 0.0000
# 5 0.0000 0.0000 0.0000 0.0000 23.7488 0.0000
# 6 0.0000 0.0000 0.0000 0.0000 0.0000 38.2053
#
#
#
# Elastic Compliance Matrix: (Units=1/GPa)
#
#
# Indices 1 2 3 4 5 6 
#
# 1 0.013035 -0.005623 -0.011232 0.000000 0.000000 0.000000
# 2 -0.005623 0.012022 -0.004055 0.000000 0.000000 0.000000
# 3 -0.011232 -0.004055 0.073003 0.000000 0.000000 0.000000
# 4 0.000000 0.000000 0.000000 0.045636 0.000000 0.000000
# 5 0.000000 0.000000 0.000000 0.000000 0.042107 0.000000
# 6 0.000000 0.000000 0.000000 0.000000 0.000000 0.026174
#
#
# Mechanical properties :
#
#
# Convention : Reuss Voigt Hill
#
# Bulk Modulus (GPa) = 17.78075 52.76754 35.27415
# Shear Modulus (GPa) = 18.34569 27.24312 22.79440
#
# Velocity S-wave (km/s) = 3.05071 3.71760 3.40055
# Velocity P-wave (km/s) = 4.62919 6.72284 5.77174
#
# Compressibility (1/GPa) = 0.05624058
#
# Stress axis : x y z
#
# Youngs Moduli (GPa) = 76.71607 83.18233 13.69812
#
# Poissons Ratio (x) = 0.46774 0.15385
# Poissons Ratio (y) = 0.43138 0.05554
# Poissons Ratio (z) = 0.86165 0.33728
#
# Static dielectric constant tensor:
#      x y z
#    x 3.804930 0.000000 0.000000 
#    y 0.000000 3.915910 0.000000 
#    z 0.000000 0.000000 3.195620 
# 
# 
# High freq. dielectric constant tensor:
#      x y z
#    x 1.782380 0.000000 0.000000 
#    y 0.000000 1.782090 0.000000 
#    z 0.000000 0.000000 1.734040 
# 
# From -- ./inp_files/9006.got.cif
#   From: 2010.03.12/outbox.cif.g09.slc.cpg/sg55_5_cif.got.tgz:9006.got - 2010.04.16 15:19:21.
