data_PCOD8226626
_publ_section_title
;
Structure prediction by ZEFSAII (Michael W. Deem and Ramdas Pophale) SiO2 
 PCOD8226626
Probable space group: P B A M
;
_chemical_formula_sum "Si O2"
_cell_formula_units_Z 64
_cell_length_a 12.599400
_cell_length_b 28.682068
_cell_length_c 8.650987
_cell_angle_alpha 90.000000
_cell_angle_beta 90.000000
_cell_angle_gamma 90.000000
_cell_volume 3126.266410
_symmetry_space_group_name_H-M "P B A M"
_symmetry_group_IT_number 55
_symmetry_cell_setting 'orthorhombic'
loop_
_space_group_symop_operation_xyz
x,y,z
-x,-y,z
1/2+x,1/2-y,-z
1/2-x,1/2+y,-z
-x,-y,-z
x,y,-z
1/2-x,1/2+y,z
1/2+x,1/2-y,z
loop_
_atom_site_type_symbol
_atom_site_label
_atom_site_fract_x
_atom_site_fract_y
_atom_site_fract_z
Si Si1 0.662881 0.380933 0.682702
Si Si2 0.440691 0.798950 0.683062
Si Si3 0.387378 0.518499 0.817602
Si Si4 0.265146 0.935110 0.819640
Si Si5 0.505256 0.302796 0.681543
Si Si6 0.487975 0.946764 0.320406
Si Si7 0.885891 0.367505 0.819258
Si Si8 0.216504 0.842125 0.680917
O O1 0.659064 0.384215 0.500000
O O2 0.643019 0.432263 0.746857
O O3 0.573565 0.345757 0.749564
O O4 0.774949 0.359618 0.733972
O O5 0.457549 0.801987 0.500000
O O6 0.454359 0.746560 0.747982
O O7 0.528905 0.830360 0.762651
O O8 0.324082 0.816235 0.731595
O O9 0.500000 0.500000 0.753191
O O10 0.298664 0.480986 0.768992
O O11 0.393253 0.524449 0.000000
O O12 0.370256 0.929976 0.717722
O O13 0.197674 0.889217 0.778774
O O14 0.293767 0.936393 0.000000
O O15 0.523485 0.302160 0.500000
O O16 0.381508 0.308589 0.723466
O O17 0.511286 0.937505 0.500000
O O18 0.573380 0.919282 0.219338
O O19 0.500000 0.000000 0.272854
O O20 0.867394 0.362601 0.000000
O O21 0.216921 0.854600 0.500000
#
# Coordination Sequence:
#
# PCOD8226626 Si02
#       8
#     8   8   8   8   8   8   8   8
#     4  11  23  40  64  94 127 165 211 259 308 367
#     4  10  21  39  65  92 120 159 204 255 311 369
#     4  10  22  40  61  88 127 173 212 250 308 369
#     4  11  22  36  58  87 121 161 203 249 303 365
#     4   9  21  39  64  96 123 158 206 256 312 366
#     4  11  23  39  60  87 117 154 201 250 304 363
#     4  12  25  41  61  88 125 162 203 252 310 375
#     4  10  20  37  63  92 123 158 203 256 306 362
#
# _framework density 20.471702000000001
#
# number of rings (size 3 to 8) (size 9 to 14) (size 15 to 20)
#    0.000    1.500    1.250    3.750    1.750    4.250 
#    0.000    2.500    0.000    0.000    0.000    0.000 
#    0.000    0.000    0.000    0.000    0.000    0.000 
#
# Total GULP energy -793860.934170 kJ/mol
# GULP energy per Si atom -12404.077096 kJ/mol
# Density = 2.042511 g / cm^3
# Si number density = 20.471702 Si / 1000 Ang^3
#
#
#
# Elastic Constant Matrix: (Units=GPa)
#
#
# Indices 1 2 3 4 5 6 
#
# 1 121.0485 49.1143 1.8078 0.0000 0.0000 0.0000
# 2 49.1143 151.3292 18.6539 0.0000 0.0000 0.0000
# 3 1.8078 18.6539 10.9346 0.0000 0.0000 0.0000
# 4 0.0000 0.0000 0.0000 8.9904 0.0000 0.0000
# 5 0.0000 0.0000 0.0000 0.0000 22.1641 0.0000
# 6 0.0000 0.0000 0.0000 0.0000 0.0000 31.8205
#
#
#
# Elastic Compliance Matrix: (Units=1/GPa)
#
#
# Indices 1 2 3 4 5 6 
#
# 1 0.009707 -0.003739 0.004773 0.000000 0.000000 0.000000
# 2 -0.003739 0.009808 -0.016113 0.000000 0.000000 0.000000
# 3 0.004773 -0.016113 0.118152 0.000000 0.000000 0.000000
# 4 0.000000 0.000000 0.000000 0.111230 0.000000 0.000000
# 5 0.000000 0.000000 0.000000 0.000000 0.045118 0.000000
# 6 0.000000 0.000000 0.000000 0.000000 0.000000 0.031426
#
#
# Mechanical properties :
#
#
# Convention : Reuss Voigt Hill
#
# Bulk Modulus (GPa) = 9.30155 46.94047 28.12101
# Shear Modulus (GPa) = 12.77352 26.84409 19.80881
#
# Velocity S-wave (km/s) = 2.50063 3.62509 3.11403
# Velocity P-wave (km/s) = 3.59040 6.36403 5.16681
#
# Compressibility (1/GPa) = 0.10750901
#
# Stress axis : x y z
#
# Youngs Moduli (GPa) = 103.02019 101.95963 8.46366
#
# Poissons Ratio (x) = 0.38120 -0.04040
# Poissons Ratio (y) = 0.38517 0.13638
# Poissons Ratio (z) = -0.49175 1.64292
#
# Static dielectric constant tensor:
#      x y z
#    x 3.876390 0.000000 0.000000 
#    y 0.000000 4.006180 0.000000 
#    z 0.000000 0.000000 3.478400 
# 
# 
# High freq. dielectric constant tensor:
#      x y z
#    x 1.813520 0.000000 0.000000 
#    y 0.000000 1.813500 0.000000 
#    z 0.000000 0.000000 1.781660 
# 
# From -- ./inp_files/4493.got.cif
#   From: 2010.03.12/outbox.cif.g09.slc.cpg/sg55_3_cif.got.tgz:4493.got - 2010.04.16 15:19:21.
