data_PCOD8226844
_publ_section_title
;
Structure prediction by ZEFSAII (Michael W. Deem and Ramdas Pophale) SiO2 
 PCOD8226844
Probable space group: P B A M
;
_chemical_formula_sum "Si O2"
_cell_formula_units_Z 64
_cell_length_a 11.099274
_cell_length_b 32.526990
_cell_length_c 8.802652
_cell_angle_alpha 90.000000
_cell_angle_beta 90.000000
_cell_angle_gamma 90.000000
_cell_volume 3177.986016
_symmetry_space_group_name_H-M "P B A M"
_symmetry_group_IT_number 55
_symmetry_cell_setting 'orthorhombic'
loop_
_space_group_symop_operation_xyz
x,y,z
-x,-y,z
1/2+x,1/2-y,-z
1/2-x,1/2+y,-z
-x,-y,-z
x,y,-z
1/2-x,1/2+y,z
1/2+x,1/2-y,z
loop_
_atom_site_type_symbol
_atom_site_label
_atom_site_fract_x
_atom_site_fract_y
_atom_site_fract_z
Si Si1 0.605790 0.381496 0.678282
Si Si2 0.007245 0.321069 0.328577
Si Si3 0.868648 0.515183 0.318597
Si Si4 0.834355 0.605082 0.672274
Si Si5 0.882660 0.974120 0.319045
Si Si6 0.267576 0.180866 0.172391
Si Si7 0.283638 0.772732 0.177250
Si Si8 0.370265 0.335484 0.318270
O O1 0.598495 0.386024 0.500000
O O2 0.603974 0.427640 0.745922
O O3 0.725028 0.356670 0.722870
O O4 0.496863 0.353381 0.738838
O O5 0.965307 0.310290 0.500000
O O6 0.907053 0.311890 0.204982
O O7 0.042276 0.369135 0.318622
O O8 0.119372 0.292866 0.287134
O O9 0.873477 0.514427 0.500000
O O10 0.853007 0.561011 0.249391
O O11 0.748977 0.490435 0.261935
O O12 0.000000 0.500000 0.256601
O O13 0.795534 0.596325 0.500000
O O14 0.726575 0.631438 0.745090
O O15 0.883569 0.975094 0.500000
O O16 0.000000 0.000000 0.259746
O O17 0.204748 0.224255 0.207276
O O18 0.247605 0.167560 0.000000
O O19 0.155433 0.791946 0.233922
O O20 0.302948 0.782936 0.000000
O O21 0.363495 0.329336 0.500000
#
# Coordination Sequence:
#
# PCOD8226844 Si02
#       8
#     8   8   8   8   8   8   8   8
#     4  10  21  35  56  85 115 146 189 240 288 336
#     4  10  21  37  60  84 111 143 183 236 285 332
#     4   9  16  24  42  73 109 145 177 218 275 341
#     4   8  15  29  49  76 111 142 173 218 276 331
#     4   9  17  30  50  79 115 149 182 231 295 352
#     4  11  25  40  55  78 113 153 189 231 283 341
#     4  10  22  39  58  80 109 146 188 229 276 339
#     4   9  18  34  55  81 110 143 183 231 277 326
#
# _framework density 20.138542000000001
#
# number of rings (size 3 to 8) (size 9 to 14) (size 15 to 20)
#    0.000    2.500    0.000    2.625    3.500    5.500 
#    0.000    0.000    0.000    0.375    0.000    5.250 
#    0.000    0.000    0.000    0.000    0.000    0.000 
#
# Total GULP energy -793152.165791 kJ/mol
# GULP energy per Si atom -12393.002590 kJ/mol
# Density = 2.009271 g / cm^3
# Si number density = 20.138542 Si / 1000 Ang^3
#
#
#
# Elastic Constant Matrix: (Units=GPa)
#
#
# Indices 1 2 3 4 5 6 
#
# 1 103.6709 36.8638 12.1848 0.0000 0.0000 0.0000
# 2 36.8638 120.4665 32.3062 0.0000 0.0000 0.0000
# 3 12.1848 32.3062 18.8201 0.0000 0.0000 0.0000
# 4 0.0000 0.0000 0.0000 6.0754 0.0000 0.0000
# 5 0.0000 0.0000 0.0000 0.0000 13.9467 0.0000
# 6 0.0000 0.0000 0.0000 0.0000 0.0000 26.1190
#
#
#
# Elastic Compliance Matrix: (Units=1/GPa)
#
#
# Indices 1 2 3 4 5 6 
#
# 1 0.010885 -0.002670 -0.002464 0.000000 0.000000 0.000000
# 2 -0.002670 0.016037 -0.025800 0.000000 0.000000 0.000000
# 3 -0.002464 -0.025800 0.099018 0.000000 0.000000 0.000000
# 4 0.000000 0.000000 0.000000 0.164597 0.000000 0.000000
# 5 0.000000 0.000000 0.000000 0.000000 0.071701 0.000000
# 6 0.000000 0.000000 0.000000 0.000000 0.000000 0.038286
#
#
# Mechanical properties :
#
#
# Convention : Reuss Voigt Hill
#
# Bulk Modulus (GPa) = 15.60750 45.07411 30.34080
# Shear Modulus (GPa) = 10.33591 20.00175 15.16883
#
# Velocity S-wave (km/s) = 2.26794 3.15494 2.74747
# Velocity P-wave (km/s) = 3.82426 5.97512 5.01633
#
# Compressibility (1/GPa) = 0.06407175
#
# Stress axis : x y z
#
# Youngs Moduli (GPa) = 91.86997 62.35521 10.09918
#
# Poissons Ratio (x) = 0.16650 0.02488
# Poissons Ratio (y) = 0.24531 0.26056
# Poissons Ratio (z) = 0.22634 1.60878
#
# Static dielectric constant tensor:
#      x y z
#    x 3.754490 0.000000 0.000000 
#    y 0.000000 3.945330 0.000000 
#    z 0.000000 0.000000 3.094440 
# 
# 
# High freq. dielectric constant tensor:
#      x y z
#    x 1.790620 0.000000 0.000000 
#    y 0.000000 1.797430 0.000000 
#    z 0.000000 0.000000 1.732970 
# 
# From -- ./inp_files/4556.got.cif
#   From: 2010.03.12/outbox.cif.g09.slc.cpg/sg55_3_cif.got.tgz:4556.got - 2010.04.16 15:19:21.
