data_PCOD8226409
_publ_section_title
;
Structure prediction by ZEFSAII (Michael W. Deem and Ramdas Pophale) SiO2 
 PCOD8226409
Probable space group: P B A M
;
_chemical_formula_sum "Si O2"
_cell_formula_units_Z 56
_cell_length_a 14.820722
_cell_length_b 21.228043
_cell_length_c 8.919658
_cell_angle_alpha 90.000000
_cell_angle_beta 90.000000
_cell_angle_gamma 90.000000
_cell_volume 2806.257523
_symmetry_space_group_name_H-M "P B A M"
_symmetry_group_IT_number 55
_symmetry_cell_setting 'orthorhombic'
loop_
_space_group_symop_operation_xyz
x,y,z
-x,-y,z
1/2+x,1/2-y,-z
1/2-x,1/2+y,-z
-x,-y,-z
x,y,-z
1/2-x,1/2+y,z
1/2+x,1/2-y,z
loop_
_atom_site_type_symbol
_atom_site_label
_atom_site_fract_x
_atom_site_fract_y
_atom_site_fract_z
Si Si1 0.826097 0.233506 0.320917
Si Si2 0.246809 0.534359 0.674226
Si Si3 0.435517 0.855616 0.670963
Si Si4 0.171548 0.168061 0.673644
Si Si5 0.742231 0.601865 0.670608
Si Si6 0.064405 0.559114 0.832481
Si Si7 0.019677 0.236534 0.175609
O O1 0.831101 0.234251 0.500000
O O2 0.754676 0.287683 0.268959
O O3 0.798271 0.164654 0.251493
O O4 0.924063 0.247241 0.255243
O O5 0.216125 0.530111 0.500000
O O6 0.310331 0.594109 0.700154
O O7 0.294786 0.467335 0.721574
O O8 0.162910 0.540473 0.782726
O O9 0.443088 0.832046 0.500000
O O10 0.350329 0.901416 0.693196
O O11 0.527620 0.889824 0.715784
O O12 0.419343 0.796432 0.779531
O O13 0.153910 0.183040 0.500000
O O14 0.078341 0.177968 0.764065
O O15 0.715673 0.612119 0.500000
O O16 0.000000 0.500000 0.830072
O O17 0.067769 0.588098 0.000000
O O18 0.004832 0.229921 0.000000
#
# Coordination Sequence:
#
# PCOD8226409 Si02
#       7
#     8   8   8   8   8   8   8
#     4  10  20  39  63  87 116 156 205 250 293 348
#     4  10  20  36  59  87 116 154 201 249 296 346
#     4  11  20  36  60  83 112 152 199 245 292 349
#     4  10  21  39  63  89 117 154 199 247 298 351
#     4   9  18  34  59  87 113 145 196 248 289 337
#     4  11  22  33  49  83 125 159 190 230 293 362
#     4  12  25  39  59  89 122 154 195 246 306 366
#
# _framework density 19.955401999999999
#
# number of rings (size 3 to 8) (size 9 to 14) (size 15 to 20)
#    0.000    1.571    2.857    3.000    0.000    2.857 
#    0.000    1.429    0.000    4.286    0.000    0.000 
#    0.000    0.000    0.000    0.000    0.000    0.000 
#
# Total GULP energy -694031.928231 kJ/mol
# GULP energy per Si atom -12393.427290 kJ/mol
# Density = 1.990998 g / cm^3
# Si number density = 19.955402 Si / 1000 Ang^3
#
#
#
# Elastic Constant Matrix: (Units=GPa)
#
#
# Indices 1 2 3 4 5 6 
#
# 1 52.1859 16.3338 17.7628 0.0000 0.0000 0.0000
# 2 16.3338 130.4449 18.4713 0.0000 0.0000 0.0000
# 3 17.7628 18.4713 53.8982 0.0000 0.0000 0.0000
# 4 0.0000 0.0000 0.0000 18.3097 0.0000 0.0000
# 5 0.0000 0.0000 0.0000 0.0000 35.5989 0.0000
# 6 0.0000 0.0000 0.0000 0.0000 0.0000 28.5998
#
#
#
# Elastic Compliance Matrix: (Units=1/GPa)
#
#
# Indices 1 2 3 4 5 6 
#
# 1 0.021985 -0.001815 -0.006623 0.000000 0.000000 0.000000
# 2 -0.001815 0.008207 -0.002214 0.000000 0.000000 0.000000
# 3 -0.006623 -0.002214 0.021495 0.000000 0.000000 0.000000
# 4 0.000000 0.000000 0.000000 0.054616 0.000000 0.000000
# 5 0.000000 0.000000 0.000000 0.000000 0.028091 0.000000
# 6 0.000000 0.000000 0.000000 0.000000 0.000000 0.034965
#
#
# Mechanical properties :
#
#
# Convention : Reuss Voigt Hill
#
# Bulk Modulus (GPa) = 32.91489 37.96277 35.43883
# Shear Modulus (GPa) = 24.90147 28.76576 26.83361
#
# Velocity S-wave (km/s) = 3.53633 3.80083 3.67096
# Velocity P-wave (km/s) = 5.76231 6.19087 5.98043
#
# Compressibility (1/GPa) = 0.03038139
#
# Stress axis : x y z
#
# Youngs Moduli (GPa) = 45.48602 121.84871 46.52204
#
# Poissons Ratio (x) = 0.22115 0.30813
# Poissons Ratio (y) = 0.08256 0.10302
# Poissons Ratio (z) = 0.30127 0.26982
#
# Static dielectric constant tensor:
#      x y z
#    x 3.242400 0.000000 0.000000 
#    y 0.000000 4.059280 0.000000 
#    z 0.000000 0.000000 3.473060 
# 
# 
# High freq. dielectric constant tensor:
#      x y z
#    x 1.756900 0.000000 0.000000 
#    y 0.000000 1.794150 0.000000 
#    z 0.000000 0.000000 1.753890 
# 
# From -- ./inp_files/6082.got.cif
#   From: 2010.03.12/outbox.cif.g09.slc.cpg/sg55_4_cif.got.tgz:6082.got - 2010.04.16 15:19:21.
