data_PCOD8226962
_publ_section_title
;
Structure prediction by ZEFSAII (Michael W. Deem and Ramdas Pophale) SiO2 
 PCOD8226962
Probable space group: P B A M
;
_chemical_formula_sum "Si O2"
_cell_formula_units_Z 48
_cell_length_a 9.712023
_cell_length_b 29.141632
_cell_length_c 8.764067
_cell_angle_alpha 90.000000
_cell_angle_beta 90.000000
_cell_angle_gamma 90.000000
_cell_volume 2480.443054
_symmetry_space_group_name_H-M "P B A M"
_symmetry_group_IT_number 55
_symmetry_cell_setting 'orthorhombic'
loop_
_space_group_symop_operation_xyz
x,y,z
-x,-y,z
1/2+x,1/2-y,-z
1/2-x,1/2+y,-z
-x,-y,-z
x,y,-z
1/2-x,1/2+y,z
1/2+x,1/2-y,z
loop_
_atom_site_type_symbol
_atom_site_label
_atom_site_fract_x
_atom_site_fract_y
_atom_site_fract_z
Si Si1 0.112209 0.939382 0.320912
Si Si2 0.687833 0.128915 0.825138
Si Si3 0.611672 0.231163 0.178238
Si Si4 0.171536 0.704863 0.320395
Si Si5 0.118893 0.610537 0.179184
Si Si6 0.689705 0.461188 0.680832
O O1 0.108531 0.941329 0.500000
O O2 0.189896 0.893907 0.269008
O O3 0.954150 0.938262 0.265079
O O4 0.189101 0.985693 0.265396
O O5 0.687401 0.182948 0.790539
O O6 0.541755 0.107238 0.776899
O O7 0.719097 0.118756 0.000000
O O8 0.687922 0.269872 0.275117
O O9 0.454203 0.228772 0.232140
O O10 0.613164 0.243741 0.000000
O O11 0.146380 0.708078 0.500000
O O12 0.188890 0.652071 0.271246
O O13 0.187566 0.563025 0.228369
O O14 0.136067 0.620278 0.000000
O O15 0.713265 0.456174 0.500000
#
# Coordination Sequence:
#
# PCOD8226962 Si02
#       6
#     8   8   8   8   8   8
#     4   9  19  35  55  77 106 140 176 220 269 316
#     4   9  20  36  54  77 106 138 176 217 261 316
#     4  10  21  39  58  79 111 148 180 220 274 329
#     4  11  22  37  58  84 110 141 183 229 270 320
#     4  10  21  37  55  78 108 143 178 219 270 323
#     4   9  19  36  54  77 107 140 178 221 266 318
#
# _framework density 19.351382999999998
#
# number of rings (size 3 to 8) (size 9 to 14) (size 15 to 20)
#    0.000    2.333    0.000    4.500    0.000    7.333 
#    0.000    8.333    0.000    0.000    0.000    0.000 
#    0.000    0.000    0.000    0.000    0.000    0.000 
#
# Total GULP energy -595287.612366 kJ/mol
# GULP energy per Si atom -12401.825258 kJ/mol
# Density = 1.930734 g / cm^3
# Si number density = 19.351383 Si / 1000 Ang^3
#
#
#
# Elastic Constant Matrix: (Units=GPa)
#
#
# Indices 1 2 3 4 5 6 
#
# 1 26.3912 1.4156 9.3862 0.0000 0.0000 0.0000
# 2 1.4156 27.7047 12.3351 0.0000 0.0000 0.0000
# 3 9.3862 12.3351 58.9679 0.0000 0.0000 0.0000
# 4 0.0000 0.0000 0.0000 31.0636 0.0000 0.0000
# 5 0.0000 0.0000 0.0000 0.0000 31.6175 0.0000
# 6 0.0000 0.0000 0.0000 0.0000 0.0000 39.7378
#
#
#
# Elastic Compliance Matrix: (Units=1/GPa)
#
#
# Indices 1 2 3 4 5 6 
#
# 1 0.040185 0.000876 -0.006580 0.000000 0.000000 0.000000
# 2 0.000876 0.039821 -0.008469 0.000000 0.000000 0.000000
# 3 -0.006580 -0.008469 0.019777 0.000000 0.000000 0.000000
# 4 0.000000 0.000000 0.000000 0.032192 0.000000 0.000000
# 5 0.000000 0.000000 0.000000 0.000000 0.031628 0.000000
# 6 0.000000 0.000000 0.000000 0.000000 0.000000 0.025165
#
#
# Mechanical properties :
#
#
# Convention : Reuss Voigt Hill
#
# Bulk Modulus (GPa) = 13.99828 17.70417 15.85122
# Shear Modulus (GPa) = 20.75325 26.47891 23.61608
#
# Velocity S-wave (km/s) = 3.27837 3.70310 3.49719
# Velocity P-wave (km/s) = 4.64540 5.23952 4.95138
#
# Compressibility (1/GPa) = 0.07143737
#
# Stress axis : x y z
#
# Youngs Moduli (GPa) = 24.88517 25.11232 50.56290
#
# Poissons Ratio (x) = -0.02200 0.33269
# Poissons Ratio (y) = -0.02180 0.42824
# Poissons Ratio (z) = 0.16374 0.21269
#
# Static dielectric constant tensor:
#      x y z
#    x 3.503540 0.000000 0.000000 
#    y 0.000000 3.613080 0.000000 
#    z 0.000000 0.000000 3.400380 
# 
# 
# High freq. dielectric constant tensor:
#      x y z
#    x 1.751930 0.000000 0.000000 
#    y 0.000000 1.751590 0.000000 
#    z 0.000000 0.000000 1.751240 
# 
# From -- ./inp_files/2757.got.cif
#   From: 2010.03.12/outbox.cif.g09.slc.cpg/sg55_2_cif.got.tgz:2757.got - 2010.04.16 15:19:21.
