data_PCOD8226986
_publ_section_title
;
Structure prediction by ZEFSAII (Michael W. Deem and Ramdas Pophale) SiO2 
 PCOD8226986
Probable space group: P B A M
;
_chemical_formula_sum "Si O2"
_cell_formula_units_Z 40
_cell_length_a 8.628033
_cell_length_b 17.968200
_cell_length_c 12.754872
_cell_angle_alpha 90.000000
_cell_angle_beta 90.000000
_cell_angle_gamma 90.000000
_cell_volume 1977.390645
_symmetry_space_group_name_H-M "P B A M"
_symmetry_group_IT_number 55
_symmetry_cell_setting 'orthorhombic'
loop_
_space_group_symop_operation_xyz
x,y,z
-x,-y,z
1/2+x,1/2-y,-z
1/2-x,1/2+y,-z
-x,-y,-z
x,y,-z
1/2-x,1/2+y,z
1/2+x,1/2-y,z
loop_
_atom_site_type_symbol
_atom_site_label
_atom_site_fract_x
_atom_site_fract_y
_atom_site_fract_z
Si Si1 0.641492 0.150434 0.500000
Si Si2 0.739493 0.154136 0.883308
Si Si3 0.639055 0.397660 0.686773
Si Si4 0.783219 0.064266 0.686151
Si Si5 0.592474 0.305907 0.117100
Si Si6 0.784680 0.307726 0.500000
O O1 0.669284 0.099898 0.601627
O O2 0.759080 0.219491 0.500000
O O3 0.467024 0.179077 0.500000
O O4 0.723701 0.086805 0.801685
O O5 0.626684 0.221117 0.849759
O O6 0.909525 0.188137 0.880259
O O7 0.700312 0.123859 0.000000
O O8 0.728323 0.475538 0.678088
O O9 0.457192 0.407957 0.664843
O O10 0.668945 0.364103 0.802332
O O11 0.706812 0.341416 0.602724
O O12 0.658009 0.322761 0.000000
#
# Coordination Sequence:
#
# PCOD8226986 Si02
#       6
#     4   8   8   8   8   4
#     4  12  25  40  59  81 107 141 183 228 273 324
#     4   9  18  33  54  80 109 143 183 224 266 315
#     4  10  21  37  57  82 113 146 180 222 272 324
#     4  10  21  37  57  82 113 146 180 222 272 324
#     4   9  18  33  54  80 109 143 183 224 266 315
#     4  12  25  40  59  81 107 141 183 228 273 324
#
# _framework density 20.228677999999999
#
# number of rings (size 3 to 8) (size 9 to 14) (size 15 to 20)
#    0.000    2.000    0.000    3.600    0.000    8.800 
#    0.000    4.000    0.000    0.000    0.000    8.400 
#    0.000    0.000    0.000    0.000    0.000    0.000 
#
# Total GULP energy -496098.490179 kJ/mol
# GULP energy per Si atom -12402.462254 kJ/mol
# Density = 2.018264 g / cm^3
# Si number density = 20.228678 Si / 1000 Ang^3
#
#
#
# Elastic Constant Matrix: (Units=GPa)
#
#
# Indices 1 2 3 4 5 6 
#
# 1 20.5851 -11.9992 14.6476 0.0000 0.0000 0.0000
# 2 -11.9992 50.2172 25.5152 0.0000 0.0000 0.0000
# 3 14.6476 25.5152 107.7780 0.0000 0.0000 0.0000
# 4 0.0000 0.0000 0.0000 30.8610 0.0000 0.0000
# 5 0.0000 0.0000 0.0000 0.0000 53.9024 0.0000
# 6 0.0000 0.0000 0.0000 0.0000 0.0000 28.7625
#
#
#
# Elastic Compliance Matrix: (Units=1/GPa)
#
#
# Indices 1 2 3 4 5 6 
#
# 1 0.075877 0.026565 -0.016601 0.000000 0.000000 0.000000
# 2 0.026565 0.031937 -0.011171 0.000000 0.000000 0.000000
# 3 -0.016601 -0.011171 0.014179 0.000000 0.000000 0.000000
# 4 0.000000 0.000000 0.000000 0.032403 0.000000 0.000000
# 5 0.000000 0.000000 0.000000 0.000000 0.018552 0.000000
# 6 0.000000 0.000000 0.000000 0.000000 0.000000 0.034767
#
#
# Mechanical properties :
#
#
# Convention : Reuss Voigt Hill
#
# Bulk Modulus (GPa) = 8.36265 26.10084 17.23174
# Shear Modulus (GPa) = 20.00086 32.73297 26.36692
#
# Velocity S-wave (km/s) = 3.14783 4.02698 3.61424
# Velocity P-wave (km/s) = 4.16591 5.87818 5.09450
#
# Compressibility (1/GPa) = 0.11957927
#
# Stress axis : x y z
#
# Youngs Moduli (GPa) = 13.17929 31.31144 70.52612
#
# Poissons Ratio (x) = -0.83180 1.17081
# Poissons Ratio (y) = -0.35011 0.78786
# Poissons Ratio (z) = 0.21879 0.34978
#
# Static dielectric constant tensor:
#      x y z
#    x 3.537780 0.000000 0.000000 
#    y 0.000000 3.639780 0.000000 
#    z 0.000000 0.000000 4.057450 
# 
# 
# High freq. dielectric constant tensor:
#      x y z
#    x 1.776920 0.000000 0.000000 
#    y 0.000000 1.786720 0.000000 
#    z 0.000000 0.000000 1.806420 
# 
# From -- ./inp_files/11932.got.cif
#   From: 2010.03.12/outbox.cif.g09.slc.cpg/sg55_6_cif.got.tgz:11932.got - 2010.04.16 15:19:21.
