data_PCOD8226878
_publ_section_title
;
Structure prediction by ZEFSAII (Michael W. Deem and Ramdas Pophale) SiO2 
 PCOD8226878
Probable space group: P B A M
;
_chemical_formula_sum "Si O2"
_cell_formula_units_Z 40
_cell_length_a 13.579644
_cell_length_b 17.657576
_cell_length_c 9.004826
_cell_angle_alpha 90.000000
_cell_angle_beta 90.000000
_cell_angle_gamma 90.000000
_cell_volume 2159.209559
_symmetry_space_group_name_H-M "P B A M"
_symmetry_group_IT_number 55
_symmetry_cell_setting 'orthorhombic'
loop_
_space_group_symop_operation_xyz
x,y,z
-x,-y,z
1/2+x,1/2-y,-z
1/2-x,1/2+y,-z
-x,-y,-z
x,y,-z
1/2-x,1/2+y,z
1/2+x,1/2-y,z
loop_
_atom_site_type_symbol
_atom_site_label
_atom_site_fract_x
_atom_site_fract_y
_atom_site_fract_z
Si Si1 0.608063 0.977239 0.827861
Si Si2 0.876167 0.866162 0.672865
Si Si3 0.080193 0.838837 0.825629
Si Si4 0.796448 0.031001 0.326773
Si Si5 0.188558 0.685379 0.170775
O O1 0.685836 0.025904 0.734459
O O2 0.621807 0.888141 0.798733
O O3 0.500000 0.000000 0.771833
O O4 0.622673 0.998126 0.000000
O O5 0.893456 0.851536 0.500000
O O6 0.855213 0.953990 0.706689
O O7 0.785276 0.815289 0.727412
O O8 0.971373 0.840949 0.761486
O O9 0.124319 0.757425 0.784874
O O10 0.147895 0.902287 0.754586
O O11 0.075486 0.852967 0.000000
O O12 0.792293 0.048885 0.500000
O O13 0.222940 0.688405 0.000000
#
# Coordination Sequence:
#
# PCOD8226878 Si02
#       5
#     8   8   8   8   8
#     4   9  18  35  58  80 105 140 179 219 267 321
#     4  10  21  37  56  78 107 141 176 220 271 319
#     4  11  22  35  55  81 109 143 181 221 266 317
#     4  10  21  36  54  79 109 140 180 225 267 317
#     4   9  20  37  54  77 108 139 175 218 263 317
#
# _framework density 18.525299
#
# number of rings (size 3 to 8) (size 9 to 14) (size 15 to 20)
#    0.000    2.200    0.000    2.400    0.000    8.400 
#    0.000    4.000    0.000    0.000    0.000    0.000 
#    0.000    0.000    0.000    0.000    0.000    0.000 
#
# Total GULP energy -496186.976183 kJ/mol
# GULP energy per Si atom -12404.674405 kJ/mol
# Density = 1.848313 g / cm^3
# Si number density = 18.525299 Si / 1000 Ang^3
#
#
#
# Elastic Constant Matrix: (Units=GPa)
#
#
# Indices 1 2 3 4 5 6 
#
# 1 168.0628 82.5635 79.1874 0.0000 0.0000 0.0000
# 2 82.5635 93.1060 59.1143 0.0000 0.0000 0.0000
# 3 79.1874 59.1143 96.3262 0.0000 0.0000 0.0000
# 4 0.0000 0.0000 0.0000 24.5059 0.0000 0.0000
# 5 0.0000 0.0000 0.0000 0.0000 -52.6002 0.0000
# 6 0.0000 0.0000 0.0000 0.0000 0.0000 25.8008
#
#
#
# Elastic Compliance Matrix: (Units=1/GPa)
#
#
# Indices 1 2 3 4 5 6 
#
# 1 0.012097 -0.007231 -0.005508 0.000000 0.000000 0.000000
# 2 -0.007231 0.021919 -0.007507 0.000000 0.000000 0.000000
# 3 -0.005508 -0.007507 0.019516 0.000000 0.000000 0.000000
# 4 0.000000 0.000000 0.000000 0.040806 0.000000 0.000000
# 5 0.000000 0.000000 0.000000 0.000000 -0.019011 0.000000
# 6 0.000000 0.000000 0.000000 0.000000 0.000000 0.038759
#
#
# Mechanical properties :
#
#
# Convention : Reuss Voigt Hill
#
# Bulk Modulus (GPa) = 76.67864 88.80281 82.74073
# Shear Modulus (GPa) = 31.46157 8.64995 20.05576
#
# Velocity S-wave (km/s) = 4.12552 2.16319 3.29388
# Velocity P-wave (km/s) = 8.01089 7.36744 7.69590
#
# Compressibility (1/GPa) = 0.01304144
#
# Stress axis : x y z
#
# Youngs Moduli (GPa) = 82.66218 45.62279 51.23997
#
# Poissons Ratio (x) = 0.32989 0.28221
# Poissons Ratio (y) = 0.59772 0.38466
# Poissons Ratio (z) = 0.45526 0.34249
#
# Static dielectric constant tensor:
#      x y z
#    x 3.522720 0.000000 0.000000 
#    y 0.000000 3.455650 0.000000 
#    z 0.000000 0.000000 3.489580 
# 
# 
# High freq. dielectric constant tensor:
#      x y z
#    x 1.727740 0.000000 0.000000 
#    y 0.000000 1.717140 0.000000 
#    z 0.000000 0.000000 1.726030 
# 
# From -- ./inp_files/3582.got.cif
#   From: 2010.03.12/outbox.cif.g09.slc.cpg/sg55_2_cif.got.tgz:3582.got - 2010.04.16 15:19:21.
