data_PCOD8226674
_publ_section_title
;
Structure prediction by ZEFSAII (Michael W. Deem and Ramdas Pophale) SiO2 
 PCOD8226674
Probable space group: P B A M
;
_chemical_formula_sum "Si O2"
_cell_formula_units_Z 48
_cell_length_a 14.737074
_cell_length_b 19.745183
_cell_length_c 8.656985
_cell_angle_alpha 90.000000
_cell_angle_beta 90.000000
_cell_angle_gamma 90.000000
_cell_volume 2519.063368
_symmetry_space_group_name_H-M "P B A M"
_symmetry_group_IT_number 55
_symmetry_cell_setting 'orthorhombic'
loop_
_space_group_symop_operation_xyz
x,y,z
-x,-y,z
1/2+x,1/2-y,-z
1/2-x,1/2+y,-z
-x,-y,-z
x,y,-z
1/2-x,1/2+y,z
1/2+x,1/2-y,z
loop_
_atom_site_type_symbol
_atom_site_label
_atom_site_fract_x
_atom_site_fract_y
_atom_site_fract_z
Si Si1 0.723994 0.476439 0.179433
Si Si2 0.410149 0.038347 0.679310
Si Si3 0.072917 0.943970 0.680200
Si Si4 0.611613 0.806317 0.322368
Si Si5 0.314980 0.665690 0.679859
Si Si6 0.997959 0.809113 0.178822
O O1 0.828114 0.491918 0.220763
O O2 0.665082 0.541981 0.225130
O O3 0.686574 0.413240 0.276867
O O4 0.714301 0.459726 0.000000
O O5 0.388543 0.024911 0.500000
O O6 0.422484 0.117880 0.710579
O O7 0.500000 0.000000 0.734112
O O8 0.094818 0.947511 0.500000
O O9 0.037027 0.870054 0.720402
O O10 0.000000 0.000000 0.730644
O O11 0.594141 0.786213 0.500000
O O12 0.718394 0.799949 0.281981
O O13 0.555746 0.757924 0.210582
O O14 0.337885 0.670885 0.500000
O O15 0.393280 0.704335 0.774436
O O16 0.004096 0.827973 0.000000
#
# Coordination Sequence:
#
# PCOD8226674 Si02
#       6
#     8   8   8   8   8   8
#     4  11  21  34  57  88 120 149 184 240 297 343
#     4   9  19  39  65  88 113 154 202 240 279 341
#     4  11  22  37  60  85 114 154 196 237 281 347
#     4   9  20  39  61  84 113 152 197 239 281 343
#     4  10  20  38  62  83 109 153 199 233 278 346
#     4  12  24  37  58  87 120 152 187 242 300 348
#
# _framework density 19.0547
#
# number of rings (size 3 to 8) (size 9 to 14) (size 15 to 20)
#    0.000    1.667    1.667    5.000    0.000    4.333 
#    3.000    0.000    0.000    0.000    0.000    0.000 
#    0.000    0.000    0.000    0.000    0.000    0.000 
#
# Total GULP energy -595450.678570 kJ/mol
# GULP energy per Si atom -12405.222470 kJ/mol
# Density = 1.901133 g / cm^3
# Si number density = 19.054700 Si / 1000 Ang^3
#
#
#
# Elastic Constant Matrix: (Units=GPa)
#
#
# Indices 1 2 3 4 5 6 
#
# 1 130.2318 56.1654 42.0673 0.0000 0.0000 0.0000
# 2 56.1654 69.1837 20.6198 0.0000 0.0000 0.0000
# 3 42.0673 20.6198 69.0187 0.0000 0.0000 0.0000
# 4 0.0000 0.0000 0.0000 22.5862 0.0000 0.0000
# 5 0.0000 0.0000 0.0000 0.0000 25.1947 0.0000
# 6 0.0000 0.0000 0.0000 0.0000 0.0000 34.6822
#
#
#
# Elastic Compliance Matrix: (Units=1/GPa)
#
#
# Indices 1 2 3 4 5 6 
#
# 1 0.013435 -0.009294 -0.005412 0.000000 0.000000 0.000000
# 2 -0.009294 0.022296 -0.000997 0.000000 0.000000 0.000000
# 3 -0.005412 -0.000997 0.018085 0.000000 0.000000 0.000000
# 4 0.000000 0.000000 0.000000 0.044275 0.000000 0.000000
# 5 0.000000 0.000000 0.000000 0.000000 0.039691 0.000000
# 6 0.000000 0.000000 0.000000 0.000000 0.000000 0.028833
#
#
# Mechanical properties :
#
#
# Convention : Reuss Voigt Hill
#
# Bulk Modulus (GPa) = 44.61978 56.23769 50.42873
# Shear Modulus (GPa) = 24.33195 26.46473 25.39834
#
# Velocity S-wave (km/s) = 3.57732 3.73081 3.65488
# Velocity P-wave (km/s) = 6.36636 6.93805 6.65834
#
# Compressibility (1/GPa) = 0.02241158
#
# Stress axis : x y z
#
# Youngs Moduli (GPa) = 74.43232 44.85043 55.29370
#
# Poissons Ratio (x) = 0.41684 0.29925
# Poissons Ratio (y) = 0.69177 0.05510
# Poissons Ratio (z) = 0.40284 0.04469
#
# Static dielectric constant tensor:
#      x y z
#    x 3.727280 0.000000 0.000000 
#    y 0.000000 3.254970 0.000000 
#    z 0.000000 0.000000 3.401790 
# 
# 
# High freq. dielectric constant tensor:
#      x y z
#    x 1.751550 0.000000 0.000000 
#    y 0.000000 1.718490 0.000000 
#    z 0.000000 0.000000 1.743580 
# 
# From -- ./inp_files/5680.got.cif
#   From: 2010.03.12/outbox.cif.g09.slc.cpg/sg55_3_cif.got.tgz:5680.got - 2010.04.16 15:19:21.
