data_PCOD8226190
_publ_section_title
;
Structure prediction by ZEFSAII (Michael W. Deem and Ramdas Pophale) SiO2 
 PCOD8226190
Probable space group: P B A M
;
_chemical_formula_sum "Si O2"
_cell_formula_units_Z 64
_cell_length_a 9.201930
_cell_length_b 27.789285
_cell_length_c 12.830586
_cell_angle_alpha 90.000000
_cell_angle_beta 90.000000
_cell_angle_gamma 90.000000
_cell_volume 3280.974009
_symmetry_space_group_name_H-M "P B A M"
_symmetry_group_IT_number 55
_symmetry_cell_setting 'orthorhombic'
loop_
_space_group_symop_operation_xyz
x,y,z
-x,-y,z
1/2+x,1/2-y,-z
1/2-x,1/2+y,-z
-x,-y,-z
x,y,-z
1/2-x,1/2+y,z
1/2+x,1/2-y,z
loop_
_atom_site_type_symbol
_atom_site_label
_atom_site_fract_x
_atom_site_fract_y
_atom_site_fract_z
Si Si1 0.817024 0.531844 0.115275
Si Si2 0.783053 0.115179 0.380823
Si Si3 0.927859 0.215352 0.380149
Si Si4 0.601990 0.932304 0.189384
Si Si5 0.243076 0.203635 0.299853
Si Si6 0.669739 0.366913 0.120071
Si Si7 0.053038 0.621651 0.382246
Si Si8 0.048241 0.944878 0.217274
O O1 0.822355 0.483691 0.183049
O O2 0.657025 0.554216 0.118498
O O3 0.933652 0.569520 0.157821
O O4 0.859502 0.516332 0.000000
O O5 0.793713 0.098413 0.500000
O O6 0.616628 0.129321 0.353326
O O7 0.852768 0.071944 0.314399
O O8 0.880665 0.161249 0.357864
O O9 0.892803 0.230704 0.500000
O O10 0.100508 0.217687 0.364429
O O11 0.841196 0.248051 0.295499
O O12 0.674470 0.892570 0.114468
O O13 0.619342 0.919991 0.310844
O O14 0.190824 0.182491 0.186728
O O15 0.349776 0.168483 0.362875
O O16 0.572742 0.405909 0.184573
O O17 0.617472 0.356306 0.000000
O O18 0.071298 0.604519 0.500000
O O19 0.000000 0.000000 0.239883
#
# Coordination Sequence:
#
# PCOD8226190 Si02
#       8
#     8   8   8   8   8   8   8   8
#     4  11  21  35  57  81 111 155 213 268 308 350
#     4  10  22  41  62  89 128 167 206 260 320 381
#     4  11  21  38  65  93 122 158 201 252 311 377
#     4  10  20  35  56  84 116 154 206 258 305 364
#     4  11  23  39  65  98 128 159 204 260 311 384
#     4  11  23  41  62  90 129 170 210 262 316 369
#     4  10  20  37  59  86 123 160 195 248 316 379
#     4  12  23  39  62  92 127 170 224 271 318 380
#
# _framework density 19.506402000000001
#
# number of rings (size 3 to 8) (size 9 to 14) (size 15 to 20)
#    0.000    1.250    3.750    3.750    0.000    1.750 
#    0.000    2.500    0.000    0.000    0.000    0.000 
#    0.000    0.000    0.000    0.000    0.000    0.000 
#
# Total GULP energy -793003.781632 kJ/mol
# GULP energy per Si atom -12390.684088 kJ/mol
# Density = 1.946200 g / cm^3
# Si number density = 19.506402 Si / 1000 Ang^3
#
#
#
# Elastic Constant Matrix: (Units=GPa)
#
#
# Indices 1 2 3 4 5 6 
#
# 1 89.7103 37.5928 36.0100 0.0000 0.0000 0.0000
# 2 37.5928 71.2633 42.5629 0.0000 0.0000 0.0000
# 3 36.0100 42.5629 99.9682 0.0000 0.0000 0.0000
# 4 0.0000 0.0000 0.0000 18.8466 0.0000 0.0000
# 5 0.0000 0.0000 0.0000 0.0000 21.7489 0.0000
# 6 0.0000 0.0000 0.0000 0.0000 0.0000 32.4369
#
#
#
# Elastic Compliance Matrix: (Units=1/GPa)
#
#
# Indices 1 2 3 4 5 6 
#
# 1 0.014834 -0.006214 -0.002698 0.000000 0.000000 0.000000
# 2 -0.006214 0.021421 -0.006882 0.000000 0.000000 0.000000
# 3 -0.002698 -0.006882 0.013905 0.000000 0.000000 0.000000
# 4 0.000000 0.000000 0.000000 0.053060 0.000000 0.000000
# 5 0.000000 0.000000 0.000000 0.000000 0.045979 0.000000
# 6 0.000000 0.000000 0.000000 0.000000 0.000000 0.030829
#
#
# Mechanical properties :
#
#
# Convention : Reuss Voigt Hill
#
# Bulk Modulus (GPa) = 53.84275 54.80814 54.32545
# Shear Modulus (GPa) = 22.95627 24.25822 23.60724
#
# Velocity S-wave (km/s) = 3.43426 3.53030 3.48261
# Velocity P-wave (km/s) = 6.58696 6.69148 6.63942
#
# Compressibility (1/GPa) = 0.01857260
#
# Stress axis : x y z
#
# Youngs Moduli (GPa) = 67.41378 46.68388 71.91679
#
# Poissons Ratio (x) = 0.29009 0.19401
# Poissons Ratio (y) = 0.41890 0.49492
# Poissons Ratio (z) = 0.18186 0.32127
#
# Static dielectric constant tensor:
#      x y z
#    x 3.802450 0.000000 0.000000 
#    y 0.000000 3.464590 0.000000 
#    z 0.000000 0.000000 3.493400 
# 
# 
# High freq. dielectric constant tensor:
#      x y z
#    x 1.781850 0.000000 0.000000 
#    y 0.000000 1.745740 0.000000 
#    z 0.000000 0.000000 1.748810 
# 
# From -- ./inp_files/12627.got.cif
#   From: 2010.03.12/outbox.cif.g09.slc.cpg/sg55_7_cif.got.tgz:12627.got - 2010.04.16 15:19:21.
