data_PCOD8226682
_publ_section_title
;
Structure prediction by ZEFSAII (Michael W. Deem and Ramdas Pophale) SiO2 
 PCOD8226682
Probable space group: P B A M
;
_chemical_formula_sum "Si O2"
_cell_formula_units_Z 64
_cell_length_a 15.382082
_cell_length_b 23.712796
_cell_length_c 8.784045
_cell_angle_alpha 90.000000
_cell_angle_beta 90.000000
_cell_angle_gamma 90.000000
_cell_volume 3203.999497
_symmetry_space_group_name_H-M "P B A M"
_symmetry_group_IT_number 55
_symmetry_cell_setting 'orthorhombic'
loop_
_space_group_symop_operation_xyz
x,y,z
-x,-y,z
1/2+x,1/2-y,-z
1/2-x,1/2+y,-z
-x,-y,-z
x,y,-z
1/2-x,1/2+y,z
1/2+x,1/2-y,z
loop_
_atom_site_type_symbol
_atom_site_label
_atom_site_fract_x
_atom_site_fract_y
_atom_site_fract_z
Si Si1 0.844419 0.361808 0.177994
Si Si2 0.997384 0.065916 0.323811
Si Si3 0.169085 0.132071 0.320777
Si Si4 0.598131 0.248751 0.680252
Si Si5 0.666774 0.129474 0.679567
Si Si6 0.155858 0.866105 0.821002
Si Si7 0.489238 0.934795 0.176459
Si Si8 0.402679 0.251748 0.319591
O O1 0.753731 0.389963 0.230946
O O2 0.852754 0.303996 0.269828
O O3 0.921695 0.403934 0.222399
O O4 0.843258 0.349059 0.000000
O O5 0.978329 0.079806 0.500000
O O6 0.921726 0.092611 0.224157
O O7 0.089219 0.092199 0.274166
O O8 0.000000 0.000000 0.291016
O O9 0.186871 0.129217 0.500000
O O10 0.149093 0.195844 0.265426
O O11 0.591185 0.247579 0.500000
O O12 0.645795 0.192700 0.739652
O O13 0.500463 0.250378 0.746640
O O14 0.681567 0.128388 0.500000
O O15 0.753520 0.107499 0.762343
O O16 0.587965 0.088544 0.720616
O O17 0.146955 0.805167 0.745937
O O18 0.157853 0.859532 0.000000
O O19 0.500000 0.000000 0.215060
O O20 0.466347 0.924887 0.000000
O O21 0.400491 0.256343 0.500000
#
# Coordination Sequence:
#
# PCOD8226682 Si02
#       8
#     8   8   8   8   8   8   8   8
#     4  11  23  38  59  91 124 156 199 248 305 368
#     4  10  22  42  66  91 120 159 211 262 301 347
#     4  10  20  38  62  88 120 159 200 244 301 359
#     4   9  18  34  60  89 116 151 193 245 302 355
#     4  11  22  39  64  93 121 157 207 256 303 358
#     4  12  25  40  61  93 128 163 200 244 307 371
#     4  10  23  43  62  84 122 167 207 254 309 361
#     4  11  20  38  64  90 122 157 199 247 303 364
#
# _framework density 19.975033
#
# number of rings (size 3 to 8) (size 9 to 14) (size 15 to 20)
#    0.000    1.500    2.500    3.000    0.000    3.500 
#    0.000    3.125    0.000    0.000    0.000    0.000 
#    0.000    0.000    0.000    0.000    0.000    0.000 
#
# Total GULP energy -793935.118007 kJ/mol
# GULP energy per Si atom -12405.236219 kJ/mol
# Density = 1.992957 g / cm^3
# Si number density = 19.975033 Si / 1000 Ang^3
#
#
#
# Elastic Constant Matrix: (Units=GPa)
#
#
# Indices 1 2 3 4 5 6 
#
# 1 160.9493 50.9298 56.2702 0.0000 0.0000 0.0000
# 2 50.9298 113.1155 40.0264 0.0000 0.0000 0.0000
# 3 56.2702 40.0264 87.4648 0.0000 0.0000 0.0000
# 4 0.0000 0.0000 0.0000 24.3462 0.0000 0.0000
# 5 0.0000 0.0000 0.0000 0.0000 26.3807 0.0000
# 6 0.0000 0.0000 0.0000 0.0000 0.0000 -2.0232
#
#
#
# Elastic Compliance Matrix: (Units=1/GPa)
#
#
# Indices 1 2 3 4 5 6 
#
# 1 0.008470 -0.002250 -0.004420 0.000000 0.000000 0.000000
# 2 -0.002250 0.011146 -0.003653 0.000000 0.000000 0.000000
# 3 -0.004420 -0.003653 0.015949 0.000000 0.000000 0.000000
# 4 0.000000 0.000000 0.000000 0.041074 0.000000 0.000000
# 5 0.000000 0.000000 0.000000 0.000000 0.037907 0.000000
# 6 0.000000 0.000000 0.000000 0.000000 0.000000 -0.494255
#
#
# Mechanical properties :
#
#
# Convention : Reuss Voigt Hill
#
# Bulk Modulus (GPa) = 67.02824 72.88694 69.95759
# Shear Modulus (GPa) = -14.12069 24.02761 4.95346
#
# Velocity S-wave (km/s) = -2.66168 3.47202 1.57645
# Velocity P-wave (km/s) = 4.91760 7.25544 6.19775
#
# Compressibility (1/GPa) = 0.01491908
#
# Stress axis : x y z
#
# Youngs Moduli (GPa) = 118.06029 89.71622 62.70161
#
# Poissons Ratio (x) = 0.20184 0.27713
# Poissons Ratio (y) = 0.26561 0.22908
# Poissons Ratio (z) = 0.52180 0.32778
#
# Static dielectric constant tensor:
#      x y z
#    x 3.840500 0.000000 0.000000 
#    y 0.000000 3.603300 0.000000 
#    z 0.000000 0.000000 3.429160 
# 
# 
# High freq. dielectric constant tensor:
#      x y z
#    x 1.798670 0.000000 0.000000 
#    y 0.000000 1.775310 0.000000 
#    z 0.000000 0.000000 1.765140 
# 
# From -- ./inp_files/6513.got.cif
#   From: 2010.03.12/outbox.cif.g09.slc.cpg/sg55_4_cif.got.tgz:6513.got - 2010.04.16 15:19:21.
