data_PCOD8226394
_publ_section_title
;
Structure prediction by ZEFSAII (Michael W. Deem and Ramdas Pophale) SiO2 
 PCOD8226394
Probable space group: P B A M
;
_chemical_formula_sum "Si O2"
_cell_formula_units_Z 56
_cell_length_a 15.208169
_cell_length_b 9.186732
_cell_length_c 19.930522
_cell_angle_alpha 90.000000
_cell_angle_beta 90.000000
_cell_angle_gamma 90.000000
_cell_volume 2784.560451
_symmetry_space_group_name_H-M "P B A M"
_symmetry_group_IT_number 55
_symmetry_cell_setting 'orthorhombic'
loop_
_space_group_symop_operation_xyz
x,y,z
-x,-y,z
1/2+x,1/2-y,-z
1/2-x,1/2+y,-z
-x,-y,-z
x,y,-z
1/2-x,1/2+y,z
1/2+x,1/2-y,z
loop_
_atom_site_type_symbol
_atom_site_label
_atom_site_fract_x
_atom_site_fract_y
_atom_site_fract_z
Si Si1 0.168097 0.314946 0.859109
Si Si2 0.330048 0.190447 0.356778
Si Si3 0.185960 0.388012 0.293605
Si Si4 0.804682 0.382177 0.922382
Si Si5 0.374327 0.755340 0.500000
Si Si6 0.004821 0.671964 0.074179
Si Si7 0.479302 0.833676 0.373630
Si Si8 0.785653 0.432711 0.500000
O O1 0.194292 0.359007 0.784454
O O2 0.188703 0.446372 0.909248
O O3 0.226199 0.176881 0.877364
O O4 0.065310 0.270399 0.870615
O O5 0.263472 0.319226 0.338902
O O6 0.431213 0.243527 0.347632
O O7 0.325864 0.140189 0.433865
O O8 0.308072 0.059728 0.306106
O O9 0.091303 0.325525 0.314196
O O10 0.894790 0.295289 0.902905
O O11 0.782955 0.358818 0.000000
O O12 0.437996 0.751357 0.436555
O O13 0.318523 0.604933 0.500000
O O14 0.307245 0.894572 0.500000
O O15 0.000000 0.500000 0.067963
O O16 0.985710 0.739820 0.000000
O O17 0.500000 0.000000 0.394302
#
# Coordination Sequence:
#
# PCOD8226394 Si02
#       8
#     8   8   8   8   4   8   8   4
#     4  11  21  35  57  84 117 150 188 234 285 346
#     4  11  22  39  60  82 115 152 191 242 287 336
#     4  11  23  37  56  85 117 153 191 230 289 350
#     4  10  20  36  59  85 112 147 191 239 285 335
#     4  12  20  37  64  94 113 149 200 241 299 330
#     4   8  16  32  55  81 109 141 185 232 274 327
#     4  10  20  36  60  84 111 150 197 235 276 351
#     4  12  19  36  65  85 119 147 194 250 284 328
#
# _framework density 20.110894999999999
#
# number of rings (size 3 to 8) (size 9 to 14) (size 15 to 20)
#    0.000    1.571    4.286    3.643    0.000    6.286 
#    0.000    1.429    0.000    7.714    0.000    0.000 
#    0.000    0.000    0.000    0.000    0.000    0.000 
#
# Total GULP energy -694224.668278 kJ/mol
# GULP energy per Si atom -12396.869076 kJ/mol
# Density = 2.006512 g / cm^3
# Si number density = 20.110895 Si / 1000 Ang^3
#
#
#
# Elastic Constant Matrix: (Units=GPa)
#
#
# Indices 1 2 3 4 5 6 
#
# 1 110.1054 20.8338 6.9961 0.0000 0.0000 0.0000
# 2 20.8338 28.5829 3.6424 0.0000 0.0000 0.0000
# 3 6.9961 3.6424 75.5262 0.0000 0.0000 0.0000
# 4 0.0000 0.0000 0.0000 22.1305 0.0000 0.0000
# 5 0.0000 0.0000 0.0000 0.0000 16.6137 0.0000
# 6 0.0000 0.0000 0.0000 0.0000 0.0000 28.9320
#
#
#
# Elastic Compliance Matrix: (Units=1/GPa)
#
#
# Indices 1 2 3 4 5 6 
#
# 1 0.010563 -0.007622 -0.000611 0.000000 0.000000 0.000000
# 2 -0.007622 0.040701 -0.001257 0.000000 0.000000 0.000000
# 3 -0.000611 -0.001257 0.013358 0.000000 0.000000 0.000000
# 4 0.000000 0.000000 0.000000 0.045187 0.000000 0.000000
# 5 0.000000 0.000000 0.000000 0.000000 0.060191 0.000000
# 6 0.000000 0.000000 0.000000 0.000000 0.000000 0.034564
#
#
# Mechanical properties :
#
#
# Convention : Reuss Voigt Hill
#
# Bulk Modulus (GPa) = 21.90894 30.79546 26.35220
# Shear Modulus (GPa) = 20.94178 25.71803 23.32990
#
# Velocity S-wave (km/s) = 3.23044 3.57993 3.40966
# Velocity P-wave (km/s) = 4.98318 5.69508 5.35098
#
# Compressibility (1/GPa) = 0.04564347
#
# Stress axis : x y z
#
# Youngs Moduli (GPa) = 94.66876 24.56919 74.86345
#
# Poissons Ratio (x) = 0.18725 0.04574
# Poissons Ratio (y) = 0.72152 0.09410
# Poissons Ratio (z) = 0.05783 0.03088
#
# Static dielectric constant tensor:
#      x y z
#    x 4.285060 0.000000 0.000000 
#    y 0.000000 3.270650 0.000000 
#    z 0.000000 0.000000 3.568950 
# 
# 
# High freq. dielectric constant tensor:
#      x y z
#    x 1.803000 0.000000 0.000000 
#    y 0.000000 1.738150 0.000000 
#    z 0.000000 0.000000 1.786130 
# 
# From -- ./inp_files/22993.got.cif
#   From: 2010.03.12/outbox.cif.g09.slc.cpg/sg55_12_cif.got.tgz:22993.got - 2010.04.16 15:19:21.
