data_PCOD8226461
_publ_section_title
;
Structure prediction by ZEFSAII (Michael W. Deem and Ramdas Pophale) SiO2 
 PCOD8226461
Probable space group: P B A M
;
_chemical_formula_sum "Si O2"
_cell_formula_units_Z 56
_cell_length_a 21.687221
_cell_length_b 10.391269
_cell_length_c 12.444938
_cell_angle_alpha 90.000000
_cell_angle_beta 90.000000
_cell_angle_gamma 90.000000
_cell_volume 2804.563193
_symmetry_space_group_name_H-M "P B A M"
_symmetry_group_IT_number 55
_symmetry_cell_setting 'orthorhombic'
loop_
_space_group_symop_operation_xyz
x,y,z
-x,-y,z
1/2+x,1/2-y,-z
1/2-x,1/2+y,-z
-x,-y,-z
x,y,-z
1/2-x,1/2+y,z
1/2+x,1/2-y,z
loop_
_atom_site_type_symbol
_atom_site_label
_atom_site_fract_x
_atom_site_fract_y
_atom_site_fract_z
Si Si1 0.170045 0.984679 0.628577
Si Si2 0.117700 0.231900 0.273159
Si Si3 0.480172 0.646292 0.119874
Si Si4 0.726475 0.096715 0.217688
Si Si5 0.504170 0.137343 0.378497
Si Si6 0.590538 0.725161 0.264433
Si Si7 0.698260 0.826857 0.124057
O O1 0.168159 0.965463 0.500000
O O2 0.234982 0.930581 0.673128
O O3 0.115444 0.909825 0.690640
O O4 0.160803 0.133778 0.659576
O O5 0.089172 0.165171 0.166409
O O6 0.157530 0.359301 0.247940
O O7 0.058604 0.270753 0.340681
O O8 0.500000 0.500000 0.120172
O O9 0.532428 0.719894 0.185192
O O10 0.478804 0.702564 0.000000
O O11 0.753670 0.212576 0.146347
O O12 0.727526 0.966548 0.147354
O O13 0.519902 0.110293 0.500000
O O14 0.436539 0.201453 0.367715
O O15 0.500000 0.000000 0.316692
O O16 0.641274 0.808797 0.203779
O O17 0.677526 0.819524 0.000000
#
# Coordination Sequence:
#
# PCOD8226461 Si02
#       7
#     8   8   8   8   8   8   8
#     4  11  23  40  62  89 124 169 215 263 321 372
#     4  11  22  41  62  91 128 161 211 265 310 383
#     4  10  20  36  61  91 125 162 199 249 315 377
#     4  11  24  44  61  93 128 162 216 266 310 378
#     4  10  21  37  60  88 120 161 203 252 316 373
#     4  10  21  39  59  90 123 159 202 260 303 382
#     4  11  23  41  66  90 124 166 207 258 318 375
#
# _framework density 19.967461
#
# number of rings (size 3 to 8) (size 9 to 14) (size 15 to 20)
#    0.000    1.429    2.857    2.571    0.000    2.286 
#    0.000    2.857    0.000    4.714    0.000    0.000 
#    0.000    0.000    0.000    0.000    0.000    0.000 
#
# Total GULP energy -694189.934900 kJ/mol
# GULP energy per Si atom -12396.248838 kJ/mol
# Density = 1.992201 g / cm^3
# Si number density = 19.967461 Si / 1000 Ang^3
#
#
#
# Elastic Constant Matrix: (Units=GPa)
#
#
# Indices 1 2 3 4 5 6 
#
# 1 95.9227 32.9531 34.5604 0.0000 0.0000 0.0000
# 2 32.9531 118.4332 31.2843 0.0000 0.0000 0.0000
# 3 34.5604 31.2843 108.2080 0.0000 0.0000 0.0000
# 4 0.0000 0.0000 0.0000 20.0019 0.0000 0.0000
# 5 0.0000 0.0000 0.0000 0.0000 22.2831 0.0000
# 6 0.0000 0.0000 0.0000 0.0000 0.0000 36.1362
#
#
#
# Elastic Compliance Matrix: (Units=1/GPa)
#
#
# Indices 1 2 3 4 5 6 
#
# 1 0.012490 -0.002622 -0.003231 0.000000 0.000000 0.000000
# 2 -0.002622 0.009692 -0.001965 0.000000 0.000000 0.000000
# 3 -0.003231 -0.001965 0.010841 0.000000 0.000000 0.000000
# 4 0.000000 0.000000 0.000000 0.049995 0.000000 0.000000
# 5 0.000000 0.000000 0.000000 0.000000 0.044877 0.000000
# 6 0.000000 0.000000 0.000000 0.000000 0.000000 0.027673
#
#
# Mechanical properties :
#
#
# Convention : Reuss Voigt Hill
#
# Bulk Modulus (GPa) = 57.51028 57.79550 57.65289
# Shear Modulus (GPa) = 28.24858 30.60199 29.42528
#
# Velocity S-wave (km/s) = 3.76537 3.91908 3.84299
# Velocity P-wave (km/s) = 6.91148 7.03467 6.97335
#
# Compressibility (1/GPa) = 0.01738820
#
# Stress axis : x y z
#
# Youngs Moduli (GPa) = 80.06484 103.17753 92.23817
#
# Poissons Ratio (x) = 0.27050 0.29804
# Poissons Ratio (y) = 0.20991 0.18123
# Poissons Ratio (z) = 0.25870 0.20272
#
# Static dielectric constant tensor:
#      x y z
#    x 3.646330 0.000000 0.000000 
#    y 0.000000 3.850700 0.000000 
#    z 0.000000 0.000000 3.671270 
# 
# 
# High freq. dielectric constant tensor:
#      x y z
#    x 1.782890 0.000000 0.000000 
#    y 0.000000 1.787670 0.000000 
#    z 0.000000 0.000000 1.774580 
# 
# From -- ./inp_files/15307.got.cif
#   From: 2010.03.12/outbox.cif.g09.slc.cpg/sg55_8_cif.got.tgz:15307.got - 2010.04.16 15:19:21.
