data_PCOD8226764
_publ_section_title
;
Structure prediction by ZEFSAII (Michael W. Deem and Ramdas Pophale) SiO2 
 PCOD8226764
Probable space group: P B A M
;
_chemical_formula_sum "Si O2"
_cell_formula_units_Z 40
_cell_length_a 11.005404
_cell_length_b 8.962840
_cell_length_c 17.276284
_cell_angle_alpha 90.000000
_cell_angle_beta 90.000000
_cell_angle_gamma 90.000000
_cell_volume 1704.127042
_symmetry_space_group_name_H-M "P B A M"
_symmetry_group_IT_number 55
_symmetry_cell_setting 'orthorhombic'
loop_
_space_group_symop_operation_xyz
x,y,z
-x,-y,z
1/2+x,1/2-y,-z
1/2-x,1/2+y,-z
-x,-y,-z
x,y,-z
1/2-x,1/2+y,z
1/2+x,1/2-y,z
loop_
_atom_site_type_symbol
_atom_site_label
_atom_site_fract_x
_atom_site_fract_y
_atom_site_fract_z
Si Si1 0.139480 0.013271 0.285254
Si Si2 0.992845 0.335855 0.409716
Si Si3 0.859830 0.500852 0.915399
Si Si4 0.748113 0.742646 0.184862
Si Si5 0.240136 0.838113 0.590386
O O1 0.167953 0.176014 0.249374
O O2 0.162321 0.881287 0.223472
O O3 0.228734 0.991292 0.360375
O O4 0.000000 0.000000 0.311716
O O5 0.964669 0.349444 0.500000
O O6 0.126592 0.259930 0.395167
O O7 0.000000 0.500000 0.372447
O O8 0.875842 0.252405 0.374926
O O9 0.830513 0.366532 0.857892
O O10 0.829886 0.660673 0.878425
O O11 0.000000 0.500000 0.930642
O O12 0.794647 0.484600 0.000000
O O13 0.227807 0.879773 0.500000
#
# Coordination Sequence:
#
# PCOD8226764 Si02
#       5
#     8   8   8   8   8
#     4  11  25  41  63  91 129 176 217 267 334 392
#     4   9  20  39  62  89 124 161 215 284 342 392
#     4  10  20  39  69  97 125 166 211 257 311 381
#     4  10  23  42  60  94 136 166 207 262 323 392
#     4  10  23  41  64  92 125 171 229 283 333 393
#
# _framework density 23.472427
#
# number of rings (size 3 to 8) (size 9 to 14) (size 15 to 20)
#    0.000    2.000    0.000    1.800    5.600    0.400 
#    0.000    0.000    0.000    9.600    0.000    0.000 
#    0.000    0.800    0.000    0.000    0.000    0.000 
#
# Total GULP energy -495744.064476 kJ/mol
# GULP energy per Si atom -12393.601612 kJ/mol
# Density = 2.341900 g / cm^3
# Si number density = 23.472427 Si / 1000 Ang^3
#
#
#
# Elastic Constant Matrix: (Units=GPa)
#
#
# Indices 1 2 3 4 5 6 
#
# 1 142.5450 30.6106 16.1404 0.0000 0.0000 0.0000
# 2 30.6106 87.1971 5.6770 0.0000 0.0000 0.0000
# 3 16.1404 5.6770 79.5509 0.0000 0.0000 0.0000
# 4 0.0000 0.0000 0.0000 37.5961 0.0000 0.0000
# 5 0.0000 0.0000 0.0000 0.0000 41.1708 0.0000
# 6 0.0000 0.0000 0.0000 0.0000 0.0000 34.2466
#
#
#
# Elastic Compliance Matrix: (Units=1/GPa)
#
#
# Indices 1 2 3 4 5 6 
#
# 1 0.007736 -0.002626 -0.001382 0.000000 0.000000 0.000000
# 2 -0.002626 0.012413 -0.000353 0.000000 0.000000 0.000000
# 3 -0.001382 -0.000353 0.012876 0.000000 0.000000 0.000000
# 4 0.000000 0.000000 0.000000 0.026598 0.000000 0.000000
# 5 0.000000 0.000000 0.000000 0.000000 0.024289 0.000000
# 6 0.000000 0.000000 0.000000 0.000000 0.000000 0.029200
#
#
# Mechanical properties :
#
#
# Convention : Reuss Voigt Hill
#
# Bulk Modulus (GPa) = 41.14702 46.01654 43.58178
# Shear Modulus (GPa) = 38.48072 39.72703 39.10388
#
# Velocity S-wave (km/s) = 4.05334 4.11846 4.08603
# Velocity P-wave (km/s) = 6.28284 6.50098 6.39284
#
# Compressibility (1/GPa) = 0.02430310
#
# Stress axis : x y z
#
# Youngs Moduli (GPa) = 129.27138 80.56077 77.66274
#
# Poissons Ratio (x) = 0.21152 0.10734
# Poissons Ratio (y) = 0.33942 0.02742
# Poissons Ratio (z) = 0.17867 0.02845
#
# Static dielectric constant tensor:
#      x y z
#    x 4.285810 0.000000 0.000000 
#    y 0.000000 0.559380 0.000000 
#    z 0.000000 0.000000 4.301170 
# 
# 
# High freq. dielectric constant tensor:
#      x y z
#    x 1.931250 0.000000 0.000000 
#    y 0.000000 1.933360 0.000000 
#    z 0.000000 0.000000 1.929800 
# 
# From -- ./inp_files/20595.got.cif
#   From: 2010.03.12/outbox.cif.g09.slc.cpg/sg55_11_cif.got.tgz:20595.got - 2010.04.16 15:19:21.
