data_PCOD8226473
_publ_section_title
;
Structure prediction by ZEFSAII (Michael W. Deem and Ramdas Pophale) SiO2 
 PCOD8226473
Probable space group: P B A M
;
_chemical_formula_sum "Si O2"
_cell_formula_units_Z 56
_cell_length_a 13.245957
_cell_length_b 9.673311
_cell_length_c 20.843161
_cell_angle_alpha 90.000000
_cell_angle_beta 90.000000
_cell_angle_gamma 90.000000
_cell_volume 2670.681357
_symmetry_space_group_name_H-M "P B A M"
_symmetry_group_IT_number 55
_symmetry_cell_setting 'orthorhombic'
loop_
_space_group_symop_operation_xyz
x,y,z
-x,-y,z
1/2+x,1/2-y,-z
1/2-x,1/2+y,-z
-x,-y,-z
x,y,-z
1/2-x,1/2+y,z
1/2+x,1/2-y,z
loop_
_atom_site_type_symbol
_atom_site_label
_atom_site_fract_x
_atom_site_fract_y
_atom_site_fract_z
Si Si1 0.589685 0.401240 0.074196
Si Si2 0.728494 0.896476 0.160557
Si Si3 0.542495 0.849271 0.928862
Si Si4 0.049242 0.359900 0.346147
Si Si5 0.215104 0.342114 0.246694
Si Si6 0.285249 0.992836 0.574151
Si Si7 0.155947 0.775883 0.636011
O O1 0.500000 0.500000 0.095749
O O2 0.689501 0.453452 0.110582
O O3 0.551632 0.247117 0.091717
O O4 0.616863 0.416119 0.000000
O O5 0.628675 0.846128 0.124382
O O6 0.779947 0.760156 0.187907
O O7 0.707031 0.003288 0.218171
O O8 0.500000 0.000000 0.933971
O O9 0.582599 0.802055 0.000000
O O10 0.116659 0.303300 0.288166
O O11 0.118890 0.396514 0.407608
O O12 0.000000 0.500000 0.319912
O O13 0.964797 0.247653 0.366246
O O14 0.312698 0.321551 0.292254
O O15 0.290413 0.032655 0.500000
O O16 0.184544 0.903554 0.589112
O O17 0.286469 0.134627 0.615038
#
# Coordination Sequence:
#
# PCOD8226473 Si02
#       7
#     8   8   8   8   8   8   8
#     4  10  22  39  58  85 118 148 187 245 306 354
#     4  12  23  38  61  86 114 153 200 245 292 346
#     4  10  22  40  61  86 117 153 194 241 296 358
#     4   9  20  38  59  81 115 157 192 232 285 344
#     4  11  24  38  57  85 114 152 198 237 281 344
#     4  10  20  36  62  92 115 146 195 238 284 350
#     4  10  21  40  58  81 121 156 186 238 294 337
#
# _framework density 20.968430999999999
#
# number of rings (size 3 to 8) (size 9 to 14) (size 15 to 20)
#    0.000    1.714    0.000    5.143    0.000    8.286 
#    0.000   11.429    0.000    4.286    0.000    0.000 
#    0.000    0.000    0.000    0.000    0.000    0.000 
#
# Total GULP energy -694328.814793 kJ/mol
# GULP energy per Si atom -12398.728836 kJ/mol
# Density = 2.092071 g / cm^3
# Si number density = 20.968431 Si / 1000 Ang^3
#
#
#
# Elastic Constant Matrix: (Units=GPa)
#
#
# Indices 1 2 3 4 5 6 
#
# 1 79.6471 12.0160 33.3042 0.0000 0.0000 0.0000
# 2 12.0160 73.8903 19.4433 0.0000 0.0000 0.0000
# 3 33.3042 19.4433 96.8622 0.0000 0.0000 0.0000
# 4 0.0000 0.0000 0.0000 33.7321 0.0000 0.0000
# 5 0.0000 0.0000 0.0000 0.0000 21.9544 0.0000
# 6 0.0000 0.0000 0.0000 0.0000 0.0000 30.0610
#
#
#
# Elastic Compliance Matrix: (Units=1/GPa)
#
#
# Indices 1 2 3 4 5 6 
#
# 1 0.014751 -0.001124 -0.004846 0.000000 0.000000 0.000000
# 2 -0.001124 0.014374 -0.002499 0.000000 0.000000 0.000000
# 3 -0.004846 -0.002499 0.012492 0.000000 0.000000 0.000000
# 4 0.000000 0.000000 0.000000 0.029645 0.000000 0.000000
# 5 0.000000 0.000000 0.000000 0.000000 0.045549 0.000000
# 6 0.000000 0.000000 0.000000 0.000000 0.000000 0.033266
#
#
# Mechanical properties :
#
#
# Convention : Reuss Voigt Hill
#
# Bulk Modulus (GPa) = 40.51994 42.21407 41.36701
# Shear Modulus (GPa) = 28.53203 29.52524 29.02863
#
# Velocity S-wave (km/s) = 3.69279 3.75651 3.72479
# Velocity P-wave (km/s) = 6.12768 6.24428 6.18626
#
# Compressibility (1/GPa) = 0.02467921
#
# Stress axis : x y z
#
# Youngs Moduli (GPa) = 67.79000 69.57074 80.05170
#
# Poissons Ratio (x) = 0.07817 0.38797
# Poissons Ratio (y) = 0.07617 0.20005
# Poissons Ratio (z) = 0.32854 0.17386
#
# Static dielectric constant tensor:
#      x y z
#    x 3.567370 0.000000 0.000000 
#    y 0.000000 3.786020 0.000000 
#    z 0.000000 0.000000 3.808980 
# 
# 
# High freq. dielectric constant tensor:
#      x y z
#    x 1.813980 0.000000 0.000000 
#    y 0.000000 1.823700 0.000000 
#    z 0.000000 0.000000 1.822500 
# 
# From -- ./inp_files/22976.got.cif
#   From: 2010.03.12/outbox.cif.g09.slc.cpg/sg55_12_cif.got.tgz:22976.got - 2010.04.16 15:19:21.
