data_PCOD8226658
_publ_section_title
;
Structure prediction by ZEFSAII (Michael W. Deem and Ramdas Pophale) SiO2 
 PCOD8226658
Probable space group: P B A M
;
_chemical_formula_sum "Si O2"
_cell_formula_units_Z 56
_cell_length_a 14.565661
_cell_length_b 21.780009
_cell_length_c 9.100781
_cell_angle_alpha 90.000000
_cell_angle_beta 90.000000
_cell_angle_gamma 90.000000
_cell_volume 2887.133836
_symmetry_space_group_name_H-M "P B A M"
_symmetry_group_IT_number 55
_symmetry_cell_setting 'orthorhombic'
loop_
_space_group_symop_operation_xyz
x,y,z
-x,-y,z
1/2+x,1/2-y,-z
1/2-x,1/2+y,-z
-x,-y,-z
x,y,-z
1/2-x,1/2+y,z
1/2+x,1/2-y,z
loop_
_atom_site_type_symbol
_atom_site_label
_atom_site_fract_x
_atom_site_fract_y
_atom_site_fract_z
Si Si1 0.611963 0.900873 0.327608
Si Si2 0.882921 0.747542 0.171791
Si Si3 0.574799 0.109650 0.829491
Si Si4 0.700233 0.771869 0.672534
Si Si5 0.067894 0.817794 0.172570
Si Si6 0.579535 0.543509 0.174504
Si Si7 0.279898 0.994696 0.828322
O O1 0.606944 0.911853 0.500000
O O2 0.512443 0.914101 0.260326
O O3 0.642496 0.832223 0.287047
O O4 0.685612 0.946981 0.260518
O O5 0.895260 0.677227 0.221654
O O6 0.801679 0.778880 0.262184
O O7 0.973960 0.784345 0.213947
O O8 0.860168 0.752416 0.000000
O O9 0.658644 0.064736 0.795596
O O10 0.546917 0.109592 0.000000
O O11 0.707299 0.761754 0.500000
O O12 0.652225 0.713366 0.744651
O O13 0.061516 0.887461 0.229284
O O14 0.089064 0.814066 0.000000
O O15 0.500000 0.500000 0.240575
O O16 0.677992 0.519804 0.229752
O O17 0.576864 0.542033 0.000000
O O18 0.280997 0.011169 0.000000
#
# Coordination Sequence:
#
# PCOD8226658 Si02
#       7
#     8   8   8   8   8   8   8
#     4  11  24  39  56  83 118 156 197 240 287 348
#     4  10  21  36  62  92 116 147 193 244 291 347
#     4  10  20  38  60  89 118 148 190 243 300 346
#     4  11  24  39  57  84 121 160 194 239 295 349
#     4  10  20  38  64  91 116 149 195 244 289 344
#     4   9  19  36  60  90 120 149 189 241 293 344
#     4  10  21  36  59  85 116 153 191 241 293 346
#
# _framework density 19.3964
#
# number of rings (size 3 to 8) (size 9 to 14) (size 15 to 20)
#    0.000    1.857    1.429    2.143    2.000    7.429 
#    0.000    2.143    0.000    0.857    0.000    0.000 
#    0.000    0.000    0.000    0.000    0.000    0.000 
#
# Total GULP energy -694724.431020 kJ/mol
# GULP energy per Si atom -12405.793411 kJ/mol
# Density = 1.935225 g / cm^3
# Si number density = 19.396400 Si / 1000 Ang^3
#
#
#
# Elastic Constant Matrix: (Units=GPa)
#
#
# Indices 1 2 3 4 5 6 
#
# 1 138.9640 53.0900 43.5968 0.0000 0.0000 0.0000
# 2 53.0900 113.0248 37.1023 0.0000 0.0000 0.0000
# 3 43.5968 37.1023 50.3389 0.0000 0.0000 0.0000
# 4 0.0000 0.0000 0.0000 23.6196 0.0000 0.0000
# 5 0.0000 0.0000 0.0000 0.0000 12.0514 0.0000
# 6 0.0000 0.0000 0.0000 0.0000 0.0000 30.6984
#
#
#
# Elastic Compliance Matrix: (Units=1/GPa)
#
#
# Indices 1 2 3 4 5 6 
#
# 1 0.010408 -0.002546 -0.007138 0.000000 0.000000 0.000000
# 2 -0.002546 0.012294 -0.006857 0.000000 0.000000 0.000000
# 3 -0.007138 -0.006857 0.031101 0.000000 0.000000 0.000000
# 4 0.000000 0.000000 0.000000 0.042338 0.000000 0.000000
# 5 0.000000 0.000000 0.000000 0.000000 0.082978 0.000000
# 6 0.000000 0.000000 0.000000 0.000000 0.000000 0.032575
#
#
# Mechanical properties :
#
#
# Convention : Reuss Voigt Hill
#
# Bulk Modulus (GPa) = 48.25604 63.32288 55.78946
# Shear Modulus (GPa) = 19.86639 24.50977 22.18808
#
# Velocity S-wave (km/s) = 3.20383 3.55861 3.38587
# Velocity P-wave (km/s) = 6.21441 7.04290 6.64159
#
# Compressibility (1/GPa) = 0.02072279
#
# Stress axis : x y z
#
# Youngs Moduli (GPa) = 96.08020 81.33889 32.15360
#
# Poissons Ratio (x) = 0.20707 0.22950
# Poissons Ratio (y) = 0.24460 0.22047
# Poissons Ratio (z) = 0.68578 0.55771
#
# Static dielectric constant tensor:
#      x y z
#    x 3.643590 0.000000 0.000000 
#    y 0.000000 3.703130 0.000000 
#    z 0.000000 0.000000 3.281910 
# 
# 
# High freq. dielectric constant tensor:
#      x y z
#    x 1.769010 0.000000 0.000000 
#    y 0.000000 1.767590 0.000000 
#    z 0.000000 0.000000 1.729540 
# 
# From -- ./inp_files/6009.got.cif
#   From: 2010.03.12/outbox.cif.g09.slc.cpg/sg55_4_cif.got.tgz:6009.got - 2010.04.16 15:19:21.
