data_PCOD8226856
_publ_section_title
;
Structure prediction by ZEFSAII (Michael W. Deem and Ramdas Pophale) SiO2 
 PCOD8226856
Probable space group: P B A M
;
_chemical_formula_sum "Si O2"
_cell_formula_units_Z 48
_cell_length_a 16.573115
_cell_length_b 19.037056
_cell_length_c 7.661708
_cell_angle_alpha 90.000000
_cell_angle_beta 90.000000
_cell_angle_gamma 90.000000
_cell_volume 2417.294298
_symmetry_space_group_name_H-M "P B A M"
_symmetry_group_IT_number 55
_symmetry_cell_setting 'orthorhombic'
loop_
_space_group_symop_operation_xyz
x,y,z
-x,-y,z
1/2+x,1/2-y,-z
1/2-x,1/2+y,-z
-x,-y,-z
x,y,-z
1/2-x,1/2+y,z
1/2+x,1/2-y,z
loop_
_atom_site_type_symbol
_atom_site_label
_atom_site_fract_x
_atom_site_fract_y
_atom_site_fract_z
Si Si1 0.113029 0.557855 0.000000
Si Si2 0.131701 0.166737 0.792433
Si Si3 0.265808 0.057267 0.700149
Si Si4 0.308094 0.410319 0.297049
Si Si5 0.844447 0.675802 0.302199
Si Si6 0.985819 0.076533 0.801839
Si Si7 0.062830 0.397751 0.000000
O O1 0.160285 0.577977 0.824124
O O2 0.094682 0.476038 0.000000
O O3 0.033484 0.605145 0.000000
O O4 0.198715 0.115866 0.716865
O O5 0.147525 0.241115 0.704346
O O6 0.045563 0.136072 0.724965
O O7 0.137355 0.174591 0.000000
O O8 0.296121 0.051569 0.500000
O O9 0.229594 0.983569 0.768018
O O10 0.326562 0.413884 0.500000
O O11 0.246299 0.347846 0.247235
O O12 0.393902 0.396905 0.206311
O O13 0.861358 0.649452 0.500000
O O14 0.908840 0.641016 0.174535
O O15 0.013576 0.067457 0.000000
O O16 0.000000 0.000000 0.709443
#
# Coordination Sequence:
#
# PCOD8226856 Si02
#       7
#     4   8   8   8   8   8   4
#     4  11  24  41  68  96 123 157 217 273 317 370
#     4  11  22  40  64  93 130 172 212 260 322 383
#     4  11  22  39  65  95 128 166 209 262 320 382
#     4  10  22  38  62  92 122 165 213 252 314 387
#     4  11  24  44  65  90 129 173 214 261 322 385
#     4  10  21  35  60  93 126 161 204 259 316 374
#     4  11  24  43  68  93 119 168 214 265 321 377
#
# _framework density 19.856912000000001
#
# number of rings (size 3 to 8) (size 9 to 14) (size 15 to 20)
#    0.000    1.333    5.000    0.500    2.333    2.333 
#    3.000    1.667    0.000    0.000    0.000    0.000 
#    0.000    0.000    0.000    0.000    0.000    0.000 
#
# Total GULP energy -595263.888410 kJ/mol
# GULP energy per Si atom -12401.331009 kJ/mol
# Density = 1.981172 g / cm^3
# Si number density = 19.856912 Si / 1000 Ang^3
#
#
#
# Elastic Constant Matrix: (Units=GPa)
#
#
# Indices 1 2 3 4 5 6 
#
# 1 170.9519 73.6074 50.1013 0.0000 0.0000 0.0000
# 2 73.6074 124.9884 23.2546 0.0000 0.0000 0.0000
# 3 50.1013 23.2546 91.9629 0.0000 0.0000 0.0000
# 4 0.0000 0.0000 0.0000 25.6756 0.0000 0.0000
# 5 0.0000 0.0000 0.0000 0.0000 24.3039 0.0000
# 6 0.0000 0.0000 0.0000 0.0000 0.0000 35.5648
#
#
#
# Elastic Compliance Matrix: (Units=1/GPa)
#
#
# Indices 1 2 3 4 5 6 
#
# 1 0.008891 -0.004549 -0.003693 0.000000 0.000000 0.000000
# 2 -0.004549 0.010723 -0.000233 0.000000 0.000000 0.000000
# 3 -0.003693 -0.000233 0.012945 0.000000 0.000000 0.000000
# 4 0.000000 0.000000 0.000000 0.038948 0.000000 0.000000
# 5 0.000000 0.000000 0.000000 0.000000 0.041146 0.000000
# 6 0.000000 0.000000 0.000000 0.000000 0.000000 0.028118
#
#
# Mechanical properties :
#
#
# Convention : Reuss Voigt Hill
#
# Bulk Modulus (GPa) = 64.07050 75.75887 69.91469
# Shear Modulus (GPa) = 30.68939 33.17150 31.93045
#
# Velocity S-wave (km/s) = 3.93558 4.09164 4.01437
# Velocity P-wave (km/s) = 7.27928 7.78185 7.53476
#
# Compressibility (1/GPa) = 0.01560781
#
# Stress axis : x y z
#
# Youngs Moduli (GPa) = 112.47927 93.25836 77.24920
#
# Poissons Ratio (x) = 0.42419 0.28531
# Poissons Ratio (y) = 0.51162 0.01803
# Poissons Ratio (z) = 0.41543 0.02177
#
# Static dielectric constant tensor:
#      x y z
#    x 3.660150 0.000000 0.000000 
#    y 0.000000 3.666370 0.000000 
#    z 0.000000 0.000000 3.620500 
# 
# 
# High freq. dielectric constant tensor:
#      x y z
#    x 1.773110 0.000000 0.000000 
#    y 0.000000 1.768020 0.000000 
#    z 0.000000 0.000000 1.780350 
# 
# From -- ./inp_files/5709.got.cif
#   From: 2010.03.12/outbox.cif.g09.slc.cpg/sg55_3_cif.got.tgz:5709.got - 2010.04.16 15:19:21.
