data_PCOD8226301
_publ_section_title
;
Structure prediction by ZEFSAII (Michael W. Deem and Ramdas Pophale) SiO2 
 PCOD8226301
Probable space group: P B A M
;
_chemical_formula_sum "Si O2"
_cell_formula_units_Z 52
_cell_length_a 7.667201
_cell_length_b 24.501537
_cell_length_c 13.258187
_cell_angle_alpha 90.000000
_cell_angle_beta 90.000000
_cell_angle_gamma 90.000000
_cell_volume 2490.659264
_symmetry_space_group_name_H-M "P B A M"
_symmetry_group_IT_number 55
_symmetry_cell_setting 'orthorhombic'
loop_
_space_group_symop_operation_xyz
x,y,z
-x,-y,z
1/2+x,1/2-y,-z
1/2-x,1/2+y,-z
-x,-y,-z
x,y,-z
1/2-x,1/2+y,z
1/2+x,1/2-y,z
loop_
_atom_site_type_symbol
_atom_site_label
_atom_site_fract_x
_atom_site_fract_y
_atom_site_fract_z
Si Si1 0.724329 0.164550 0.500000
Si Si2 0.784060 0.293339 0.110402
Si Si3 0.890137 0.614778 0.701711
Si Si4 0.772173 0.843990 0.689967
Si Si5 0.136472 0.043389 0.611422
Si Si6 0.405326 0.719720 0.500000
Si Si7 0.683890 0.174060 0.109996
Si Si8 0.500000 0.000000 0.661016
O O1 0.713662 0.124608 0.402826
O O2 0.583274 0.214054 0.500000
O O3 0.901350 0.197604 0.500000
O O4 0.671511 0.321087 0.199998
O O5 0.792786 0.228745 0.129054
O O6 0.979190 0.314497 0.110985
O O7 0.697555 0.305596 0.000000
O O8 0.931937 0.551372 0.725604
O O9 0.065016 0.649340 0.688803
O O10 0.774206 0.633641 0.797285
O O11 0.869313 0.901942 0.677605
O O12 0.812515 0.801445 0.601520
O O13 0.069628 0.059300 0.500000
O O14 0.333010 0.020288 0.597522
O O15 0.000000 0.000000 0.659729
O O16 0.733751 0.148798 0.000000
#
# Coordination Sequence:
#
# PCOD8226301 Si02
#       8
#     4   8   8   8   8   4   8   4
#     4  12  26  35  55  78 115 148 184 222 284 341
#     4   9  18  33  56  81 107 142 181 224 277 331
#     4  10  22  37  55  82 109 150 183 234 281 333
#     4  10  20  36  56  78 113 144 182 231 277 333
#     4  10  21  35  56  81 111 148 193 237 280 336
#     4  12  24  38  52  82 113 151 180 228 278 346
#     4   9  18  35  56  81 110 142 185 227 275 337
#     4  10  23  36  57  80 114 148 195 239 286 334
#
# _framework density 20.878005999999999
#
# number of rings (size 3 to 8) (size 9 to 14) (size 15 to 20)
#    0.000    2.000    0.769    2.538    6.462    3.692 
#    0.000    0.385    0.000    1.385    0.000    0.000 
#    0.000    0.000    0.000    0.000    0.000    0.000 
#
# Total GULP energy -644446.504518 kJ/mol
# GULP energy per Si atom -12393.202010 kJ/mol
# Density = 2.083049 g / cm^3
# Si number density = 20.878006 Si / 1000 Ang^3
#
#
#
# Elastic Constant Matrix: (Units=GPa)
#
#
# Indices 1 2 3 4 5 6 
#
# 1 26.2303 -2.8566 4.6187 0.0000 0.0000 0.0000
# 2 -2.8566 88.6902 55.1833 0.0000 0.0000 0.0000
# 3 4.6187 55.1833 165.4137 0.0000 0.0000 0.0000
# 4 0.0000 0.0000 0.0000 16.5184 0.0000 0.0000
# 5 0.0000 0.0000 0.0000 0.0000 9.3438 0.0000
# 6 0.0000 0.0000 0.0000 0.0000 0.0000 26.8167
#
#
#
# Elastic Compliance Matrix: (Units=1/GPa)
#
#
# Indices 1 2 3 4 5 6 
#
# 1 0.038720 0.002423 -0.001889 0.000000 0.000000 0.000000
# 2 0.002423 0.014380 -0.004865 0.000000 0.000000 0.000000
# 3 -0.001889 -0.004865 0.007721 0.000000 0.000000 0.000000
# 4 0.000000 0.000000 0.000000 0.060539 0.000000 0.000000
# 5 0.000000 0.000000 0.000000 0.000000 0.107023 0.000000
# 6 0.000000 0.000000 0.000000 0.000000 0.000000 0.037290
#
#
# Mechanical properties :
#
#
# Convention : Reuss Voigt Hill
#
# Bulk Modulus (GPa) = 19.17235 43.80278 31.48757
# Shear Modulus (GPa) = 17.13952 25.42835 21.28393
#
# Velocity S-wave (km/s) = 2.86831 3.49370 3.19634
# Velocity P-wave (km/s) = 4.49139 6.10741 5.36064
#
# Compressibility (1/GPa) = 0.05215843
#
# Stress axis : x y z
#
# Youngs Moduli (GPa) = 25.82621 69.53978 129.51333
#
# Poissons Ratio (x) = -0.16847 0.24470
# Poissons Ratio (y) = -0.06257 0.63008
# Poissons Ratio (z) = 0.04880 0.33831
#
# Static dielectric constant tensor:
#      x y z
#    x 3.692550 0.000000 0.000000 
#    y 0.000000 3.807480 0.000000 
#    z 0.000000 0.000000 4.178210 
# 
# 
# High freq. dielectric constant tensor:
#      x y z
#    x 1.814120 0.000000 0.000000 
#    y 0.000000 1.806760 0.000000 
#    z 0.000000 0.000000 1.807370 
# 
# From -- ./inp_files/17600.got.cif
#   From: 2010.03.12/outbox.cif.g09.slc.cpg/sg55_9_cif.got.tgz:17600.got - 2010.04.16 15:19:21.
