data_PCOD8226858
_publ_section_title
;
Structure prediction by ZEFSAII (Michael W. Deem and Ramdas Pophale) SiO2 
 PCOD8226858
Probable space group: P B A M
;
_chemical_formula_sum "Si O2"
_cell_formula_units_Z 40
_cell_length_a 18.230156
_cell_length_b 13.629032
_cell_length_c 8.899060
_cell_angle_alpha 90.000000
_cell_angle_beta 90.000000
_cell_angle_gamma 90.000000
_cell_volume 2211.054926
_symmetry_space_group_name_H-M "P B A M"
_symmetry_group_IT_number 55
_symmetry_cell_setting 'orthorhombic'
loop_
_space_group_symop_operation_xyz
x,y,z
-x,-y,z
1/2+x,1/2-y,-z
1/2-x,1/2+y,-z
-x,-y,-z
x,y,-z
1/2-x,1/2+y,z
1/2+x,1/2-y,z
loop_
_atom_site_type_symbol
_atom_site_label
_atom_site_fract_x
_atom_site_fract_y
_atom_site_fract_z
Si Si1 0.820519 0.171199 0.678675
Si Si2 0.666800 0.087668 0.320838
Si Si3 0.465641 0.395637 0.824281
Si Si4 0.624057 0.877369 0.323187
Si Si5 0.471741 0.789889 0.677597
O O1 0.826875 0.163137 0.500000
O O2 0.743874 0.128864 0.739657
O O3 0.885907 0.107949 0.748426
O O4 0.827206 0.284838 0.731137
O O5 0.666223 0.084770 0.500000
O O6 0.602340 0.159130 0.264268
O O7 0.653862 0.978774 0.251962
O O8 0.500000 0.500000 0.785856
O O9 0.520567 0.314417 0.758066
O O10 0.456417 0.377824 0.000000
O O11 0.630101 0.887676 0.500000
O O12 0.539545 0.860229 0.277006
O O13 0.471000 0.771150 0.500000
#
# Coordination Sequence:
#
# PCOD8226858 Si02
#       5
#     8   8   8   8   8
#     4   9  18  31  49  74  99 126 162 200 238 283
#     4   9  16  27  48  77 103 126 156 198 244 286
#     4  10  21  36  51  67  94 132 166 199 244 290
#     4   8  14  26  44  69 101 128 151 189 239 283
#     4   9  17  30  51  76  97 123 162 201 239 287
#
# _framework density 18.090911999999999
#
# number of rings (size 3 to 8) (size 9 to 14) (size 15 to 20)
#    0.000    3.000    0.000    2.400    0.000    5.600 
#    0.000    5.000    0.000   16.800    0.000    0.000 
#    0.000    0.000    0.000    0.000    0.000    0.000 
#
# Total GULP energy -495888.264619 kJ/mol
# GULP energy per Si atom -12397.206615 kJ/mol
# Density = 1.804974 g / cm^3
# Si number density = 18.090912 Si / 1000 Ang^3
#
#
#
# Elastic Constant Matrix: (Units=GPa)
#
#
# Indices 1 2 3 4 5 6 
#
# 1 163.9778 112.0980 33.3227 0.0000 0.0000 0.0000
# 2 112.0980 156.6819 36.2819 0.0000 0.0000 0.0000
# 3 33.3227 36.2819 27.2398 0.0000 0.0000 0.0000
# 4 0.0000 0.0000 0.0000 13.7771 0.0000 0.0000
# 5 0.0000 0.0000 0.0000 0.0000 7.4230 0.0000
# 6 0.0000 0.0000 0.0000 0.0000 0.0000 28.4491
#
#
#
# Elastic Compliance Matrix: (Units=1/GPa)
#
#
# Indices 1 2 3 4 5 6 
#
# 1 0.012361 -0.007725 -0.004833 0.000000 0.000000 0.000000
# 2 -0.007725 0.014056 -0.009272 0.000000 0.000000 0.000000
# 3 -0.004833 -0.009272 0.054973 0.000000 0.000000 0.000000
# 4 0.000000 0.000000 0.000000 0.072584 0.000000 0.000000
# 5 0.000000 0.000000 0.000000 0.000000 0.134717 0.000000
# 6 0.000000 0.000000 0.000000 0.000000 0.000000 0.035150
#
#
# Mechanical properties :
#
#
# Convention : Reuss Voigt Hill
#
# Bulk Modulus (GPa) = 26.50335 79.03387 52.76861
# Shear Modulus (GPa) = 13.15518 21.00962 17.08240
#
# Velocity S-wave (km/s) = 2.69954 3.41153 3.07620
# Velocity P-wave (km/s) = 4.93949 7.70065 6.46910
#
# Compressibility (1/GPa) = 0.03773108
#
# Stress axis : x y z
#
# Youngs Moduli (GPa) = 80.89800 71.14302 18.19072
#
# Poissons Ratio (x) = 0.54956 0.08791
# Poissons Ratio (y) = 0.62492 0.16867
# Poissons Ratio (z) = 0.39095 0.65966
#
# Static dielectric constant tensor:
#      x y z
#    x 3.649180 0.000000 0.000000 
#    y 0.000000 3.627810 0.000000 
#    z 0.000000 0.000000 2.886530 
# 
# 
# High freq. dielectric constant tensor:
#      x y z
#    x 1.703410 0.000000 0.000000 
#    y 0.000000 1.711550 0.000000 
#    z 0.000000 0.000000 1.652660 
# 
# From -- ./inp_files/3632.got.cif
#   From: 2010.03.12/outbox.cif.g09.slc.cpg/sg55_2_cif.got.tgz:3632.got - 2010.04.16 15:19:21.
