data_PCOD8226019
_publ_section_title
;
Structure prediction by ZEFSAII (Michael W. Deem and Ramdas Pophale) SiO2 
 PCOD8226019
Probable space group: P B A M
;
_chemical_formula_sum "Si O2"
_cell_formula_units_Z 64
_cell_length_a 18.676684
_cell_length_b 21.533915
_cell_length_c 8.895164
_cell_angle_alpha 90.000000
_cell_angle_beta 90.000000
_cell_angle_gamma 90.000000
_cell_volume 3577.475966
_symmetry_space_group_name_H-M "P B A M"
_symmetry_group_IT_number 55
_symmetry_cell_setting 'orthorhombic'
loop_
_space_group_symop_operation_xyz
x,y,z
-x,-y,z
1/2+x,1/2-y,-z
1/2-x,1/2+y,-z
-x,-y,-z
x,y,-z
1/2-x,1/2+y,z
1/2+x,1/2-y,z
loop_
_atom_site_type_symbol
_atom_site_label
_atom_site_fract_x
_atom_site_fract_y
_atom_site_fract_z
Si Si1 0.572410 0.860209 0.327877
Si Si2 0.970121 0.807892 0.175634
Si Si3 0.525018 0.565321 0.822155
Si Si4 0.917963 0.485480 0.174822
Si Si5 0.420713 0.805713 0.675200
Si Si6 0.818161 0.585337 0.677011
Si Si7 0.884660 0.228752 0.326641
Si Si8 0.676365 0.619190 0.821877
O O1 0.567655 0.883803 0.500000
O O2 0.599911 0.915006 0.221227
O O3 0.494012 0.838539 0.270958
O O4 0.628979 0.802942 0.314635
O O5 0.911140 0.762995 0.252000
O O6 0.966832 0.881051 0.222009
O O7 0.047826 0.785275 0.223442
O O8 0.960654 0.800039 0.000000
O O9 0.500000 0.500000 0.748872
O O10 0.604730 0.583391 0.766586
O O11 0.528283 0.558754 0.000000
O O12 0.868806 0.529654 0.273690
O O13 0.000000 0.500000 0.213747
O O14 0.900928 0.495406 0.000000
O O15 0.425232 0.794102 0.500000
O O16 0.354519 0.849039 0.721052
O O17 0.804614 0.580646 0.500000
O O18 0.743807 0.579546 0.765818
O O19 0.899274 0.210592 0.500000
O O20 0.820239 0.187184 0.259001
O O21 0.678774 0.627798 0.000000
#
# Coordination Sequence:
#
# PCOD8226019 Si02
#       8
#     8   8   8   8   8   8   8   8
#     4   9  17  31  51  74 100 133 174 214 254 308
#     4   9  16  26  47  77 102 125 159 209 257 298
#     4   8  15  30  53  79 105 134 167 207 262 321
#     4  11  22  33  49  78 110 140 178 226 270 310
#     4   9  18  31  48  71  99 134 171 210 257 309
#     4  11  22  36  54  72 101 146 184 217 267 327
#     4   9  17  31  51  74 100 131 166 205 254 311
#     4  10  20  34  54  80 105 132 174 225 271 318
#
# _framework density 17.889707999999999
#
# number of rings (size 3 to 8) (size 9 to 14) (size 15 to 20)
#    0.000    2.500    1.250    3.375    0.000    4.000 
#    0.000    0.000    2.750   13.500    0.000    0.000 
#    0.000    0.000    0.000    0.000    0.000    0.000 
#
# Total GULP energy -793204.433035 kJ/mol
# GULP energy per Si atom -12393.819266 kJ/mol
# Density = 1.784899 g / cm^3
# Si number density = 17.889708 Si / 1000 Ang^3
#
#
#
# Elastic Constant Matrix: (Units=GPa)
#
#
# Indices 1 2 3 4 5 6 
#
# 1 65.0511 42.1565 24.6043 0.0000 0.0000 0.0000
# 2 42.1565 136.5362 46.8014 0.0000 0.0000 0.0000
# 3 24.6043 46.8014 38.7430 0.0000 0.0000 0.0000
# 4 0.0000 0.0000 0.0000 29.6606 0.0000 0.0000
# 5 0.0000 0.0000 0.0000 0.0000 21.0868 0.0000
# 6 0.0000 0.0000 0.0000 0.0000 0.0000 20.5597
#
#
#
# Elastic Compliance Matrix: (Units=1/GPa)
#
#
# Indices 1 2 3 4 5 6 
#
# 1 0.021056 -0.003273 -0.009418 0.000000 0.000000 0.000000
# 2 -0.003273 0.013009 -0.013636 0.000000 0.000000 0.000000
# 3 -0.009418 -0.013636 0.048265 0.000000 0.000000 0.000000
# 4 0.000000 0.000000 0.000000 0.033715 0.000000 0.000000
# 5 0.000000 0.000000 0.000000 0.000000 0.047423 0.000000
# 6 0.000000 0.000000 0.000000 0.000000 0.000000 0.048639
#
#
# Mechanical properties :
#
#
# Convention : Reuss Voigt Hill
#
# Bulk Modulus (GPa) = 33.69853 51.93940 42.81897
# Shear Modulus (GPa) = 18.20491 22.71262 20.45876
#
# Velocity S-wave (km/s) = 3.19347 3.56700 3.38539
# Velocity P-wave (km/s) = 5.69872 6.78681 6.26643
#
# Compressibility (1/GPa) = 0.02967488
#
# Stress axis : x y z
#
# Youngs Moduli (GPa) = 47.49300 76.87203 20.71916
#
# Poissons Ratio (x) = 0.25158 0.19514
# Poissons Ratio (y) = 0.15543 0.28253
# Poissons Ratio (z) = 0.44730 1.04822
#
# Static dielectric constant tensor:
#      x y z
#    x 3.145410 0.000000 0.000000 
#    y 0.000000 3.768450 0.000000 
#    z 0.000000 0.000000 3.260090 
# 
# 
# High freq. dielectric constant tensor:
#      x y z
#    x 1.649600 0.000000 0.000000 
#    y 0.000000 1.700720 0.000000 
#    z 0.000000 0.000000 1.691120 
# 
# From -- ./inp_files/9178.got.cif
#   From: 2010.03.12/outbox.cif.g09.slc.cpg/sg55_5_cif.got.tgz:9178.got - 2010.04.16 15:19:21.
