data_PCOD8226227
_publ_section_title
;
Structure prediction by ZEFSAII (Michael W. Deem and Ramdas Pophale) SiO2 
 PCOD8226227
Probable space group: P B A M
;
_chemical_formula_sum "Si O2"
_cell_formula_units_Z 56
_cell_length_a 9.331293
_cell_length_b 22.606064
_cell_length_c 13.104571
_cell_angle_alpha 90.000000
_cell_angle_beta 90.000000
_cell_angle_gamma 90.000000
_cell_volume 2764.328093
_symmetry_space_group_name_H-M "P B A M"
_symmetry_group_IT_number 55
_symmetry_cell_setting 'orthorhombic'
loop_
_space_group_symop_operation_xyz
x,y,z
-x,-y,z
1/2+x,1/2-y,-z
1/2-x,1/2+y,-z
-x,-y,-z
x,y,-z
1/2-x,1/2+y,z
1/2+x,1/2-y,z
loop_
_atom_site_type_symbol
_atom_site_label
_atom_site_fract_x
_atom_site_fract_y
_atom_site_fract_z
Si Si1 0.574814 0.443369 0.195050
Si Si2 0.409194 0.138585 0.612154
Si Si3 0.342600 0.020088 0.291388
Si Si4 0.042685 0.187277 0.117706
Si Si5 0.383847 0.433694 0.616182
Si Si6 0.217802 0.321536 0.389393
Si Si7 0.694318 0.766142 0.772028
O O1 0.500000 0.500000 0.138893
O O2 0.746962 0.453928 0.196671
O O3 0.528116 0.382562 0.141850
O O4 0.523686 0.444583 0.314244
O O5 0.355479 0.160499 0.500000
O O6 0.357617 0.071742 0.625810
O O7 0.579927 0.136917 0.615472
O O8 0.357955 0.179724 0.703899
O O9 0.500000 0.000000 0.251173
O O10 0.257716 0.966029 0.341618
O O11 0.204381 0.208569 0.139223
O O12 0.933011 0.227126 0.181750
O O13 0.007241 0.197048 0.000000
O O14 0.417708 0.452824 0.500000
O O15 0.355392 0.363536 0.622959
O O16 0.226072 0.289271 0.500000
O O17 0.208371 0.273784 0.300902
#
# Coordination Sequence:
#
# PCOD8226227 Si02
#       7
#     8   8   8   8   8   8   8
#     4  10  23  42  63  89 122 162 203 259 312 368
#     4  11  22  35  58  93 131 169 201 240 300 369
#     4  11  21  35  58  89 126 166 203 243 292 358
#     4  12  26  45  69  92 117 158 212 270 322 369
#     4  10  20  35  57  87 124 163 206 247 295 361
#     4  10  20  35  59  91 128 164 200 246 302 368
#     4  12  23  44  63  92 124 160 202 260 309 376
#
# _framework density 20.258088000000001
#
# number of rings (size 3 to 8) (size 9 to 14) (size 15 to 20)
#    0.000    1.143    5.714    1.286    0.000    4.000 
#    0.000    0.000    0.000    0.429    0.000    0.000 
#    0.000    0.000    0.000    0.000    0.000    0.000 
#
# Total GULP energy -694085.538860 kJ/mol
# GULP energy per Si atom -12394.384622 kJ/mol
# Density = 2.021198 g / cm^3
# Si number density = 20.258088 Si / 1000 Ang^3
#
#
#
# Elastic Constant Matrix: (Units=GPa)
#
#
# Indices 1 2 3 4 5 6 
#
# 1 99.7865 30.9973 25.3075 0.0000 0.0000 0.0000
# 2 30.9973 96.7023 29.1139 0.0000 0.0000 0.0000
# 3 25.3075 29.1139 86.3216 0.0000 0.0000 0.0000
# 4 0.0000 0.0000 0.0000 -769.9128 0.0000 0.0000
# 5 0.0000 0.0000 0.0000 0.0000 18.6903 0.0000
# 6 0.0000 0.0000 0.0000 0.0000 0.0000 35.9309
#
#
#
# Elastic Compliance Matrix: (Units=1/GPa)
#
#
# Indices 1 2 3 4 5 6 
#
# 1 0.011553 -0.002987 -0.002380 0.000000 0.000000 0.000000
# 2 -0.002987 0.012282 -0.003267 0.000000 0.000000 0.000000
# 3 -0.002380 -0.003267 0.013384 0.000000 0.000000 0.000000
# 4 0.000000 0.000000 0.000000 -0.001299 0.000000 0.000000
# 5 0.000000 0.000000 0.000000 0.000000 0.053504 0.000000
# 6 0.000000 0.000000 0.000000 0.000000 0.000000 0.027831
#
#
# Mechanical properties :
#
#
# Convention : Reuss Voigt Hill
#
# Bulk Modulus (GPa) = 50.11911 50.40530 50.26220
# Shear Modulus (GPa) = 35.41793 -129.89886 -47.24047
#
# Velocity S-wave (km/s) = 4.18585 -8.01631 -4.83425
# Velocity P-wave (km/s) = 6.93943 7.79397 2.50901
#
# Compressibility (1/GPa) = 0.01995247
#
# Stress axis : x y z
#
# Youngs Moduli (GPa) = 86.55994 81.42069 74.71599
#
# Poissons Ratio (x) = 0.24318 0.17780
# Poissons Ratio (y) = 0.25853 0.24408
# Poissons Ratio (z) = 0.20598 0.26598
#
# Static dielectric constant tensor:
#      x y z
#    x 3.708100 0.000000 0.000000 
#    y 0.000000 3.761060 0.000000 
#    z 0.000000 0.000000 3.370270 
# 
# 
# High freq. dielectric constant tensor:
#      x y z
#    x 1.794770 0.000000 0.000000 
#    y 0.000000 1.808920 0.000000 
#    z 0.000000 0.000000 1.757340 
# 
# From -- ./inp_files/17675.got.cif
#   From: 2010.03.12/outbox.cif.g09.slc.cpg/sg55_9_cif.got.tgz:17675.got - 2010.04.16 15:19:21.
