data_PCOD8226387
_publ_section_title
;
Structure prediction by ZEFSAII (Michael W. Deem and Ramdas Pophale) SiO2 
 PCOD8226387
Probable space group: P B A M
;
_chemical_formula_sum "Si O2"
_cell_formula_units_Z 48
_cell_length_a 15.064893
_cell_length_b 18.903695
_cell_length_c 8.686180
_cell_angle_alpha 90.000000
_cell_angle_beta 90.000000
_cell_angle_gamma 90.000000
_cell_volume 2473.668950
_symmetry_space_group_name_H-M "P B A M"
_symmetry_group_IT_number 55
_symmetry_cell_setting 'orthorhombic'
loop_
_space_group_symop_operation_xyz
x,y,z
-x,-y,z
1/2+x,1/2-y,-z
1/2-x,1/2+y,-z
-x,-y,-z
x,y,-z
1/2-x,1/2+y,z
1/2+x,1/2-y,z
loop_
_atom_site_type_symbol
_atom_site_label
_atom_site_fract_x
_atom_site_fract_y
_atom_site_fract_z
Si Si1 0.500672 0.078298 0.319224
Si Si2 0.648239 0.330090 0.177730
Si Si3 0.003268 0.917789 0.678897
Si Si4 0.158555 0.829402 0.819830
Si Si5 0.156245 0.321722 0.681861
Si Si6 0.647241 0.831024 0.824197
O O1 0.509239 0.071448 0.500000
O O2 0.585394 0.121206 0.256671
O O3 0.409644 0.117974 0.281997
O O4 0.500000 0.000000 0.244126
O O5 0.590865 0.384106 0.277757
O O6 0.631864 0.250634 0.233176
O O7 0.750353 0.351315 0.201100
O O8 0.619531 0.335132 0.000000
O O9 0.023109 0.904942 0.500000
O O10 0.080882 0.882976 0.778419
O O11 0.000000 0.000000 0.720468
O O12 0.246806 0.850495 0.726892
O O13 0.129607 0.749978 0.774001
O O14 0.180920 0.832926 0.000000
O O15 0.150447 0.309428 0.500000
O O16 0.618581 0.842421 0.000000
#
# Coordination Sequence:
#
# PCOD8226387 Si02
#       6
#     8   8   8   8   8   8
#     4  10  22  37  53  78 112 147 181 221 270 322
#     4  10  21  38  59  84 113 144 185 234 281 332
#     4  11  24  39  56  82 115 150 188 231 283 343
#     4  10  21  38  60  84 111 144 185 234 283 333
#     4  10  20  36  59  84 111 146 188 232 278 330
#     4   9  20  37  57  82 108 139 181 227 273 324
#
# _framework density 19.404374000000001
#
# number of rings (size 3 to 8) (size 9 to 14) (size 15 to 20)
#    0.000    2.000    0.000    4.000    0.000   11.000 
#    0.000    5.000    0.000    0.000    0.000    0.000 
#    0.000    0.000    0.000    0.000    0.000    0.000 
#
# Total GULP energy -595411.209734 kJ/mol
# GULP energy per Si atom -12404.400203 kJ/mol
# Density = 1.936021 g / cm^3
# Si number density = 19.404374 Si / 1000 Ang^3
#
#
#
# Elastic Constant Matrix: (Units=GPa)
#
#
# Indices 1 2 3 4 5 6 
#
# 1 106.5567 69.3483 17.0909 0.0000 0.0000 0.0000
# 2 69.3483 118.7636 20.5278 0.0000 0.0000 0.0000
# 3 17.0909 20.5278 26.8993 0.0000 0.0000 0.0000
# 4 0.0000 0.0000 0.0000 18.4329 0.0000 0.0000
# 5 0.0000 0.0000 0.0000 0.0000 25.9004 0.0000
# 6 0.0000 0.0000 0.0000 0.0000 0.0000 9.1655
#
#
#
# Elastic Compliance Matrix: (Units=1/GPa)
#
#
# Indices 1 2 3 4 5 6 
#
# 1 0.015397 -0.008409 -0.003366 0.000000 0.000000 0.000000
# 2 -0.008409 0.014292 -0.005564 0.000000 0.000000 0.000000
# 3 -0.003366 -0.005564 0.043560 0.000000 0.000000 0.000000
# 4 0.000000 0.000000 0.000000 0.054251 0.000000 0.000000
# 5 0.000000 0.000000 0.000000 0.000000 0.038610 0.000000
# 6 0.000000 0.000000 0.000000 0.000000 0.000000 0.109104
#
#
# Mechanical properties :
#
#
# Convention : Reuss Voigt Hill
#
# Bulk Modulus (GPa) = 25.92541 51.79483 38.86012
# Shear Modulus (GPa) = 15.49195 20.38327 17.93761
#
# Velocity S-wave (km/s) = 2.82862 3.24458 3.04371
# Velocity P-wave (km/s) = 4.90486 6.38644 5.69405
#
# Compressibility (1/GPa) = 0.03857220
#
# Stress axis : x y z
#
# Youngs Moduli (GPa) = 64.94724 69.96964 22.95675
#
# Poissons Ratio (x) = 0.58837 0.07726
# Poissons Ratio (y) = 0.54614 0.12773
# Poissons Ratio (z) = 0.21859 0.38931
#
# Static dielectric constant tensor:
#      x y z
#    x 3.626040 0.000000 0.000000 
#    y 0.000000 3.635910 0.000000 
#    z 0.000000 0.000000 3.496680 
# 
# 
# High freq. dielectric constant tensor:
#      x y z
#    x 1.765730 0.000000 0.000000 
#    y 0.000000 1.752420 0.000000 
#    z 0.000000 0.000000 1.757850 
# 
# From -- ./inp_files/5592.got.cif
#   From: 2010.03.12/outbox.cif.g09.slc.cpg/sg55_3_cif.got.tgz:5592.got - 2010.04.16 15:19:21.
