data_PCOD8226934
_publ_section_title
;
Structure prediction by ZEFSAII (Michael W. Deem and Ramdas Pophale) SiO2 
 PCOD8226934
Probable space group: P B A M
;
_chemical_formula_sum "Si O2"
_cell_formula_units_Z 64
_cell_length_a 10.967202
_cell_length_b 32.272846
_cell_length_c 9.025865
_cell_angle_alpha 90.000000
_cell_angle_beta 90.000000
_cell_angle_gamma 90.000000
_cell_volume 3194.640122
_symmetry_space_group_name_H-M "P B A M"
_symmetry_group_IT_number 55
_symmetry_cell_setting 'orthorhombic'
loop_
_space_group_symop_operation_xyz
x,y,z
-x,-y,z
1/2+x,1/2-y,-z
1/2-x,1/2+y,-z
-x,-y,-z
x,y,-z
1/2-x,1/2+y,z
1/2+x,1/2-y,z
loop_
_atom_site_type_symbol
_atom_site_label
_atom_site_fract_x
_atom_site_fract_y
_atom_site_fract_z
Si Si1 0.383743 0.974083 0.325280
Si Si2 0.505420 0.671255 0.666419
Si Si3 0.716994 0.266502 0.663691
Si Si4 0.112028 0.380557 0.671930
Si Si5 0.739891 0.687632 0.826327
Si Si6 0.849377 0.344966 0.670954
Si Si7 0.633000 0.480228 0.672058
Si Si8 0.643329 0.394020 0.825294
O O1 0.399206 0.973568 0.500000
O O2 0.394143 0.927177 0.264103
O O3 0.500000 0.000000 0.259081
O O4 0.248911 0.991020 0.282848
O O5 0.552286 0.661987 0.500000
O O6 0.394008 0.702219 0.663695
O O7 0.604839 0.694305 0.765100
O O8 0.469061 0.628066 0.742799
O O9 0.736351 0.247048 0.500000
O O10 0.689356 0.229174 0.776183
O O11 0.832630 0.295840 0.706690
O O12 0.147767 0.381240 0.500000
O O13 0.213389 0.355337 0.759695
O O14 0.987629 0.356407 0.700800
O O15 0.744436 0.684175 0.000000
O O16 0.811001 0.353946 0.500000
O O17 0.770362 0.373426 0.778790
O O18 0.500000 0.500000 0.701763
O O19 0.644557 0.467244 0.500000
O O20 0.644072 0.441406 0.778580
O O21 0.625340 0.389899 0.000000
#
# Coordination Sequence:
#
# PCOD8226934 Si02
#       8
#     8   8   8   8   8   8   8   8
#     4   9  18  35  61  91 119 150 200 260 307 354
#     4  10  22  42  66  86 113 156 208 254 292 352
#     4   9  20  39  62  87 112 152 205 253 294 349
#     4  10  21  38  63  91 120 158 205 253 299 356
#     4  12  26  39  56  88 128 163 194 245 311 367
#     4   9  19  38  64  90 115 154 206 251 291 351
#     4  10  21  36  58  87 117 158 209 253 300 365
#     4  11  22  37  60  90 123 156 192 243 314 371
#
# _framework density 20.033556999999998
#
# number of rings (size 3 to 8) (size 9 to 14) (size 15 to 20)
#    0.000    2.000    0.000    4.125    3.500    5.250 
#    0.000    0.625    0.000    1.500    0.000    0.000 
#    0.000    0.000    0.000    0.000    0.000    0.000 
#
# Total GULP energy -793487.204814 kJ/mol
# GULP energy per Si atom -12398.237575 kJ/mol
# Density = 1.998796 g / cm^3
# Si number density = 20.033557 Si / 1000 Ang^3
#
#
#
# Elastic Constant Matrix: (Units=GPa)
#
#
# Indices 1 2 3 4 5 6 
#
# 1 88.0287 39.4372 26.2528 0.0000 0.0000 0.0000
# 2 39.4372 132.9531 50.3696 0.0000 0.0000 0.0000
# 3 26.2528 50.3696 91.6839 0.0000 0.0000 0.0000
# 4 0.0000 0.0000 0.0000 14.3343 0.0000 0.0000
# 5 0.0000 0.0000 0.0000 0.0000 19.8400 0.0000
# 6 0.0000 0.0000 0.0000 0.0000 0.0000 21.9196
#
#
#
# Elastic Compliance Matrix: (Units=1/GPa)
#
#
# Indices 1 2 3 4 5 6 
#
# 1 0.013411 -0.003186 -0.002089 0.000000 0.000000 0.000000
# 2 -0.003186 0.010255 -0.004722 0.000000 0.000000 0.000000
# 3 -0.002089 -0.004722 0.014099 0.000000 0.000000 0.000000
# 4 0.000000 0.000000 0.000000 0.069763 0.000000 0.000000
# 5 0.000000 0.000000 0.000000 0.000000 0.050403 0.000000
# 6 0.000000 0.000000 0.000000 0.000000 0.000000 0.045621
#
#
# Mechanical properties :
#
#
# Convention : Reuss Voigt Hill
#
# Bulk Modulus (GPa) = 56.27382 60.53165 58.40274
# Shear Modulus (GPa) = 21.78919 24.32583 23.05751
#
# Velocity S-wave (km/s) = 3.30151 3.48840 3.39624
# Velocity P-wave (km/s) = 6.53330 6.81953 6.67795
#
# Compressibility (1/GPa) = 0.01777025
#
# Stress axis : x y z
#
# Youngs Moduli (GPa) = 74.56814 97.50907 70.92485
#
# Poissons Ratio (x) = 0.31069 0.14820
# Poissons Ratio (y) = 0.23760 0.33489
# Poissons Ratio (z) = 0.15581 0.46042
#
# Static dielectric constant tensor:
#      x y z
#    x 3.830110 0.000000 0.000000 
#    y 0.000000 3.882840 0.000000 
#    z 0.000000 0.000000 3.434420 
# 
# 
# High freq. dielectric constant tensor:
#      x y z
#    x 1.787810 0.000000 0.000000 
#    y 0.000000 1.791060 0.000000 
#    z 0.000000 0.000000 1.755000 
# 
# From -- ./inp_files/4505.got.cif
#   From: 2010.03.12/outbox.cif.g09.slc.cpg/sg55_3_cif.got.tgz:4505.got - 2010.04.16 15:19:21.
