data_PCOD8226297
_publ_section_title
;
Structure prediction by ZEFSAII (Michael W. Deem and Ramdas Pophale) SiO2 
 PCOD8226297
Probable space group: P B A M
;
_chemical_formula_sum "Si O2"
_cell_formula_units_Z 56
_cell_length_a 8.862098
_cell_length_b 18.616789
_cell_length_c 17.939968
_cell_angle_alpha 90.000000
_cell_angle_beta 90.000000
_cell_angle_gamma 90.000000
_cell_volume 2959.804246
_symmetry_space_group_name_H-M "P B A M"
_symmetry_group_IT_number 55
_symmetry_cell_setting 'orthorhombic'
loop_
_space_group_symop_operation_xyz
x,y,z
-x,-y,z
1/2+x,1/2-y,-z
1/2-x,1/2+y,-z
-x,-y,-z
x,y,-z
1/2-x,1/2+y,z
1/2+x,1/2-y,z
loop_
_atom_site_type_symbol
_atom_site_label
_atom_site_fract_x
_atom_site_fract_y
_atom_site_fract_z
Si Si1 0.727315 0.852008 0.917223
Si Si2 0.038273 0.779056 0.915102
Si Si3 0.409788 0.927683 0.587055
Si Si4 0.644243 0.545074 0.310929
Si Si5 0.645615 0.956527 0.202972
Si Si6 0.667619 0.687733 0.762064
Si Si7 0.003306 0.672158 0.711050
O O1 0.572333 0.806467 0.905811
O O2 0.734072 0.922683 0.866892
O O3 0.862726 0.795692 0.900492
O O4 0.741269 0.882492 0.000000
O O5 0.132917 0.818137 0.850276
O O6 0.086415 0.802747 0.000000
O O7 0.412630 0.911972 0.500000
O O8 0.239839 0.941594 0.614429
O O9 0.474871 0.855430 0.626388
O O10 0.500000 0.000000 0.608503
O O11 0.500000 0.500000 0.334939
O O12 0.742846 0.508266 0.246783
O O13 0.587915 0.620451 0.277628
O O14 0.597294 0.891742 0.254369
O O15 0.500000 0.000000 0.174511
O O16 0.603726 0.756928 0.718359
O O17 0.847316 0.685723 0.753693
#
# Coordination Sequence:
#
# PCOD8226297 Si02
#       7
#     8   8   8   8   8   8   8
#     4  10  22  35  55  83 117 157 198 253 306 359
#     4  10  20  36  55  85 118 154 202 250 300 351
#     4  10  20  40  65  89 122 161 192 231 302 366
#     4  11  23  38  62  93 122 156 202 248 298 354
#     4  12  21  40  59  81 122 154 198 250 299 364
#     4  11  22  36  60  89 114 160 201 250 295 352
#     4  11  22  38  60  91 117 150 204 244 298 353
#
# _framework density 18.920169999999999
#
# number of rings (size 3 to 8) (size 9 to 14) (size 15 to 20)
#    0.000    1.286    5.714    1.714    2.000    0.571 
#    0.000    3.571    0.000    2.571    0.000    0.000 
#    0.000    0.000    0.000    0.000    0.000    0.000 
#
# Total GULP energy -694185.102574 kJ/mol
# GULP energy per Si atom -12396.162546 kJ/mol
# Density = 1.887711 g / cm^3
# Si number density = 18.920170 Si / 1000 Ang^3
#
#
#
# Elastic Constant Matrix: (Units=GPa)
#
#
# Indices 1 2 3 4 5 6 
#
# 1 64.7395 31.1520 38.0816 0.0000 0.0000 0.0000
# 2 31.1520 105.3134 49.6840 0.0000 0.0000 0.0000
# 3 38.0816 49.6840 110.8823 0.0000 0.0000 0.0000
# 4 0.0000 0.0000 0.0000 57.1905 0.0000 0.0000
# 5 0.0000 0.0000 0.0000 0.0000 20.3264 0.0000
# 6 0.0000 0.0000 0.0000 0.0000 0.0000 16.6219
#
#
#
# Elastic Compliance Matrix: (Units=1/GPa)
#
#
# Indices 1 2 3 4 5 6 
#
# 1 0.020296 -0.003443 -0.005428 0.000000 0.000000 0.000000
# 2 -0.003443 0.012625 -0.004474 0.000000 0.000000 0.000000
# 3 -0.005428 -0.004474 0.012888 0.000000 0.000000 0.000000
# 4 0.000000 0.000000 0.000000 0.017485 0.000000 0.000000
# 5 0.000000 0.000000 0.000000 0.000000 0.049197 0.000000
# 6 0.000000 0.000000 0.000000 0.000000 0.000000 0.060162
#
#
# Mechanical properties :
#
#
# Convention : Reuss Voigt Hill
#
# Bulk Modulus (GPa) = 52.30656 57.64117 54.97386
# Shear Modulus (GPa) = 24.30536 29.62891 26.96714
#
# Velocity S-wave (km/s) = 3.58806 3.96156 3.77943
# Velocity P-wave (km/s) = 6.69862 7.17334 6.94004
#
# Compressibility (1/GPa) = 0.01911806
#
# Stress axis : x y z
#
# Youngs Moduli (GPa) = 49.27080 79.20892 77.59387
#
# Poissons Ratio (x) = 0.27271 0.42116
# Poissons Ratio (y) = 0.16964 0.34719
# Poissons Ratio (z) = 0.26743 0.35442
#
# Static dielectric constant tensor:
#      x y z
#    x 3.525280 0.000000 0.000000 
#    y 0.000000 3.547300 0.000000 
#    z 0.000000 0.000000 3.647480 
# 
# 
# High freq. dielectric constant tensor:
#      x y z
#    x 1.736000 0.000000 0.000000 
#    y 0.000000 1.733220 0.000000 
#    z 0.000000 0.000000 1.731100 
# 
# From -- ./inp_files/21038.got.cif
#   From: 2010.03.12/outbox.cif.g09.slc.cpg/sg55_11_cif.got.tgz:21038.got - 2010.04.16 15:19:21.
