data_PCOD8226249
_publ_section_title
;
Structure prediction by ZEFSAII (Michael W. Deem and Ramdas Pophale) SiO2 
 PCOD8226249
Probable space group: P B A M
;
_chemical_formula_sum "Si O2"
_cell_formula_units_Z 48
_cell_length_a 23.410558
_cell_length_b 11.945032
_cell_length_c 8.951685
_cell_angle_alpha 90.000000
_cell_angle_beta 90.000000
_cell_angle_gamma 90.000000
_cell_volume 2503.247980
_symmetry_space_group_name_H-M "P B A M"
_symmetry_group_IT_number 55
_symmetry_cell_setting 'orthorhombic'
loop_
_space_group_symop_operation_xyz
x,y,z
-x,-y,z
1/2+x,1/2-y,-z
1/2-x,1/2+y,-z
-x,-y,-z
x,y,-z
1/2-x,1/2+y,z
1/2+x,1/2-y,z
loop_
_atom_site_type_symbol
_atom_site_label
_atom_site_fract_x
_atom_site_fract_y
_atom_site_fract_z
Si Si1 0.629348 0.992560 0.175923
Si Si2 0.080010 0.269598 0.823667
Si Si3 0.844227 0.911990 0.326871
Si Si4 0.216670 0.656054 0.326670
Si Si5 0.046151 0.696539 0.826377
Si Si6 0.149510 0.850024 0.174776
O O1 0.686912 0.955018 0.259490
O O2 0.576910 0.915474 0.235490
O O3 0.616935 0.120728 0.214771
O O4 0.638224 0.972551 0.000000
O O5 0.106487 0.163665 0.742394
O O6 0.016322 0.285530 0.755471
O O7 0.079087 0.246191 0.000000
O O8 0.857001 0.930694 0.500000
O O9 0.783932 0.852439 0.300128
O O10 0.844503 0.030415 0.247511
O O11 0.200885 0.665032 0.500000
O O12 0.196357 0.767328 0.243452
O O13 0.085853 0.803753 0.793524
O O14 0.035899 0.677771 0.000000
O O15 0.161933 0.858757 0.000000
#
# Coordination Sequence:
#
# PCOD8226249 Si02
#       6
#     8   8   8   8   8   8
#     4   9  18  34  59  89 114 145 188 235 280 330
#     4  10  20  35  58  87 116 148 189 235 279 328
#     4  11  25  40  54  79 117 157 189 227 284 339
#     4  10  22  39  58  79 112 153 186 227 285 341
#     4   8  16  34  59  86 115 145 181 232 289 332
#     4  10  21  39  63  85 108 143 191 238 278 332
#
# _framework density 19.175087999999999
#
# number of rings (size 3 to 8) (size 9 to 14) (size 15 to 20)
#    0.000    2.333    0.000    3.000    2.333    6.000 
#    0.000    7.500    0.000    5.000    0.000    0.000 
#    0.000    0.000    0.000    0.000    0.000    0.000 
#
# Total GULP energy -595259.967058 kJ/mol
# GULP energy per Si atom -12401.249314 kJ/mol
# Density = 1.913144 g / cm^3
# Si number density = 19.175088 Si / 1000 Ang^3
#
#
#
# Elastic Constant Matrix: (Units=GPa)
#
#
# Indices 1 2 3 4 5 6 
#
# 1 55.3953 12.7938 31.1464 0.0000 0.0000 0.0000
# 2 12.7938 108.4143 49.5097 0.0000 0.0000 0.0000
# 3 31.1464 49.5097 79.1226 0.0000 0.0000 0.0000
# 4 0.0000 0.0000 0.0000 22.3617 0.0000 0.0000
# 5 0.0000 0.0000 0.0000 0.0000 -3.6593 0.0000
# 6 0.0000 0.0000 0.0000 0.0000 0.0000 16.9741
#
#
#
# Elastic Compliance Matrix: (Units=1/GPa)
#
#
# Indices 1 2 3 4 5 6 
#
# 1 0.023499 0.002032 -0.010522 0.000000 0.000000 0.000000
# 2 0.002032 0.013090 -0.008991 0.000000 0.000000 0.000000
# 3 -0.010522 -0.008991 0.022406 0.000000 0.000000 0.000000
# 4 0.000000 0.000000 0.000000 0.044719 0.000000 0.000000
# 5 0.000000 0.000000 0.000000 0.000000 -0.273277 0.000000
# 6 0.000000 0.000000 0.000000 0.000000 0.000000 0.058913
#
#
# Mechanical properties :
#
#
# Convention : Reuss Voigt Hill
#
# Bulk Modulus (GPa) = 41.60775 47.75911 44.68343
# Shear Modulus (GPa) = -73.87917 17.10079 -28.38919
#
# Velocity S-wave (km/s) = -6.21389 2.98958 -3.85193
# Velocity P-wave (km/s) = 5.45318 6.07270 1.88951
#
# Compressibility (1/GPa) = 0.02403398
#
# Stress axis : x y z
#
# Youngs Moduli (GPa) = 42.55562 76.39508 44.63056
#
# Poissons Ratio (x) = -0.15523 0.46959
# Poissons Ratio (y) = -0.08647 0.40126
# Poissons Ratio (z) = 0.44775 0.68684
#
# Static dielectric constant tensor:
#      x y z
#    x 3.728690 0.000000 0.000000 
#    y 0.000000 3.526720 0.000000 
#    z 0.000000 0.000000 3.391110 
# 
# 
# High freq. dielectric constant tensor:
#      x y z
#    x 1.752380 0.000000 0.000000 
#    y 0.000000 1.751190 0.000000 
#    z 0.000000 0.000000 1.730790 
# 
# From -- ./inp_files/4029.got.cif
#   From: 2010.03.12/outbox.cif.g09.slc.cpg/sg55_3_cif.got.tgz:4029.got - 2010.04.16 15:19:21.
