data_PCOD8226978
_publ_section_title
;
Structure prediction by ZEFSAII (Michael W. Deem and Ramdas Pophale) SiO2 
 PCOD8226978
Probable space group: P B A M
;
_chemical_formula_sum "Si O2"
_cell_formula_units_Z 64
_cell_length_a 13.947136
_cell_length_b 17.257429
_cell_length_c 14.049348
_cell_angle_alpha 90.000000
_cell_angle_beta 90.000000
_cell_angle_gamma 90.000000
_cell_volume 3381.561584
_symmetry_space_group_name_H-M "P B A M"
_symmetry_group_IT_number 55
_symmetry_cell_setting 'orthorhombic'
loop_
_space_group_symop_operation_xyz
x,y,z
-x,-y,z
1/2+x,1/2-y,-z
1/2-x,1/2+y,-z
-x,-y,-z
x,y,-z
1/2-x,1/2+y,z
1/2+x,1/2-y,z
loop_
_atom_site_type_symbol
_atom_site_label
_atom_site_fract_x
_atom_site_fract_y
_atom_site_fract_z
Si Si1 0.529223 0.223521 0.391830
Si Si2 0.730101 0.905787 0.747616
Si Si3 0.894859 0.023641 0.771453
Si Si4 0.105926 0.514993 0.108150
Si Si5 0.878985 0.141845 0.390112
Si Si6 0.254203 0.378738 0.109377
Si Si7 0.220373 0.270344 0.722007
Si Si8 0.425906 0.063185 0.390652
O O1 0.569687 0.220620 0.500000
O O2 0.466594 0.299719 0.376493
O O3 0.612330 0.226028 0.314505
O O4 0.464600 0.148933 0.371225
O O5 0.743345 0.816735 0.724169
O O6 0.676144 0.948001 0.660330
O O7 0.832153 0.945932 0.763391
O O8 0.659935 0.915352 0.838169
O O9 0.901900 0.064245 0.668516
O O10 0.850329 0.081400 0.849910
O O11 0.000000 0.000000 0.807389
O O12 0.165167 0.436282 0.119016
O O13 0.000000 0.500000 0.150732
O O14 0.097656 0.542914 0.000000
O O15 0.864361 0.119184 0.500000
O O16 0.781868 0.180053 0.352032
O O17 0.228110 0.303294 0.171027
O O18 0.271940 0.354218 0.000000
O O19 0.405594 0.046273 0.500000
O O20 0.500000 0.000000 0.349756
#
# Coordination Sequence:
#
# PCOD8226978 Si02
#       8
#     8   8   8   8   8   8   8   8
#     4  10  21  37  57  81 115 155 193 234 286 342
#     4  11  22  36  59  85 115 152 191 244 286 345
#     4  10  22  39  59  84 113 153 201 243 291 347
#     4   9  19  36  59  86 113 144 184 235 298 354
#     4  10  21  38  56  80 116 153 193 240 289 343
#     4   9  21  39  59  85 114 150 191 241 295 350
#     4  11  22  35  58  83 113 152 192 237 287 351
#     4  10  22  36  55  86 118 150 191 235 286 348
#
# _framework density 18.926167
#
# number of rings (size 3 to 8) (size 9 to 14) (size 15 to 20)
#    0.000    2.000    1.250    1.500    7.000    2.000 
#    0.000    0.000    0.000    7.500    0.000    0.000 
#    0.000    0.000    0.000    0.000    0.000    0.000 
#
# Total GULP energy -793779.380963 kJ/mol
# GULP energy per Si atom -12402.802828 kJ/mol
# Density = 1.888309 g / cm^3
# Si number density = 18.926167 Si / 1000 Ang^3
#
#
#
# Elastic Constant Matrix: (Units=GPa)
#
#
# Indices 1 2 3 4 5 6 
#
# 1 110.0385 4.5074 38.9539 0.0000 0.0000 0.0000
# 2 4.5074 33.0960 13.8197 0.0000 0.0000 0.0000
# 3 38.9539 13.8197 111.0625 0.0000 0.0000 0.0000
# 4 0.0000 0.0000 0.0000 22.1624 0.0000 0.0000
# 5 0.0000 0.0000 0.0000 0.0000 37.7612 0.0000
# 6 0.0000 0.0000 0.0000 0.0000 0.0000 15.7980
#
#
#
# Elastic Compliance Matrix: (Units=1/GPa)
#
#
# Indices 1 2 3 4 5 6 
#
# 1 0.010376 0.000112 -0.003653 0.000000 0.000000 0.000000
# 2 0.000112 0.031872 -0.004005 0.000000 0.000000 0.000000
# 3 -0.003653 -0.004005 0.010784 0.000000 0.000000 0.000000
# 4 0.000000 0.000000 0.000000 0.045122 0.000000 0.000000
# 5 0.000000 0.000000 0.000000 0.000000 0.026482 0.000000
# 6 0.000000 0.000000 0.000000 0.000000 0.000000 0.063299
#
#
# Mechanical properties :
#
#
# Convention : Reuss Voigt Hill
#
# Bulk Modulus (GPa) = 26.35762 40.97324 33.66543
# Shear Modulus (GPa) = 23.18306 28.27205 25.72756
#
# Velocity S-wave (km/s) = 3.50368 3.86917 3.69096
# Velocity P-wave (km/s) = 5.50677 6.45420 5.99922
#
# Compressibility (1/GPa) = 0.03793969
#
# Stress axis : x y z
#
# Youngs Moduli (GPa) = 96.37220 31.37520 92.73237
#
# Poissons Ratio (x) = -0.00352 0.33879
# Poissons Ratio (y) = -0.01083 0.37142
# Poissons Ratio (z) = 0.35209 0.12567
#
# Static dielectric constant tensor:
#      x y z
#    x 3.461200 0.000000 0.000000 
#    y 0.000000 3.364380 0.000000 
#    z 0.000000 0.000000 3.581390 
# 
# 
# High freq. dielectric constant tensor:
#      x y z
#    x 1.741230 0.000000 0.000000 
#    y 0.000000 1.730120 0.000000 
#    z 0.000000 0.000000 1.737580 
# 
# From -- ./inp_files/18555.got.cif
#   From: 2010.03.12/outbox.cif.g09.slc.cpg/sg55_10_cif.got.tgz:18555.got - 2010.04.16 15:19:21.
