data_PCOD8226423
_publ_section_title
;
Structure prediction by ZEFSAII (Michael W. Deem and Ramdas Pophale) SiO2 
 PCOD8226423
Probable space group: P B A M
;
_chemical_formula_sum "Si O2"
_cell_formula_units_Z 48
_cell_length_a 14.086125
_cell_length_b 14.247750
_cell_length_c 12.439879
_cell_angle_alpha 90.000000
_cell_angle_beta 90.000000
_cell_angle_gamma 90.000000
_cell_volume 2496.628824
_symmetry_space_group_name_H-M "P B A M"
_symmetry_group_IT_number 55
_symmetry_cell_setting 'orthorhombic'
loop_
_space_group_symop_operation_xyz
x,y,z
-x,-y,z
1/2+x,1/2-y,-z
1/2-x,1/2+y,-z
-x,-y,-z
x,y,-z
1/2-x,1/2+y,z
1/2+x,1/2-y,z
loop_
_atom_site_type_symbol
_atom_site_label
_atom_site_fract_x
_atom_site_fract_y
_atom_site_fract_z
Si Si1 0.799785 0.220256 0.767071
Si Si2 0.166404 0.964745 0.120765
Si Si3 0.031213 0.805494 0.620272
Si Si4 0.125379 0.347291 0.376062
Si Si5 0.159962 0.593129 0.875567
Si Si6 0.000000 0.500000 0.740908
Si Si7 0.500000 0.500000 0.728368
O O1 0.830117 0.146020 0.857613
O O2 0.887878 0.242040 0.690481
O O3 0.715245 0.175659 0.697943
O O4 0.781381 0.318525 0.826791
O O5 0.271485 0.004610 0.138478
O O6 0.092540 0.015887 0.198770
O O7 0.131072 0.982337 0.000000
O O8 0.070050 0.805502 0.500000
O O9 0.936891 0.745441 0.631700
O O10 0.009295 0.911166 0.652674
O O11 0.156002 0.366668 0.500000
O O12 0.069517 0.438711 0.333989
O O13 0.061591 0.570218 0.815145
O O14 0.135719 0.613099 0.000000
#
# Coordination Sequence:
#
# PCOD8226423 Si02
#       7
#     8   8   8   8   8   4   4
#     4  11  21  39  62  87 121 155 202 248 306 366
#     4  10  21  37  58  85 117 154 196 246 301 361
#     4  10  21  37  58  85 117 154 196 246 301 361
#     4  11  23  40  63  91 123 162 205 253 310 369
#     4  11  23  40  63  91 123 162 205 253 310 369
#     4  12  22  44  64  90 128 164 214 256 312 366
#     4  10  20  36  60  82 118 154 194 248 300 362
#
# _framework density 19.225926000000001
#
# number of rings (size 3 to 8) (size 9 to 14) (size 15 to 20)
#    0.000    1.333    3.333    3.000    0.000    0.000 
#    0.000    0.000    0.000    0.000    0.000    0.000 
#    0.000    0.000    0.000    0.000    0.000    0.000 
#
# Total GULP energy -595267.147142 kJ/mol
# GULP energy per Si atom -12401.398899 kJ/mol
# Density = 1.918217 g / cm^3
# Si number density = 19.225926 Si / 1000 Ang^3
#
#
#
# Elastic Constant Matrix: (Units=GPa)
#
#
# Indices 1 2 3 4 5 6 
#
# 1 57.0561 6.4715 13.3544 0.0000 0.0000 0.0000
# 2 6.4715 67.0604 22.6700 0.0000 0.0000 0.0000
# 3 13.3544 22.6700 72.1531 0.0000 0.0000 0.0000
# 4 0.0000 0.0000 0.0000 17.9277 0.0000 0.0000
# 5 0.0000 0.0000 0.0000 0.0000 20.3442 0.0000
# 6 0.0000 0.0000 0.0000 0.0000 0.0000 32.5676
#
#
#
# Elastic Compliance Matrix: (Units=1/GPa)
#
#
# Indices 1 2 3 4 5 6 
#
# 1 0.018349 -0.000697 -0.003177 0.000000 0.000000 0.000000
# 2 -0.000697 0.016710 -0.005121 0.000000 0.000000 0.000000
# 3 -0.003177 -0.005121 0.016057 0.000000 0.000000 0.000000
# 4 0.000000 0.000000 0.000000 0.055780 0.000000 0.000000
# 5 0.000000 0.000000 0.000000 0.000000 0.049154 0.000000
# 6 0.000000 0.000000 0.000000 0.000000 0.000000 0.030705
#
#
# Mechanical properties :
#
#
# Convention : Reuss Voigt Hill
#
# Bulk Modulus (GPa) = 30.18802 31.25126 30.71964
# Shear Modulus (GPa) = 23.17092 24.41949 23.79520
#
# Velocity S-wave (km/s) = 3.47535 3.56776 3.52186
# Velocity P-wave (km/s) = 5.64269 5.76731 5.70534
#
# Compressibility (1/GPa) = 0.03312572
#
# Stress axis : x y z
#
# Youngs Moduli (GPa) = 54.49798 59.84277 62.27981
#
# Poissons Ratio (x) = 0.04169 0.19788
# Poissons Ratio (y) = 0.03797 0.31896
# Poissons Ratio (z) = 0.17316 0.30648
#
# Static dielectric constant tensor:
#      x y z
#    x 3.434000 0.000000 0.000000 
#    y 0.000000 3.422140 0.000000 
#    z 0.000000 0.000000 3.644650 
# 
# 
# High freq. dielectric constant tensor:
#      x y z
#    x 1.747380 0.000000 0.000000 
#    y 0.000000 1.753920 0.000000 
#    z 0.000000 0.000000 1.761370 
# 
# From -- ./inp_files/14171.got.cif
#   From: 2010.03.12/outbox.cif.g09.slc.cpg/sg55_8_cif.got.tgz:14171.got - 2010.04.16 15:19:21.
