data_PCOD8226132
_publ_section_title
;
Structure prediction by ZEFSAII (Michael W. Deem and Ramdas Pophale) SiO2 
 PCOD8226132
Probable space group: P B A M
;
_chemical_formula_sum "Si O2"
_cell_formula_units_Z 64
_cell_length_a 15.193075
_cell_length_b 24.185810
_cell_length_c 8.651397
_cell_angle_alpha 90.000000
_cell_angle_beta 90.000000
_cell_angle_gamma 90.000000
_cell_volume 3179.014876
_symmetry_space_group_name_H-M "P B A M"
_symmetry_group_IT_number 55
_symmetry_cell_setting 'orthorhombic'
loop_
_space_group_symop_operation_xyz
x,y,z
-x,-y,z
1/2+x,1/2-y,-z
1/2-x,1/2+y,-z
-x,-y,-z
x,y,-z
1/2-x,1/2+y,z
1/2+x,1/2-y,z
loop_
_atom_site_type_symbol
_atom_site_label
_atom_site_fract_x
_atom_site_fract_y
_atom_site_fract_z
Si Si1 0.112319 0.459731 0.680100
Si Si2 0.122706 0.685787 0.318339
Si Si3 0.048132 0.896496 0.321311
Si Si4 0.439035 0.073826 0.180985
Si Si5 0.018952 0.223609 0.319686
Si Si6 0.695597 0.308633 0.820177
Si Si7 0.125545 0.071686 0.820829
Si Si8 0.292083 0.456395 0.178912
O O1 0.093273 0.452811 0.500000
O O2 0.105902 0.523669 0.727895
O O3 0.208623 0.437200 0.721178
O O4 0.041531 0.422673 0.772228
O O5 0.118828 0.674432 0.500000
O O6 0.110575 0.629624 0.224128
O O7 0.217817 0.710891 0.272872
O O8 0.045548 0.727449 0.267007
O O9 0.072052 0.904461 0.500000
O O10 0.128688 0.915606 0.216902
O O11 0.029804 0.833175 0.277198
O O12 0.962549 0.932747 0.280715
O O13 0.428453 0.062523 0.000000
O O14 0.040530 0.226287 0.500000
O O15 0.111743 0.228140 0.230428
O O16 0.678818 0.372935 0.779615
O O17 0.712598 0.299253 0.000000
O O18 0.185120 0.019513 0.776984
O O19 0.097672 0.070904 0.000000
O O20 0.267918 0.451510 0.000000
#
# Coordination Sequence:
#
# PCOD8226132 Si02
#       8
#     8   8   8   8   8   8   8   8
#     4  11  22  38  59  85 117 153 191 231 281 344
#     4  11  22  39  63  88 114 153 200 244 293 351
#     4  10  20  35  54  78 110 148 192 239 288 341
#     4  11  22  39  61  86 117 149 185 236 291 342
#     4   9  21  41  60  81 114 155 195 243 297 347
#     4  10  20  36  60  88 115 147 190 245 300 350
#     4   9  19  34  53  78 111 148 186 231 287 344
#     4  11  21  34  53  81 116 154 191 230 285 346
#
# _framework density 20.132021999999999
#
# number of rings (size 3 to 8) (size 9 to 14) (size 15 to 20)
#    0.000    1.750    0.000    5.625    0.000    5.500 
#    2.250    0.000    0.000    0.000    0.000    0.000 
#    0.000    0.000    0.000    0.000    0.000    0.000 
#
# Total GULP energy -793937.304023 kJ/mol
# GULP energy per Si atom -12405.270375 kJ/mol
# Density = 2.008620 g / cm^3
# Si number density = 20.132022 Si / 1000 Ang^3
#
#
#
# Elastic Constant Matrix: (Units=GPa)
#
#
# Indices 1 2 3 4 5 6 
#
# 1 122.2895 28.4474 26.6368 0.0000 0.0000 0.0000
# 2 28.4474 40.3040 15.9863 0.0000 0.0000 0.0000
# 3 26.6368 15.9863 61.6974 0.0000 0.0000 0.0000
# 4 0.0000 0.0000 0.0000 25.7571 0.0000 0.0000
# 5 0.0000 0.0000 0.0000 0.0000 40.1802 0.0000
# 6 0.0000 0.0000 0.0000 0.0000 0.0000 24.8459
#
#
#
# Elastic Compliance Matrix: (Units=1/GPa)
#
#
# Indices 1 2 3 4 5 6 
#
# 1 0.010209 -0.006083 -0.002832 0.000000 0.000000 0.000000
# 2 -0.006083 0.031278 -0.005478 0.000000 0.000000 0.000000
# 3 -0.002832 -0.005478 0.018850 0.000000 0.000000 0.000000
# 4 0.000000 0.000000 0.000000 0.038824 0.000000 0.000000
# 5 0.000000 0.000000 0.000000 0.000000 0.024888 0.000000
# 6 0.000000 0.000000 0.000000 0.000000 0.000000 0.040248
#
#
# Mechanical properties :
#
#
# Convention : Reuss Voigt Hill
#
# Bulk Modulus (GPa) = 31.69377 40.71465 36.20421
# Shear Modulus (GPa) = 24.55808 28.37134 26.46471
#
# Velocity S-wave (km/s) = 3.49643 3.75809 3.62962
# Velocity P-wave (km/s) = 5.66367 6.25290 5.96556
#
# Compressibility (1/GPa) = 0.03155195
#
# Stress axis : x y z
#
# Youngs Moduli (GPa) = 97.95250 31.97173 53.05031
#
# Poissons Ratio (x) = 0.19447 0.15021
# Poissons Ratio (y) = 0.59581 0.29062
# Poissons Ratio (z) = 0.27735 0.17515
#
# Static dielectric constant tensor:
#      x y z
#    x 3.784050 0.000000 0.000000 
#    y 0.000000 3.491430 0.000000 
#    z 0.000000 0.000000 3.640520 
# 
# 
# High freq. dielectric constant tensor:
#      x y z
#    x 1.798650 0.000000 0.000000 
#    y 0.000000 1.763260 0.000000 
#    z 0.000000 0.000000 1.791770 
# 
# From -- ./inp_files/6680.got.cif
#   From: 2010.03.12/outbox.cif.g09.slc.cpg/sg55_4_cif.got.tgz:6680.got - 2010.04.16 15:19:21.
