data_PCOD8226687
_publ_section_title
;
Structure prediction by ZEFSAII (Michael W. Deem and Ramdas Pophale) SiO2 
 PCOD8226687
Probable space group: P B A M
;
_chemical_formula_sum "Si O2"
_cell_formula_units_Z 56
_cell_length_a 14.592442
_cell_length_b 21.628749
_cell_length_c 8.762736
_cell_angle_alpha 90.000000
_cell_angle_beta 90.000000
_cell_angle_gamma 90.000000
_cell_volume 2765.662010
_symmetry_space_group_name_H-M "P B A M"
_symmetry_group_IT_number 55
_symmetry_cell_setting 'orthorhombic'
loop_
_space_group_symop_operation_xyz
x,y,z
-x,-y,z
1/2+x,1/2-y,-z
1/2-x,1/2+y,-z
-x,-y,-z
x,y,-z
1/2-x,1/2+y,z
1/2+x,1/2-y,z
loop_
_atom_site_type_symbol
_atom_site_label
_atom_site_fract_x
_atom_site_fract_y
_atom_site_fract_z
Si Si1 0.590005 0.887364 0.820604
Si Si2 0.430076 0.678284 0.179908
Si Si3 0.582765 0.454216 0.322390
Si Si4 0.769842 0.488975 0.180048
Si Si5 0.384742 0.890711 0.822636
Si Si6 0.888513 0.248884 0.818813
Si Si7 0.299516 0.773383 0.679083
O O1 0.664912 0.934679 0.753757
O O2 0.488074 0.911357 0.780908
O O3 0.605593 0.818733 0.754160
O O4 0.603413 0.885364 0.000000
O O5 0.433468 0.607283 0.226291
O O6 0.522330 0.711711 0.236900
O O7 0.342211 0.710326 0.255630
O O8 0.418160 0.683741 0.000000
O O9 0.500000 0.500000 0.285785
O O10 0.588294 0.437522 0.500000
O O11 0.675075 0.487977 0.269757
O O12 0.816800 0.554028 0.217627
O O13 0.752568 0.481327 0.000000
O O14 0.361992 0.831257 0.722730
O O15 0.378546 0.871592 0.000000
O O16 0.800728 0.215382 0.748514
O O17 0.881143 0.247402 0.000000
O O18 0.291783 0.767317 0.500000
#
# Coordination Sequence:
#
# PCOD8226687 Si02
#       7
#     8   8   8   8   8   8   8
#     4   9  17  36  63  94 124 153 197 254 311 360
#     4  11  23  43  69  94 121 160 214 265 310 367
#     4  11  26  45  63  88 128 170 208 257 321 382
#     4  10  21  37  65  95 121 162 212 262 308 365
#     4  10  20  38  62  92 126 161 209 259 310 366
#     4  10  21  38  64  92 122 161 207 261 310 364
#     4  12  25  39  60  92 131 169 206 253 319 383
#
# _framework density 20.248318000000001
#
# number of rings (size 3 to 8) (size 9 to 14) (size 15 to 20)
#    0.000    1.571    1.429    3.429    2.000    5.714 
#    0.000    0.714    0.000    1.714    0.000    0.000 
#    0.000    0.000    0.000    0.000    0.000    0.000 
#
# Total GULP energy -694676.114885 kJ/mol
# GULP energy per Si atom -12404.930623 kJ/mol
# Density = 2.020223 g / cm^3
# Si number density = 20.248318 Si / 1000 Ang^3
#
#
#
# Elastic Constant Matrix: (Units=GPa)
#
#
# Indices 1 2 3 4 5 6 
#
# 1 136.0500 32.8629 28.4856 0.0000 0.0000 0.0000
# 2 32.8629 86.3226 10.9875 0.0000 0.0000 0.0000
# 3 28.4856 10.9875 37.4804 0.0000 0.0000 0.0000
# 4 0.0000 0.0000 0.0000 22.4407 0.0000 0.0000
# 5 0.0000 0.0000 0.0000 0.0000 5.7765 0.0000
# 6 0.0000 0.0000 0.0000 0.0000 0.0000 33.9696
#
#
#
# Elastic Compliance Matrix: (Units=1/GPa)
#
#
# Indices 1 2 3 4 5 6 
#
# 1 0.009331 -0.002752 -0.006285 0.000000 0.000000 0.000000
# 2 -0.002752 0.012845 -0.001674 0.000000 0.000000 0.000000
# 3 -0.006285 -0.001674 0.031948 0.000000 0.000000 0.000000
# 4 0.000000 0.000000 0.000000 0.044562 0.000000 0.000000
# 5 0.000000 0.000000 0.000000 0.000000 0.173117 0.000000
# 6 0.000000 0.000000 0.000000 0.000000 0.000000 0.029438
#
#
# Mechanical properties :
#
#
# Convention : Reuss Voigt Hill
#
# Bulk Modulus (GPa) = 30.57902 44.94723 37.76312
# Shear Modulus (GPa) = 14.98967 24.93849 19.96408
#
# Velocity S-wave (km/s) = 2.72378 3.51327 3.14341
# Velocity P-wave (km/s) = 5.00268 6.22122 5.64493
#
# Compressibility (1/GPa) = 0.03270216
#
# Stress axis : x y z
#
# Youngs Moduli (GPa) = 107.17030 77.84941 31.30104
#
# Poissons Ratio (x) = 0.21427 0.19672
# Poissons Ratio (y) = 0.29497 0.05239
# Poissons Ratio (z) = 0.67354 0.13031
#
# Static dielectric constant tensor:
#      x y z
#    x 3.880660 0.000000 0.000000 
#    y 0.000000 3.761920 0.000000 
#    z 0.000000 0.000000 3.404740 
# 
# 
# High freq. dielectric constant tensor:
#      x y z
#    x 1.808980 0.000000 0.000000 
#    y 0.000000 1.799510 0.000000 
#    z 0.000000 0.000000 1.765500 
# 
# From -- ./inp_files/6113.got.cif
#   From: 2010.03.12/outbox.cif.g09.slc.cpg/sg55_4_cif.got.tgz:6113.got - 2010.04.16 15:19:21.
