data_PCOD8226161
_publ_section_title
;
Structure prediction by ZEFSAII (Michael W. Deem and Ramdas Pophale) SiO2 
 PCOD8226161
Probable space group: P B A M
;
_chemical_formula_sum "Si O2"
_cell_formula_units_Z 64
_cell_length_a 23.498324
_cell_length_b 14.886530
_cell_length_c 8.865371
_cell_angle_alpha 90.000000
_cell_angle_beta 90.000000
_cell_angle_gamma 90.000000
_cell_volume 3101.182177
_symmetry_space_group_name_H-M "P B A M"
_symmetry_group_IT_number 55
_symmetry_cell_setting 'orthorhombic'
loop_
_space_group_symop_operation_xyz
x,y,z
-x,-y,z
1/2+x,1/2-y,-z
1/2-x,1/2+y,-z
-x,-y,-z
x,y,-z
1/2-x,1/2+y,z
1/2+x,1/2-y,z
loop_
_atom_site_type_symbol
_atom_site_label
_atom_site_fract_x
_atom_site_fract_y
_atom_site_fract_z
Si Si1 0.452362 0.072957 0.176634
Si Si2 0.959777 0.084532 0.830206
Si Si3 0.523180 0.241390 0.176999
Si Si4 0.758232 0.263514 0.320828
Si Si5 0.170130 0.561479 0.678910
Si Si6 0.131111 0.203429 0.671645
Si Si7 0.860321 0.998663 0.327740
Si Si8 0.244698 0.928105 0.822279
O O1 0.480856 0.164745 0.232628
O O2 0.395347 0.059138 0.271546
O O3 0.500000 0.000000 0.214175
O O4 0.436506 0.073467 0.000000
O O5 0.995219 0.167100 0.765026
O O6 0.906829 0.071734 0.719475
O O7 0.937361 0.103979 0.000000
O O8 0.000000 0.000000 0.830642
O O9 0.586668 0.232318 0.243325
O O10 0.531257 0.238013 0.000000
O O11 0.762067 0.253454 0.500000
O O12 0.799932 0.344815 0.267521
O O13 0.694595 0.285552 0.264307
O O14 0.773528 0.168626 0.245109
O O15 0.174959 0.552360 0.500000
O O16 0.198857 0.472752 0.751375
O O17 0.129936 0.234385 0.500000
O O18 0.112773 0.099886 0.691869
O O19 0.840945 0.015364 0.500000
O O20 0.806285 0.004650 0.218778
O O21 0.253024 0.919540 0.000000
#
# Coordination Sequence:
#
# PCOD8226161 Si02
#       8
#     8   8   8   8   8   8   8   8
#     4  10  24  45  65  90 128 171 219 272 319 370
#     4  10  20  35  55  86 125 164 203 248 308 375
#     4  10  22  39  60  87 125 167 210 258 311 374
#     4  10  23  44  66  94 130 168 208 263 324 384
#     4  11  24  46  71  97 132 170 216 271 326 386
#     4  10  21  39  63  90 124 161 206 257 313 378
#     4  11  22  39  61  89 126 166 208 255 310 376
#     4  12  26  42  66  96 127 167 211 260 324 390
#
# _framework density 20.63729
#
# number of rings (size 3 to 8) (size 9 to 14) (size 15 to 20)
#    0.000    1.500    2.500    1.875    3.500    3.500 
#    0.000    0.000    0.000    0.000    0.000    0.000 
#    0.000    0.000    0.000    0.000    0.000    0.000 
#
# Total GULP energy -793638.106125 kJ/mol
# GULP energy per Si atom -12400.595408 kJ/mol
# Density = 2.059032 g / cm^3
# Si number density = 20.637290 Si / 1000 Ang^3
#
#
#
# Elastic Constant Matrix: (Units=GPa)
#
#
# Indices 1 2 3 4 5 6 
#
# 1 118.4837 23.6755 37.7547 0.0000 0.0000 0.0000
# 2 23.6755 89.8271 30.9709 0.0000 0.0000 0.0000
# 3 37.7547 30.9709 68.9807 0.0000 0.0000 0.0000
# 4 0.0000 0.0000 0.0000 34.0276 0.0000 0.0000
# 5 0.0000 0.0000 0.0000 0.0000 40.7411 0.0000
# 6 0.0000 0.0000 0.0000 0.0000 0.0000 27.8759
#
#
#
# Elastic Compliance Matrix: (Units=1/GPa)
#
#
# Indices 1 2 3 4 5 6 
#
# 1 0.010286 -0.000911 -0.005220 0.000000 0.000000 0.000000
# 2 -0.000911 0.013252 -0.005451 0.000000 0.000000 0.000000
# 3 -0.005220 -0.005451 0.019802 0.000000 0.000000 0.000000
# 4 0.000000 0.000000 0.000000 0.029388 0.000000 0.000000
# 5 0.000000 0.000000 0.000000 0.000000 0.024545 0.000000
# 6 0.000000 0.000000 0.000000 0.000000 0.000000 0.035873
#
#
# Mechanical properties :
#
#
# Convention : Reuss Voigt Hill
#
# Bulk Modulus (GPa) = 49.56955 51.34376 50.45666
# Shear Modulus (GPa) = 30.66809 32.85493 31.76151
#
# Velocity S-wave (km/s) = 3.85912 3.99434 3.92731
# Velocity P-wave (km/s) = 6.62786 6.79751 6.71322
#
# Compressibility (1/GPa) = 0.02017367
#
# Stress axis : x y z
#
# Youngs Moduli (GPa) = 97.22410 75.45954 50.50086
#
# Poissons Ratio (x) = 0.06874 0.26364
# Poissons Ratio (y) = 0.08857 0.27530
# Poissons Ratio (z) = 0.50756 0.41136
#
# Static dielectric constant tensor:
#      x y z
#    x 3.767710 0.000000 0.000000 
#    y 0.000000 3.891060 0.000000 
#    z 0.000000 0.000000 3.598780 
# 
# 
# High freq. dielectric constant tensor:
#      x y z
#    x 1.815390 0.000000 0.000000 
#    y 0.000000 1.812400 0.000000 
#    z 0.000000 0.000000 1.795150 
# 
# From -- ./inp_files/9786.got.cif
#   From: 2010.03.12/outbox.cif.g09.slc.cpg/sg55_5_cif.got.tgz:9786.got - 2010.04.16 15:19:21.
