data_PCOD8226723
_publ_section_title
;
Structure prediction by ZEFSAII (Michael W. Deem and Ramdas Pophale) SiO2 
 PCOD8226723
Probable space group: P B A M
;
_chemical_formula_sum "Si O2"
_cell_formula_units_Z 64
_cell_length_a 8.470665
_cell_length_b 15.134403
_cell_length_c 21.740319
_cell_angle_alpha 90.000000
_cell_angle_beta 90.000000
_cell_angle_gamma 90.000000
_cell_volume 2787.075368
_symmetry_space_group_name_H-M "P B A M"
_symmetry_group_IT_number 55
_symmetry_cell_setting 'orthorhombic'
loop_
_space_group_symop_operation_xyz
x,y,z
-x,-y,z
1/2+x,1/2-y,-z
1/2-x,1/2+y,-z
-x,-y,-z
x,y,-z
1/2-x,1/2+y,z
1/2+x,1/2-y,z
loop_
_atom_site_type_symbol
_atom_site_label
_atom_site_fract_x
_atom_site_fract_y
_atom_site_fract_z
Si Si1 0.833781 0.468839 0.812669
Si Si2 0.299589 0.165901 0.378362
Si Si3 0.871377 0.680467 0.569370
Si Si4 0.238514 0.306328 0.069312
Si Si5 0.319056 0.695479 0.755974
Si Si6 0.319690 0.491149 0.571650
Si Si7 0.389374 0.124934 0.931358
Si Si8 0.654580 0.641074 0.806569
O O1 0.801620 0.373127 0.785503
O O2 0.847600 0.456831 0.886720
O O3 0.700953 0.539510 0.792851
O O4 0.000000 0.500000 0.785068
O O5 0.486931 0.181586 0.381533
O O6 0.216054 0.225300 0.430549
O O7 0.220340 0.198425 0.315704
O O8 0.276714 0.062375 0.389494
O O9 0.934386 0.662952 0.500000
O O10 0.745461 0.605363 0.588814
O O11 0.255801 0.200390 0.075117
O O12 0.356311 0.351099 0.119100
O O13 0.058735 0.331871 0.085198
O O14 0.286969 0.335979 0.000000
O O15 0.496265 0.664463 0.770230
O O16 0.292266 0.792417 0.784220
O O17 0.500000 0.500000 0.592247
O O18 0.298489 0.511699 0.500000
O O19 0.390514 0.085325 0.000000
#
# Coordination Sequence:
#
# PCOD8226723 Si02
#       8
#     8   8   8   8   8   8   8   8
#     4  12  25  43  67  98 129 183 230 288 348 411
#     4  12  25  43  68  99 135 182 231 284 344 412
#     4  11  23  42  71 106 141 179 228 287 350 414
#     4  10  20  38  69 100 133 173 222 287 352 413
#     4  12  28  46  67  95 134 183 234 285 338 413
#     4  10  22  41  68 102 142 181 222 282 348 406
#     4  10  21  39  66 103 137 176 229 288 358 420
#     4  12  24  46  69  93 136 179 231 286 351 410
#
# _framework density 22.963139999999999
#
# number of rings (size 3 to 8) (size 9 to 14) (size 15 to 20)
#    0.000    0.875    2.500    4.875    0.000    5.750 
#    0.000    0.000    0.000    1.500    0.000    0.000 
#    0.000    0.000    0.000    0.000    0.000    0.000 
#
# Total GULP energy -793760.555628 kJ/mol
# GULP energy per Si atom -12402.508682 kJ/mol
# Density = 2.291088 g / cm^3
# Si number density = 22.963140 Si / 1000 Ang^3
#
#
#
# Elastic Constant Matrix: (Units=GPa)
#
#
# Indices 1 2 3 4 5 6 
#
# 1 130.4755 28.0893 40.8294 0.0000 0.0000 0.0000
# 2 28.0893 96.5864 27.8590 0.0000 0.0000 0.0000
# 3 40.8294 27.8590 84.9147 0.0000 0.0000 0.0000
# 4 0.0000 0.0000 0.0000 13.3656 0.0000 0.0000
# 5 0.0000 0.0000 0.0000 0.0000 30.8803 0.0000
# 6 0.0000 0.0000 0.0000 0.0000 0.0000 43.4338
#
#
#
# Elastic Compliance Matrix: (Units=1/GPa)
#
#
# Indices 1 2 3 4 5 6 
#
# 1 0.009227 -0.001550 -0.003928 0.000000 0.000000 0.000000
# 2 -0.001550 0.011696 -0.003092 0.000000 0.000000 0.000000
# 3 -0.003928 -0.003092 0.014680 0.000000 0.000000 0.000000
# 4 0.000000 0.000000 0.000000 0.074819 0.000000 0.000000
# 5 0.000000 0.000000 0.000000 0.000000 0.032383 0.000000
# 6 0.000000 0.000000 0.000000 0.000000 0.000000 0.023024
#
#
# Mechanical properties :
#
#
# Convention : Reuss Voigt Hill
#
# Bulk Modulus (GPa) = 54.16422 56.17022 55.16722
# Shear Modulus (GPa) = 26.43778 31.88255 29.16016
#
# Velocity S-wave (km/s) = 3.39678 3.73020 3.56739
# Velocity P-wave (km/s) = 6.24683 6.56252 6.40662
#
# Compressibility (1/GPa) = 0.01846237
#
# Stress axis : x y z
#
# Youngs Moduli (GPa) = 108.37455 85.49852 68.12176
#
# Poissons Ratio (x) = 0.13256 0.26759
# Poissons Ratio (y) = 0.16803 0.21062
# Poissons Ratio (z) = 0.42570 0.26434
#
# Static dielectric constant tensor:
#      x y z
#    x 4.067730 0.000000 0.000000 
#    y 0.000000 4.130930 0.000000 
#    z 0.000000 0.000000 4.139010 
# 
# 
# High freq. dielectric constant tensor:
#      x y z
#    x 1.904170 0.000000 0.000000 
#    y 0.000000 1.912550 0.000000 
#    z 0.000000 0.000000 1.903800 
# 
# From -- ./inp_files/23485.got.cif
#   From: 2010.03.12/outbox.cif.g09.slc.cpg/sg55_12_cif.got.tgz:23485.got - 2010.04.16 15:19:21.
