data_PCOD8226645
_publ_section_title
;
Structure prediction by ZEFSAII (Michael W. Deem and Ramdas Pophale) SiO2 
 PCOD8226645
Probable space group: P B A M
;
_chemical_formula_sum "Si O2"
_cell_formula_units_Z 64
_cell_length_a 28.170755
_cell_length_b 12.639115
_cell_length_c 9.264469
_cell_angle_alpha 90.000000
_cell_angle_beta 90.000000
_cell_angle_gamma 90.000000
_cell_volume 3298.645799
_symmetry_space_group_name_H-M "P B A M"
_symmetry_group_IT_number 55
_symmetry_cell_setting 'orthorhombic'
loop_
_space_group_symop_operation_xyz
x,y,z
-x,-y,z
1/2+x,1/2-y,-z
1/2-x,1/2+y,-z
-x,-y,-z
x,y,-z
1/2-x,1/2+y,z
1/2+x,1/2-y,z
loop_
_atom_site_type_symbol
_atom_site_label
_atom_site_fract_x
_atom_site_fract_y
_atom_site_fract_z
Si Si1 0.949383 0.467661 0.165469
Si Si2 0.303762 0.751530 0.170629
Si Si3 0.974171 0.892597 0.334533
Si Si4 0.045407 0.778443 0.834431
Si Si5 0.367639 0.350009 0.333347
Si Si6 0.300948 0.189340 0.828881
Si Si7 0.136132 0.088563 0.338119
Si Si8 0.652849 0.029154 0.171835
O O1 0.940988 0.343507 0.180017
O O2 0.901678 0.521748 0.233171
O O3 0.000000 0.500000 0.240819
O O4 0.952837 0.504285 0.000000
O O5 0.251526 0.719937 0.225291
O O6 0.338435 0.660468 0.222177
O O7 0.321318 0.865318 0.231969
O O8 0.305047 0.754565 0.000000
O O9 0.985418 0.863625 0.500000
O O10 0.919108 0.904704 0.306096
O O11 0.993048 0.798936 0.230427
O O12 0.000000 0.000000 0.288600
O O13 0.080483 0.848229 0.737232
O O14 0.047897 0.815337 0.000000
O O15 0.371429 0.315466 0.500000
O O16 0.335034 0.271602 0.245835
O O17 0.346651 0.467901 0.319440
O O18 0.315272 0.071023 0.778627
O O19 0.306435 0.201795 0.000000
O O20 0.147789 0.128175 0.500000
O O21 0.650215 0.030215 0.000000
#
# Coordination Sequence:
#
# PCOD8226645 Si02
#       8
#     8   8   8   8   8   8   8   8
#     4   9  18  32  53  80 114 152 184 227 288 348
#     4  10  23  38  62  90 116 153 194 245 298 351
#     4  10  20  38  57  77 116 162 190 227 290 351
#     4  11  21  34  57  88 114 148 196 246 290 345
#     4  11  22  39  61  85 116 157 198 242 295 355
#     4  10  21  39  62  89 117 149 192 245 299 349
#     4  10  23  41  59  81 119 163 199 239 294 352
#     4   9  18  36  56  82 121 153 184 234 300 352
#
# _framework density 19.401900999999999
#
# number of rings (size 3 to 8) (size 9 to 14) (size 15 to 20)
#    0.000    2.000    2.500    0.750    3.500    2.250 
#    0.000    0.625    0.000    1.500    0.000    0.000 
#    0.000    0.000    0.000    0.000    0.000    0.000 
#
# Total GULP energy -793482.553781 kJ/mol
# GULP energy per Si atom -12398.164903 kJ/mol
# Density = 1.935774 g / cm^3
# Si number density = 19.401901 Si / 1000 Ang^3
#
#
#
# Elastic Constant Matrix: (Units=GPa)
#
#
# Indices 1 2 3 4 5 6 
#
# 1 112.7848 58.2792 25.7480 0.0000 0.0000 0.0000
# 2 58.2792 91.6164 17.3027 0.0000 0.0000 0.0000
# 3 25.7480 17.3027 20.4311 0.0000 0.0000 0.0000
# 4 0.0000 0.0000 0.0000 -13.2788 0.0000 0.0000
# 5 0.0000 0.0000 0.0000 0.0000 23.1465 0.0000
# 6 0.0000 0.0000 0.0000 0.0000 0.0000 35.4023
#
#
#
# Elastic Compliance Matrix: (Units=1/GPa)
#
#
# Indices 1 2 3 4 5 6 
#
# 1 0.015860 -0.007516 -0.013622 0.000000 0.000000 0.000000
# 2 -0.007516 0.016555 -0.004548 0.000000 0.000000 0.000000
# 3 -0.013622 -0.004548 0.069964 0.000000 0.000000 0.000000
# 4 0.000000 0.000000 0.000000 -0.075308 0.000000 0.000000
# 5 0.000000 0.000000 0.000000 0.000000 0.043203 0.000000
# 6 0.000000 0.000000 0.000000 0.000000 0.000000 0.028247
#
#
# Mechanical properties :
#
#
# Convention : Reuss Voigt Hill
#
# Bulk Modulus (GPa) = 19.60545 47.49912 33.55228
# Shear Modulus (GPa) = 29.95869 17.28747 23.62308
#
# Velocity S-wave (km/s) = 3.93378 2.98823 3.49315
# Velocity P-wave (km/s) = 5.54614 6.03663 5.79658
#
# Compressibility (1/GPa) = 0.05100623
#
# Stress axis : x y z
#
# Youngs Moduli (GPa) = 63.05099 60.40350 14.29311
#
# Poissons Ratio (x) = 0.45401 0.19470
# Poissons Ratio (y) = 0.47391 0.06501
# Poissons Ratio (z) = 0.85889 0.27472
#
# Static dielectric constant tensor:
#      x y z
#    x 4.007410 0.000000 0.000000 
#    y 0.000000 3.618680 0.000000 
#    z 0.000000 0.000000 3.257610 
# 
# 
# High freq. dielectric constant tensor:
#      x y z
#    x 1.767410 0.000000 0.000000 
#    y 0.000000 1.758950 0.000000 
#    z 0.000000 0.000000 1.722990 
# 
# From -- ./inp_files/10731.got.cif
#   From: 2010.03.12/outbox.cif.g09.slc.cpg/sg55_6_cif.got.tgz:10731.got - 2010.04.16 15:19:21.
