data_PCOD8226820
_publ_section_title
;
Structure prediction by ZEFSAII (Michael W. Deem and Ramdas Pophale) SiO2 
 PCOD8226820
Probable space group: P B A M
;
_chemical_formula_sum "Si O2"
_cell_formula_units_Z 64
_cell_length_a 24.628591
_cell_length_b 15.211959
_cell_length_c 8.967730
_cell_angle_alpha 90.000000
_cell_angle_beta 90.000000
_cell_angle_gamma 90.000000
_cell_volume 3359.752122
_symmetry_space_group_name_H-M "P B A M"
_symmetry_group_IT_number 55
_symmetry_cell_setting 'orthorhombic'
loop_
_space_group_symop_operation_xyz
x,y,z
-x,-y,z
1/2+x,1/2-y,-z
1/2-x,1/2+y,-z
-x,-y,-z
x,y,-z
1/2-x,1/2+y,z
1/2+x,1/2-y,z
loop_
_atom_site_type_symbol
_atom_site_label
_atom_site_fract_x
_atom_site_fract_y
_atom_site_fract_z
Si Si1 0.248832 0.173596 0.332212
Si Si2 0.367914 0.848347 0.175831
Si Si3 0.369733 0.661655 0.671421
Si Si4 0.937249 0.504314 0.323462
Si Si5 0.640060 0.649114 0.323299
Si Si6 0.252412 0.349743 0.828092
Si Si7 0.634103 0.847396 0.328935
Si Si8 0.560902 0.499676 0.677778
O O1 0.252042 0.216058 0.500000
O O2 0.191948 0.121876 0.316318
O O3 0.249527 0.246548 0.205128
O O4 0.303698 0.116035 0.309441
O O5 0.376757 0.750464 0.236957
O O6 0.307561 0.886446 0.214887
O O7 0.412720 0.909517 0.249424
O O8 0.376606 0.845320 0.000000
O O9 0.384133 0.682485 0.500000
O O10 0.409366 0.587650 0.738141
O O11 0.928719 0.511442 0.500000
O O12 0.907108 0.417572 0.255648
O O13 0.000000 0.500000 0.279051
O O14 0.642957 0.648953 0.500000
O O15 0.697708 0.609707 0.265720
O O16 0.629488 0.748383 0.261013
O O17 0.591888 0.586642 0.264218
O O18 0.265251 0.366120 0.000000
O O19 0.617114 0.840139 0.500000
O O20 0.500000 0.500000 0.741933
O O21 0.561136 0.498714 0.500000
#
# Coordination Sequence:
#
# PCOD8226820 Si02
#       8
#     8   8   8   8   8   8   8   8
#     4   8  14  27  48  73  99 127 162 203 250 304
#     4  10  21  36  53  74 102 135 167 206 259 308
#     4   9  17  31  53  78 101 129 167 208 250 299
#     4  10  21  35  52  76 103 134 175 216 251 295
#     4   9  17  31  52  75 101 134 167 204 254 306
#     4   9  17  30  49  74 101 127 162 207 255 308
#     4   8  15  29  49  73 101 129 159 202 252 298
#     4   9  18  31  50  79 108 134 171 215 253 294
#
# _framework density 19.049022999999998
#
# number of rings (size 3 to 8) (size 9 to 14) (size 15 to 20)
#    0.000    3.000    0.000    1.500    0.000    3.750 
#    0.000    9.375    0.000   10.500    0.000    0.000 
#    0.000    0.000    0.000    0.000    0.000    0.000 
#
# Total GULP energy -792908.183512 kJ/mol
# GULP energy per Si atom -12389.190367 kJ/mol
# Density = 1.900567 g / cm^3
# Si number density = 19.049023 Si / 1000 Ang^3
#
#
#
# Elastic Constant Matrix: (Units=GPa)
#
#
# Indices 1 2 3 4 5 6 
#
# 1 186.2873 91.2275 36.6146 0.0000 0.0000 0.0000
# 2 91.2275 109.9657 24.5150 0.0000 0.0000 0.0000
# 3 36.6146 24.5150 29.9403 0.0000 0.0000 0.0000
# 4 0.0000 0.0000 0.0000 6.3551 0.0000 0.0000
# 5 0.0000 0.0000 0.0000 0.0000 15.7014 0.0000
# 6 0.0000 0.0000 0.0000 0.0000 0.0000 37.6125
#
#
#
# Elastic Compliance Matrix: (Units=1/GPa)
#
#
# Indices 1 2 3 4 5 6 
#
# 1 0.010022 -0.006828 -0.006665 0.000000 0.000000 0.000000
# 2 -0.006828 0.015777 -0.004567 0.000000 0.000000 0.000000
# 3 -0.006665 -0.004567 0.045290 0.000000 0.000000 0.000000
# 4 0.000000 0.000000 0.000000 0.157354 0.000000 0.000000
# 5 0.000000 0.000000 0.000000 0.000000 0.063689 0.000000
# 6 0.000000 0.000000 0.000000 0.000000 0.000000 0.026587
#
#
# Mechanical properties :
#
#
# Convention : Reuss Voigt Hill
#
# Bulk Modulus (GPa) = 28.59798 70.10083 49.34940
# Shear Modulus (GPa) = 13.64271 23.52288 18.58280
#
# Velocity S-wave (km/s) = 2.67908 3.51787 3.12673
# Velocity P-wave (km/s) = 4.96139 7.30621 6.24484
#
# Compressibility (1/GPa) = 0.03496751
#
# Stress axis : x y z
#
# Youngs Moduli (GPa) = 99.78016 63.38417 22.07973
#
# Poissons Ratio (x) = 0.43281 0.14716
# Poissons Ratio (y) = 0.68134 0.10085
# Poissons Ratio (z) = 0.66504 0.28950
#
# Static dielectric constant tensor:
#      x y z
#    x 3.864560 0.000000 0.000000 
#    y 0.000000 3.380390 0.000000 
#    z 0.000000 0.000000 3.106780 
# 
# 
# High freq. dielectric constant tensor:
#      x y z
#    x 1.752630 0.000000 0.000000 
#    y 0.000000 1.719570 0.000000 
#    z 0.000000 0.000000 1.702240 
# 
# From -- ./inp_files/9712.got.cif
#   From: 2010.03.12/outbox.cif.g09.slc.cpg/sg55_5_cif.got.tgz:9712.got - 2010.04.16 15:19:21.
