data_PCOD8226724
_publ_section_title
;
Structure prediction by ZEFSAII (Michael W. Deem and Ramdas Pophale) SiO2 
 PCOD8226724
Probable space group: P B A M
;
_chemical_formula_sum "Si O2"
_cell_formula_units_Z 48
_cell_length_a 8.443283
_cell_length_b 18.163478
_cell_length_c 14.448589
_cell_angle_alpha 90.000000
_cell_angle_beta 90.000000
_cell_angle_gamma 90.000000
_cell_volume 2215.826723
_symmetry_space_group_name_H-M "P B A M"
_symmetry_group_IT_number 55
_symmetry_cell_setting 'orthorhombic'
loop_
_space_group_symop_operation_xyz
x,y,z
-x,-y,z
1/2+x,1/2-y,-z
1/2-x,1/2+y,-z
-x,-y,-z
x,y,-z
1/2-x,1/2+y,z
1/2+x,1/2-y,z
loop_
_atom_site_type_symbol
_atom_site_label
_atom_site_fract_x
_atom_site_fract_y
_atom_site_fract_z
Si Si1 0.778637 0.792782 0.815336
Si Si2 0.654278 0.929696 0.896530
Si Si3 0.671139 0.536724 0.762679
Si Si4 0.231266 0.357843 0.394899
Si Si5 0.517959 0.747629 0.682949
Si Si6 0.189111 0.362069 0.896379
O O1 0.762552 0.856850 0.890437
O O2 0.608620 0.782542 0.769212
O O3 0.895244 0.810522 0.729045
O O4 0.845436 0.720805 0.866399
O O5 0.468062 0.912444 0.886244
O O6 0.707120 0.980401 0.811050
O O7 0.685217 0.963559 0.000000
O O8 0.500000 0.500000 0.749068
O O9 0.739238 0.568340 0.665765
O O10 0.668200 0.606760 0.832290
O O11 0.219075 0.385038 0.500000
O O12 0.070192 0.315584 0.367374
O O13 0.374361 0.299065 0.386856
O O14 0.253289 0.362621 0.000000
#
# Coordination Sequence:
#
# PCOD8226724 Si02
#       6
#     8   8   8   8   8   8
#     4  11  19  40  63  98 132 171 216 271 323 379
#     4  11  24  39  62  94 134 184 225 262 321 390
#     4  12  25  43  62  93 136 177 212 271 331 388
#     4  11  23  43  70 100 127 163 215 273 334 398
#     4  10  20  38  69  96 127 165 202 272 336 380
#     4  11  23  41  64  92 131 180 227 270 317 385
#
# _framework density 21.662344999999998
#
# number of rings (size 3 to 8) (size 9 to 14) (size 15 to 20)
#    0.000    1.000    5.000    3.000    0.000    3.000 
#    0.000    0.000    0.000    9.000    0.000    0.000 
#    0.000    0.000    0.000    0.000    0.000    0.000 
#
# Total GULP energy -594850.717551 kJ/mol
# GULP energy per Si atom -12392.723282 kJ/mol
# Density = 2.161304 g / cm^3
# Si number density = 21.662345 Si / 1000 Ang^3
#
#
#
# Elastic Constant Matrix: (Units=GPa)
#
#
# Indices 1 2 3 4 5 6 
#
# 1 75.2591 36.5932 47.7384 0.0000 0.0000 0.0000
# 2 36.5932 92.1003 51.3950 0.0000 0.0000 0.0000
# 3 47.7384 51.3950 168.1221 0.0000 0.0000 0.0000
# 4 0.0000 0.0000 0.0000 30.7490 0.0000 0.0000
# 5 0.0000 0.0000 0.0000 0.0000 19.8089 0.0000
# 6 0.0000 0.0000 0.0000 0.0000 0.0000 36.9753
#
#
#
# Elastic Compliance Matrix: (Units=1/GPa)
#
#
# Indices 1 2 3 4 5 6 
#
# 1 0.018061 -0.005201 -0.003538 0.000000 0.000000 0.000000
# 2 -0.005201 0.014589 -0.002983 0.000000 0.000000 0.000000
# 3 -0.003538 -0.002983 0.007865 0.000000 0.000000 0.000000
# 4 0.000000 0.000000 0.000000 0.032521 0.000000 0.000000
# 5 0.000000 0.000000 0.000000 0.000000 0.050482 0.000000
# 6 0.000000 0.000000 0.000000 0.000000 0.000000 0.027045
#
#
# Mechanical properties :
#
#
# Convention : Reuss Voigt Hill
#
# Bulk Modulus (GPa) = 58.58514 67.43720 63.01117
# Shear Modulus (GPa) = 27.82441 30.82365 29.32403
#
# Velocity S-wave (km/s) = 3.58782 3.77625 3.68324
# Velocity P-wave (km/s) = 6.65332 7.08604 6.87309
#
# Compressibility (1/GPa) = 0.01706917
#
# Stress axis : x y z
#
# Youngs Moduli (GPa) = 55.36803 68.54528 127.15142
#
# Poissons Ratio (x) = 0.35653 0.44990
# Poissons Ratio (y) = 0.28799 0.37928
# Poissons Ratio (z) = 0.19591 0.20446
#
# Static dielectric constant tensor:
#      x y z
#    x 3.976670 0.000000 0.000000 
#    y 0.000000 4.011770 0.000000 
#    z 0.000000 0.000000 3.817040 
# 
# 
# High freq. dielectric constant tensor:
#      x y z
#    x 1.854720 0.000000 0.000000 
#    y 0.000000 1.851250 0.000000 
#    z 0.000000 0.000000 1.840050 
# 
# From -- ./inp_files/17310.got.cif
#   From: 2010.03.12/outbox.cif.g09.slc.cpg/sg55_9_cif.got.tgz:17310.got - 2010.04.16 15:19:21.
