data_PCOD8226897
_publ_section_title
;
Structure prediction by ZEFSAII (Michael W. Deem and Ramdas Pophale) SiO2 
 PCOD8226897
Probable space group: P B A M
;
_chemical_formula_sum "Si O2"
_cell_formula_units_Z 64
_cell_length_a 15.291579
_cell_length_b 11.412212
_cell_length_c 18.333188
_cell_angle_alpha 90.000000
_cell_angle_beta 90.000000
_cell_angle_gamma 90.000000
_cell_volume 3199.338229
_symmetry_space_group_name_H-M "P B A M"
_symmetry_group_IT_number 55
_symmetry_cell_setting 'orthorhombic'
loop_
_space_group_symop_operation_xyz
x,y,z
-x,-y,z
1/2+x,1/2-y,-z
1/2-x,1/2+y,-z
-x,-y,-z
x,y,-z
1/2-x,1/2+y,z
1/2+x,1/2-y,z
loop_
_atom_site_type_symbol
_atom_site_label
_atom_site_fract_x
_atom_site_fract_y
_atom_site_fract_z
Si Si1 0.853773 0.429631 0.293971
Si Si2 0.907516 0.060858 0.419922
Si Si3 0.740289 0.793155 0.820858
Si Si4 0.151397 0.304147 0.305460
Si Si5 0.081159 0.860530 0.855594
Si Si6 0.897207 0.882052 0.914314
Si Si7 0.534082 0.714842 0.294367
Si Si8 0.727990 0.358806 0.414340
O O1 0.789389 0.409971 0.223915
O O2 0.882261 0.563303 0.303809
O O3 0.937509 0.348328 0.278451
O O4 0.815406 0.390454 0.371660
O O5 0.882981 0.110647 0.500000
O O6 0.914768 0.170298 0.365778
O O7 0.837553 0.964786 0.395111
O O8 0.000000 0.000000 0.422305
O O9 0.777385 0.706653 0.758671
O O10 0.659744 0.733469 0.865383
O O11 0.815936 0.815904 0.878718
O O12 0.193271 0.266279 0.383163
O O13 0.070553 0.214749 0.296396
O O14 0.062793 0.873467 0.769575
O O15 0.989675 0.820141 0.893509
O O16 0.107706 0.984120 0.888826
O O17 0.884780 0.875884 0.000000
O O18 0.744778 0.344157 0.500000
#
# Coordination Sequence:
#
# PCOD8226897 Si02
#       8
#     8   8   8   8   8   8   8   8
#     4  10  24  38  58  89 118 157 203 248 303 365
#     4  10  21  36  55  82 112 149 200 250 296 352
#     4  10  22  40  62  90 123 166 201 248 308 366
#     4  11  21  39  61  86 119 154 208 248 301 364
#     4  10  22  38  62  94 124 157 205 254 302 363
#     4  11  23  39  64  95 124 160 203 254 310 365
#     4  11  22  37  63  87 117 158 200 255 305 356
#     4  10  23  38  56  83 117 158 201 252 308 358
#
# _framework density 20.004137
#
# number of rings (size 3 to 8) (size 9 to 14) (size 15 to 20)
#    0.000    1.625    2.500    1.875   10.500    2.000 
#    0.000    0.000    0.000    2.250    0.000    3.500 
#    0.000    0.000    0.000    0.000    0.000    0.000 
#
# Total GULP energy -793265.349027 kJ/mol
# GULP energy per Si atom -12394.771079 kJ/mol
# Density = 1.995861 g / cm^3
# Si number density = 20.004137 Si / 1000 Ang^3
#
#
#
# Elastic Constant Matrix: (Units=GPa)
#
#
# Indices 1 2 3 4 5 6 
#
# 1 102.3297 25.0175 50.0960 0.0000 0.0000 0.0000
# 2 25.0175 75.9769 45.0423 0.0000 0.0000 0.0000
# 3 50.0960 45.0423 132.3170 0.0000 0.0000 0.0000
# 4 0.0000 0.0000 0.0000 20.9726 0.0000 0.0000
# 5 0.0000 0.0000 0.0000 0.0000 23.3328 0.0000
# 6 0.0000 0.0000 0.0000 0.0000 0.0000 31.1823
#
#
#
# Elastic Compliance Matrix: (Units=1/GPa)
#
#
# Indices 1 2 3 4 5 6 
#
# 1 0.012148 -0.001595 -0.004056 0.000000 0.000000 0.000000
# 2 -0.001595 0.016699 -0.005081 0.000000 0.000000 0.000000
# 3 -0.004056 -0.005081 0.010823 0.000000 0.000000 0.000000
# 4 0.000000 0.000000 0.000000 0.047681 0.000000 0.000000
# 5 0.000000 0.000000 0.000000 0.000000 0.042858 0.000000
# 6 0.000000 0.000000 0.000000 0.000000 0.000000 0.032070
#
#
# Mechanical properties :
#
#
# Convention : Reuss Voigt Hill
#
# Bulk Modulus (GPa) = 54.92788 61.21502 58.07145
# Shear Modulus (GPa) = 26.34184 27.79539 27.06861
#
# Velocity S-wave (km/s) = 3.63274 3.73162 3.68251
# Velocity P-wave (km/s) = 6.71666 7.01671 6.86833
#
# Compressibility (1/GPa) = 0.01820569
#
# Stress axis : x y z
#
# Youngs Moduli (GPa) = 82.31715 59.88308 92.39722
#
# Poissons Ratio (x) = 0.09554 0.37479
# Poissons Ratio (y) = 0.13133 0.46943
# Poissons Ratio (z) = 0.33390 0.30424
#
# Static dielectric constant tensor:
#      x y z
#    x 3.328870 0.000000 0.000000 
#    y 0.000000 3.208410 0.000000 
#    z 0.000000 0.000000 3.693350 
# 
# 
# High freq. dielectric constant tensor:
#      x y z
#    x 1.793860 0.000000 0.000000 
#    y 0.000000 1.764370 0.000000 
#    z 0.000000 0.000000 1.772510 
# 
# From -- ./inp_files/21632.got.cif
#   From: 2010.03.12/outbox.cif.g09.slc.cpg/sg55_11_cif.got.tgz:21632.got - 2010.04.16 15:19:21.
