data_PCOD8226786
_publ_section_title
;
Structure prediction by ZEFSAII (Michael W. Deem and Ramdas Pophale) SiO2 
 PCOD8226786
Probable space group: P B A M
;
_chemical_formula_sum "Si O2"
_cell_formula_units_Z 48
_cell_length_a 18.406064
_cell_length_b 8.607054
_cell_length_c 15.479879
_cell_angle_alpha 90.000000
_cell_angle_beta 90.000000
_cell_angle_gamma 90.000000
_cell_volume 2452.353186
_symmetry_space_group_name_H-M "P B A M"
_symmetry_group_IT_number 55
_symmetry_cell_setting 'orthorhombic'
loop_
_space_group_symop_operation_xyz
x,y,z
-x,-y,z
1/2+x,1/2-y,-z
1/2-x,1/2+y,-z
-x,-y,-z
x,y,-z
1/2-x,1/2+y,z
1/2+x,1/2-y,z
loop_
_atom_site_type_symbol
_atom_site_label
_atom_site_fract_x
_atom_site_fract_y
_atom_site_fract_z
Si Si1 0.852925 0.648947 0.500000
Si Si2 0.793574 0.289703 0.500000
Si Si3 0.047986 0.857874 0.234036
Si Si4 0.331439 0.974412 0.235442
Si Si5 0.425371 0.094118 0.901761
Si Si6 0.045463 0.356266 0.655390
Si Si7 0.691900 0.691526 0.690328
O O1 0.824196 0.467713 0.500000
O O2 0.793260 0.784649 0.500000
O O3 0.899432 0.694810 0.582305
O O4 0.812775 0.188171 0.414109
O O5 0.061427 0.749453 0.152338
O O6 0.126461 0.912559 0.270907
O O7 0.008613 0.779145 0.315910
O O8 0.000000 0.000000 0.200289
O O9 0.408852 0.904060 0.261435
O O10 0.265604 0.861420 0.260968
O O11 0.351504 0.007709 0.134635
O O12 0.317572 0.129506 0.287887
O O13 0.500000 0.000000 0.895810
O O14 0.407141 0.137708 0.000000
O O15 0.000000 0.500000 0.617895
#
# Coordination Sequence:
#
# PCOD8226786 Si02
#       7
#     4   4   8   8   8   8   8
#     4  12  25  34  63  87 128 165 217 269 301 366
#     4  12  20  38  53  93 120 167 220 255 305 371
#     4  11  24  40  62  91 127 162 210 264 318 375
#     4  11  21  39  61  89 122 160 205 255 313 375
#     4  10  20  40  69  94 120 159 204 252 315 389
#     4  12  20  41  59  87 123 167 212 257 311 372
#     4  11  23  37  60  86 122 168 206 259 308 368
#
# _framework density 19.573038
#
# number of rings (size 3 to 8) (size 9 to 14) (size 15 to 20)
#    0.000    0.833    8.333    0.250    2.333    2.333 
#    0.000    4.167    0.000    0.000    0.000    0.000 
#    0.000    0.000    0.000    0.000    0.000    0.000 
#
# Total GULP energy -594633.287657 kJ/mol
# GULP energy per Si atom -12388.193493 kJ/mol
# Density = 1.952849 g / cm^3
# Si number density = 19.573038 Si / 1000 Ang^3
#
#
#
# Elastic Constant Matrix: (Units=GPa)
#
#
# Indices 1 2 3 4 5 6 
#
# 1 108.7937 23.5982 47.6415 0.0000 0.0000 0.0000
# 2 23.5982 41.8278 27.1442 0.0000 0.0000 0.0000
# 3 47.6415 27.1442 152.2604 0.0000 0.0000 0.0000
# 4 0.0000 0.0000 0.0000 9.7518 0.0000 0.0000
# 5 0.0000 0.0000 0.0000 0.0000 41.6751 0.0000
# 6 0.0000 0.0000 0.0000 0.0000 0.0000 7.5041
#
#
#
# Elastic Compliance Matrix: (Units=1/GPa)
#
#
# Indices 1 2 3 4 5 6 
#
# 1 0.011400 -0.004655 -0.002737 0.000000 0.000000 0.000000
# 2 -0.004655 0.028936 -0.003702 0.000000 0.000000 0.000000
# 3 -0.002737 -0.003702 0.008084 0.000000 0.000000 0.000000
# 4 0.000000 0.000000 0.000000 0.102545 0.000000 0.000000
# 5 0.000000 0.000000 0.000000 0.000000 0.023995 0.000000
# 6 0.000000 0.000000 0.000000 0.000000 0.000000 0.133260
#
#
# Mechanical properties :
#
#
# Convention : Reuss Voigt Hill
#
# Bulk Modulus (GPa) = 38.12193 55.51662 46.81928
# Shear Modulus (GPa) = 14.74257 25.41941 20.08099
#
# Velocity S-wave (km/s) = 2.74744 3.60765 3.20652
# Velocity P-wave (km/s) = 5.43908 6.76601 6.13851
#
# Compressibility (1/GPa) = 0.02623162
#
# Stress axis : x y z
#
# Youngs Moduli (GPa) = 87.71862 34.55859 123.69981
#
# Poissons Ratio (x) = 0.16088 0.33858
# Poissons Ratio (y) = 0.40836 0.45793
# Poissons Ratio (z) = 0.24009 0.12794
#
# Static dielectric constant tensor:
#      x y z
#    x 0.001660 0.000000 0.000000 
#    y 0.000000 3.422320 0.000000 
#    z 0.000000 0.000000 3.820060 
# 
# 
# High freq. dielectric constant tensor:
#      x y z
#    x 1.779400 0.000000 0.000000 
#    y 0.000000 1.742550 0.000000 
#    z 0.000000 0.000000 1.757400 
# 
# From -- ./inp_files/17407.got.cif
#   From: 2010.03.12/outbox.cif.g09.slc.cpg/sg55_9_cif.got.tgz:17407.got - 2010.04.16 15:19:21.
