data_PCOD8226435
_publ_section_title
;
Structure prediction by ZEFSAII (Michael W. Deem and Ramdas Pophale) SiO2 
 PCOD8226435
Probable space group: P B A M
;
_chemical_formula_sum "Si O2"
_cell_formula_units_Z 64
_cell_length_a 28.609617
_cell_length_b 12.419533
_cell_length_c 8.785080
_cell_angle_alpha 90.000000
_cell_angle_beta 90.000000
_cell_angle_gamma 90.000000
_cell_volume 3121.497780
_symmetry_space_group_name_H-M "P B A M"
_symmetry_group_IT_number 55
_symmetry_cell_setting 'orthorhombic'
loop_
_space_group_symop_operation_xyz
x,y,z
-x,-y,z
1/2+x,1/2-y,-z
1/2-x,1/2+y,-z
-x,-y,-z
x,y,-z
1/2-x,1/2+y,z
1/2+x,1/2-y,z
loop_
_atom_site_type_symbol
_atom_site_label
_atom_site_fract_x
_atom_site_fract_y
_atom_site_fract_z
Si Si1 0.936265 0.249365 0.177748
Si Si2 0.882706 0.838690 0.821842
Si Si3 0.342768 0.286639 0.324923
Si Si4 0.051106 0.531677 0.674517
Si Si5 0.864160 0.618118 0.324733
Si Si6 0.982678 0.883765 0.680165
Si Si7 0.693243 0.483153 0.324458
Si Si8 0.703705 0.931380 0.680961
O O1 0.890083 0.186847 0.233122
O O2 0.929028 0.374042 0.220100
O O3 0.982375 0.206663 0.259879
O O4 0.942625 0.232992 0.000000
O O5 0.859999 0.725405 0.773926
O O6 0.931116 0.859438 0.737635
O O7 0.846812 0.932055 0.778185
O O8 0.892149 0.840301 0.000000
O O9 0.356853 0.266623 0.500000
O O10 0.308345 0.387766 0.308373
O O11 0.316678 0.181605 0.257031
O O12 0.050320 0.572102 0.500000
O O13 0.083624 0.427751 0.692118
O O14 0.000000 0.500000 0.732535
O O15 0.852907 0.646236 0.500000
O O16 0.827483 0.530796 0.259352
O O17 0.981944 0.878989 0.500000
O O18 0.000000 0.000000 0.739216
O O19 0.685804 0.448453 0.500000
O O20 0.743349 0.444625 0.261372
O O21 0.702208 0.931187 0.500000
#
# Coordination Sequence:
#
# PCOD8226435 Si02
#       8
#     8   8   8   8   8   8   8   8
#     4  12  24  37  59  91 127 164 199 249 313 381
#     4  12  26  42  61  92 134 171 204 252 317 387
#     4  10  20  39  64  92 124 160 211 265 311 367
#     4  10  20  36  60  88 118 158 205 253 306 363
#     4  10  20  38  64  90 122 163 211 264 312 363
#     4  11  24  43  67  91 119 162 217 267 308 362
#     4  10  22  39  66  95 121 160 214 268 314 367
#     4   9  19  37  65  96 119 155 211 270 317 359
#
# _framework density 20.502977999999999
#
# number of rings (size 3 to 8) (size 9 to 14) (size 15 to 20)
#    0.000    1.500    1.250    4.125    1.750    6.250 
#    0.000    1.250    0.000    0.000    0.000    0.000 
#    0.000    0.000    0.000    0.000    0.000    0.000 
#
# Total GULP energy -793951.866704 kJ/mol
# GULP energy per Si atom -12405.497917 kJ/mol
# Density = 2.045631 g / cm^3
# Si number density = 20.502978 Si / 1000 Ang^3
#
#
#
# Elastic Constant Matrix: (Units=GPa)
#
#
# Indices 1 2 3 4 5 6 
#
# 1 132.8064 36.4988 22.4172 0.0000 0.0000 0.0000
# 2 36.4988 107.5821 28.0537 0.0000 0.0000 0.0000
# 3 22.4172 28.0537 68.5574 0.0000 0.0000 0.0000
# 4 0.0000 0.0000 0.0000 16.2871 0.0000 0.0000
# 5 0.0000 0.0000 0.0000 0.0000 6.9185 0.0000
# 6 0.0000 0.0000 0.0000 0.0000 0.0000 36.5728
#
#
#
# Elastic Compliance Matrix: (Units=1/GPa)
#
#
# Indices 1 2 3 4 5 6 
#
# 1 0.008496 -0.002416 -0.001789 0.000000 0.000000 0.000000
# 2 -0.002416 0.011092 -0.003749 0.000000 0.000000 0.000000
# 3 -0.001789 -0.003749 0.016706 0.000000 0.000000 0.000000
# 4 0.000000 0.000000 0.000000 0.061398 0.000000 0.000000
# 5 0.000000 0.000000 0.000000 0.000000 0.144540 0.000000
# 6 0.000000 0.000000 0.000000 0.000000 0.000000 0.027343
#
#
# Mechanical properties :
#
#
# Convention : Reuss Voigt Hill
#
# Bulk Modulus (GPa) = 49.05527 53.65393 51.35460
# Shear Modulus (GPa) = 17.10699 26.75409 21.93054
#
# Velocity S-wave (km/s) = 2.89167 3.61624 3.27406
# Velocity P-wave (km/s) = 5.92679 6.60772 6.27650
#
# Compressibility (1/GPa) = 0.02038517
#
# Stress axis : x y z
#
# Youngs Moduli (GPa) = 117.70654 90.15160 59.86016
#
# Poissons Ratio (x) = 0.21778 0.10712
# Poissons Ratio (y) = 0.28434 0.22442
# Poissons Ratio (z) = 0.21063 0.33799
#
# Static dielectric constant tensor:
#      x y z
#    x 3.854830 0.000000 0.000000 
#    y 0.000000 3.798630 0.000000 
#    z 0.000000 0.000000 3.432190 
# 
# 
# High freq. dielectric constant tensor:
#      x y z
#    x 1.812770 0.000000 0.000000 
#    y 0.000000 1.812410 0.000000 
#    z 0.000000 0.000000 1.771180 
# 
# From -- ./inp_files/10794.got.cif
#   From: 2010.03.12/outbox.cif.g09.slc.cpg/sg55_6_cif.got.tgz:10794.got - 2010.04.16 15:19:21.
