data_PCOD8226803
_publ_section_title
;
Structure prediction by ZEFSAII (Michael W. Deem and Ramdas Pophale) SiO2 
 PCOD8226803
Probable space group: P B A M
;
_chemical_formula_sum "Si O2"
_cell_formula_units_Z 56
_cell_length_a 21.147268
_cell_length_b 10.025302
_cell_length_c 14.008105
_cell_angle_alpha 90.000000
_cell_angle_beta 90.000000
_cell_angle_gamma 90.000000
_cell_volume 2969.826797
_symmetry_space_group_name_H-M "P B A M"
_symmetry_group_IT_number 55
_symmetry_cell_setting 'orthorhombic'
loop_
_space_group_symop_operation_xyz
x,y,z
-x,-y,z
1/2+x,1/2-y,-z
1/2-x,1/2+y,-z
-x,-y,-z
x,y,-z
1/2-x,1/2+y,z
1/2+x,1/2-y,z
loop_
_atom_site_type_symbol
_atom_site_label
_atom_site_fract_x
_atom_site_fract_y
_atom_site_fract_z
Si Si1 0.490920 0.844415 0.610011
Si Si2 0.813614 0.503957 0.699906
Si Si3 0.397992 0.241009 0.730359
Si Si4 0.895082 0.724691 0.229915
Si Si5 0.991869 0.344135 0.109250
Si Si6 0.798643 0.605963 0.500000
Si Si7 0.181513 0.085524 0.500000
Si Si8 0.336138 0.519275 0.295965
O O1 0.475172 0.815408 0.500000
O O2 0.555588 0.771117 0.639830
O O3 0.434066 0.786916 0.671932
O O4 0.500000 0.000000 0.632435
O O5 0.838108 0.354791 0.714987
O O6 0.845319 0.602438 0.777366
O O7 0.835392 0.558829 0.595234
O O8 0.738584 0.504152 0.711601
O O9 0.433483 0.207846 0.828663
O O10 0.372969 0.389873 0.737743
O O11 0.942441 0.724587 0.140239
O O12 0.856450 0.862160 0.225572
O O13 0.000000 0.500000 0.127614
O O14 0.977564 0.308817 0.000000
O O15 0.787898 0.766054 0.500000
O O16 0.732160 0.532589 0.500000
O O17 0.142197 0.062395 0.596862
#
# Coordination Sequence:
#
# PCOD8226803 Si02
#       8
#     8   8   8   8   8   4   4   8
#     4  10  21  34  55  79 107 152 199 247 289 338
#     4  11  21  37  59  82 123 166 202 238 282 355
#     4  11  22  39  59  90 115 155 201 246 301 357
#     4  11  20  39  60  87 116 155 195 244 301 351
#     4  10  21  42  71  94 110 145 202 256 304 368
#     4  10  22  32  52  79 117 173 212 236 275 332
#     4  10  22  36  48  81 120 172 213 235 272 337
#     4  11  25  35  56  86 131 160 201 241 292 351
#
# _framework density 18.856318000000002
#
# number of rings (size 3 to 8) (size 9 to 14) (size 15 to 20)
#    0.000    1.429    4.286    1.714   10.000    2.286 
#    0.000    2.143    0.000    5.143    0.000    0.000 
#    0.000    0.000    0.000    0.000    0.000    0.000 
#
# Total GULP energy -694418.778917 kJ/mol
# GULP energy per Si atom -12400.335338 kJ/mol
# Density = 1.881340 g / cm^3
# Si number density = 18.856318 Si / 1000 Ang^3
#
#
#
# Elastic Constant Matrix: (Units=GPa)
#
#
# Indices 1 2 3 4 5 6 
#
# 1 83.2212 32.9251 24.7276 0.0000 0.0000 0.0000
# 2 32.9251 121.8048 27.6530 0.0000 0.0000 0.0000
# 3 24.7276 27.6530 90.4216 0.0000 0.0000 0.0000
# 4 0.0000 0.0000 0.0000 15.9911 0.0000 0.0000
# 5 0.0000 0.0000 0.0000 0.0000 19.3953 0.0000
# 6 0.0000 0.0000 0.0000 0.0000 0.0000 18.2812
#
#
#
# Elastic Compliance Matrix: (Units=1/GPa)
#
#
# Indices 1 2 3 4 5 6 
#
# 1 0.014128 -0.003161 -0.002897 0.000000 0.000000 0.000000
# 2 -0.003161 0.009530 -0.002050 0.000000 0.000000 0.000000
# 3 -0.002897 -0.002050 0.012478 0.000000 0.000000 0.000000
# 4 0.000000 0.000000 0.000000 0.062535 0.000000 0.000000
# 5 0.000000 0.000000 0.000000 0.000000 0.051559 0.000000
# 6 0.000000 0.000000 0.000000 0.000000 0.000000 0.054701
#
#
# Mechanical properties :
#
#
# Convention : Reuss Voigt Hill
#
# Bulk Modulus (GPa) = 50.20070 51.78434 50.99252
# Shear Modulus (GPa) = 21.95044 24.74299 23.34672
#
# Velocity S-wave (km/s) = 3.41558 3.62634 3.52254
# Velocity P-wave (km/s) = 6.49888 6.71238 6.60649
#
# Compressibility (1/GPa) = 0.01992004
#
# Stress axis : x y z
#
# Youngs Moduli (GPa) = 70.78372 104.93460 80.13859
#
# Poissons Ratio (x) = 0.33172 0.23214
# Poissons Ratio (y) = 0.22376 0.16428
# Poissons Ratio (z) = 0.20504 0.21511
#
# Static dielectric constant tensor:
#      x y z
#    x 3.432750 0.000000 0.000000 
#    y 0.000000 3.458970 0.000000 
#    z 0.000000 0.000000 3.372490 
# 
# 
# High freq. dielectric constant tensor:
#      x y z
#    x 1.735980 0.000000 0.000000 
#    y 0.000000 1.738040 0.000000 
#    z 0.000000 0.000000 1.701610 
# 
# From -- ./inp_files/17678.got.cif
#   From: 2010.03.12/outbox.cif.g09.slc.cpg/sg55_9_cif.got.tgz:17678.got - 2010.04.16 15:19:21.
