data_PCOD8226676
_publ_section_title
;
Structure prediction by ZEFSAII (Michael W. Deem and Ramdas Pophale) SiO2 
 PCOD8226676
Probable space group: P B A M
;
_chemical_formula_sum "Si O2"
_cell_formula_units_Z 48
_cell_length_a 9.331944
_cell_length_b 30.561154
_cell_length_c 8.383580
_cell_angle_alpha 90.000000
_cell_angle_beta 90.000000
_cell_angle_gamma 90.000000
_cell_volume 2390.954911
_symmetry_space_group_name_H-M "P B A M"
_symmetry_group_IT_number 55
_symmetry_cell_setting 'orthorhombic'
loop_
_space_group_symop_operation_xyz
x,y,z
-x,-y,z
1/2+x,1/2-y,-z
1/2-x,1/2+y,-z
-x,-y,-z
x,y,-z
1/2-x,1/2+y,z
1/2+x,1/2-y,z
loop_
_atom_site_type_symbol
_atom_site_label
_atom_site_fract_x
_atom_site_fract_y
_atom_site_fract_z
Si Si1 0.917980 0.786851 0.816774
Si Si2 0.594703 0.134954 0.313869
Si Si3 0.104029 0.711185 0.314249
Si Si4 0.108975 0.462474 0.314138
Si Si5 0.586470 0.541554 0.184407
Si Si6 0.582194 0.634276 0.313776
O O1 0.750257 0.783248 0.781119
O O2 0.006669 0.753915 0.706039
O O3 0.972074 0.835759 0.782482
O O4 0.944209 0.774619 0.000000
O O5 0.602969 0.144363 0.500000
O O6 0.482331 0.169520 0.240535
O O7 0.541577 0.085487 0.278386
O O8 0.756026 0.142109 0.247008
O O9 0.140170 0.704633 0.500000
O O10 0.151862 0.465743 0.500000
O O11 0.247247 0.469364 0.206656
O O12 0.000000 0.500000 0.262765
O O13 0.500000 0.500000 0.250223
O O14 0.539066 0.583921 0.284978
O O15 0.552495 0.550373 0.000000
O O16 0.570149 0.644939 0.500000
#
# Coordination Sequence:
#
# PCOD8226676 Si02
#       6
#     8   8   8   8   8   8
#     4  12  25  40  58  86 120 150 186 237 294 343
#     4   8  17  34  57  83 109 140 186 240 282 323
#     4  11  22  39  61  84 113 153 197 235 279 342
#     4   9  18  34  56  82 111 146 192 239 280 330
#     4  10  21  36  54  81 117 152 187 232 287 341
#     4  10  20  38  62  85 110 147 194 238 284 342
#
# _framework density 20.075659999999999
#
# number of rings (size 3 to 8) (size 9 to 14) (size 15 to 20)
#    0.000    2.000    0.000    5.000    0.000    4.333 
#    0.000    9.167    0.000    0.000    0.000    0.000 
#    0.000    0.000    0.000    0.000    0.000    0.000 
#
# Total GULP energy -595302.323292 kJ/mol
# GULP energy per Si atom -12402.131735 kJ/mol
# Density = 2.002997 g / cm^3
# Si number density = 20.075660 Si / 1000 Ang^3
#
#
#
# Elastic Constant Matrix: (Units=GPa)
#
#
# Indices 1 2 3 4 5 6 
#
# 1 99.3535 66.2635 10.7238 0.0000 0.0000 0.0000
# 2 66.2635 131.8244 12.1946 0.0000 0.0000 0.0000
# 3 10.7238 12.1946 48.2751 0.0000 0.0000 0.0000
# 4 0.0000 0.0000 0.0000 23.8219 0.0000 0.0000
# 5 0.0000 0.0000 0.0000 0.0000 28.0213 0.0000
# 6 0.0000 0.0000 0.0000 0.0000 0.0000 45.3555
#
#
#
# Elastic Compliance Matrix: (Units=1/GPa)
#
#
# Indices 1 2 3 4 5 6 
#
# 1 0.015244 -0.007525 -0.001485 0.000000 0.000000 0.000000
# 2 -0.007525 0.011482 -0.001229 0.000000 0.000000 0.000000
# 3 -0.001485 -0.001229 0.021355 0.000000 0.000000 0.000000
# 4 0.000000 0.000000 0.000000 0.041978 0.000000 0.000000
# 5 0.000000 0.000000 0.000000 0.000000 0.035687 0.000000
# 6 0.000000 0.000000 0.000000 0.000000 0.000000 0.022048
#
#
# Mechanical properties :
#
#
# Convention : Reuss Voigt Hill
#
# Bulk Modulus (GPa) = 36.22871 50.86854 43.54863
# Shear Modulus (GPa) = 28.17291 32.12445 30.14868
#
# Velocity S-wave (km/s) = 3.75018 4.00455 3.87945
# Velocity P-wave (km/s) = 6.06935 6.83925 6.46577
#
# Compressibility (1/GPa) = 0.02760242
#
# Stress axis : x y z
#
# Youngs Moduli (GPa) = 65.59748 87.09054 46.82742
#
# Poissons Ratio (x) = 0.65540 0.06956
# Poissons Ratio (y) = 0.49365 0.05754
# Poissons Ratio (z) = 0.09744 0.10702
#
# Static dielectric constant tensor:
#      x y z
#    x 3.668410 0.000000 0.000000 
#    y 0.000000 3.845780 0.000000 
#    z 0.000000 0.000000 3.382860 
# 
# 
# High freq. dielectric constant tensor:
#      x y z
#    x 1.776570 0.000000 0.000000 
#    y 0.000000 1.797300 0.000000 
#    z 0.000000 0.000000 1.767900 
# 
# From -- ./inp_files/2868.got.cif
#   From: 2010.03.12/outbox.cif.g09.slc.cpg/sg55_2_cif.got.tgz:2868.got - 2010.04.16 15:19:21.
