data_PCOD8226646
_publ_section_title
;
Structure prediction by ZEFSAII (Michael W. Deem and Ramdas Pophale) SiO2 
 PCOD8226646
Probable space group: P B A M
;
_chemical_formula_sum "Si O2"
_cell_formula_units_Z 56
_cell_length_a 22.650465
_cell_length_b 10.011298
_cell_length_c 14.217401
_cell_angle_alpha 90.000000
_cell_angle_beta 90.000000
_cell_angle_gamma 90.000000
_cell_volume 3223.945741
_symmetry_space_group_name_H-M "P B A M"
_symmetry_group_IT_number 55
_symmetry_cell_setting 'orthorhombic'
loop_
_space_group_symop_operation_xyz
x,y,z
-x,-y,z
1/2+x,1/2-y,-z
1/2-x,1/2+y,-z
-x,-y,-z
x,y,-z
1/2-x,1/2+y,z
1/2+x,1/2-y,z
loop_
_atom_site_type_symbol
_atom_site_label
_atom_site_fract_x
_atom_site_fract_y
_atom_site_fract_z
Si Si1 0.801313 0.475201 0.890202
Si Si2 0.181026 0.692759 0.605215
Si Si3 0.623318 0.755251 0.204841
Si Si4 0.622511 0.231592 0.106836
Si Si5 0.008524 0.652430 0.891977
Si Si6 0.225806 0.975585 0.604340
Si Si7 0.176885 0.020912 0.206429
O O1 0.829139 0.337460 0.855181
O O2 0.849237 0.589199 0.868522
O O3 0.741593 0.507145 0.835128
O O4 0.786579 0.463071 0.000000
O O5 0.152882 0.698226 0.500000
O O6 0.130662 0.712547 0.683916
O O7 0.229512 0.813576 0.615622
O O8 0.211362 0.548388 0.621259
O O9 0.556421 0.783919 0.176572
O O10 0.634557 0.601148 0.179131
O O11 0.552613 0.229386 0.123209
O O12 0.650348 0.341418 0.172849
O O13 0.637508 0.270241 0.000000
O O14 0.000000 0.500000 0.863181
O O15 0.030420 0.662634 0.000000
O O16 0.202580 0.012970 0.500000
O O17 0.179983 0.031722 0.680553
#
# Coordination Sequence:
#
# PCOD8226646 Si02
#       7
#     8   8   8   8   8   8   8
#     4  11  21  34  52  76 110 145 174 209 264 326
#     4   9  18  33  53  79 108 139 175 218 267 317
#     4  11  21  34  56  79 103 143 182 219 264 316
#     4  10  22  37  54  77 108 143 180 222 259 311
#     4  10  20  38  58  75  99 142 193 225 255 312
#     4   9  18  32  51  76 109 142 173 211 260 325
#     4  11  22  33  51  83 114 135 170 221 278 319
#
# _framework density 17.370018999999999
#
# number of rings (size 3 to 8) (size 9 to 14) (size 15 to 20)
#    0.000    1.857    2.857    1.714    2.000    4.000 
#    0.000    1.429    0.000    1.286    0.000    4.000 
#    0.000    0.000    0.000    0.000    0.000    0.000 
#
# Total GULP energy -694310.090969 kJ/mol
# GULP energy per Si atom -12398.394482 kJ/mol
# Density = 1.733048 g / cm^3
# Si number density = 17.370019 Si / 1000 Ang^3
#
#
#
# Elastic Constant Matrix: (Units=GPa)
#
#
# Indices 1 2 3 4 5 6 
#
# 1 63.2955 9.6583 32.0015 0.0000 0.0000 0.0000
# 2 9.6583 46.7472 33.3268 0.0000 0.0000 0.0000
# 3 32.0015 33.3268 90.5939 0.0000 0.0000 0.0000
# 4 0.0000 0.0000 0.0000 22.1356 0.0000 0.0000
# 5 0.0000 0.0000 0.0000 0.0000 21.2822 0.0000
# 6 0.0000 0.0000 0.0000 0.0000 0.0000 21.2378
#
#
#
# Elastic Compliance Matrix: (Units=1/GPa)
#
#
# Indices 1 2 3 4 5 6 
#
# 1 0.019282 0.001182 -0.007246 0.000000 0.000000 0.000000
# 2 0.001182 0.029069 -0.011111 0.000000 0.000000 0.000000
# 3 -0.007246 -0.011111 0.017685 0.000000 0.000000 0.000000
# 4 0.000000 0.000000 0.000000 0.045176 0.000000 0.000000
# 5 0.000000 0.000000 0.000000 0.000000 0.046988 0.000000
# 6 0.000000 0.000000 0.000000 0.000000 0.000000 0.047086
#
#
# Mechanical properties :
#
#
# Convention : Reuss Voigt Hill
#
# Bulk Modulus (GPa) = 31.55977 38.95665 35.25821
# Shear Modulus (GPa) = 19.98419 21.30779 20.64599
#
# Velocity S-wave (km/s) = 3.39558 3.50623 3.45135
# Velocity P-wave (km/s) = 5.79498 6.23440 6.01870
#
# Compressibility (1/GPa) = 0.03168591
#
# Stress axis : x y z
#
# Youngs Moduli (GPa) = 51.86161 34.40125 56.54412
#
# Poissons Ratio (x) = -0.04066 0.40972
# Poissons Ratio (y) = -0.06130 0.62826
# Poissons Ratio (z) = 0.37579 0.38223
#
# Static dielectric constant tensor:
#      x y z
#    x 3.045430 0.000000 0.000000 
#    y 0.000000 3.332820 0.000000 
#    z 0.000000 0.000000 3.451830 
# 
# 
# High freq. dielectric constant tensor:
#      x y z
#    x 1.639440 0.000000 0.000000 
#    y 0.000000 1.681290 0.000000 
#    z 0.000000 0.000000 1.679340 
# 
# From -- ./inp_files/17650.got.cif
#   From: 2010.03.12/outbox.cif.g09.slc.cpg/sg55_9_cif.got.tgz:17650.got - 2010.04.16 15:19:21.
