data_PCOD8226579
_publ_section_title
;
Structure prediction by ZEFSAII (Michael W. Deem and Ramdas Pophale) SiO2 
 PCOD8226579
Probable space group: P B A M
;
_chemical_formula_sum "Si O2"
_cell_formula_units_Z 60
_cell_length_a 15.956885
_cell_length_b 15.109259
_cell_length_c 12.500159
_cell_angle_alpha 90.000000
_cell_angle_beta 90.000000
_cell_angle_gamma 90.000000
_cell_volume 3013.747188
_symmetry_space_group_name_H-M "P B A M"
_symmetry_group_IT_number 55
_symmetry_cell_setting 'orthorhombic'
loop_
_space_group_symop_operation_xyz
x,y,z
-x,-y,z
1/2+x,1/2-y,-z
1/2-x,1/2+y,-z
-x,-y,-z
x,y,-z
1/2-x,1/2+y,z
1/2+x,1/2-y,z
loop_
_atom_site_type_symbol
_atom_site_label
_atom_site_fract_x
_atom_site_fract_y
_atom_site_fract_z
Si Si1 0.122812 0.144236 0.872061
Si Si2 0.091717 0.884725 0.617023
Si Si3 0.573689 0.814102 0.622116
Si Si4 0.290477 0.090917 0.745008
Si Si5 0.000000 0.000000 0.787540
Si Si6 0.402429 0.987240 0.115093
Si Si7 0.280076 0.907801 0.619787
Si Si8 0.087029 0.321887 0.749716
O O1 0.207462 0.124689 0.805529
O O2 0.082342 0.229835 0.814519
O O3 0.056088 0.064251 0.861158
O O4 0.139289 0.159052 0.000000
O O5 0.070459 0.926979 0.500000
O O6 0.049780 0.789160 0.626235
O O7 0.189442 0.864578 0.625873
O O8 0.062673 0.946997 0.711801
O O9 0.567389 0.849424 0.500000
O O10 0.667070 0.836623 0.666199
O O11 0.500750 0.854320 0.697274
O O12 0.361751 0.073101 0.831997
O O13 0.275071 0.999705 0.683504
O O14 0.380356 0.895502 0.169536
O O15 0.500000 0.000000 0.107994
O O16 0.360187 0.980389 0.000000
O O17 0.307137 0.932726 0.500000
O O18 0.341828 0.829008 0.658541
#
# Coordination Sequence:
#
# PCOD8226579 Si02
#       8
#     8   8   8   8   4   8   8   8
#     4  12  26  44  66  91 124 167 221 271 324 374
#     4  10  21  39  61  88 123 157 202 250 306 377
#     4  11  22  38  62  95 128 164 201 249 314 381
#     4  11  22  40  63  92 129 163 204 264 311 377
#     4  12  22  44  66  90 116 160 212 266 320 362
#     4  10  20  37  61  87 119 164 210 253 309 369
#     4  10  21  38  63  94 126 165 202 248 311 382
#     4  11  22  40  62  90 131 164 207 260 310 377
#
# _framework density 19.908771000000002
#
# number of rings (size 3 to 8) (size 9 to 14) (size 15 to 20)
#    0.000    1.200    4.000    2.800    0.000    0.000 
#    0.000    4.000    0.000    0.000    0.000    0.000 
#    0.000    0.000    0.000    0.000    0.000    0.000 
#
# Total GULP energy -743493.995876 kJ/mol
# GULP energy per Si atom -12391.566598 kJ/mol
# Density = 1.986346 g / cm^3
# Si number density = 19.908771 Si / 1000 Ang^3
#
#
#
# Elastic Constant Matrix: (Units=GPa)
#
#
# Indices 1 2 3 4 5 6 
#
# 1 81.3836 17.6122 43.6284 0.0000 0.0000 0.0000
# 2 17.6122 68.8479 30.5127 0.0000 0.0000 0.0000
# 3 43.6284 30.5127 133.0710 0.0000 0.0000 0.0000
# 4 0.0000 0.0000 0.0000 22.7498 0.0000 0.0000
# 5 0.0000 0.0000 0.0000 0.0000 24.2400 0.0000
# 6 0.0000 0.0000 0.0000 0.0000 0.0000 32.0957
#
#
#
# Elastic Compliance Matrix: (Units=1/GPa)
#
#
# Indices 1 2 3 4 5 6 
#
# 1 0.015119 -0.001860 -0.004530 0.000000 0.000000 0.000000
# 2 -0.001860 0.016397 -0.003150 0.000000 0.000000 0.000000
# 3 -0.004530 -0.003150 0.009722 0.000000 0.000000 0.000000
# 4 0.000000 0.000000 0.000000 0.043956 0.000000 0.000000
# 5 0.000000 0.000000 0.000000 0.000000 0.041254 0.000000
# 6 0.000000 0.000000 0.000000 0.000000 0.000000 0.031157
#
#
# Mechanical properties :
#
#
# Convention : Reuss Voigt Hill
#
# Bulk Modulus (GPa) = 45.13147 51.86766 48.49956
# Shear Modulus (GPa) = 27.16348 28.58705 27.87527
#
# Velocity S-wave (km/s) = 3.69778 3.79344 3.74592
# Velocity P-wave (km/s) = 6.39920 6.73024 6.56681
#
# Compressibility (1/GPa) = 0.02215749
#
# Stress axis : x y z
#
# Youngs Moduli (GPa) = 66.14379 60.98846 102.85579
#
# Poissons Ratio (x) = 0.11342 0.46597
# Poissons Ratio (y) = 0.12301 0.32399
# Poissons Ratio (z) = 0.29965 0.19211
#
# Static dielectric constant tensor:
#      x y z
#    x 3.630610 0.000000 0.000000 
#    y 0.000000 3.452020 0.000000 
#    z 0.000000 0.000000 3.990750 
# 
# 
# High freq. dielectric constant tensor:
#      x y z
#    x 1.779210 0.000000 0.000000 
#    y 0.000000 1.770720 0.000000 
#    z 0.000000 0.000000 1.788580 
# 
# From -- ./inp_files/14955.got.cif
#   From: 2010.03.12/outbox.cif.g09.slc.cpg/sg55_8_cif.got.tgz:14955.got - 2010.04.16 15:19:21.
