data_PCOD8226539
_publ_section_title
;
Structure prediction by ZEFSAII (Michael W. Deem and Ramdas Pophale) SiO2 
 PCOD8226539
Probable space group: P B A M
;
_chemical_formula_sum "Si O2"
_cell_formula_units_Z 48
_cell_length_a 8.927373
_cell_length_b 15.364926
_cell_length_c 17.156258
_cell_angle_alpha 90.000000
_cell_angle_beta 90.000000
_cell_angle_gamma 90.000000
_cell_volume 2353.296898
_symmetry_space_group_name_H-M "P B A M"
_symmetry_group_IT_number 55
_symmetry_cell_setting 'orthorhombic'
loop_
_space_group_symop_operation_xyz
x,y,z
-x,-y,z
1/2+x,1/2-y,-z
1/2-x,1/2+y,-z
-x,-y,-z
x,y,-z
1/2-x,1/2+y,z
1/2+x,1/2-y,z
loop_
_atom_site_type_symbol
_atom_site_label
_atom_site_fract_x
_atom_site_fract_y
_atom_site_fract_z
Si Si1 0.177456 0.507180 0.914065
Si Si2 0.659254 0.173862 0.657838
Si Si3 0.681966 0.162742 0.163542
Si Si4 0.332011 0.165631 0.409208
Si Si5 0.873516 0.303663 0.090332
Si Si6 0.328414 0.487154 0.590937
O O1 0.241229 0.435816 0.853474
O O2 0.214319 0.606377 0.888270
O O3 0.000000 0.500000 0.917617
O O4 0.245358 0.488934 0.000000
O O5 0.622131 0.170228 0.748942
O O6 0.743238 0.263251 0.639823
O O7 0.507253 0.167577 0.609227
O O8 0.767289 0.094374 0.638015
O O9 0.817056 0.228524 0.147594
O O10 0.550058 0.186248 0.103998
O O11 0.307657 0.185636 0.500000
O O12 0.267367 0.071675 0.386455
O O13 0.848349 0.279401 0.000000
O O14 0.500000 0.500000 0.615512
O O15 0.314449 0.465637 0.500000
#
# Coordination Sequence:
#
# PCOD8226539 Si02
#       6
#     8   8   8   8   8   8
#     4   8  16  33  56  78 104 145 188 221 267 338
#     4  12  24  38  59  90 124 157 198 253 310 356
#     4  11  22  36  57  87 118 149 187 241 297 347
#     4  11  23  40  62  85 117 162 209 251 295 360
#     4  10  20  37  60  83 113 154 197 235 280 349
#     4  10  22  41  64  88 116 156 205 253 303 364
#
# _framework density 20.396916000000001
#
# number of rings (size 3 to 8) (size 9 to 14) (size 15 to 20)
#    0.000    1.667    0.000    6.500    0.000    8.000 
#    0.000    0.833    0.000    3.000    0.000    0.000 
#    0.000    0.000    0.000    0.000    0.000    0.000 
#
# Total GULP energy -595298.866687 kJ/mol
# GULP energy per Si atom -12402.059723 kJ/mol
# Density = 2.035049 g / cm^3
# Si number density = 20.396916 Si / 1000 Ang^3
#
#
#
# Elastic Constant Matrix: (Units=GPa)
#
#
# Indices 1 2 3 4 5 6 
#
# 1 68.0041 12.2616 -0.9788 0.0000 0.0000 0.0000
# 2 12.2616 66.6416 23.6448 0.0000 0.0000 0.0000
# 3 -0.9788 23.6448 70.1423 0.0000 0.0000 0.0000
# 4 0.0000 0.0000 0.0000 11.7358 0.0000 0.0000
# 5 0.0000 0.0000 0.0000 0.0000 24.3318 0.0000
# 6 0.0000 0.0000 0.0000 0.0000 0.0000 34.4995
#
#
#
# Elastic Compliance Matrix: (Units=1/GPa)
#
#
# Indices 1 2 3 4 5 6 
#
# 1 0.015317 -0.003287 0.001322 0.000000 0.000000 0.000000
# 2 -0.003287 0.017750 -0.006029 0.000000 0.000000 0.000000
# 3 0.001322 -0.006029 0.016308 0.000000 0.000000 0.000000
# 4 0.000000 0.000000 0.000000 0.085209 0.000000 0.000000
# 5 0.000000 0.000000 0.000000 0.000000 0.041098 0.000000
# 6 0.000000 0.000000 0.000000 0.000000 0.000000 0.028986
#
#
# Mechanical properties :
#
#
# Convention : Reuss Voigt Hill
#
# Bulk Modulus (GPa) = 29.95368 30.51589 30.23479
# Shear Modulus (GPa) = 21.57172 25.43746 23.50459
#
# Velocity S-wave (km/s) = 3.25560 3.53529 3.39833
# Velocity P-wave (km/s) = 5.37114 5.62654 5.50032
#
# Compressibility (1/GPa) = 0.03338488
#
# Stress axis : x y z
#
# Youngs Moduli (GPa) = 65.28816 56.33912 61.32107
#
# Poissons Ratio (x) = 0.18520 -0.08106
# Poissons Ratio (y) = 0.21461 0.36972
# Poissons Ratio (z) = -0.08630 0.33968
#
# Static dielectric constant tensor:
#      x y z
#    x 3.429360 0.000000 0.000000 
#    y 0.000000 4.138840 0.000000 
#    z 0.000000 0.000000 3.674250 
# 
# 
# High freq. dielectric constant tensor:
#      x y z
#    x 1.777050 0.000000 0.000000 
#    y 0.000000 1.817060 0.000000 
#    z 0.000000 0.000000 1.793220 
# 
# From -- ./inp_files/20782.got.cif
#   From: 2010.03.12/outbox.cif.g09.slc.cpg/sg55_11_cif.got.tgz:20782.got - 2010.04.16 15:19:21.
