data_PCOD8226333
_publ_section_title
;
Structure prediction by ZEFSAII (Michael W. Deem and Ramdas Pophale) SiO2 
 PCOD8226333
Probable space group: P B A M
;
_chemical_formula_sum "Si O2"
_cell_formula_units_Z 64
_cell_length_a 9.783262
_cell_length_b 22.309601
_cell_length_c 15.218578
_cell_angle_alpha 90.000000
_cell_angle_beta 90.000000
_cell_angle_gamma 90.000000
_cell_volume 3321.617057
_symmetry_space_group_name_H-M "P B A M"
_symmetry_group_IT_number 55
_symmetry_cell_setting 'orthorhombic'
loop_
_space_group_symop_operation_xyz
x,y,z
-x,-y,z
1/2+x,1/2-y,-z
1/2-x,1/2+y,-z
-x,-y,-z
x,y,-z
1/2-x,1/2+y,z
1/2+x,1/2-y,z
loop_
_atom_site_type_symbol
_atom_site_label
_atom_site_fract_x
_atom_site_fract_y
_atom_site_fract_z
Si Si1 0.767381 0.909355 0.098958
Si Si2 0.858386 0.921141 0.400781
Si Si3 0.835156 0.061866 0.401215
Si Si4 0.844648 0.357608 0.731613
Si Si5 0.957459 0.806472 0.099849
Si Si6 0.354574 0.968718 0.900455
Si Si7 0.224277 0.763175 0.802145
Si Si8 0.146188 0.380759 0.740328
O O1 0.664565 0.879547 0.167653
O O2 0.916209 0.877406 0.111005
O O3 0.766146 0.981427 0.114136
O O4 0.712323 0.896121 0.000000
O O5 0.821850 0.900351 0.500000
O O6 0.769437 0.885160 0.331149
O O7 0.017448 0.909097 0.380298
O O8 0.833548 0.991022 0.390169
O O9 0.792151 0.079220 0.500000
O O10 0.726385 0.085983 0.334514
O O11 0.827185 0.285892 0.731581
O O12 0.993306 0.378653 0.701879
O O13 0.093101 0.793286 0.153460
O O14 0.828483 0.766220 0.128626
O O15 0.989719 0.790514 0.000000
O O16 0.334870 0.914416 0.833294
O O17 0.500000 0.000000 0.883611
O O18 0.346333 0.943146 0.000000
O O19 0.303652 0.813267 0.748511
#
# Coordination Sequence:
#
# PCOD8226333 Si02
#       8
#     8   8   8   8   8   8   8   8
#     4   9  19  35  57  84 119 160 199 245 299 361
#     4   9  20  41  67  94 123 159 197 240 307 379
#     4   9  21  40  64  95 127 156 193 246 310 375
#     4  11  22  38  62  87 120 160 209 252 298 352
#     4  10  21  39  61  81 114 163 214 261 306 351
#     4  10  20  36  57  87 127 163 202 248 304 372
#     4  11  24  41  55  87 121 162 210 260 300 359
#     4  12  24  37  61  92 125 161 203 257 307 357
#
# _framework density 19.267723
#
# number of rings (size 3 to 8) (size 9 to 14) (size 15 to 20)
#    0.000    1.875    2.500    1.875    3.500    2.000 
#    0.000    1.875    0.000    2.250    0.000    0.000 
#    0.000    0.000    0.000    0.000    0.000    0.000 
#
# Total GULP energy -793359.691786 kJ/mol
# GULP energy per Si atom -12396.245184 kJ/mol
# Density = 1.922387 g / cm^3
# Si number density = 19.267723 Si / 1000 Ang^3
#
#
#
# Elastic Constant Matrix: (Units=GPa)
#
#
# Indices 1 2 3 4 5 6 
#
# 1 102.7778 23.2881 51.6003 0.0000 0.0000 0.0000
# 2 23.2881 20.3010 8.3244 0.0000 0.0000 0.0000
# 3 51.6003 8.3244 87.7491 0.0000 0.0000 0.0000
# 4 0.0000 0.0000 0.0000 10.7887 0.0000 0.0000
# 5 0.0000 0.0000 0.0000 0.0000 29.7236 0.0000
# 6 0.0000 0.0000 0.0000 0.0000 0.0000 33.1139
#
#
#
# Elastic Compliance Matrix: (Units=1/GPa)
#
#
# Indices 1 2 3 4 5 6 
#
# 1 0.018150 -0.017110 -0.009050 0.000000 0.000000 0.000000
# 2 -0.017110 0.067382 0.003669 0.000000 0.000000 0.000000
# 3 -0.009050 0.003669 0.016370 0.000000 0.000000 0.000000
# 4 0.000000 0.000000 0.000000 0.092689 0.000000 0.000000
# 5 0.000000 0.000000 0.000000 0.000000 0.033643 0.000000
# 6 0.000000 0.000000 0.000000 0.000000 0.000000 0.030199
#
#
# Mechanical properties :
#
#
# Convention : Reuss Voigt Hill
#
# Bulk Modulus (GPa) = 17.56845 41.91706 29.74276
# Shear Modulus (GPa) = 15.50926 23.23291 19.37109
#
# Velocity S-wave (km/s) = 2.84021 3.47622 3.17419
# Velocity P-wave (km/s) = 4.46023 6.15747 5.37625
#
# Compressibility (1/GPa) = 0.05692020
#
# Stress axis : x y z
#
# Youngs Moduli (GPa) = 55.09578 14.84083 61.08798
#
# Poissons Ratio (x) = 0.25393 0.55284
# Poissons Ratio (y) = 0.94268 -0.22414
# Poissons Ratio (z) = 0.49861 -0.05445
#
# Static dielectric constant tensor:
#      x y z
#    x 3.687230 0.000000 0.000000 
#    y 0.000000 3.897600 0.000000 
#    z 0.000000 0.000000 3.947260 
# 
# 
# High freq. dielectric constant tensor:
#      x y z
#    x 1.749410 0.000000 0.000000 
#    y 0.000000 1.747060 0.000000 
#    z 0.000000 0.000000 1.742900 
# 
# From -- ./inp_files/17794.got.cif
#   From: 2010.03.12/outbox.cif.g09.slc.cpg/sg55_9_cif.got.tgz:17794.got - 2010.04.16 15:19:21.
