data_PCOD8226784
_publ_section_title
;
Structure prediction by ZEFSAII (Michael W. Deem and Ramdas Pophale) SiO2 
 PCOD8226784
Probable space group: P B A M
;
_chemical_formula_sum "Si O2"
_cell_formula_units_Z 64
_cell_length_a 8.798097
_cell_length_b 14.842581
_cell_length_c 21.759163
_cell_angle_alpha 90.000000
_cell_angle_beta 90.000000
_cell_angle_gamma 90.000000
_cell_volume 2841.452229
_symmetry_space_group_name_H-M "P B A M"
_symmetry_group_IT_number 55
_symmetry_cell_setting 'orthorhombic'
loop_
_space_group_symop_operation_xyz
x,y,z
-x,-y,z
1/2+x,1/2-y,-z
1/2-x,1/2+y,-z
-x,-y,-z
x,y,-z
1/2-x,1/2+y,z
1/2+x,1/2-y,z
loop_
_atom_site_type_symbol
_atom_site_label
_atom_site_fract_x
_atom_site_fract_y
_atom_site_fract_z
Si Si1 0.727741 0.461571 0.115548
Si Si2 0.652194 0.197948 0.369404
Si Si3 0.692256 0.210157 0.229316
Si Si4 0.169748 0.976351 0.759619
Si Si5 0.077704 0.871950 0.071332
Si Si6 0.677773 0.515117 0.623065
Si Si7 0.595954 0.806934 0.147444
Si Si8 0.162844 0.649244 0.570802
O O1 0.767631 0.478175 0.187289
O O2 0.569690 0.411232 0.104025
O O3 0.719318 0.556981 0.079318
O O4 0.866267 0.392175 0.101918
O O5 0.631874 0.227825 0.298253
O O6 0.487563 0.164962 0.389975
O O7 0.702645 0.285007 0.407496
O O8 0.775968 0.119817 0.383750
O O9 0.816186 0.131248 0.235556
O O10 0.563168 0.180526 0.181127
O O11 0.776592 0.297328 0.201455
O O12 0.216412 0.014084 0.693001
O O13 0.000000 0.000000 0.776026
O O14 0.115222 0.778847 0.103550
O O15 0.045971 0.855829 0.000000
O O16 0.500000 0.500000 0.607841
O O17 0.779539 0.453342 0.578923
O O18 0.125207 0.666272 0.500000
#
# Coordination Sequence:
#
# PCOD8226784 Si02
#       8
#     8   8   8   8   8   8   8   8
#     4  11  21  40  67  94 128 175 221 276 338 402
#     4  11  25  44  67 102 136 174 229 285 342 410
#     4  11  24  42  67 102 136 173 219 285 352 401
#     4  10  20  40  68  95 135 169 218 276 344 406
#     4  11  24  44  66  95 135 185 232 270 338 409
#     4  10  24  42  67 102 132 176 223 279 344 408
#     4  12  24  42  68 101 136 175 226 288 343 410
#     4  12  26  45  68  95 135 184 229 277 337 409
#
# _framework density 22.523693000000002
#
# number of rings (size 3 to 8) (size 9 to 14) (size 15 to 20)
#    0.000    1.000    3.750    3.000    3.500    4.250 
#    0.000    0.000    0.000    0.750    0.000    0.000 
#    0.000    0.000    0.000    0.000    0.000    0.000 
#
# Total GULP energy -793279.720689 kJ/mol
# GULP energy per Si atom -12394.995636 kJ/mol
# Density = 2.247243 g / cm^3
# Si number density = 22.523693 Si / 1000 Ang^3
#
#
#
# Elastic Constant Matrix: (Units=GPa)
#
#
# Indices 1 2 3 4 5 6 
#
# 1 67.7260 1.0284 7.1662 0.0000 0.0000 0.0000
# 2 1.0284 80.0468 17.0435 0.0000 0.0000 0.0000
# 3 7.1662 17.0435 108.6197 0.0000 0.0000 0.0000
# 4 0.0000 0.0000 0.0000 16.8445 0.0000 0.0000
# 5 0.0000 0.0000 0.0000 0.0000 18.4981 0.0000
# 6 0.0000 0.0000 0.0000 0.0000 0.0000 35.0414
#
#
#
# Elastic Compliance Matrix: (Units=1/GPa)
#
#
# Indices 1 2 3 4 5 6 
#
# 1 0.014869 0.000018 -0.000984 0.000000 0.000000 0.000000
# 2 0.000018 0.012925 -0.002029 0.000000 0.000000 0.000000
# 3 -0.000984 -0.002029 0.009590 0.000000 0.000000 0.000000
# 4 0.000000 0.000000 0.000000 0.059367 0.000000 0.000000
# 5 0.000000 0.000000 0.000000 0.000000 0.054060 0.000000
# 6 0.000000 0.000000 0.000000 0.000000 0.000000 0.028538
#
#
# Mechanical properties :
#
#
# Convention : Reuss Voigt Hill
#
# Bulk Modulus (GPa) = 31.85303 34.09653 32.97478
# Shear Modulus (GPa) = 25.53608 29.48709 27.51159
#
# Velocity S-wave (km/s) = 3.37076 3.62216 3.49872
# Velocity P-wave (km/s) = 5.41499 5.71527 5.56715
#
# Compressibility (1/GPa) = 0.03139419
#
# Stress axis : x y z
#
# Youngs Moduli (GPa) = 67.25309 77.37235 104.27805
#
# Poissons Ratio (x) = -0.00143 0.10260
# Poissons Ratio (y) = -0.00124 0.21160
# Poissons Ratio (z) = 0.06617 0.15700
#
# Static dielectric constant tensor:
#      x y z
#    x 3.861470 0.000000 0.000000 
#    y 0.000000 4.276830 0.000000 
#    z 0.000000 0.000000 4.147370 
# 
# 
# High freq. dielectric constant tensor:
#      x y z
#    x 1.873860 0.000000 0.000000 
#    y 0.000000 1.900340 0.000000 
#    z 0.000000 0.000000 1.884190 
# 
# From -- ./inp_files/23475.got.cif
#   From: 2010.03.12/outbox.cif.g09.slc.cpg/sg55_12_cif.got.tgz:23475.got - 2010.04.16 15:19:21.
