data_PCOD8226847
_publ_section_title
;
Structure prediction by ZEFSAII (Michael W. Deem and Ramdas Pophale) SiO2 
 PCOD8226847
Probable space group: P B A M
;
_chemical_formula_sum "Si O2"
_cell_formula_units_Z 64
_cell_length_a 14.630798
_cell_length_b 24.372124
_cell_length_c 9.107267
_cell_angle_alpha 90.000000
_cell_angle_beta 90.000000
_cell_angle_gamma 90.000000
_cell_volume 3247.502263
_symmetry_space_group_name_H-M "P B A M"
_symmetry_group_IT_number 55
_symmetry_cell_setting 'orthorhombic'
loop_
_space_group_symop_operation_xyz
x,y,z
-x,-y,z
1/2+x,1/2-y,-z
1/2-x,1/2+y,-z
-x,-y,-z
x,y,-z
1/2-x,1/2+y,z
1/2+x,1/2-y,z
loop_
_atom_site_type_symbol
_atom_site_label
_atom_site_fract_x
_atom_site_fract_y
_atom_site_fract_z
Si Si1 0.440243 0.854145 0.170186
Si Si2 0.413567 0.364071 0.834235
Si Si3 0.256487 0.829320 0.325742
Si Si4 0.548346 0.442371 0.329133
Si Si5 0.249096 0.088293 0.672971
Si Si6 0.462096 0.732098 0.837911
Si Si7 0.211914 0.207789 0.327116
Si Si8 0.946287 0.445101 0.672486
O O1 0.346146 0.856715 0.258682
O O2 0.486479 0.795016 0.194995
O O3 0.510770 0.896550 0.235930
O O4 0.421348 0.867209 0.000000
O O5 0.324822 0.367675 0.732395
O O6 0.495740 0.399164 0.769766
O O7 0.443584 0.300656 0.832278
O O8 0.391178 0.383537 0.000000
O O9 0.261352 0.833590 0.500000
O O10 0.244377 0.765644 0.271615
O O11 0.500000 0.500000 0.299203
O O12 0.540956 0.425922 0.500000
O O13 0.655069 0.442013 0.276422
O O14 0.245910 0.092934 0.500000
O O15 0.256897 0.151318 0.735568
O O16 0.338536 0.052778 0.718999
O O17 0.393796 0.707065 0.718654
O O18 0.416336 0.727105 0.000000
O O19 0.216874 0.207237 0.500000
O O20 0.956790 0.433174 0.500000
O O21 0.000000 0.500000 0.717094
#
# Coordination Sequence:
#
# PCOD8226847 Si02
#       8
#     8   8   8   8   8   8   8   8
#     4  10  21  39  59  83 116 154 196 246 298 353
#     4  11  22  36  55  84 122 159 192 237 295 355
#     4  10  21  35  56  87 118 156 198 240 294 357
#     4  10  21  38  61  87 116 156 202 249 295 344
#     4   9  18  35  57  83 114 147 191 245 293 342
#     4   9  19  34  53  80 116 151 184 232 295 354
#     4   9  17  32  55  81 110 147 193 241 287 339
#     4  10  22  39  60  85 116 157 202 250 298 346
#
# _framework density 19.707453000000001
#
# number of rings (size 3 to 8) (size 9 to 14) (size 15 to 20)
#    0.000    2.250    1.250    1.125    1.750    3.000 
#    0.000    3.750    0.000    0.000    0.000    0.000 
#    0.000    0.000    0.000    0.000    0.000    0.000 
#
# Total GULP energy -793214.284347 kJ/mol
# GULP energy per Si atom -12393.973193 kJ/mol
# Density = 1.966260 g / cm^3
# Si number density = 19.707453 Si / 1000 Ang^3
#
#
#
# Elastic Constant Matrix: (Units=GPa)
#
#
# Indices 1 2 3 4 5 6 
#
# 1 141.3477 61.0810 40.7685 0.0000 0.0000 0.0000
# 2 61.0810 83.5133 30.5559 0.0000 0.0000 0.0000
# 3 40.7685 30.5559 53.0306 0.0000 0.0000 0.0000
# 4 0.0000 0.0000 0.0000 22.1129 0.0000 0.0000
# 5 0.0000 0.0000 0.0000 0.0000 10.0114 0.0000
# 6 0.0000 0.0000 0.0000 0.0000 0.0000 30.1577
#
#
#
# Elastic Compliance Matrix: (Units=1/GPa)
#
#
# Indices 1 2 3 4 5 6 
#
# 1 0.011291 -0.006440 -0.004970 0.000000 0.000000 0.000000
# 2 -0.006440 0.018846 -0.005908 0.000000 0.000000 0.000000
# 3 -0.004970 -0.005908 0.026082 0.000000 0.000000 0.000000
# 4 0.000000 0.000000 0.000000 0.045223 0.000000 0.000000
# 5 0.000000 0.000000 0.000000 0.000000 0.099886 0.000000
# 6 0.000000 0.000000 0.000000 0.000000 0.000000 0.033159
#
#
# Mechanical properties :
#
#
# Convention : Reuss Voigt Hill
#
# Bulk Modulus (GPa) = 46.33168 60.30028 53.31598
# Shear Modulus (GPa) = 18.09525 22.15547 20.12536
#
# Velocity S-wave (km/s) = 3.03346 3.35657 3.19910
# Velocity P-wave (km/s) = 5.98581 6.75916 6.38421
#
# Compressibility (1/GPa) = 0.02158350
#
# Stress axis : x y z
#
# Youngs Moduli (GPa) = 88.56608 53.06207 38.34102
#
# Poissons Ratio (x) = 0.34171 0.19054
# Poissons Ratio (y) = 0.57035 0.22652
# Poissons Ratio (z) = 0.44014 0.31349
#
# Static dielectric constant tensor:
#      x y z
#    x 3.746730 0.000000 0.000000 
#    y 0.000000 3.707400 0.000000 
#    z 0.000000 0.000000 3.464450 
# 
# 
# High freq. dielectric constant tensor:
#      x y z
#    x 1.765420 0.000000 0.000000 
#    y 0.000000 1.764140 0.000000 
#    z 0.000000 0.000000 1.754380 
# 
# From -- ./inp_files/6670.got.cif
#   From: 2010.03.12/outbox.cif.g09.slc.cpg/sg55_4_cif.got.tgz:6670.got - 2010.04.16 15:19:21.
