data_PCOD8226667
_publ_section_title
;
Structure prediction by ZEFSAII (Michael W. Deem and Ramdas Pophale) SiO2 
 PCOD8226667
Probable space group: P B A M
;
_chemical_formula_sum "Si O2"
_cell_formula_units_Z 64
_cell_length_a 30.368216
_cell_length_b 11.715127
_cell_length_c 9.100570
_cell_angle_alpha 90.000000
_cell_angle_beta 90.000000
_cell_angle_gamma 90.000000
_cell_volume 3237.687103
_symmetry_space_group_name_H-M "P B A M"
_symmetry_group_IT_number 55
_symmetry_cell_setting 'orthorhombic'
loop_
_space_group_symop_operation_xyz
x,y,z
-x,-y,z
1/2+x,1/2-y,-z
1/2-x,1/2+y,-z
-x,-y,-z
x,y,-z
1/2-x,1/2+y,z
1/2+x,1/2-y,z
loop_
_atom_site_type_symbol
_atom_site_label
_atom_site_fract_x
_atom_site_fract_y
_atom_site_fract_z
Si Si1 0.928839 0.488071 0.665436
Si Si2 0.298558 0.785891 0.170555
Si Si3 0.960710 0.734167 0.670478
Si Si4 0.047819 0.737705 0.828273
Si Si5 0.373130 0.404576 0.169263
Si Si6 0.301331 0.222128 0.833185
Si Si7 0.127188 0.141617 0.325653
Si Si8 0.672515 0.998707 0.332518
O O1 0.937966 0.443257 0.500000
O O2 0.958565 0.598345 0.699915
O O3 0.939930 0.389235 0.778297
O O4 0.878725 0.529493 0.680718
O O5 0.249794 0.740004 0.196398
O O6 0.330999 0.702020 0.254761
O O7 0.300250 0.913495 0.233705
O O8 0.311279 0.788585 0.000000
O O9 0.966537 0.761396 0.500000
O O10 0.917213 0.796906 0.730409
O O11 0.003125 0.783146 0.754155
O O12 0.086970 0.822273 0.784506
O O13 0.040040 0.734142 0.000000
O O14 0.327115 0.339818 0.195092
O O15 0.374171 0.511186 0.276821
O O16 0.377550 0.444302 0.000000
O O17 0.319574 0.128856 0.721965
O O18 0.310112 0.180763 0.000000
O O19 0.131969 0.150519 0.500000
O O20 0.688674 0.009074 0.500000
#
# Coordination Sequence:
#
# PCOD8226667 Si02
#       8
#     8   8   8   8   8   8   8   8
#     4  10  20  38  61  87 124 162 195 241 305 363
#     4  11  24  41  65  92 125 166 204 248 305 367
#     4  10  22  41  61  85 122 161 197 246 308 369
#     4  11  23  38  61  92 121 154 203 254 298 358
#     4  10  23  43  62  86 123 162 202 251 304 363
#     4  10  23  43  64  89 124 165 206 245 302 369
#     4  11  24  43  64  89 121 160 208 255 303 361
#     4  11  22  39  65  95 126 158 203 255 301 355
#
# _framework density 19.767196999999999
#
# number of rings (size 3 to 8) (size 9 to 14) (size 15 to 20)
#    0.000    1.500    2.500    1.875    1.750    6.500 
#    0.000    2.500    0.000    0.000    0.000    0.000 
#    0.000    0.000    0.000    0.000    0.000    0.000 
#
# Total GULP energy -793977.567963 kJ/mol
# GULP energy per Si atom -12405.899499 kJ/mol
# Density = 1.972221 g / cm^3
# Si number density = 19.767197 Si / 1000 Ang^3
#
#
#
# Elastic Constant Matrix: (Units=GPa)
#
#
# Indices 1 2 3 4 5 6 
#
# 1 111.8711 37.0243 54.0049 0.0000 0.0000 0.0000
# 2 37.0243 84.9063 42.7878 0.0000 0.0000 0.0000
# 3 54.0049 42.7878 87.6114 0.0000 0.0000 0.0000
# 4 0.0000 0.0000 0.0000 39.3025 0.0000 0.0000
# 5 0.0000 0.0000 0.0000 0.0000 31.4810 0.0000
# 6 0.0000 0.0000 0.0000 0.0000 0.0000 21.5681
#
#
#
# Elastic Compliance Matrix: (Units=1/GPa)
#
#
# Indices 1 2 3 4 5 6 
#
# 1 0.013019 -0.002166 -0.006967 0.000000 0.000000 0.000000
# 2 -0.002166 0.015983 -0.006471 0.000000 0.000000 0.000000
# 3 -0.006967 -0.006471 0.018869 0.000000 0.000000 0.000000
# 4 0.000000 0.000000 0.000000 0.025444 0.000000 0.000000
# 5 0.000000 0.000000 0.000000 0.000000 0.031765 0.000000
# 6 0.000000 0.000000 0.000000 0.000000 0.000000 0.046365
#
#
# Mechanical properties :
#
#
# Convention : Reuss Voigt Hill
#
# Bulk Modulus (GPa) = 60.01280 61.33587 60.67434
# Shear Modulus (GPa) = 26.56649 28.50846 27.53747
#
# Velocity S-wave (km/s) = 3.66999 3.80176 3.73646
# Velocity P-wave (km/s) = 6.95587 7.09702 7.02680
#
# Compressibility (1/GPa) = 0.01666311
#
# Stress axis : x y z
#
# Youngs Moduli (GPa) = 76.80998 62.56641 52.99708
#
# Poissons Ratio (x) = 0.13552 0.36925
# Poissons Ratio (y) = 0.16637 0.34293
# Poissons Ratio (z) = 0.53516 0.40485
#
# Static dielectric constant tensor:
#      x y z
#    x 3.783300 0.000000 0.000000 
#    y 0.000000 3.506220 0.000000 
#    z 0.000000 0.000000 3.613250 
# 
# 
# High freq. dielectric constant tensor:
#      x y z
#    x 1.785550 0.000000 0.000000 
#    y 0.000000 1.769460 0.000000 
#    z 0.000000 0.000000 1.772440 
# 
# From -- ./inp_files/10732.got.cif
#   From: 2010.03.12/outbox.cif.g09.slc.cpg/sg55_6_cif.got.tgz:10732.got - 2010.04.16 15:19:21.
