data_PCOD8226694
_publ_section_title
;
Structure prediction by ZEFSAII (Michael W. Deem and Ramdas Pophale) SiO2 
 PCOD8226694
Probable space group: P B A M
;
_chemical_formula_sum "Si O2"
_cell_formula_units_Z 40
_cell_length_a 22.584983
_cell_length_b 10.090105
_cell_length_c 9.239952
_cell_angle_alpha 90.000000
_cell_angle_beta 90.000000
_cell_angle_gamma 90.000000
_cell_volume 2105.645075
_symmetry_space_group_name_H-M "P B A M"
_symmetry_group_IT_number 55
_symmetry_cell_setting 'orthorhombic'
loop_
_space_group_symop_operation_xyz
x,y,z
-x,-y,z
1/2+x,1/2-y,-z
1/2-x,1/2+y,-z
-x,-y,-z
x,y,-z
1/2-x,1/2+y,z
1/2+x,1/2-y,z
loop_
_atom_site_type_symbol
_atom_site_label
_atom_site_fract_x
_atom_site_fract_y
_atom_site_fract_z
Si Si1 0.872590 0.760457 0.670544
Si Si2 0.309872 0.969253 0.831157
Si Si3 0.499659 0.150887 0.669556
Si Si4 0.113676 0.720074 0.168462
Si Si5 0.173745 0.994587 0.832911
O O1 0.862382 0.759990 0.500000
O O2 0.825892 0.660678 0.741342
O O3 0.938772 0.718017 0.712211
O O4 0.862937 0.906570 0.732380
O O5 0.242765 0.008793 0.797077
O O6 0.350751 0.090516 0.779564
O O7 0.318181 0.936702 0.000000
O O8 0.487174 0.156112 0.500000
O O9 0.447928 0.232021 0.747446
O O10 0.500000 0.000000 0.725986
O O11 0.153507 0.846581 0.205186
O O12 0.099166 0.711192 0.000000
O O13 0.161027 0.029212 0.000000
#
# Coordination Sequence:
#
# PCOD8226694 Si02
#       5
#     8   8   8   8   8
#     4  11  23  38  59  87 116 152 194 235 284 339
#     4  10  20  38  63  86 114 152 191 234 284 339
#     4  10  21  39  59  80 114 154 190 235 289 341
#     4  10  21  36  60  89 112 147 196 239 282 336
#     4  10  22  40  59  85 121 154 187 234 291 342
#
# _framework density 18.996555000000001
#
# number of rings (size 3 to 8) (size 9 to 14) (size 15 to 20)
#    0.000    1.800    2.000    1.800    0.000    7.600 
#    0.000    6.000    0.000    0.000    0.000    0.000 
#    0.000    0.000    0.000    0.000    0.000    0.000 
#
# Total GULP energy -496257.919248 kJ/mol
# GULP energy per Si atom -12406.447981 kJ/mol
# Density = 1.895332 g / cm^3
# Si number density = 18.996555 Si / 1000 Ang^3
#
#
#
# Elastic Constant Matrix: (Units=GPa)
#
#
# Indices 1 2 3 4 5 6 
#
# 1 101.5495 27.8658 42.9427 0.0000 0.0000 0.0000
# 2 27.8658 78.6544 31.2008 0.0000 0.0000 0.0000
# 3 42.9427 31.2008 51.7769 0.0000 0.0000 0.0000
# 4 0.0000 0.0000 0.0000 31.5812 0.0000 0.0000
# 5 0.0000 0.0000 0.0000 0.0000 23.2786 0.0000
# 6 0.0000 0.0000 0.0000 0.0000 0.0000 28.6987
#
#
#
# Elastic Compliance Matrix: (Units=1/GPa)
#
#
# Indices 1 2 3 4 5 6 
#
# 1 0.015182 -0.000504 -0.012288 0.000000 0.000000 0.000000
# 2 -0.000504 0.016724 -0.009660 0.000000 0.000000 0.000000
# 3 -0.012288 -0.009660 0.035326 0.000000 0.000000 0.000000
# 4 0.000000 0.000000 0.000000 0.031664 0.000000 0.000000
# 5 0.000000 0.000000 0.000000 0.000000 0.042958 0.000000
# 6 0.000000 0.000000 0.000000 0.000000 0.000000 0.034845
#
#
# Mechanical properties :
#
#
# Convention : Reuss Voigt Hill
#
# Bulk Modulus (GPa) = 44.78597 48.44439 46.61518
# Shear Modulus (GPa) = 21.82968 25.37645 23.60307
#
# Velocity S-wave (km/s) = 3.39357 3.65889 3.52872
# Velocity P-wave (km/s) = 6.24357 6.58840 6.41830
#
# Compressibility (1/GPa) = 0.02232842
#
# Stress axis : x y z
#
# Youngs Moduli (GPa) = 65.86757 59.79285 28.30794
#
# Poissons Ratio (x) = 0.03016 0.34784
# Poissons Ratio (y) = 0.03322 0.27345
# Poissons Ratio (z) = 0.80936 0.57759
#
# Static dielectric constant tensor:
#      x y z
#    x 3.523760 0.000000 0.000000 
#    y 0.000000 3.479730 0.000000 
#    z 0.000000 0.000000 3.382750 
# 
# 
# High freq. dielectric constant tensor:
#      x y z
#    x 1.748560 0.000000 0.000000 
#    y 0.000000 1.744170 0.000000 
#    z 0.000000 0.000000 1.731030 
# 
# From -- ./inp_files/2307.got.cif
#   From: 2010.03.12/outbox.cif.g09.slc.cpg/sg55_2_cif.got.tgz:2307.got - 2010.04.16 15:19:21.
