data_PCOD8226163
_publ_section_title
;
Structure prediction by ZEFSAII (Michael W. Deem and Ramdas Pophale) SiO2 
 PCOD8226163
Probable space group: P B A M
;
_chemical_formula_sum "Si O2"
_cell_formula_units_Z 64
_cell_length_a 22.387192
_cell_length_b 15.919174
_cell_length_c 9.240748
_cell_angle_alpha 90.000000
_cell_angle_beta 90.000000
_cell_angle_gamma 90.000000
_cell_volume 3293.269565
_symmetry_space_group_name_H-M "P B A M"
_symmetry_group_IT_number 55
_symmetry_cell_setting 'orthorhombic'
loop_
_space_group_symop_operation_xyz
x,y,z
-x,-y,z
1/2+x,1/2-y,-z
1/2-x,1/2+y,-z
-x,-y,-z
x,y,-z
1/2-x,1/2+y,z
1/2+x,1/2-y,z
loop_
_atom_site_type_symbol
_atom_site_label
_atom_site_fract_x
_atom_site_fract_y
_atom_site_fract_z
Si Si1 0.279731 0.894569 0.337070
Si Si2 0.830967 0.052758 0.171824
Si Si3 0.036478 0.579504 0.671573
Si Si4 0.226722 0.119051 0.840027
Si Si5 0.523893 0.254002 0.667737
Si Si6 0.668779 0.920821 0.339682
Si Si7 0.140517 0.273641 0.163407
Si Si8 0.954586 0.074310 0.667688
O O1 0.269655 0.859470 0.500000
O O2 0.218346 0.885986 0.245527
O O3 0.334617 0.848687 0.259861
O O4 0.300943 0.989272 0.344142
O O5 0.896051 0.070707 0.234504
O O6 0.814212 0.957567 0.216245
O O7 0.831452 0.068524 0.000000
O O8 0.038843 0.569768 0.500000
O O9 0.103681 0.576198 0.734785
O O10 0.000000 0.500000 0.736921
O O11 0.008205 0.668173 0.717653
O O12 0.286130 0.138237 0.748147
O O13 0.189599 0.202576 0.837446
O O14 0.248737 0.095193 0.000000
O O15 0.542743 0.248677 0.500000
O O16 0.581736 0.265112 0.765746
O O17 0.482759 0.334493 0.696089
O O18 0.662600 0.882389 0.500000
O O19 0.127126 0.304582 0.000000
O O20 0.936658 0.063028 0.500000
O O21 0.000000 0.000000 0.714074
#
# Coordination Sequence:
#
# PCOD8226163 Si02
#       8
#     8   8   8   8   8   8   8   8
#     4  10  20  35  56  80 106 138 177 221 271 327
#     4  10  20  36  57  80 108 142 181 224 275 330
#     4   9  17  32  54  78 105 135 171 217 265 313
#     4   9  20  36  53  76 107 140 173 218 271 322
#     4  10  21  36  55  79 106 140 182 225 270 323
#     4   9  18  33  55  80 103 134 177 221 267 320
#     4  11  22  36  54  78 108 140 178 222 271 325
#     4  10  21  36  54  79 113 149 185 227 272 325
#
# _framework density 19.433574
#
# number of rings (size 3 to 8) (size 9 to 14) (size 15 to 20)
#    0.000    2.250    0.000    2.625    0.000    5.750 
#    0.000    1.875    0.000    1.500    0.000    0.000 
#    0.000    0.000    0.000    0.000    0.000    0.000 
#
# Total GULP energy -793537.560585 kJ/mol
# GULP energy per Si atom -12399.024384 kJ/mol
# Density = 1.938934 g / cm^3
# Si number density = 19.433574 Si / 1000 Ang^3
#
#
#
# Elastic Constant Matrix: (Units=GPa)
#
#
# Indices 1 2 3 4 5 6 
#
# 1 127.4879 22.0154 51.0014 0.0000 0.0000 0.0000
# 2 22.0154 72.1430 17.7984 0.0000 0.0000 0.0000
# 3 51.0014 17.7984 87.4729 0.0000 0.0000 0.0000
# 4 0.0000 0.0000 0.0000 17.1944 0.0000 0.0000
# 5 0.0000 0.0000 0.0000 0.0000 12.5425 0.0000
# 6 0.0000 0.0000 0.0000 0.0000 0.0000 25.6221
#
#
#
# Elastic Compliance Matrix: (Units=1/GPa)
#
#
# Indices 1 2 3 4 5 6 
#
# 1 0.010441 -0.001773 -0.005727 0.000000 0.000000 0.000000
# 2 -0.001773 0.014895 -0.001997 0.000000 0.000000 0.000000
# 3 -0.005727 -0.001997 0.015178 0.000000 0.000000 0.000000
# 4 0.000000 0.000000 0.000000 0.058158 0.000000 0.000000
# 5 0.000000 0.000000 0.000000 0.000000 0.079729 0.000000
# 6 0.000000 0.000000 0.000000 0.000000 0.000000 0.039029
#
#
# Mechanical properties :
#
#
# Convention : Reuss Voigt Hill
#
# Bulk Modulus (GPa) = 46.46914 52.08156 49.27535
# Shear Modulus (GPa) = 20.52565 24.15771 22.34168
#
# Velocity S-wave (km/s) = 3.25344 3.52957 3.39432
# Velocity P-wave (km/s) = 6.17065 6.59306 6.38535
#
# Compressibility (1/GPa) = 0.02151966
#
# Stress axis : x y z
#
# Youngs Moduli (GPa) = 95.77465 67.13591 65.88689
#
# Poissons Ratio (x) = 0.11906 0.37733
# Poissons Ratio (y) = 0.16984 0.13156
# Poissons Ratio (z) = 0.54850 0.13406
#
# Static dielectric constant tensor:
#      x y z
#    x 3.648210 0.000000 0.000000 
#    y 0.000000 3.504140 0.000000 
#    z 0.000000 0.000000 3.712600 
# 
# 
# High freq. dielectric constant tensor:
#      x y z
#    x 1.766300 0.000000 0.000000 
#    y 0.000000 1.751920 0.000000 
#    z 0.000000 0.000000 1.744400 
# 
# From -- ./inp_files/9012.got.cif
#   From: 2010.03.12/outbox.cif.g09.slc.cpg/sg55_5_cif.got.tgz:9012.got - 2010.04.16 15:19:21.
