data_PCOD8226606
_publ_section_title
;
Structure prediction by ZEFSAII (Michael W. Deem and Ramdas Pophale) SiO2 
 PCOD8226606
Probable space group: P B A M
;
_chemical_formula_sum "Si O2"
_cell_formula_units_Z 56
_cell_length_a 14.206628
_cell_length_b 11.781363
_cell_length_c 15.248164
_cell_angle_alpha 90.000000
_cell_angle_beta 90.000000
_cell_angle_gamma 90.000000
_cell_volume 2552.137685
_symmetry_space_group_name_H-M "P B A M"
_symmetry_group_IT_number 55
_symmetry_cell_setting 'orthorhombic'
loop_
_space_group_symop_operation_xyz
x,y,z
-x,-y,z
1/2+x,1/2-y,-z
1/2-x,1/2+y,-z
-x,-y,-z
x,y,-z
1/2-x,1/2+y,z
1/2+x,1/2-y,z
loop_
_atom_site_type_symbol
_atom_site_label
_atom_site_fract_x
_atom_site_fract_y
_atom_site_fract_z
Si Si1 0.934456 0.892440 0.140731
Si Si2 0.222341 0.867255 0.768201
Si Si3 0.225258 0.546171 0.901477
Si Si4 0.138655 0.198632 0.308046
Si Si5 0.215576 0.994248 0.402365
Si Si6 0.098387 0.757776 0.097047
Si Si7 0.075835 0.416727 0.401324
O O1 0.830093 0.899281 0.099630
O O2 0.924641 0.880947 0.246280
O O3 0.985029 0.776327 0.104173
O O4 0.000000 0.000000 0.115597
O O5 0.278649 0.751648 0.751823
O O6 0.135233 0.848222 0.832198
O O7 0.287313 0.957050 0.821507
O O8 0.179367 0.913436 0.676152
O O9 0.139778 0.633991 0.882260
O O10 0.210227 0.495386 0.000000
O O11 0.183797 0.123579 0.385693
O O12 0.077642 0.299651 0.348594
O O13 0.179418 0.957222 0.500000
O O14 0.327559 0.985687 0.398926
O O15 0.133122 0.792451 0.000000
O O16 0.045435 0.386251 0.500000
O O17 0.000000 0.500000 0.357011
#
# Coordination Sequence:
#
# PCOD8226606 Si02
#       7
#     8   8   8   8   8   8   8
#     4  12  23  39  62  94 125 163 210 261 312 383
#     4  11  20  39  62  88 125 165 210 253 318 373
#     4  11  23  41  62  90 126 165 210 264 315 376
#     4  11  22  37  61  92 126 171 209 269 314 379
#     4  10  20  37  62  90 123 164 210 258 319 378
#     4  11  23  39  64  92 125 166 212 261 314 378
#     4   9  20  38  60  88 122 166 218 264 315 383
#
# _framework density 21.942388999999999
#
# number of rings (size 3 to 8) (size 9 to 14) (size 15 to 20)
#    0.000    1.286    4.286    1.286    0.000    4.571 
#    0.000    0.000    0.000    9.429    0.000    0.000 
#    0.000    0.000    0.000    0.000    0.000    0.000 
#
# Total GULP energy -693918.145714 kJ/mol
# GULP energy per Si atom -12391.395459 kJ/mol
# Density = 2.189245 g / cm^3
# Si number density = 21.942389 Si / 1000 Ang^3
#
#
#
# Elastic Constant Matrix: (Units=GPa)
#
#
# Indices 1 2 3 4 5 6 
#
# 1 31.1012 5.3593 1.2956 0.0000 0.0000 0.0000
# 2 5.3593 57.2023 32.7229 0.0000 0.0000 0.0000
# 3 1.2956 32.7229 151.8290 0.0000 0.0000 0.0000
# 4 0.0000 0.0000 0.0000 22.6949 0.0000 0.0000
# 5 0.0000 0.0000 0.0000 0.0000 26.0682 0.0000
# 6 0.0000 0.0000 0.0000 0.0000 0.0000 34.7413
#
#
#
# Elastic Compliance Matrix: (Units=1/GPa)
#
#
# Indices 1 2 3 4 5 6 
#
# 1 0.032706 -0.003313 0.000435 0.000000 0.000000 0.000000
# 2 -0.003313 0.020276 -0.004342 0.000000 0.000000 0.000000
# 3 0.000435 -0.004342 0.007518 0.000000 0.000000 0.000000
# 4 0.000000 0.000000 0.000000 0.044063 0.000000 0.000000
# 5 0.000000 0.000000 0.000000 0.000000 0.038361 0.000000
# 6 0.000000 0.000000 0.000000 0.000000 0.000000 0.028784
#
#
# Mechanical properties :
#
#
# Convention : Reuss Voigt Hill
#
# Bulk Modulus (GPa) = 21.71050 35.43200 28.57125
# Shear Modulus (GPa) = 24.81376 30.08453 27.44914
#
# Velocity S-wave (km/s) = 3.36647 3.70681 3.54073
# Velocity P-wave (km/s) = 5.00267 5.87396 5.45573
#
# Compressibility (1/GPa) = 0.04606066
#
# Stress axis : x y z
#
# Youngs Moduli (GPa) = 30.57551 49.31960 133.00723
#
# Poissons Ratio (x) = 0.16340 -0.05785
# Poissons Ratio (y) = 0.10130 0.57748
# Poissons Ratio (z) = -0.01330 0.21413
#
# Static dielectric constant tensor:
#      x y z
#    x 3.830670 0.000000 0.000000 
#    y 0.000000 3.810910 0.000000 
#    z 0.000000 0.000000 4.319430 
# 
# 
# High freq. dielectric constant tensor:
#      x y z
#    x 1.839810 0.000000 0.000000 
#    y 0.000000 1.851810 0.000000 
#    z 0.000000 0.000000 1.879270 
# 
# From -- ./inp_files/18953.got.cif
#   From: 2010.03.12/outbox.cif.g09.slc.cpg/sg55_10_cif.got.tgz:18953.got - 2010.04.16 15:19:21.
