data_PCOD8226609
_publ_section_title
;
Structure prediction by ZEFSAII (Michael W. Deem and Ramdas Pophale) SiO2 
 PCOD8226609
Probable space group: P B A M
;
_chemical_formula_sum "Si O2"
_cell_formula_units_Z 40
_cell_length_a 14.796603
_cell_length_b 15.004791
_cell_length_c 8.947832
_cell_angle_alpha 90.000000
_cell_angle_beta 90.000000
_cell_angle_gamma 90.000000
_cell_volume 1986.597084
_symmetry_space_group_name_H-M "P B A M"
_symmetry_group_IT_number 55
_symmetry_cell_setting 'orthorhombic'
loop_
_space_group_symop_operation_xyz
x,y,z
-x,-y,z
1/2+x,1/2-y,-z
1/2-x,1/2+y,-z
-x,-y,-z
x,y,-z
1/2-x,1/2+y,z
1/2+x,1/2-y,z
loop_
_atom_site_type_symbol
_atom_site_label
_atom_site_fract_x
_atom_site_fract_y
_atom_site_fract_z
Si Si1 0.425500 0.930107 0.170242
Si Si2 0.821745 0.859329 0.327205
Si Si3 0.824473 0.232705 0.823146
Si Si4 0.777263 0.035127 0.170723
Si Si5 0.013013 0.261645 0.328100
O O1 0.329844 0.978782 0.184683
O O2 0.428178 0.846742 0.280585
O O3 0.500000 0.000000 0.222866
O O4 0.442109 0.897837 0.000000
O O5 0.794732 0.857113 0.500000
O O6 0.747873 0.801494 0.240794
O O7 0.922964 0.823259 0.301234
O O8 0.825310 0.960584 0.270046
O O9 0.803341 0.132708 0.767488
O O10 0.924684 0.257699 0.773251
O O11 0.816950 0.239315 0.000000
O O12 0.809570 0.024117 0.000000
O O13 0.983708 0.269855 0.500000
#
# Coordination Sequence:
#
# PCOD8226609 Si02
#       5
#     8   8   8   8   8
#     4  10  20  37  62  92 122 157 207 262 312 365
#     4  11  24  41  63  92 128 167 206 258 318 377
#     4  11  23  41  65  91 124 166 212 262 310 369
#     4  10  22  39  62  92 124 164 211 259 312 369
#     4  11  24  40  61  91 126 166 207 253 315 376
#
# _framework density 20.134933
#
# number of rings (size 3 to 8) (size 9 to 14) (size 15 to 20)
#    0.000    1.400    2.000    3.000    0.000    7.600 
#    0.000    4.000    0.000    0.000    0.000    0.000 
#    0.000    0.000    0.000    0.000    0.000    0.000 
#
# Total GULP energy -496223.545738 kJ/mol
# GULP energy per Si atom -12405.588643 kJ/mol
# Density = 2.008910 g / cm^3
# Si number density = 20.134933 Si / 1000 Ang^3
#
#
#
# Elastic Constant Matrix: (Units=GPa)
#
#
# Indices 1 2 3 4 5 6 
#
# 1 49.3812 -2.5869 18.2810 0.0000 0.0000 0.0000
# 2 -2.5869 85.7297 34.6826 0.0000 0.0000 0.0000
# 3 18.2810 34.6826 72.0006 0.0000 0.0000 0.0000
# 4 0.0000 0.0000 0.0000 28.6364 0.0000 0.0000
# 5 0.0000 0.0000 0.0000 0.0000 26.8963 0.0000
# 6 0.0000 0.0000 0.0000 0.0000 0.0000 34.6892
#
#
#
# Elastic Compliance Matrix: (Units=1/GPa)
#
#
# Indices 1 2 3 4 5 6 
#
# 1 0.023332 0.003851 -0.007779 0.000000 0.000000 0.000000
# 2 0.003851 0.015124 -0.008263 0.000000 0.000000 0.000000
# 3 -0.007779 -0.008263 0.019844 0.000000 0.000000 0.000000
# 4 0.000000 0.000000 0.000000 0.034921 0.000000 0.000000
# 5 0.000000 0.000000 0.000000 0.000000 0.037180 0.000000
# 6 0.000000 0.000000 0.000000 0.000000 0.000000 0.028827
#
#
# Mechanical properties :
#
#
# Convention : Reuss Voigt Hill
#
# Bulk Modulus (GPa) = 29.48264 34.20722 31.84493
# Shear Modulus (GPa) = 25.65214 28.49336 27.07275
#
# Velocity S-wave (km/s) = 3.57320 3.76589 3.67081
# Velocity P-wave (km/s) = 5.63010 5.99459 5.81520
#
# Compressibility (1/GPa) = 0.03391826
#
# Stress axis : x y z
#
# Youngs Moduli (GPa) = 42.85913 66.12198 50.39285
#
# Poissons Ratio (x) = -0.25465 0.39201
# Poissons Ratio (y) = -0.16506 0.41639
# Poissons Ratio (z) = 0.33341 0.54635
#
# Static dielectric constant tensor:
#      x y z
#    x 3.621360 0.000000 0.000000 
#    y 0.000000 3.725670 0.000000 
#    z 0.000000 0.000000 3.639160 
# 
# 
# High freq. dielectric constant tensor:
#      x y z
#    x 1.790660 0.000000 0.000000 
#    y 0.000000 1.793570 0.000000 
#    z 0.000000 0.000000 1.786690 
# 
# From -- ./inp_files/5182.got.cif
#   From: 2010.03.12/outbox.cif.g09.slc.cpg/sg55_3_cif.got.tgz:5182.got - 2010.04.16 15:19:21.
