data_PCOD8226191
_publ_section_title
;
Structure prediction by ZEFSAII (Michael W. Deem and Ramdas Pophale) SiO2 
 PCOD8226191
Probable space group: P B A M
;
_chemical_formula_sum "Si O2"
_cell_formula_units_Z 56
_cell_length_a 14.459656
_cell_length_b 21.823834
_cell_length_c 8.772616
_cell_angle_alpha 90.000000
_cell_angle_beta 90.000000
_cell_angle_gamma 90.000000
_cell_volume 2768.331728
_symmetry_space_group_name_H-M "P B A M"
_symmetry_group_IT_number 55
_symmetry_cell_setting 'orthorhombic'
loop_
_space_group_symop_operation_xyz
x,y,z
-x,-y,z
1/2+x,1/2-y,-z
1/2-x,1/2+y,-z
-x,-y,-z
x,y,-z
1/2-x,1/2+y,z
1/2+x,1/2-y,z
loop_
_atom_site_type_symbol
_atom_site_label
_atom_site_fract_x
_atom_site_fract_y
_atom_site_fract_z
Si Si1 0.915409 0.427557 0.680161
Si Si2 0.086226 0.807655 0.820570
Si Si3 0.815182 0.316131 0.177051
Si Si4 0.893568 0.557902 0.819788
Si Si5 0.094302 0.025772 0.324326
Si Si6 0.287830 0.409018 0.323943
Si Si7 0.613251 0.345901 0.175133
O O1 0.916924 0.438463 0.500000
O O2 0.847071 0.372718 0.720781
O O3 0.879261 0.488980 0.760636
O O4 0.017548 0.411349 0.740879
O O5 0.130345 0.743784 0.766947
O O6 0.134986 0.862316 0.732051
O O7 0.977891 0.808432 0.772134
O O8 0.100822 0.817115 0.000000
O O9 0.705354 0.305568 0.204967
O O10 0.836160 0.330172 0.000000
O O11 0.805357 0.598864 0.774061
O O12 0.907567 0.558211 0.000000
O O13 0.073924 0.038021 0.500000
O O14 0.125675 0.089581 0.256088
O O15 0.176181 0.977761 0.298370
O O16 0.000000 0.000000 0.247360
O O17 0.265899 0.396277 0.500000
O O18 0.602114 0.362311 0.000000
#
# Coordination Sequence:
#
# PCOD8226191 Si02
#       7
#     8   8   8   8   8   8   8
#     4  11  22  39  61  89 120 152 196 246 298 354
#     4  10  22  39  58  83 117 158 205 249 293 350
#     4  10  22  40  60  84 118 161 206 249 297 356
#     4  11  22  38  62  89 120 156 194 240 299 359
#     4  10  20  35  56  84 117 155 188 236 303 360
#     4  11  22  37  58  87 122 155 197 248 302 360
#     4  10  21  37  59  86 115 152 200 250 295 350
#
# _framework density 20.228788999999999
#
# number of rings (size 3 to 8) (size 9 to 14) (size 15 to 20)
#    0.000    1.571    1.429    4.714    0.000    6.000 
#    0.000    2.857    0.000    0.000    0.000    0.000 
#    0.000    0.000    0.000    0.000    0.000    0.000 
#
# Total GULP energy -694559.355947 kJ/mol
# GULP energy per Si atom -12402.845642 kJ/mol
# Density = 2.018275 g / cm^3
# Si number density = 20.228789 Si / 1000 Ang^3
#
#
#
# Elastic Constant Matrix: (Units=GPa)
#
#
# Indices 1 2 3 4 5 6 
#
# 1 128.7763 39.0804 21.7531 0.0000 0.0000 0.0000
# 2 39.0804 80.3041 16.9016 0.0000 0.0000 0.0000
# 3 21.7531 16.9016 55.5928 0.0000 0.0000 0.0000
# 4 0.0000 0.0000 0.0000 -32.7371 0.0000 0.0000
# 5 0.0000 0.0000 0.0000 0.0000 29.7626 0.0000
# 6 0.0000 0.0000 0.0000 0.0000 0.0000 28.3574
#
#
#
# Elastic Compliance Matrix: (Units=1/GPa)
#
#
# Indices 1 2 3 4 5 6 
#
# 1 0.009413 -0.004066 -0.002447 0.000000 0.000000 0.000000
# 2 -0.004066 0.015060 -0.002988 0.000000 0.000000 0.000000
# 3 -0.002447 -0.002988 0.019854 0.000000 0.000000 0.000000
# 4 0.000000 0.000000 0.000000 -0.030546 0.000000 0.000000
# 5 0.000000 0.000000 0.000000 0.000000 0.033599 0.000000
# 6 0.000000 0.000000 0.000000 0.000000 0.000000 0.035264
#
#
# Mechanical properties :
#
#
# Convention : Reuss Voigt Hill
#
# Bulk Modulus (GPa) = 39.48580 46.68259 43.08420
# Shear Modulus (GPa) = 45.41895 17.53912 31.47903
#
# Velocity S-wave (km/s) = 4.74356 2.94774 3.94909
# Velocity P-wave (km/s) = 7.04016 5.89177 6.49141
#
# Compressibility (1/GPa) = 0.02532556
#
# Stress axis : x y z
#
# Youngs Moduli (GPa) = 106.24079 66.40078 50.36822
#
# Poissons Ratio (x) = 0.26996 0.12325
# Poissons Ratio (y) = 0.43194 0.15049
# Poissons Ratio (z) = 0.25997 0.19839
#
# Static dielectric constant tensor:
#      x y z
#    x 3.967880 0.000000 0.000000 
#    y 0.000000 3.462960 0.000000 
#    z 0.000000 0.000000 3.608820 
# 
# 
# High freq. dielectric constant tensor:
#      x y z
#    x 1.810640 0.000000 0.000000 
#    y 0.000000 1.772760 0.000000 
#    z 0.000000 0.000000 1.785800 
# 
# From -- ./inp_files/6104.got.cif
#   From: 2010.03.12/outbox.cif.g09.slc.cpg/sg55_4_cif.got.tgz:6104.got - 2010.04.16 15:19:21.
