data_PCOD8226266
_publ_section_title
;
Structure prediction by ZEFSAII (Michael W. Deem and Ramdas Pophale) SiO2 
 PCOD8226266
Probable space group: P B A M
;
_chemical_formula_sum "Si O2"
_cell_formula_units_Z 56
_cell_length_a 19.627849
_cell_length_b 16.292678
_cell_length_c 9.176322
_cell_angle_alpha 90.000000
_cell_angle_beta 90.000000
_cell_angle_gamma 90.000000
_cell_volume 2934.498064
_symmetry_space_group_name_H-M "P B A M"
_symmetry_group_IT_number 55
_symmetry_cell_setting 'orthorhombic'
loop_
_space_group_symop_operation_xyz
x,y,z
-x,-y,z
1/2+x,1/2-y,-z
1/2-x,1/2+y,-z
-x,-y,-z
x,y,-z
1/2-x,1/2+y,z
1/2+x,1/2-y,z
loop_
_atom_site_type_symbol
_atom_site_label
_atom_site_fract_x
_atom_site_fract_y
_atom_site_fract_z
Si Si1 0.807675 0.487477 0.826988
Si Si2 0.122761 0.812532 0.329038
Si Si3 0.478553 0.763353 0.670764
Si Si4 0.781326 0.307303 0.831137
Si Si5 0.373653 0.654723 0.834416
Si Si6 0.054577 0.430900 0.171184
Si Si7 0.340162 0.469054 0.169428
O O1 0.811179 0.393588 0.770590
O O2 0.872152 0.538558 0.769996
O O3 0.738299 0.531127 0.774763
O O4 0.806271 0.481818 0.000000
O O5 0.133221 0.820267 0.500000
O O6 0.187276 0.766037 0.261638
O O7 0.117676 0.903445 0.262072
O O8 0.054367 0.764390 0.288102
O O9 0.469004 0.775024 0.500000
O O10 0.426193 0.694743 0.723890
O O11 0.465034 0.848851 0.747900
O O12 0.700261 0.305538 0.809540
O O13 0.800424 0.294189 0.000000
O O14 0.372779 0.557865 0.803073
O O15 0.397256 0.671504 0.000000
O O16 0.000000 0.500000 0.209756
O O17 0.057079 0.412671 0.000000
O O18 0.343909 0.445182 0.000000
#
# Coordination Sequence:
#
# PCOD8226266 Si02
#       7
#     8   8   8   8   8   8   8
#     4   8  16  33  57  85 111 137 179 233 286 334
#     4  11  24  38  53  80 117 154 192 230 278 342
#     4  11  25  40  54  79 119 160 192 231 284 343
#     4   9  18  36  62  86 111 144 184 235 287 335
#     4   9  20  39  62  87 112 143 190 243 290 339
#     4  10  20  35  59  87 115 148 190 237 283 339
#     4   9  19  37  60  84 109 142 188 242 290 332
#
# _framework density 19.083331999999999
#
# number of rings (size 3 to 8) (size 9 to 14) (size 15 to 20)
#    0.000    2.429    0.000    3.429    2.000    5.429 
#    0.000    5.714    0.000    0.000    0.000    0.000 
#    0.000    0.000    0.000    0.000    0.000    0.000 
#
# Total GULP energy -694502.522750 kJ/mol
# GULP energy per Si atom -12401.830763 kJ/mol
# Density = 1.903990 g / cm^3
# Si number density = 19.083332 Si / 1000 Ang^3
#
#
#
# Elastic Constant Matrix: (Units=GPa)
#
#
# Indices 1 2 3 4 5 6 
#
# 1 20.6811 16.1730 18.8813 0.0000 0.0000 0.0000
# 2 16.1730 94.4951 37.1110 0.0000 0.0000 0.0000
# 3 18.8813 37.1110 47.9064 0.0000 0.0000 0.0000
# 4 0.0000 0.0000 0.0000 -4.1682 0.0000 0.0000
# 5 0.0000 0.0000 0.0000 0.0000 27.0445 0.0000
# 6 0.0000 0.0000 0.0000 0.0000 0.0000 32.3234
#
#
#
# Elastic Compliance Matrix: (Units=1/GPa)
#
#
# Indices 1 2 3 4 5 6 
#
# 1 0.075740 -0.001782 -0.028471 0.000000 0.000000 0.000000
# 2 -0.001782 0.015252 -0.011113 0.000000 0.000000 0.000000
# 3 -0.028471 -0.011113 0.040704 0.000000 0.000000 0.000000
# 4 0.000000 0.000000 0.000000 -0.239911 0.000000 0.000000
# 5 0.000000 0.000000 0.000000 0.000000 0.036976 0.000000
# 6 0.000000 0.000000 0.000000 0.000000 0.000000 0.030937
#
#
# Mechanical properties :
#
#
# Convention : Reuss Voigt Hill
#
# Bulk Modulus (GPa) = 20.42285 34.15701 27.28993
# Shear Modulus (GPa) = 85.10434 17.10110 51.10272
#
# Velocity S-wave (km/s) = 6.68528 2.99679 5.18043
# Velocity P-wave (km/s) = 8.38545 5.46919 7.07912
#
# Compressibility (1/GPa) = 0.04896477
#
# Stress axis : x y z
#
# Youngs Moduli (GPa) = 13.20302 65.56617 24.56765
#
# Poissons Ratio (x) = 0.11681 0.69947
# Poissons Ratio (y) = 0.02352 0.27301
# Poissons Ratio (z) = 0.37591 0.72862
#
# Static dielectric constant tensor:
#      x y z
#    x 3.642180 0.000000 0.000000 
#    y 0.000000 3.514470 0.000000 
#    z 0.000000 0.000000 3.237630 
# 
# 
# High freq. dielectric constant tensor:
#      x y z
#    x 1.747300 0.000000 0.000000 
#    y 0.000000 1.753820 0.000000 
#    z 0.000000 0.000000 1.718110 
# 
# From -- ./inp_files/8679.got.cif
#   From: 2010.03.12/outbox.cif.g09.slc.cpg/sg55_5_cif.got.tgz:8679.got - 2010.04.16 15:19:21.
