data_PCOD8226413
_publ_section_title
;
Structure prediction by ZEFSAII (Michael W. Deem and Ramdas Pophale) SiO2 
 PCOD8226413
Probable space group: P B A M
;
_chemical_formula_sum "Si O2"
_cell_formula_units_Z 48
_cell_length_a 28.528627
_cell_length_b 9.410912
_cell_length_c 8.576806
_cell_angle_alpha 90.000000
_cell_angle_beta 90.000000
_cell_angle_gamma 90.000000
_cell_volume 2302.704290
_symmetry_space_group_name_H-M "P B A M"
_symmetry_group_IT_number 55
_symmetry_cell_setting 'orthorhombic'
loop_
_space_group_symop_operation_xyz
x,y,z
-x,-y,z
1/2+x,1/2-y,-z
1/2-x,1/2+y,-z
-x,-y,-z
x,y,-z
1/2-x,1/2+y,z
1/2+x,1/2-y,z
loop_
_atom_site_type_symbol
_atom_site_label
_atom_site_fract_x
_atom_site_fract_y
_atom_site_fract_z
Si Si1 0.120685 0.297615 0.816707
Si Si2 0.959655 0.098164 0.676044
Si Si3 0.280894 0.284663 0.814427
Si Si4 0.299740 0.973134 0.316588
Si Si5 0.635806 0.518317 0.817085
Si Si6 0.977268 0.640439 0.323052
O O1 0.147757 0.423953 0.727986
O O2 0.065507 0.307073 0.782282
O O3 0.138504 0.143567 0.754231
O O4 0.129317 0.313908 0.000000
O O5 0.948394 0.045540 0.500000
O O6 0.913040 0.091552 0.776442
O O7 0.978561 0.256088 0.679539
O O8 0.000000 0.000000 0.750825
O O9 0.233339 0.347132 0.744552
O O10 0.287616 0.122608 0.762687
O O11 0.322758 0.383998 0.747824
O O12 0.277805 0.287890 0.000000
O O13 0.294914 0.992062 0.500000
O O14 0.641136 0.514124 0.000000
O O15 0.958984 0.618221 0.500000
O O16 0.000000 0.500000 0.250634
#
# Coordination Sequence:
#
# PCOD8226413 Si02
#       6
#     8   8   8   8   8   8
#     4  11  23  41  64  92 126 169 213 262 319 378
#     4  10  20  36  59  87 121 164 208 255 310 367
#     4  11  24  45  69  96 129 167 208 259 319 383
#     4  12  26  44  68  98 129 165 210 262 318 381
#     4  10  23  40  63  92 124 163 208 257 311 373
#     4  10  22  39  58  86 125 167 211 262 317 374
#
# _framework density 20.845057000000001
#
# number of rings (size 3 to 8) (size 9 to 14) (size 15 to 20)
#    0.000    1.333    1.667    3.500    2.333    4.667 
#    0.000    0.000    0.000    0.000    0.000    0.000 
#    0.000    0.000    0.000    0.000    0.000    0.000 
#
# Total GULP energy -595320.970505 kJ/mol
# GULP energy per Si atom -12402.520219 kJ/mol
# Density = 2.079761 g / cm^3
# Si number density = 20.845057 Si / 1000 Ang^3
#
#
#
# Elastic Constant Matrix: (Units=GPa)
#
#
# Indices 1 2 3 4 5 6 
#
# 1 81.3716 23.5994 14.6297 0.0000 0.0000 0.0000
# 2 23.5994 85.8822 0.8716 0.0000 0.0000 0.0000
# 3 14.6297 0.8716 45.3310 0.0000 0.0000 0.0000
# 4 0.0000 0.0000 0.0000 29.1262 0.0000 0.0000
# 5 0.0000 0.0000 0.0000 0.0000 35.6476 0.0000
# 6 0.0000 0.0000 0.0000 0.0000 0.0000 43.1778
#
#
#
# Elastic Compliance Matrix: (Units=1/GPa)
#
#
# Indices 1 2 3 4 5 6 
#
# 1 0.014221 -0.003862 -0.004515 0.000000 0.000000 0.000000
# 2 -0.003862 0.012695 0.001002 0.000000 0.000000 0.000000
# 3 -0.004515 0.001002 0.023498 0.000000 0.000000 0.000000
# 4 0.000000 0.000000 0.000000 0.034333 0.000000 0.000000
# 5 0.000000 0.000000 0.000000 0.000000 0.028052 0.000000
# 6 0.000000 0.000000 0.000000 0.000000 0.000000 0.023160
#
#
# Mechanical properties :
#
#
# Convention : Reuss Voigt Hill
#
# Bulk Modulus (GPa) = 28.03954 32.30958 30.17456
# Shear Modulus (GPa) = 30.75071 33.15592 31.95331
#
# Velocity S-wave (km/s) = 3.84501 3.99255 3.91947
# Velocity P-wave (km/s) = 5.76131 6.06526 5.91524
#
# Compressibility (1/GPa) = 0.03566392
#
# Stress axis : x y z
#
# Youngs Moduli (GPa) = 70.31776 78.77168 42.55695
#
# Poissons Ratio (x) = 0.30421 0.19216
# Poissons Ratio (y) = 0.27157 -0.04265
# Poissons Ratio (z) = 0.31751 -0.07895
#
# Static dielectric constant tensor:
#      x y z
#    x 3.848820 0.000000 0.000000 
#    y 0.000000 4.006300 0.000000 
#    z 0.000000 0.000000 3.661920 
# 
# 
# High freq. dielectric constant tensor:
#      x y z
#    x 1.823720 0.000000 0.000000 
#    y 0.000000 1.831790 0.000000 
#    z 0.000000 0.000000 1.804690 
# 
# From -- ./inp_files/10499.got.cif
#   From: 2010.03.12/outbox.cif.g09.slc.cpg/sg55_6_cif.got.tgz:10499.got - 2010.04.16 15:19:21.
