data_PCOD8226234
_publ_section_title
;
Structure prediction by ZEFSAII (Michael W. Deem and Ramdas Pophale) SiO2 
 PCOD8226234
Probable space group: P B A M
;
_chemical_formula_sum "Si O2"
_cell_formula_units_Z 64
_cell_length_a 23.824996
_cell_length_b 15.378680
_cell_length_c 8.959234
_cell_angle_alpha 90.000000
_cell_angle_beta 90.000000
_cell_angle_gamma 90.000000
_cell_volume 3282.636366
_symmetry_space_group_name_H-M "P B A M"
_symmetry_group_IT_number 55
_symmetry_cell_setting 'orthorhombic'
loop_
_space_group_symop_operation_xyz
x,y,z
-x,-y,z
1/2+x,1/2-y,-z
1/2-x,1/2+y,-z
-x,-y,-z
x,y,-z
1/2-x,1/2+y,z
1/2+x,1/2-y,z
loop_
_atom_site_type_symbol
_atom_site_label
_atom_site_fract_x
_atom_site_fract_y
_atom_site_fract_z
Si Si1 0.248391 0.596583 0.823147
Si Si2 0.868283 0.167106 0.175368
Si Si3 0.362319 0.644609 0.328194
Si Si4 0.437112 0.996321 0.322628
Si Si5 0.862105 0.660275 0.671372
Si Si6 0.637340 0.841764 0.323132
Si Si7 0.934267 0.996231 0.828421
Si Si8 0.247101 0.398010 0.175649
O O1 0.307068 0.635314 0.770699
O O2 0.198620 0.650287 0.748398
O O3 0.244184 0.497236 0.769540
O O4 0.244106 0.606582 0.000000
O O5 0.889224 0.251559 0.265475
O O6 0.908629 0.088136 0.221088
O O7 0.805613 0.143126 0.227764
O O8 0.871355 0.186550 0.000000
O O9 0.347625 0.624713 0.500000
O O10 0.386231 0.742546 0.309590
O O11 0.410474 0.580222 0.273362
O O12 0.440390 0.994437 0.500000
O O13 0.406503 0.909152 0.261792
O O14 0.500000 0.000000 0.255283
O O15 0.402506 0.080135 0.267139
O O16 0.850644 0.636814 0.500000
O O17 0.802807 0.656496 0.753615
O O18 0.642700 0.841272 0.500000
O O19 0.918154 0.976649 0.000000
O O20 0.000000 0.000000 0.802925
O O21 0.241206 0.393196 0.000000
#
# Coordination Sequence:
#
# PCOD8226234 Si02
#       8
#     8   8   8   8   8   8   8   8
#     4  11  21  37  60  85 118 155 191 236 290 353
#     4  10  21  39  59  84 116 152 192 236 290 348
#     4  11  23  37  59  90 120 151 192 244 296 345
#     4   9  19  37  58  79 110 152 192 231 280 340
#     4  10  21  37  57  84 116 149 187 235 288 345
#     4  11  22  36  59  90 116 150 195 239 293 348
#     4  10  22  42  64  84 114 159 204 243 291 351
#     4  10  20  35  58  84 111 150 190 230 286 346
#
# _framework density 19.496524000000001
#
# number of rings (size 3 to 8) (size 9 to 14) (size 15 to 20)
#    0.000    1.750    2.500    1.875    0.000    5.750 
#    0.000    1.250    0.000    3.375    0.000    0.000 
#    0.000    0.000    0.000    0.000    0.000    0.000 
#
# Total GULP energy -793849.893147 kJ/mol
# GULP energy per Si atom -12403.904580 kJ/mol
# Density = 1.945215 g / cm^3
# Si number density = 19.496524 Si / 1000 Ang^3
#
#
#
# Elastic Constant Matrix: (Units=GPa)
#
#
# Indices 1 2 3 4 5 6 
#
# 1 111.4714 55.7922 27.9498 0.0000 0.0000 0.0000
# 2 55.7922 151.6670 42.5688 0.0000 0.0000 0.0000
# 3 27.9498 42.5688 45.7485 0.0000 0.0000 0.0000
# 4 0.0000 0.0000 0.0000 30.3237 0.0000 0.0000
# 5 0.0000 0.0000 0.0000 0.0000 23.9871 0.0000
# 6 0.0000 0.0000 0.0000 0.0000 0.0000 12.2067
#
#
#
# Elastic Compliance Matrix: (Units=1/GPa)
#
#
# Indices 1 2 3 4 5 6 
#
# 1 0.011564 -0.003074 -0.004205 0.000000 0.000000 0.000000
# 2 -0.003074 0.009741 -0.007186 0.000000 0.000000 0.000000
# 3 -0.004205 -0.007186 0.031114 0.000000 0.000000 0.000000
# 4 0.000000 0.000000 0.000000 0.032978 0.000000 0.000000
# 5 0.000000 0.000000 0.000000 0.000000 0.041689 0.000000
# 6 0.000000 0.000000 0.000000 0.000000 0.000000 0.081922
#
#
# Mechanical properties :
#
#
# Convention : Reuss Voigt Hill
#
# Bulk Modulus (GPa) = 42.57169 62.38983 52.48076
# Shear Modulus (GPa) = 20.34452 25.47524 22.90988
#
# Velocity S-wave (km/s) = 3.23382 3.61869 3.43166
# Velocity P-wave (km/s) = 5.98552 7.03774 6.53285
#
# Compressibility (1/GPa) = 0.02348979
#
# Stress axis : x y z
#
# Youngs Moduli (GPa) = 86.47874 102.65869 32.13966
#
# Poissons Ratio (x) = 0.31553 0.13514
# Poissons Ratio (y) = 0.26580 0.23096
# Poissons Ratio (z) = 0.36362 0.73772
#
# Static dielectric constant tensor:
#      x y z
#    x 3.541930 0.000000 0.000000 
#    y 0.000000 3.842340 0.000000 
#    z 0.000000 0.000000 3.373500 
# 
# 
# High freq. dielectric constant tensor:
#      x y z
#    x 1.753830 0.000000 0.000000 
#    y 0.000000 1.777360 0.000000 
#    z 0.000000 0.000000 1.743180 
# 
# From -- ./inp_files/9020.got.cif
#   From: 2010.03.12/outbox.cif.g09.slc.cpg/sg55_5_cif.got.tgz:9020.got - 2010.04.16 15:19:21.
