data_PCOD8226772
_publ_section_title
;
Structure prediction by ZEFSAII (Michael W. Deem and Ramdas Pophale) SiO2 
 PCOD8226772
Probable space group: P B A M
;
_chemical_formula_sum "Si O2"
_cell_formula_units_Z 56
_cell_length_a 17.231505
_cell_length_b 18.549413
_cell_length_c 9.092081
_cell_angle_alpha 90.000000
_cell_angle_beta 90.000000
_cell_angle_gamma 90.000000
_cell_volume 2906.140972
_symmetry_space_group_name_H-M "P B A M"
_symmetry_group_IT_number 55
_symmetry_cell_setting 'orthorhombic'
loop_
_space_group_symop_operation_xyz
x,y,z
-x,-y,z
1/2+x,1/2-y,-z
1/2-x,1/2+y,-z
-x,-y,-z
x,y,-z
1/2-x,1/2+y,z
1/2+x,1/2-y,z
loop_
_atom_site_type_symbol
_atom_site_label
_atom_site_fract_x
_atom_site_fract_y
_atom_site_fract_z
Si Si1 0.303962 0.385262 0.169184
Si Si2 0.241516 0.044103 0.170223
Si Si3 0.443089 0.901245 0.673681
Si Si4 0.392987 0.058625 0.673425
Si Si5 0.521176 0.581457 0.173617
Si Si6 0.878817 0.862098 0.673990
Si Si7 0.183317 0.292329 0.326253
O O1 0.254458 0.458148 0.193512
O O2 0.391752 0.398568 0.223479
O O3 0.264131 0.320307 0.258706
O O4 0.303930 0.362344 0.000000
O O5 0.317251 0.083185 0.237323
O O6 0.166314 0.071090 0.256082
O O7 0.232844 0.064649 0.000000
O O8 0.438491 0.900725 0.500000
O O9 0.533860 0.890603 0.717825
O O10 0.389127 0.838406 0.739015
O O11 0.412944 0.978318 0.727773
O O12 0.374950 0.062591 0.500000
O O13 0.500000 0.500000 0.221188
O O14 0.465146 0.637244 0.258427
O O15 0.510002 0.590800 0.000000
O O16 0.884504 0.870503 0.500000
O O17 0.833035 0.789643 0.719001
O O18 0.189667 0.301473 0.500000
#
# Coordination Sequence:
#
# PCOD8226772 Si02
#       7
#     8   8   8   8   8   8   8
#     4  10  21  37  61  88 114 152 195 235 292 354
#     4  11  21  36  57  83 116 150 188 241 290 339
#     4   8  15  30  54  80 108 143 180 226 282 335
#     4   9  16  30  55  83 108 141 186 230 279 339
#     4  10  20  40  64  86 116 152 191 243 300 349
#     4  11  24  39  58  86 116 152 196 242 293 348
#     4  10  21  39  59  82 116 154 192 240 294 347
#
# _framework density 19.269541
#
# number of rings (size 3 to 8) (size 9 to 14) (size 15 to 20)
#    0.000    2.143    2.857    1.714    0.000    2.571 
#    2.571    2.143    0.000    0.000    0.000    0.000 
#    0.000    0.000    0.000    0.000    0.000    0.000 
#
# Total GULP energy -694297.445196 kJ/mol
# GULP energy per Si atom -12398.168664 kJ/mol
# Density = 1.922568 g / cm^3
# Si number density = 19.269541 Si / 1000 Ang^3
#
#
#
# Elastic Constant Matrix: (Units=GPa)
#
#
# Indices 1 2 3 4 5 6 
#
# 1 143.7193 36.1559 48.6460 0.0000 0.0000 0.0000
# 2 36.1559 67.3615 35.5986 0.0000 0.0000 0.0000
# 3 48.6460 35.5986 58.1418 0.0000 0.0000 0.0000
# 4 0.0000 0.0000 0.0000 22.6597 0.0000 0.0000
# 5 0.0000 0.0000 0.0000 0.0000 33.3796 0.0000
# 6 0.0000 0.0000 0.0000 0.0000 0.0000 31.6193
#
#
#
# Elastic Compliance Matrix: (Units=1/GPa)
#
#
# Indices 1 2 3 4 5 6 
#
# 1 0.009792 -0.001369 -0.007354 0.000000 0.000000 0.000000
# 2 -0.001369 0.022138 -0.012409 0.000000 0.000000 0.000000
# 3 -0.007354 -0.012409 0.030950 0.000000 0.000000 0.000000
# 4 0.000000 0.000000 0.000000 0.044131 0.000000 0.000000
# 5 0.000000 0.000000 0.000000 0.000000 0.029958 0.000000
# 6 0.000000 0.000000 0.000000 0.000000 0.000000 0.031626
#
#
# Mechanical properties :
#
#
# Convention : Reuss Voigt Hill
#
# Bulk Modulus (GPa) = 48.50798 56.66929 52.58863
# Shear Modulus (GPa) = 22.96405 27.45319 25.20862
#
# Velocity S-wave (km/s) = 3.45589 3.77861 3.62084
# Velocity P-wave (km/s) = 6.41500 6.96489 6.69559
#
# Compressibility (1/GPa) = 0.02061516
#
# Stress axis : x y z
#
# Youngs Moduli (GPa) = 102.12745 45.17139 32.31018
#
# Poissons Ratio (x) = 0.06185 0.23762
# Poissons Ratio (y) = 0.13983 0.40093
# Poissons Ratio (z) = 0.75106 0.56053
#
# Static dielectric constant tensor:
#      x y z
#    x 3.758210 0.000000 0.000000 
#    y 0.000000 3.404850 0.000000 
#    z 0.000000 0.000000 3.235740 
# 
# 
# High freq. dielectric constant tensor:
#      x y z
#    x 1.766770 0.000000 0.000000 
#    y 0.000000 1.725380 0.000000 
#    z 0.000000 0.000000 1.728950 
# 
# From -- ./inp_files/7862.got.cif
#   From: 2010.03.12/outbox.cif.g09.slc.cpg/sg55_4_cif.got.tgz:7862.got - 2010.04.16 15:19:21.
