data_PCOD8226559
_publ_section_title
;
Structure prediction by ZEFSAII (Michael W. Deem and Ramdas Pophale) SiO2 
 PCOD8226559
Probable space group: P B A M
;
_chemical_formula_sum "Si O2"
_cell_formula_units_Z 64
_cell_length_a 15.286755
_cell_length_b 23.260351
_cell_length_c 8.996813
_cell_angle_alpha 90.000000
_cell_angle_beta 90.000000
_cell_angle_gamma 90.000000
_cell_volume 3199.044364
_symmetry_space_group_name_H-M "P B A M"
_symmetry_group_IT_number 55
_symmetry_cell_setting 'orthorhombic'
loop_
_space_group_symop_operation_xyz
x,y,z
-x,-y,z
1/2+x,1/2-y,-z
1/2-x,1/2+y,-z
-x,-y,-z
x,y,-z
1/2-x,1/2+y,z
1/2+x,1/2-y,z
loop_
_atom_site_type_symbol
_atom_site_label
_atom_site_fract_x
_atom_site_fract_y
_atom_site_fract_z
Si Si1 0.149310 0.500772 0.326795
Si Si2 0.083959 0.872893 0.325847
Si Si3 0.091165 0.111136 0.824354
Si Si4 0.757962 0.316303 0.829240
Si Si5 0.416167 0.127042 0.674105
Si Si6 0.091302 0.388743 0.824361
Si Si7 0.649309 0.500825 0.673244
Si Si8 0.241994 0.816103 0.829232
O O1 0.138099 0.486013 0.500000
O O2 0.110113 0.562169 0.285476
O O3 0.096614 0.453819 0.233690
O O4 0.250000 0.500157 0.278484
O O5 0.072715 0.863982 0.500000
O O6 0.157473 0.829445 0.268800
O O7 0.993011 0.857825 0.246021
O O8 0.110575 0.937680 0.285101
O O9 0.176595 0.145970 0.771770
O O10 0.096342 0.046064 0.766163
O O11 0.081123 0.111545 0.000000
O O12 0.842464 0.329671 0.731221
O O13 0.732102 0.250096 0.809213
O O14 0.779479 0.331077 0.000000
O O15 0.427399 0.136094 0.500000
O O16 0.507053 0.142219 0.754001
O O17 0.176669 0.353853 0.771731
O O18 0.081268 0.388294 0.000000
O O19 0.637907 0.486230 0.500000
O O20 0.220476 0.830871 0.000000
#
# Coordination Sequence:
#
# PCOD8226559 Si02
#       8
#     8   8   8   8   8   8   8   8
#     4  10  20  37  60  87 122 160 194 240 301 357
#     4  11  23  39  62  90 121 156 197 243 297 355
#     4  11  23  38  61  91 122 157 199 244 296 358
#     4  10  23  43  63  84 115 156 200 246 295 347
#     4  11  23  39  62  90 121 156 197 243 297 355
#     4  11  23  38  61  91 122 157 199 244 296 358
#     4  10  20  37  60  87 122 160 194 240 301 357
#     4  10  23  43  63  84 115 156 200 246 295 347
#
# _framework density 20.005973999999998
#
# number of rings (size 3 to 8) (size 9 to 14) (size 15 to 20)
#    0.000    1.500    2.500    2.250    0.000    8.000 
#    0.000    2.500    0.000    0.000    0.000    0.000 
#    0.000    0.000    0.000    0.000    0.000    0.000 
#
# Total GULP energy -794072.641570 kJ/mol
# GULP energy per Si atom -12407.385025 kJ/mol
# Density = 1.996044 g / cm^3
# Si number density = 20.005974 Si / 1000 Ang^3
#
#
#
# Elastic Constant Matrix: (Units=GPa)
#
#
# Indices 1 2 3 4 5 6 
#
# 1 118.4229 15.4046 36.7237 0.0000 0.0000 0.0000
# 2 15.4046 66.7062 24.7806 0.0000 0.0000 0.0000
# 3 36.7237 24.7806 64.0549 0.0000 0.0000 0.0000
# 4 0.0000 0.0000 0.0000 24.0309 0.0000 0.0000
# 5 0.0000 0.0000 0.0000 0.0000 38.3253 0.0000
# 6 0.0000 0.0000 0.0000 0.0000 0.0000 18.3724
#
#
#
# Elastic Compliance Matrix: (Units=1/GPa)
#
#
# Indices 1 2 3 4 5 6 
#
# 1 0.010273 -0.000215 -0.005806 0.000000 0.000000 0.000000
# 2 -0.000215 0.017512 -0.006651 0.000000 0.000000 0.000000
# 3 -0.005806 -0.006651 0.021514 0.000000 0.000000 0.000000
# 4 0.000000 0.000000 0.000000 0.041613 0.000000 0.000000
# 5 0.000000 0.000000 0.000000 0.000000 0.026092 0.000000
# 6 0.000000 0.000000 0.000000 0.000000 0.000000 0.054429
#
#
# Mechanical properties :
#
#
# Convention : Reuss Voigt Hill
#
# Bulk Modulus (GPa) = 41.74939 44.77797 43.26368
# Shear Modulus (GPa) = 24.41848 27.63074 26.02461
#
# Velocity S-wave (km/s) = 3.49744 3.72038 3.61063
# Velocity P-wave (km/s) = 6.10108 6.39421 6.24936
#
# Compressibility (1/GPa) = 0.02395245
#
# Stress axis : x y z
#
# Youngs Moduli (GPa) = 97.34357 57.10471 46.48227
#
# Poissons Ratio (x) = 0.01230 0.26989
# Poissons Ratio (y) = 0.02096 0.30916
# Poissons Ratio (z) = 0.56521 0.37981
#
# Static dielectric constant tensor:
#      x y z
#    x 3.802230 0.000000 0.000000 
#    y 0.000000 3.532000 0.000000 
#    z 0.000000 0.000000 3.572140 
# 
# 
# High freq. dielectric constant tensor:
#      x y z
#    x 1.796440 0.000000 0.000000 
#    y 0.000000 1.773570 0.000000 
#    z 0.000000 0.000000 1.779550 
# 
# From -- ./inp_files/6662.got.cif
#   From: 2010.03.12/outbox.cif.g09.slc.cpg/sg55_4_cif.got.tgz:6662.got - 2010.04.16 15:19:21.
