data_PCOD8226487
_publ_section_title
;
Structure prediction by ZEFSAII (Michael W. Deem and Ramdas Pophale) SiO2 
 PCOD8226487
Probable space group: P B A M
;
_chemical_formula_sum "Si O2"
_cell_formula_units_Z 56
_cell_length_a 21.748474
_cell_length_b 9.027767
_cell_length_c 14.396892
_cell_angle_alpha 90.000000
_cell_angle_beta 90.000000
_cell_angle_gamma 90.000000
_cell_volume 2826.688019
_symmetry_space_group_name_H-M "P B A M"
_symmetry_group_IT_number 55
_symmetry_cell_setting 'orthorhombic'
loop_
_space_group_symop_operation_xyz
x,y,z
-x,-y,z
1/2+x,1/2-y,-z
1/2-x,1/2+y,-z
-x,-y,-z
x,y,-z
1/2-x,1/2+y,z
1/2+x,1/2-y,z
loop_
_atom_site_type_symbol
_atom_site_label
_atom_site_fract_x
_atom_site_fract_y
_atom_site_fract_z
Si Si1 0.937529 0.911380 0.099231
Si Si2 0.061487 0.402644 0.390442
Si Si3 0.251119 0.214267 0.701199
Si Si4 0.935884 0.918455 0.696605
Si Si5 0.939945 0.569965 0.102843
Si Si6 0.337626 0.962459 0.751301
Si Si7 0.679512 0.529124 0.395707
O O1 0.904634 0.936854 0.199477
O O2 0.954635 0.741189 0.097457
O O3 0.901854 0.949433 0.000000
O O4 0.000000 0.000000 0.099797
O O5 0.074727 0.374967 0.500000
O O6 0.052902 0.251220 0.332811
O O7 0.121656 0.480082 0.343683
O O8 0.000000 0.500000 0.378084
O O9 0.289462 0.097533 0.762979
O O10 0.197547 0.303654 0.755329
O O11 0.218573 0.120011 0.620280
O O12 0.298624 0.333482 0.664096
O O13 0.891537 0.998631 0.624711
O O14 0.000000 0.000000 0.692219
O O15 0.879688 0.528696 0.159144
O O16 0.000000 0.500000 0.151717
O O17 0.930545 0.502107 0.000000
O O18 0.687074 0.579796 0.500000
#
# Coordination Sequence:
#
# PCOD8226487 Si02
#       7
#     8   8   8   8   8   8   8
#     4   9  18  33  55  84 118 152 188 227 285 354
#     4  11  24  39  58  86 121 161 198 241 305 374
#     4  10  24  39  60  83 112 161 208 250 291 347
#     4  11  23  37  58  87 122 155 190 243 305 360
#     4  10  20  36  64  96 122 152 194 247 306 363
#     4  11  22  42  61  84 121 158 203 253 300 352
#     4  11  22  39  59  84 115 153 200 250 297 351
#
# _framework density 19.811170000000001
#
# number of rings (size 3 to 8) (size 9 to 14) (size 15 to 20)
#    0.000    1.571    2.857    1.286    2.000    5.143 
#    0.000    0.714    0.000    3.429    0.000    0.000 
#    0.000    0.000    0.000    0.000    0.000    0.000 
#
# Total GULP energy -693828.076260 kJ/mol
# GULP energy per Si atom -12389.787076 kJ/mol
# Density = 1.976608 g / cm^3
# Si number density = 19.811170 Si / 1000 Ang^3
#
#
#
# Elastic Constant Matrix: (Units=GPa)
#
#
# Indices 1 2 3 4 5 6 
#
# 1 113.1428 42.8481 42.3749 0.0000 0.0000 0.0000
# 2 42.8481 77.6455 25.5356 0.0000 0.0000 0.0000
# 3 42.3749 25.5356 103.0296 0.0000 0.0000 0.0000
# 4 0.0000 0.0000 0.0000 20.2226 0.0000 0.0000
# 5 0.0000 0.0000 0.0000 0.0000 -4.8347 0.0000
# 6 0.0000 0.0000 0.0000 0.0000 0.0000 34.7889
#
#
#
# Elastic Compliance Matrix: (Units=1/GPa)
#
#
# Indices 1 2 3 4 5 6 
#
# 1 0.012339 -0.005596 -0.003688 0.000000 0.000000 0.000000
# 2 -0.005596 0.016560 -0.001803 0.000000 0.000000 0.000000
# 3 -0.003688 -0.001803 0.011670 0.000000 0.000000 0.000000
# 4 0.000000 0.000000 0.000000 0.049450 0.000000 0.000000
# 5 0.000000 0.000000 0.000000 0.000000 -0.206838 0.000000
# 6 0.000000 0.000000 0.000000 0.000000 0.000000 0.028745
#
#
# Mechanical properties :
#
#
# Convention : Reuss Voigt Hill
#
# Bulk Modulus (GPa) = 54.36277 57.25947 55.81112
# Shear Modulus (GPa) = -83.65526 22.23931 -30.70797
#
# Velocity S-wave (km/s) = -6.50523 3.35410 -3.94132
# Velocity P-wave (km/s) = 5.37810 6.63064 2.74239
#
# Compressibility (1/GPa) = 0.01839494
#
# Stress axis : x y z
#
# Youngs Moduli (GPa) = 81.04418 60.38569 85.69346
#
# Poissons Ratio (x) = 0.33794 0.31602
# Poissons Ratio (y) = 0.45355 0.15448
# Poissons Ratio (z) = 0.29888 0.10886
#
# Static dielectric constant tensor:
#      x y z
#    x 3.432820 0.000000 0.000000 
#    y 0.000000 3.814860 0.000000 
#    z 0.000000 0.000000 4.059270 
# 
# 
# High freq. dielectric constant tensor:
#      x y z
#    x 1.762770 0.000000 0.000000 
#    y 0.000000 1.781830 0.000000 
#    z 0.000000 0.000000 1.771920 
# 
# From -- ./inp_files/19733.got.cif
#   From: 2010.03.12/outbox.cif.g09.slc.cpg/sg55_10_cif.got.tgz:19733.got - 2010.04.16 15:19:21.
