data_PCOD8226781
_publ_section_title
;
Structure prediction by ZEFSAII (Michael W. Deem and Ramdas Pophale) SiO2 
 PCOD8226781
Probable space group: P B A M
;
_chemical_formula_sum "Si O2"
_cell_formula_units_Z 64
_cell_length_a 30.540131
_cell_length_b 12.137514
_cell_length_c 8.582832
_cell_angle_alpha 90.000000
_cell_angle_beta 90.000000
_cell_angle_gamma 90.000000
_cell_volume 3181.495045
_symmetry_space_group_name_H-M "P B A M"
_symmetry_group_IT_number 55
_symmetry_cell_setting 'orthorhombic'
loop_
_space_group_symop_operation_xyz
x,y,z
-x,-y,z
1/2+x,1/2-y,-z
1/2-x,1/2+y,-z
-x,-y,-z
x,y,-z
1/2-x,1/2+y,z
1/2+x,1/2-y,z
loop_
_atom_site_type_symbol
_atom_site_label
_atom_site_fract_x
_atom_site_fract_y
_atom_site_fract_z
Si Si1 0.376908 0.150685 0.816350
Si Si2 0.706868 0.464172 0.181373
Si Si3 0.322806 0.751444 0.325820
Si Si4 0.453341 0.539414 0.313514
Si Si5 0.698136 0.004236 0.315475
Si Si6 0.576426 0.234170 0.326116
Si Si7 0.948965 0.501185 0.683517
Si Si8 0.128008 0.894996 0.315347
O O1 0.423278 0.099121 0.763300
O O2 0.372612 0.273884 0.754715
O O3 0.336011 0.081343 0.754762
O O4 0.375019 0.152804 0.000000
O O5 0.698100 0.335080 0.207647
O O6 0.753905 0.485618 0.252272
O O7 0.671693 0.540982 0.266256
O O8 0.706251 0.491831 0.000000
O O9 0.302812 0.736361 0.500000
O O10 0.314998 0.873519 0.261943
O O11 0.373884 0.728288 0.331902
O O12 0.500000 0.500000 0.250058
O O13 0.451553 0.543004 0.500000
O O14 0.448273 0.663452 0.244675
O O15 0.414716 0.460095 0.252138
O O16 0.696557 0.991670 0.500000
O O17 0.557261 0.218592 0.500000
O O18 0.569363 0.116246 0.243720
O O19 0.939865 0.490858 0.500000
O O20 0.000000 0.500000 0.724627
O O21 0.127337 0.885822 0.500000
#
# Coordination Sequence:
#
# PCOD8226781 Si02
#       8
#     8   8   8   8   8   8   8   8
#     4  12  26  43  62  90 132 169 206 261 330 386
#     4  12  26  42  63  94 132 165 204 256 321 380
#     4  10  20  40  67  91 119 159 211 263 307 365
#     4   9  18  32  59  95 123 153 202 264 313 352
#     4  11  24  44  69  93 121 163 218 263 309 374
#     4   9  16  33  59  90 122 152 202 264 307 348
#     4  10  21  38  65  96 125 164 216 263 307 371
#     4  11  23  42  66  90 123 168 218 261 311 377
#
# _framework density 20.116329
#
# number of rings (size 3 to 8) (size 9 to 14) (size 15 to 20)
#    0.000    1.500    2.500    3.000    3.500    1.250 
#    0.000    0.000    0.000    1.500    0.000    0.000 
#    0.000    0.000    0.000    0.000    0.000    0.000 
#
# Total GULP energy -793555.607893 kJ/mol
# GULP energy per Si atom -12399.306373 kJ/mol
# Density = 2.007054 g / cm^3
# Si number density = 20.116329 Si / 1000 Ang^3
#
#
#
# Elastic Constant Matrix: (Units=GPa)
#
#
# Indices 1 2 3 4 5 6 
#
# 1 127.0768 51.0963 37.5210 0.0000 0.0000 0.0000
# 2 51.0963 148.0021 42.4354 0.0000 0.0000 0.0000
# 3 37.5210 42.4354 81.7868 0.0000 0.0000 0.0000
# 4 0.0000 0.0000 0.0000 -17.7542 0.0000 0.0000
# 5 0.0000 0.0000 0.0000 0.0000 12.7464 0.0000
# 6 0.0000 0.0000 0.0000 0.0000 0.0000 37.0431
#
#
#
# Elastic Compliance Matrix: (Units=1/GPa)
#
#
# Indices 1 2 3 4 5 6 
#
# 1 0.009811 -0.002463 -0.003223 0.000000 0.000000 0.000000
# 2 -0.002463 0.008556 -0.003309 0.000000 0.000000 0.000000
# 3 -0.003223 -0.003309 0.015423 0.000000 0.000000 0.000000
# 4 0.000000 0.000000 0.000000 -0.056325 0.000000 0.000000
# 5 0.000000 0.000000 0.000000 0.000000 0.078454 0.000000
# 6 0.000000 0.000000 0.000000 0.000000 0.000000 0.026996
#
#
# Mechanical properties :
#
#
# Convention : Reuss Voigt Hill
#
# Bulk Modulus (GPa) = 63.29588 68.77458 66.03523
# Shear Modulus (GPa) = 47.09352 21.46124 34.27738
#
# Velocity S-wave (km/s) = 4.84370 3.26982 4.13238
# Velocity P-wave (km/s) = 7.92560 6.96551 7.46101
#
# Compressibility (1/GPa) = 0.01579882
#
# Stress axis : x y z
#
# Youngs Moduli (GPa) = 101.92309 116.87886 64.83997
#
# Poissons Ratio (x) = 0.28789 0.20899
# Poissons Ratio (y) = 0.25105 0.21457
# Poissons Ratio (z) = 0.32851 0.38678
#
# Static dielectric constant tensor:
#      x y z
#    x 3.724550 0.000000 0.000000 
#    y 0.000000 3.888920 0.000000 
#    z 0.000000 0.000000 3.409620 
# 
# 
# High freq. dielectric constant tensor:
#      x y z
#    x 1.795260 0.000000 0.000000 
#    y 0.000000 1.807420 0.000000 
#    z 0.000000 0.000000 1.754360 
# 
# From -- ./inp_files/10761.got.cif
#   From: 2010.03.12/outbox.cif.g09.slc.cpg/sg55_6_cif.got.tgz:10761.got - 2010.04.16 15:19:21.
