data_PCOD8226116
_publ_section_title
;
Structure prediction by ZEFSAII (Michael W. Deem and Ramdas Pophale) SiO2 
 PCOD8226116
Probable space group: P B A M
;
_chemical_formula_sum "Si O2"
_cell_formula_units_Z 64
_cell_length_a 17.898540
_cell_length_b 13.549127
_cell_length_c 13.627221
_cell_angle_alpha 90.000000
_cell_angle_beta 90.000000
_cell_angle_gamma 90.000000
_cell_volume 3304.731799
_symmetry_space_group_name_H-M "P B A M"
_symmetry_group_IT_number 55
_symmetry_cell_setting 'orthorhombic'
loop_
_space_group_symop_operation_xyz
x,y,z
-x,-y,z
1/2+x,1/2-y,-z
1/2-x,1/2+y,-z
-x,-y,-z
x,y,-z
1/2-x,1/2+y,z
1/2+x,1/2-y,z
loop_
_atom_site_type_symbol
_atom_site_label
_atom_site_fract_x
_atom_site_fract_y
_atom_site_fract_z
Si Si1 0.679670 0.543926 0.607428
Si Si2 0.341473 0.122225 0.255547
Si Si3 0.925570 0.054182 0.884873
Si Si4 0.671632 0.406202 0.772339
Si Si5 0.655065 0.069469 0.382819
Si Si6 0.550589 0.783764 0.884425
Si Si7 0.935228 0.733245 0.268618
Si Si8 0.579806 0.725341 0.387732
O O1 0.690158 0.502496 0.500000
O O2 0.662390 0.443688 0.662558
O O3 0.758115 0.595735 0.637230
O O4 0.609725 0.614854 0.617942
O O5 0.257898 0.121781 0.212636
O O6 0.388575 0.138941 0.155917
O O7 0.358896 0.210129 0.330824
O O8 0.365210 0.026310 0.317987
O O9 0.926125 0.170330 0.856847
O O10 0.853208 0.997089 0.842565
O O11 0.920905 0.041426 0.000000
O O12 0.000000 0.000000 0.844033
O O13 0.620344 0.310975 0.781416
O O14 0.637389 0.055833 0.500000
O O15 0.606923 0.156829 0.337590
O O16 0.474226 0.813162 0.827989
O O17 0.539540 0.797794 0.000000
O O18 0.999235 0.778837 0.337481
O O19 0.573598 0.762406 0.500000
#
# Coordination Sequence:
#
# PCOD8226116 Si02
#       8
#     8   8   8   8   8   8   8   8
#     4   9  20  35  54  80 117 154 186 231 293 349
#     4  10  22  38  59  82 112 155 197 236 286 337
#     4  10  20  37  63  89 114 147 183 229 292 355
#     4  11  21  35  59  88 117 147 192 240 284 345
#     4  10  21  39  57  80 113 155 202 241 277 336
#     4  10  22  41  61  86 118 148 184 235 296 353
#     4  11  22  34  57  87 113 149 194 242 289 336
#     4  10  20  35  53  79 113 151 192 237 286 342
#
# _framework density 19.366171000000001
#
# number of rings (size 3 to 8) (size 9 to 14) (size 15 to 20)
#    0.000    1.875    1.250    3.000    0.000    5.000 
#    0.000    5.625    0.000    0.750    0.000    0.000 
#    0.000    0.000    0.000    0.000    0.000    0.000 
#
# Total GULP energy -793108.629294 kJ/mol
# GULP energy per Si atom -12392.322333 kJ/mol
# Density = 1.932209 g / cm^3
# Si number density = 19.366171 Si / 1000 Ang^3
#
#
#
# Elastic Constant Matrix: (Units=GPa)
#
#
# Indices 1 2 3 4 5 6 
#
# 1 92.0027 22.5918 41.0117 0.0000 0.0000 0.0000
# 2 22.5918 46.8923 19.3331 0.0000 0.0000 0.0000
# 3 41.0117 19.3331 98.8144 0.0000 0.0000 0.0000
# 4 0.0000 0.0000 0.0000 34.6523 0.0000 0.0000
# 5 0.0000 0.0000 0.0000 0.0000 24.4439 0.0000
# 6 0.0000 0.0000 0.0000 0.0000 0.0000 23.1915
#
#
#
# Elastic Compliance Matrix: (Units=1/GPa)
#
#
# Indices 1 2 3 4 5 6 
#
# 1 0.014274 -0.004823 -0.004980 0.000000 0.000000 0.000000
# 2 -0.004823 0.024827 -0.002855 0.000000 0.000000 0.000000
# 3 -0.004980 -0.002855 0.012746 0.000000 0.000000 0.000000
# 4 0.000000 0.000000 0.000000 0.028858 0.000000 0.000000
# 5 0.000000 0.000000 0.000000 0.000000 0.040910 0.000000
# 6 0.000000 0.000000 0.000000 0.000000 0.000000 0.043119
#
#
# Mechanical properties :
#
#
# Convention : Reuss Voigt Hill
#
# Bulk Modulus (GPa) = 37.69682 44.84251 41.26966
# Shear Modulus (GPa) = 25.13894 26.77572 25.95733
#
# Velocity S-wave (km/s) = 3.60680 3.72237 3.66504
# Velocity P-wave (km/s) = 6.07066 6.45601 6.26630
#
# Compressibility (1/GPa) = 0.02652743
#
# Stress axis : x y z
#
# Youngs Moduli (GPa) = 70.05848 40.27943 78.45773
#
# Poissons Ratio (x) = 0.19429 0.39075
# Poissons Ratio (y) = 0.33792 0.22403
# Poissons Ratio (z) = 0.34892 0.11501
#
# Static dielectric constant tensor:
#      x y z
#    x 3.735170 0.000000 0.000000 
#    y 0.000000 3.419330 0.000000 
#    z 0.000000 0.000000 3.682370 
# 
# 
# High freq. dielectric constant tensor:
#      x y z
#    x 1.757310 0.000000 0.000000 
#    y 0.000000 1.743540 0.000000 
#    z 0.000000 0.000000 1.760920 
# 
# From -- ./inp_files/19491.got.cif
#   From: 2010.03.12/outbox.cif.g09.slc.cpg/sg55_10_cif.got.tgz:19491.got - 2010.04.16 15:19:21.
