data_PCOD8226246
_publ_section_title
;
Structure prediction by ZEFSAII (Michael W. Deem and Ramdas Pophale) SiO2 
 PCOD8226246
Probable space group: P B A M
;
_chemical_formula_sum "Si O2"
_cell_formula_units_Z 64
_cell_length_a 18.561252
_cell_length_b 19.547332
_cell_length_c 9.347229
_cell_angle_alpha 90.000000
_cell_angle_beta 90.000000
_cell_angle_gamma 90.000000
_cell_volume 3391.389249
_symmetry_space_group_name_H-M "P B A M"
_symmetry_group_IT_number 55
_symmetry_cell_setting 'orthorhombic'
loop_
_space_group_symop_operation_xyz
x,y,z
-x,-y,z
1/2+x,1/2-y,-z
1/2-x,1/2+y,-z
-x,-y,-z
x,y,-z
1/2-x,1/2+y,z
1/2+x,1/2-y,z
loop_
_atom_site_type_symbol
_atom_site_label
_atom_site_fract_x
_atom_site_fract_y
_atom_site_fract_z
Si Si1 0.803207 0.406754 0.833136
Si Si2 0.037182 0.568495 0.170160
Si Si3 0.186880 0.750463 0.838295
Si Si4 0.288964 0.844487 0.333180
Si Si5 0.533175 0.691791 0.161154
Si Si6 0.442582 0.443695 0.668911
Si Si7 0.284124 0.485414 0.333557
Si Si8 0.432972 0.813364 0.166854
O O1 0.881486 0.427589 0.770807
O O2 0.790039 0.326888 0.805098
O O3 0.741592 0.448017 0.751013
O O4 0.797771 0.424724 0.000000
O O5 0.000000 0.500000 0.229377
O O6 0.990963 0.632418 0.226078
O O7 0.039946 0.569809 0.000000
O O8 0.223100 0.800052 0.724689
O O9 0.101220 0.757857 0.820744
O O10 0.210427 0.770195 0.000000
O O11 0.297653 0.829495 0.500000
O O12 0.271368 0.923789 0.303950
O O13 0.360371 0.822297 0.253320
O O14 0.534557 0.628700 0.267562
O O15 0.462580 0.737078 0.193617
O O16 0.530510 0.662821 0.000000
O O17 0.500000 0.500000 0.719921
O O18 0.442788 0.434679 0.500000
O O19 0.363385 0.465093 0.723437
O O20 0.287781 0.504127 0.500000
O O21 0.416928 0.826292 0.000000
#
# Coordination Sequence:
#
# PCOD8226246 Si02
#       8
#     8   8   8   8   8   8   8   8
#     4  10  20  35  58  87 114 148 192 234 284 349
#     4   9  16  29  52  81 112 146 184 224 272 333
#     4  10  20  37  60  86 115 150 194 242 293 348
#     4  11  23  38  57  84 117 156 199 238 285 350
#     4  10  20  37  62  88 117 149 190 247 300 347
#     4  10  22  41  63  84 113 157 202 244 294 350
#     4  10  22  39  56  82 120 157 197 244 290 343
#     4  10  20  36  58  87 119 149 189 242 293 342
#
# _framework density 18.871323
#
# number of rings (size 3 to 8) (size 9 to 14) (size 15 to 20)
#    0.000    2.000    2.500    1.125    0.000    4.750 
#    0.000    3.125    0.000    2.250    0.000    0.000 
#    0.000    0.000    0.000    0.000    0.000    0.000 
#
# Total GULP energy -793779.708462 kJ/mol
# GULP energy per Si atom -12402.807945 kJ/mol
# Density = 1.882837 g / cm^3
# Si number density = 18.871323 Si / 1000 Ang^3
#
#
#
# Elastic Constant Matrix: (Units=GPa)
#
#
# Indices 1 2 3 4 5 6 
#
# 1 84.0356 25.7486 32.3233 0.0000 0.0000 0.0000
# 2 25.7486 95.9922 39.7537 0.0000 0.0000 0.0000
# 3 32.3233 39.7537 53.9485 0.0000 0.0000 0.0000
# 4 0.0000 0.0000 0.0000 26.7302 0.0000 0.0000
# 5 0.0000 0.0000 0.0000 0.0000 25.7895 0.0000
# 6 0.0000 0.0000 0.0000 0.0000 0.0000 34.3738
#
#
#
# Elastic Compliance Matrix: (Units=1/GPa)
#
#
# Indices 1 2 3 4 5 6 
#
# 1 0.015477 -0.000448 -0.008943 0.000000 0.000000 0.000000
# 2 -0.000448 0.015006 -0.010789 0.000000 0.000000 0.000000
# 3 -0.008943 -0.010789 0.031845 0.000000 0.000000 0.000000
# 4 0.000000 0.000000 0.000000 0.037411 0.000000 0.000000
# 5 0.000000 0.000000 0.000000 0.000000 0.038775 0.000000
# 6 0.000000 0.000000 0.000000 0.000000 0.000000 0.029092
#
#
# Mechanical properties :
#
#
# Convention : Reuss Voigt Hill
#
# Bulk Modulus (GPa) = 45.52204 47.73640 46.62922
# Shear Modulus (GPa) = 23.22474 26.45543 24.84008
#
# Velocity S-wave (km/s) = 3.51192 3.74824 3.63200
# Velocity P-wave (km/s) = 6.37334 6.63951 6.50779
#
# Compressibility (1/GPa) = 0.02196738
#
# Stress axis : x y z
#
# Youngs Moduli (GPa) = 64.61319 66.64078 31.40242
#
# Poissons Ratio (x) = 0.02985 0.28083
# Poissons Ratio (y) = 0.02894 0.33881
# Poissons Ratio (z) = 0.57783 0.71900
#
# Static dielectric constant tensor:
#      x y z
#    x 3.565060 0.000000 0.000000 
#    y 0.000000 3.446590 0.000000 
#    z 0.000000 0.000000 3.229180 
# 
# 
# High freq. dielectric constant tensor:
#      x y z
#    x 1.740150 0.000000 0.000000 
#    y 0.000000 1.740180 0.000000 
#    z 0.000000 0.000000 1.710650 
# 
# From -- ./inp_files/8061.got.cif
#   From: 2010.03.12/outbox.cif.g09.slc.cpg/sg55_5_cif.got.tgz:8061.got - 2010.04.16 15:19:21.
