data_PCOD8226332
_publ_section_title
;
Structure prediction by ZEFSAII (Michael W. Deem and Ramdas Pophale) SiO2 
 PCOD8226332
Probable space group: P B A M
;
_chemical_formula_sum "Si O2"
_cell_formula_units_Z 64
_cell_length_a 16.746840
_cell_length_b 13.963936
_cell_length_c 13.786488
_cell_angle_alpha 90.000000
_cell_angle_beta 90.000000
_cell_angle_gamma 90.000000
_cell_volume 3223.995062
_symmetry_space_group_name_H-M "P B A M"
_symmetry_group_IT_number 55
_symmetry_cell_setting 'orthorhombic'
loop_
_space_group_symop_operation_xyz
x,y,z
-x,-y,z
1/2+x,1/2-y,-z
1/2-x,1/2+y,-z
-x,-y,-z
x,y,-z
1/2-x,1/2+y,z
1/2+x,1/2-y,z
loop_
_atom_site_type_symbol
_atom_site_label
_atom_site_fract_x
_atom_site_fract_y
_atom_site_fract_z
Si Si1 0.303884 0.432203 0.607561
Si Si2 0.066202 0.570172 0.113116
Si Si3 0.593745 0.737913 0.789901
Si Si4 0.886457 0.037792 0.110399
Si Si5 0.874213 0.906001 0.283300
Si Si6 0.299363 0.932604 0.107654
Si Si7 0.525470 0.659497 0.391575
Si Si8 0.271820 0.781165 0.257789
O O1 0.272269 0.456006 0.500000
O O2 0.302997 0.525250 0.676586
O O3 0.397302 0.407647 0.606212
O O4 0.247727 0.347914 0.648969
O O5 0.054594 0.677057 0.150806
O O6 0.152284 0.526619 0.141124
O O7 0.000000 0.500000 0.159381
O O8 0.053236 0.578138 0.000000
O O9 0.579490 0.636075 0.843535
O O10 0.547056 0.741205 0.686941
O O11 0.687819 0.759513 0.780546
O O12 0.792092 0.039740 0.108282
O O13 0.908301 0.947314 0.180078
O O14 0.919618 0.023527 0.000000
O O15 0.834108 0.802177 0.278912
O O16 0.947917 0.899797 0.357976
O O17 0.316660 0.843594 0.176901
O O18 0.327375 0.901573 0.000000
O O19 0.510490 0.701923 0.500000
#
# Coordination Sequence:
#
# PCOD8226332 Si02
#       8
#     8   8   8   8   8   8   8   8
#     4  10  21  40  60  82 115 149 192 242 287 341
#     4  10  21  35  58  86 115 157 198 232 281 349
#     4  10  20  39  59  83 114 158 188 238 292 338
#     4  10  20  36  57  86 118 147 189 235 285 345
#     4  12  21  36  60  89 114 152 190 238 290 347
#     4   9  18  36  57  81 114 152 194 230 273 344
#     4  10  22  39  60  83 110 149 195 237 287 348
#     4  10  22  36  59  86 118 146 193 237 288 340
#
# _framework density 19.851147000000001
#
# number of rings (size 3 to 8) (size 9 to 14) (size 15 to 20)
#    0.000    1.875    3.750    1.875    1.750    3.000 
#    0.000    1.875    0.000    0.375    0.000    0.000 
#    0.000    0.000    0.000    0.000    0.000    0.000 
#
# Total GULP energy -793177.694723 kJ/mol
# GULP energy per Si atom -12393.401480 kJ/mol
# Density = 1.980597 g / cm^3
# Si number density = 19.851147 Si / 1000 Ang^3
#
#
#
# Elastic Constant Matrix: (Units=GPa)
#
#
# Indices 1 2 3 4 5 6 
#
# 1 50.0054 46.6247 36.1219 0.0000 0.0000 0.0000
# 2 46.6247 115.9796 62.6412 0.0000 0.0000 0.0000
# 3 36.1219 62.6412 143.8447 0.0000 0.0000 0.0000
# 4 0.0000 0.0000 0.0000 28.1338 0.0000 0.0000
# 5 0.0000 0.0000 0.0000 0.0000 16.8327 0.0000
# 6 0.0000 0.0000 0.0000 0.0000 0.0000 23.0740
#
#
#
# Elastic Compliance Matrix: (Units=1/GPa)
#
#
# Indices 1 2 3 4 5 6 
#
# 1 0.033141 -0.011543 -0.003296 0.000000 0.000000 0.000000
# 2 -0.011543 0.015294 -0.003762 0.000000 0.000000 0.000000
# 3 -0.003296 -0.003762 0.009418 0.000000 0.000000 0.000000
# 4 0.000000 0.000000 0.000000 0.035544 0.000000 0.000000
# 5 0.000000 0.000000 0.000000 0.000000 0.059408 0.000000
# 6 0.000000 0.000000 0.000000 0.000000 0.000000 0.043339
#
#
# Mechanical properties :
#
#
# Convention : Reuss Voigt Hill
#
# Bulk Modulus (GPa) = 48.42031 66.73393 57.57712
# Shear Modulus (GPa) = 20.81347 24.57090 22.69218
#
# Velocity S-wave (km/s) = 3.24153 3.52199 3.38467
# Velocity P-wave (km/s) = 6.20118 7.08727 6.65898
#
# Compressibility (1/GPa) = 0.02065249
#
# Stress axis : x y z
#
# Youngs Moduli (GPa) = 30.17403 65.38385 106.18371
#
# Poissons Ratio (x) = 0.75473 0.34993
# Poissons Ratio (y) = 0.34830 0.39943
# Poissons Ratio (z) = 0.09944 0.24595
#
# Static dielectric constant tensor:
#      x y z
#    x 3.484670 0.000000 0.000000 
#    y 0.000000 3.445940 0.000000 
#    z 0.000000 0.000000 4.203160 
# 
# 
# High freq. dielectric constant tensor:
#      x y z
#    x 1.765120 0.000000 0.000000 
#    y 0.000000 1.758000 0.000000 
#    z 0.000000 0.000000 1.778540 
# 
# From -- ./inp_files/19535.got.cif
#   From: 2010.03.12/outbox.cif.g09.slc.cpg/sg55_10_cif.got.tgz:19535.got - 2010.04.16 15:19:21.
