data_PCOD8226974
_publ_section_title
;
Structure prediction by ZEFSAII (Michael W. Deem and Ramdas Pophale) SiO2 
 PCOD8226974
Probable space group: P B A M
;
_chemical_formula_sum "Si O2"
_cell_formula_units_Z 40
_cell_length_a 28.541454
_cell_length_b 9.276670
_cell_length_c 7.710732
_cell_angle_alpha 90.000000
_cell_angle_beta 90.000000
_cell_angle_gamma 90.000000
_cell_volume 2041.567813
_symmetry_space_group_name_H-M "P B A M"
_symmetry_group_IT_number 55
_symmetry_cell_setting 'orthorhombic'
loop_
_space_group_symop_operation_xyz
x,y,z
-x,-y,z
1/2+x,1/2-y,-z
1/2-x,1/2+y,-z
-x,-y,-z
x,y,-z
1/2-x,1/2+y,z
1/2+x,1/2-y,z
loop_
_atom_site_type_symbol
_atom_site_label
_atom_site_fract_x
_atom_site_fract_y
_atom_site_fract_z
Si Si1 0.891256 0.175714 0.700028
Si Si2 0.057997 0.657052 0.000000
Si Si3 0.102038 0.159795 0.695426
Si Si4 0.788367 0.123121 0.304697
Si Si5 0.294698 0.684000 0.194272
Si Si6 0.947745 0.675158 0.000000
O O1 0.902343 0.216232 0.500000
O O2 0.836603 0.204077 0.746169
O O3 0.903278 0.009080 0.737375
O O4 0.921571 0.274943 0.824999
O O5 0.070261 0.488486 0.000000
O O6 0.003180 0.685249 0.000000
O O7 0.085119 0.193722 0.500000
O O8 0.156024 0.207683 0.711097
O O9 0.070198 0.247548 0.827227
O O10 0.794182 0.064444 0.500000
O O11 0.745292 0.230973 0.295166
O O12 0.780390 0.983887 0.185674
O O13 0.298447 0.744042 0.000000
#
# Coordination Sequence:
#
# PCOD8226974 Si02
#       6
#     8   4   8   8   8   4
#     4   9  21  40  64  90 115 156 202 244 294 349
#     4  11  25  41  64  83 126 151 190 251 302 361
#     4  10  21  41  65  88 120 156 200 249 293 349
#     4  10  21  37  56  84 121 158 196 238 287 340
#     4  11  21  35  58  88 120 157 199 239 287 342
#     4  11  25  43  58  93 116 157 194 239 310 365
#
# _framework density 19.592784000000002
#
# number of rings (size 3 to 8) (size 9 to 14) (size 15 to 20)
#    0.000    1.800    1.000    4.200    5.600    4.800 
#    0.000    6.000    0.000    0.000    0.000    0.000 
#    0.000    0.000    0.000    0.000    0.000    0.000 
#
# Total GULP energy -496081.856618 kJ/mol
# GULP energy per Si atom -12402.046415 kJ/mol
# Density = 1.954819 g / cm^3
# Si number density = 19.592784 Si / 1000 Ang^3
#
#
#
# Elastic Constant Matrix: (Units=GPa)
#
#
# Indices 1 2 3 4 5 6 
#
# 1 -338.8996 -351.7410 -221.8935 0.0000 0.0000 0.0000
# 2 -351.7410 -306.6823 -201.2925 0.0000 0.0000 0.0000
# 3 -221.8935 -201.2925 -43.6969 0.0000 0.0000 0.0000
# 4 0.0000 0.0000 0.0000 25.2163 0.0000 0.0000
# 5 0.0000 0.0000 0.0000 0.0000 24.8911 0.0000
# 6 0.0000 0.0000 0.0000 0.0000 0.0000 35.6592
#
#
#
# Elastic Compliance Matrix: (Units=1/GPa)
#
#
# Indices 1 2 3 4 5 6 
#
# 1 0.015721 -0.016983 -0.001595 0.000000 0.000000 0.000000
# 2 -0.016983 0.019959 -0.005699 0.000000 0.000000 0.000000
# 3 -0.001595 -0.005699 0.011471 0.000000 0.000000 0.000000
# 4 0.000000 0.000000 0.000000 0.039657 0.000000 0.000000
# 5 0.000000 0.000000 0.000000 0.000000 0.040175 0.000000
# 6 0.000000 0.000000 0.000000 0.000000 0.000000 0.028043
#
#
# Mechanical properties :
#
#
# Convention : Reuss Voigt Hill
#
# Bulk Modulus (GPa) = -711.44944 -248.79255 -480.12100
# Shear Modulus (GPa) = 24.61668 22.86319 23.73993
#
# Velocity S-wave (km/s) = 3.54844 3.41973 3.48468
# Velocity P-wave (km/s) = 18.63110 10.56715 15.14567
#
# Compressibility (1/GPa) = -0.00140558
#
# Stress axis : x y z
#
# Youngs Moduli (GPa) = 63.60964 50.10305 87.17442
#
# Poissons Ratio (x) = 0.85092 0.13908
# Poissons Ratio (y) = 1.08031 0.49684
# Poissons Ratio (z) = 0.10148 0.28556
#
# Static dielectric constant tensor:
#      x y z
#    x 3.513580 0.000000 0.000000 
#    y 0.000000 3.458480 0.000000 
#    z 0.000000 0.000000 3.681240 
# 
# 
# High freq. dielectric constant tensor:
#      x y z
#    x 1.761580 0.000000 0.000000 
#    y 0.000000 1.750870 0.000000 
#    z 0.000000 0.000000 1.780710 
# 
# From -- ./inp_files/2545.got.cif
#   From: 2010.03.12/outbox.cif.g09.slc.cpg/sg55_2_cif.got.tgz:2545.got - 2010.04.16 15:19:21.
