data_PCOD8226094
_publ_section_title
;
Structure prediction by ZEFSAII (Michael W. Deem and Ramdas Pophale) SiO2 
 PCOD8226094
Probable space group: P B A M
;
_chemical_formula_sum "Si O2"
_cell_formula_units_Z 56
_cell_length_a 9.293354
_cell_length_b 21.715330
_cell_length_c 13.616854
_cell_angle_alpha 90.000000
_cell_angle_beta 90.000000
_cell_angle_gamma 90.000000
_cell_volume 2747.993461
_symmetry_space_group_name_H-M "P B A M"
_symmetry_group_IT_number 55
_symmetry_cell_setting 'orthorhombic'
loop_
_space_group_symop_operation_xyz
x,y,z
-x,-y,z
1/2+x,1/2-y,-z
1/2-x,1/2+y,-z
-x,-y,-z
x,y,-z
1/2-x,1/2+y,z
1/2+x,1/2-y,z
loop_
_atom_site_type_symbol
_atom_site_label
_atom_site_fract_x
_atom_site_fract_y
_atom_site_fract_z
Si Si1 0.318253 0.682842 0.386241
Si Si2 0.418021 0.563353 0.889389
Si Si3 0.575950 0.161038 0.109973
Si Si4 0.554462 0.760771 0.720249
Si Si5 0.651625 0.634258 0.218727
Si Si6 0.111082 0.546054 0.109812
Si Si7 0.474313 0.428948 0.387705
O O1 0.284576 0.693675 0.500000
O O2 0.164827 0.690278 0.329623
O O3 0.436264 0.734091 0.355230
O O4 0.384329 0.614098 0.368866
O O5 0.500000 0.500000 0.885472
O O6 0.501777 0.616578 0.832915
O O7 0.265030 0.550365 0.836262
O O8 0.394367 0.587166 0.000000
O O9 0.532360 0.213025 0.186918
O O10 0.713306 0.121448 0.148245
O O11 0.444748 0.114849 0.103526
O O12 0.607317 0.188014 0.000000
O O13 0.654803 0.706513 0.760226
O O14 0.657848 0.595813 0.320786
O O15 0.000000 0.500000 0.165610
O O16 0.136608 0.518485 0.000000
O O17 0.500000 0.500000 0.358135
O O18 0.423744 0.423975 0.500000
#
# Coordination Sequence:
#
# PCOD8226094 Si02
#       7
#     8   8   8   8   8   8   8
#     4  10  21  41  68  93 124 161 205 265 322 389
#     4  10  20  34  57  86 115 155 210 259 303 367
#     4  11  24  40  56  82 126 167 206 263 316 365
#     4  11  23  41  59  93 122 162 215 254 314 389
#     4  11  22  38  60  87 121 165 214 258 308 389
#     4   9  19  35  55  80 114 158 203 252 309 362
#     4   9  20  39  66  99 128 157 203 269 336 387
#
# _framework density 20.378505000000001
#
# number of rings (size 3 to 8) (size 9 to 14) (size 15 to 20)
#    0.000    1.857    1.429    2.143    4.000    4.000 
#    0.000    0.000    0.000    0.000    0.000    3.000 
#    0.000    0.000    0.000    0.000    0.000    0.000 
#
# Total GULP energy -694070.111780 kJ/mol
# GULP energy per Si atom -12394.109139 kJ/mol
# Density = 2.033212 g / cm^3
# Si number density = 20.378505 Si / 1000 Ang^3
#
#
#
# Elastic Constant Matrix: (Units=GPa)
#
#
# Indices 1 2 3 4 5 6 
#
# 1 131.2148 37.4494 49.4807 0.0000 0.0000 0.0000
# 2 37.4494 101.8039 41.1186 0.0000 0.0000 0.0000
# 3 49.4807 41.1186 118.1077 0.0000 0.0000 0.0000
# 4 0.0000 0.0000 0.0000 25.8785 0.0000 0.0000
# 5 0.0000 0.0000 0.0000 0.0000 32.4142 0.0000
# 6 0.0000 0.0000 0.0000 0.0000 0.0000 28.8507
#
#
#
# Elastic Compliance Matrix: (Units=1/GPa)
#
#
# Indices 1 2 3 4 5 6 
#
# 1 0.009451 -0.002185 -0.003199 0.000000 0.000000 0.000000
# 2 -0.002185 0.011935 -0.003240 0.000000 0.000000 0.000000
# 3 -0.003199 -0.003240 0.010935 0.000000 0.000000 0.000000
# 4 0.000000 0.000000 0.000000 0.038642 0.000000 0.000000
# 5 0.000000 0.000000 0.000000 0.000000 0.030851 0.000000
# 6 0.000000 0.000000 0.000000 0.000000 0.000000 0.034661
#
#
# Mechanical properties :
#
#
# Convention : Reuss Voigt Hill
#
# Bulk Modulus (GPa) = 66.33857 67.46932 66.90395
# Shear Modulus (GPa) = 31.49681 32.30052 31.89866
#
# Velocity S-wave (km/s) = 3.93566 3.98556 3.96069
# Velocity P-wave (km/s) = 7.29907 7.37289 7.33608
#
# Compressibility (1/GPa) = 0.01507419
#
# Stress axis : x y z
#
# Youngs Moduli (GPa) = 105.81054 83.78714 91.44994
#
# Poissons Ratio (x) = 0.18304 0.29253
# Poissons Ratio (y) = 0.23115 0.29629
# Poissons Ratio (z) = 0.33847 0.27146
#
# Static dielectric constant tensor:
#      x y z
#    x 3.840930 0.000000 0.000000 
#    y 0.000000 3.590960 0.000000 
#    z 0.000000 0.000000 3.922470 
# 
# 
# High freq. dielectric constant tensor:
#      x y z
#    x 1.794140 0.000000 0.000000 
#    y 0.000000 1.790740 0.000000 
#    z 0.000000 0.000000 1.793390 
# 
# From -- ./inp_files/17654.got.cif
#   From: 2010.03.12/outbox.cif.g09.slc.cpg/sg55_9_cif.got.tgz:17654.got - 2010.04.16 15:19:21.
