data_PCOD8226358
_publ_section_title
;
Structure prediction by ZEFSAII (Michael W. Deem and Ramdas Pophale) SiO2 
 PCOD8226358
Probable space group: P B A M
;
_chemical_formula_sum "Si O2"
_cell_formula_units_Z 64
_cell_length_a 18.590040
_cell_length_b 19.617938
_cell_length_c 9.176116
_cell_angle_alpha 90.000000
_cell_angle_beta 90.000000
_cell_angle_gamma 90.000000
_cell_volume 3346.513467
_symmetry_space_group_name_H-M "P B A M"
_symmetry_group_IT_number 55
_symmetry_cell_setting 'orthorhombic'
loop_
_space_group_symop_operation_xyz
x,y,z
-x,-y,z
1/2+x,1/2-y,-z
1/2-x,1/2+y,-z
-x,-y,-z
x,y,-z
1/2-x,1/2+y,z
1/2+x,1/2-y,z
loop_
_atom_site_type_symbol
_atom_site_label
_atom_site_fract_x
_atom_site_fract_y
_atom_site_fract_z
Si Si1 0.804410 0.415339 0.827882
Si Si2 0.052747 0.560125 0.330977
Si Si3 0.192151 0.741447 0.828459
Si Si4 0.295156 0.842217 0.330180
Si Si5 0.539466 0.699345 0.172549
Si Si6 0.446278 0.438893 0.668576
Si Si7 0.285238 0.478304 0.329608
Si Si8 0.457307 0.810781 0.331743
O O1 0.876654 0.448437 0.765198
O O2 0.800056 0.336742 0.780331
O O3 0.736669 0.454714 0.760020
O O4 0.803982 0.423919 0.000000
O O5 0.074385 0.553406 0.500000
O O6 0.000000 0.500000 0.284292
O O7 0.015372 0.631557 0.296095
O O8 0.256221 0.781978 0.754283
O O9 0.115641 0.770257 0.773783
O O10 0.199304 0.750315 0.000000
O O11 0.280094 0.831044 0.500000
O O12 0.264906 0.915350 0.280710
O O13 0.379124 0.839796 0.291276
O O14 0.529094 0.623925 0.233441
O O15 0.474853 0.745318 0.234248
O O16 0.533506 0.698072 0.000000
O O17 0.500000 0.500000 0.702644
O O18 0.449119 0.416778 0.500000
O O19 0.366616 0.461471 0.713429
O O20 0.277068 0.494232 0.500000
O O21 0.460323 0.788957 0.500000
#
# Coordination Sequence:
#
# PCOD8226358 Si02
#       8
#     8   8   8   8   8   8   8   8
#     4  11  23  38  57  85 121 157 197 242 289 352
#     4  10  20  36  58  83 116 155 195 242 293 347
#     4  10  22  39  58  84 119 157 198 242 290 352
#     4  10  21  38  62  89 115 152 201 249 297 353
#     4  11  22  39  62  86 121 161 200 245 298 362
#     4  10  22  41  66  93 121 154 201 258 306 354
#     4  10  21  39  61  87 121 158 199 247 301 357
#     4  10  21  36  58  88 119 151 197 250 299 353
#
# _framework density 19.124382000000001
#
# number of rings (size 3 to 8) (size 9 to 14) (size 15 to 20)
#    0.000    1.750    2.500    1.500    0.000    6.500 
#    0.000    5.000    0.000    0.000    0.000    0.000 
#    0.000    0.000    0.000    0.000    0.000    0.000 
#
# Total GULP energy -793991.353036 kJ/mol
# GULP energy per Si atom -12406.114891 kJ/mol
# Density = 1.908085 g / cm^3
# Si number density = 19.124382 Si / 1000 Ang^3
#
#
#
# Elastic Constant Matrix: (Units=GPa)
#
#
# Indices 1 2 3 4 5 6 
#
# 1 87.1966 36.8661 28.5623 0.0000 0.0000 0.0000
# 2 36.8661 114.5336 45.1381 0.0000 0.0000 0.0000
# 3 28.5623 45.1381 52.4656 0.0000 0.0000 0.0000
# 4 0.0000 0.0000 0.0000 30.3027 0.0000 0.0000
# 5 0.0000 0.0000 0.0000 0.0000 26.1453 0.0000
# 6 0.0000 0.0000 0.0000 0.0000 0.0000 36.1509
#
#
#
# Elastic Compliance Matrix: (Units=1/GPa)
#
#
# Indices 1 2 3 4 5 6 
#
# 1 0.014357 -0.002331 -0.005810 0.000000 0.000000 0.000000
# 2 -0.002331 0.013589 -0.010422 0.000000 0.000000 0.000000
# 3 -0.005810 -0.010422 0.031189 0.000000 0.000000 0.000000
# 4 0.000000 0.000000 0.000000 0.033000 0.000000 0.000000
# 5 0.000000 0.000000 0.000000 0.000000 0.038248 0.000000
# 6 0.000000 0.000000 0.000000 0.000000 0.000000 0.027662
#
#
# Mechanical properties :
#
#
# Convention : Reuss Voigt Hill
#
# Bulk Modulus (GPa) = 45.43675 52.81431 49.12553
# Shear Modulus (GPa) = 24.69037 28.09508 26.39272
#
# Velocity S-wave (km/s) = 3.59700 3.83700 3.71894
# Velocity P-wave (km/s) = 6.40792 6.87796 6.64709
#
# Compressibility (1/GPa) = 0.02200862
#
# Stress axis : x y z
#
# Youngs Moduli (GPa) = 69.65112 73.59048 32.06229
#
# Poissons Ratio (x) = 0.17158 0.18629
# Poissons Ratio (y) = 0.16239 0.33414
# Poissons Ratio (z) = 0.40469 0.76693
#
# Static dielectric constant tensor:
#      x y z
#    x 3.519240 0.000000 0.000000 
#    y 0.000000 3.558540 0.000000 
#    z 0.000000 0.000000 3.369890 
# 
# 
# High freq. dielectric constant tensor:
#      x y z
#    x 1.748510 0.000000 0.000000 
#    y 0.000000 1.753270 0.000000 
#    z 0.000000 0.000000 1.735740 
# 
# From -- ./inp_files/8064.got.cif
#   From: 2010.03.12/outbox.cif.g09.slc.cpg/sg55_5_cif.got.tgz:8064.got - 2010.04.16 15:19:21.
