data_PCOD8226872
_publ_section_title
;
Structure prediction by ZEFSAII (Michael W. Deem and Ramdas Pophale) SiO2 
 PCOD8226872
Probable space group: P B A M
;
_chemical_formula_sum "Si O2"
_cell_formula_units_Z 64
_cell_length_a 19.740263
_cell_length_b 17.688577
_cell_length_c 9.322748
_cell_angle_alpha 90.000000
_cell_angle_beta 90.000000
_cell_angle_gamma 90.000000
_cell_volume 3255.290689
_symmetry_space_group_name_H-M "P B A M"
_symmetry_group_IT_number 55
_symmetry_cell_setting 'orthorhombic'
loop_
_space_group_symop_operation_xyz
x,y,z
-x,-y,z
1/2+x,1/2-y,-z
1/2-x,1/2+y,-z
-x,-y,-z
x,y,-z
1/2-x,1/2+y,z
1/2+x,1/2-y,z
loop_
_atom_site_type_symbol
_atom_site_label
_atom_site_fract_x
_atom_site_fract_y
_atom_site_fract_z
Si Si1 0.789972 0.067004 0.346736
Si Si2 0.731457 0.220696 0.669861
Si Si3 0.499402 0.619377 0.830345
Si Si4 0.525705 0.784390 0.831504
Si Si5 0.104371 0.002551 0.168095
Si Si6 0.651936 0.985752 0.656383
Si Si7 0.907343 0.638901 0.330368
Si Si8 0.176149 0.663361 0.168998
O O1 0.828940 0.065546 0.500000
O O2 0.784197 0.153324 0.291398
O O3 0.822765 0.008831 0.235878
O O4 0.715714 0.037872 0.372839
O O5 0.731866 0.238363 0.500000
O O6 0.655510 0.194081 0.718955
O O7 0.760385 0.293769 0.755278
O O8 0.506748 0.702382 0.766927
O O9 0.557644 0.564701 0.769635
O O10 0.426511 0.583879 0.787734
O O11 0.507499 0.621277 0.000000
O O12 0.477365 0.841375 0.748152
O O13 0.604834 0.796177 0.799055
O O14 0.510547 0.791538 0.000000
O O15 0.111915 0.996687 0.000000
O O16 0.630148 0.951104 0.500000
O O17 0.667313 0.921322 0.771635
O O18 0.599565 0.049809 0.712281
O O19 0.916387 0.647447 0.500000
O O20 0.191934 0.659496 0.000000
#
# Coordination Sequence:
#
# PCOD8226872 Si02
#       8
#     8   8   8   8   8   8   8   8
#     4   9  18  33  53  76 102 133 169 211 261 312
#     4   9  19  37  58  79 107 142 178 219 267 318
#     4   8  16  31  48  69 101 140 174 204 254 319
#     4  10  21  36  53  77 111 144 177 225 277 321
#     4   9  16  29  51  74 100 137 175 210 251 308
#     4   9  20  39  57  74 103 140 176 219 270 320
#     4   9  20  39  60  80 103 140 188 227 267 323
#     4  11  23  36  55  85 113 139 178 223 267 320
#
# _framework density 19.660302999999999
#
# number of rings (size 3 to 8) (size 9 to 14) (size 15 to 20)
#    0.000    2.750    0.000    3.375    0.000    5.500 
#    0.000   10.000    0.000    0.000    0.000    0.000 
#    0.000    0.000    0.000    0.000    0.000    0.000 
#
# Total GULP energy -792908.971341 kJ/mol
# GULP energy per Si atom -12389.202677 kJ/mol
# Density = 1.961556 g / cm^3
# Si number density = 19.660303 Si / 1000 Ang^3
#
#
#
# Elastic Constant Matrix: (Units=GPa)
#
#
# Indices 1 2 3 4 5 6 
#
# 1 33.8752 -1.8039 16.4105 0.0000 0.0000 0.0000
# 2 -1.8039 88.3429 26.5434 0.0000 0.0000 0.0000
# 3 16.4105 26.5434 52.8403 0.0000 0.0000 0.0000
# 4 0.0000 0.0000 0.0000 12.2917 0.0000 0.0000
# 5 0.0000 0.0000 0.0000 0.0000 -139.1379 0.0000
# 6 0.0000 0.0000 0.0000 0.0000 0.0000 27.7144
#
#
#
# Elastic Compliance Matrix: (Units=1/GPa)
#
#
# Indices 1 2 3 4 5 6 
#
# 1 0.036453 0.004883 -0.013774 0.000000 0.000000 0.000000
# 2 0.004883 0.013986 -0.008542 0.000000 0.000000 0.000000
# 3 -0.013774 -0.008542 0.027494 0.000000 0.000000 0.000000
# 4 0.000000 0.000000 0.000000 0.081356 0.000000 0.000000
# 5 0.000000 0.000000 0.000000 0.000000 -0.007187 0.000000
# 6 0.000000 0.000000 0.000000 0.000000 0.000000 0.036082
#
#
# Mechanical properties :
#
#
# Convention : Reuss Voigt Hill
#
# Bulk Modulus (GPa) = 23.22011 28.59535 25.90773
# Shear Modulus (GPa) = 21.06116 -10.89911 5.08102
#
# Velocity S-wave (km/s) = 3.27655 -2.35706 1.60935
# Velocity P-wave (km/s) = 5.11377 2.67743 4.08162
#
# Compressibility (1/GPa) = 0.04306611
#
# Stress axis : x y z
#
# Youngs Moduli (GPa) = 27.43284 71.50149 36.37220
#
# Poissons Ratio (x) = -0.34913 0.50098
# Poissons Ratio (y) = -0.13395 0.31069
# Poissons Ratio (z) = 0.37785 0.61076
#
# Static dielectric constant tensor:
#      x y z
#    x 3.550660 0.000000 0.000000 
#    y 0.000000 3.818620 0.000000 
#    z 0.000000 0.000000 3.343470 
# 
# 
# High freq. dielectric constant tensor:
#      x y z
#    x 1.759290 0.000000 0.000000 
#    y 0.000000 1.770300 0.000000 
#    z 0.000000 0.000000 1.745380 
# 
# From -- ./inp_files/7951.got.cif
#   From: 2010.03.12/outbox.cif.g09.slc.cpg/sg55_4_cif.got.tgz:7951.got - 2010.04.16 15:19:21.
