data_PCOD8226066
_publ_section_title
;
Structure prediction by ZEFSAII (Michael W. Deem and Ramdas Pophale) SiO2 
 PCOD8226066
Probable space group: P B A M
;
_chemical_formula_sum "Si O2"
_cell_formula_units_Z 64
_cell_length_a 21.811412
_cell_length_b 16.623130
_cell_length_c 8.894331
_cell_angle_alpha 90.000000
_cell_angle_beta 90.000000
_cell_angle_gamma 90.000000
_cell_volume 3224.852609
_symmetry_space_group_name_H-M "P B A M"
_symmetry_group_IT_number 55
_symmetry_cell_setting 'orthorhombic'
loop_
_space_group_symop_operation_xyz
x,y,z
-x,-y,z
1/2+x,1/2-y,-z
1/2-x,1/2+y,-z
-x,-y,-z
x,y,-z
1/2-x,1/2+y,z
1/2+x,1/2-y,z
loop_
_atom_site_type_symbol
_atom_site_label
_atom_site_fract_x
_atom_site_fract_y
_atom_site_fract_z
Si Si1 0.621869 0.680906 0.173029
Si Si2 0.968987 0.300340 0.323856
Si Si3 0.121518 0.561699 0.326154
Si Si4 0.405442 0.776324 0.174252
Si Si5 0.838388 0.879477 0.169067
Si Si6 0.706374 0.824701 0.166438
Si Si7 0.689407 0.542285 0.676658
Si Si8 0.180263 0.419549 0.174692
O O1 0.562711 0.726197 0.238374
O O2 0.682548 0.734854 0.194190
O O3 0.635552 0.599390 0.261962
O O4 0.608667 0.660152 0.000000
O O5 0.961624 0.284857 0.500000
O O6 0.937882 0.385719 0.279454
O O7 0.039448 0.306100 0.278284
O O8 0.120167 0.537708 0.500000
O O9 0.181482 0.615360 0.293271
O O10 0.126898 0.480673 0.229497
O O11 0.392512 0.682473 0.212668
O O12 0.345548 0.830674 0.208867
O O13 0.423967 0.786192 0.000000
O O14 0.778972 0.822681 0.175861
O O15 0.832746 0.952535 0.283865
O O16 0.847501 0.913665 0.000000
O O17 0.684457 0.854078 0.000000
O O18 0.694194 0.551439 0.500000
O O19 0.755682 0.563712 0.743322
O O20 0.193185 0.433384 0.000000
#
# Coordination Sequence:
#
# PCOD8226066 Si02
#       8
#     8   8   8   8   8   8   8   8
#     4  10  20  37  62  87 113 152 198 242 286 342
#     4  10  22  40  60  85 120 157 197 244 294 346
#     4  10  20  34  55  86 120 155 191 233 289 348
#     4  10  23  41  61  85 113 154 204 246 288 344
#     4  10  20  37  59  83 114 150 191 241 293 347
#     4   9  17  32  57  84 111 147 188 232 287 344
#     4  12  24  37  57  90 124 153 188 237 298 357
#     4  11  22  38  60  88 121 155 196 243 292 348
#
# _framework density 19.845870000000001
#
# number of rings (size 3 to 8) (size 9 to 14) (size 15 to 20)
#    0.000    1.750    1.250    3.375    0.000    6.000 
#    0.000    4.375    0.000    3.750    0.000    0.000 
#    0.000    0.000    0.000    0.000    0.000    0.000 
#
# Total GULP energy -793613.715432 kJ/mol
# GULP energy per Si atom -12400.214304 kJ/mol
# Density = 1.980070 g / cm^3
# Si number density = 19.845870 Si / 1000 Ang^3
#
#
#
# Elastic Constant Matrix: (Units=GPa)
#
#
# Indices 1 2 3 4 5 6 
#
# 1 52.3116 26.4235 32.6405 0.0000 0.0000 0.0000
# 2 26.4235 99.7511 48.5219 0.0000 0.0000 0.0000
# 3 32.6405 48.5219 111.4104 0.0000 0.0000 0.0000
# 4 0.0000 0.0000 0.0000 25.3700 0.0000 0.0000
# 5 0.0000 0.0000 0.0000 0.0000 28.8939 0.0000
# 6 0.0000 0.0000 0.0000 0.0000 0.0000 21.8406
#
#
#
# Elastic Compliance Matrix: (Units=1/GPa)
#
#
# Indices 1 2 3 4 5 6 
#
# 1 0.024478 -0.003801 -0.005516 0.000000 0.000000 0.000000
# 2 -0.003801 0.013310 -0.004683 0.000000 0.000000 0.000000
# 3 -0.005516 -0.004683 0.012632 0.000000 0.000000 0.000000
# 4 0.000000 0.000000 0.000000 0.039417 0.000000 0.000000
# 5 0.000000 0.000000 0.000000 0.000000 0.034609 0.000000
# 6 0.000000 0.000000 0.000000 0.000000 0.000000 0.045786
#
#
# Mechanical properties :
#
#
# Convention : Reuss Voigt Hill
#
# Bulk Modulus (GPa) = 44.60494 53.18276 48.89385
# Shear Modulus (GPa) = 24.30665 25.61336 24.96001
#
# Velocity S-wave (km/s) = 3.50347 3.59641 3.55024
# Velocity P-wave (km/s) = 6.23620 6.64090 6.44173
#
# Compressibility (1/GPa) = 0.02241904
#
# Stress axis : x y z
#
# Youngs Moduli (GPa) = 40.85308 75.13249 79.16697
#
# Poissons Ratio (x) = 0.28557 0.43669
# Poissons Ratio (y) = 0.15528 0.37075
# Poissons Ratio (z) = 0.22535 0.35186
#
# Static dielectric constant tensor:
#      x y z
#    x 3.377220 0.000000 0.000000 
#    y 0.000000 3.666080 0.000000 
#    z 0.000000 0.000000 3.613040 
# 
# 
# High freq. dielectric constant tensor:
#      x y z
#    x 1.755910 0.000000 0.000000 
#    y 0.000000 1.776600 0.000000 
#    z 0.000000 0.000000 1.774400 
# 
# From -- ./inp_files/9727.got.cif
#   From: 2010.03.12/outbox.cif.g09.slc.cpg/sg55_5_cif.got.tgz:9727.got - 2010.04.16 15:19:21.
