data_PCOD8226091
_publ_section_title
;
Structure prediction by ZEFSAII (Michael W. Deem and Ramdas Pophale) SiO2 
 PCOD8226091
Probable space group: P B A M
;
_chemical_formula_sum "Si O2"
_cell_formula_units_Z 64
_cell_length_a 11.263568
_cell_length_b 31.715454
_cell_length_c 9.466846
_cell_angle_alpha 90.000000
_cell_angle_beta 90.000000
_cell_angle_gamma 90.000000
_cell_volume 3381.833565
_symmetry_space_group_name_H-M "P B A M"
_symmetry_group_IT_number 55
_symmetry_cell_setting 'orthorhombic'
loop_
_space_group_symop_operation_xyz
x,y,z
-x,-y,z
1/2+x,1/2-y,-z
1/2-x,1/2+y,-z
-x,-y,-z
x,y,-z
1/2-x,1/2+y,z
1/2+x,1/2-y,z
loop_
_atom_site_type_symbol
_atom_site_label
_atom_site_fract_x
_atom_site_fract_y
_atom_site_fract_z
Si Si1 0.619575 0.023880 0.167589
Si Si2 0.070924 0.682795 0.165811
Si Si3 0.062265 0.096054 0.341856
Si Si4 0.020444 0.225324 0.837807
Si Si5 0.381625 0.359003 0.162470
Si Si6 0.623092 0.118120 0.833844
Si Si7 0.130351 0.020083 0.165791
Si Si8 0.703086 0.317936 0.657175
O O1 0.611771 0.071224 0.230981
O O2 0.500000 0.000000 0.225154
O O3 0.750522 0.005832 0.211636
O O4 0.614345 0.023955 0.000000
O O5 0.184788 0.669899 0.251867
O O6 0.037245 0.730529 0.203081
O O7 0.974848 0.649958 0.224888
O O8 0.094616 0.677386 0.000000
O O9 0.034145 0.079313 0.500000
O O10 0.141097 0.062605 0.256491
O O11 0.128453 0.139950 0.351051
O O12 0.942068 0.104750 0.255911
O O13 0.133024 0.219161 0.737087
O O14 0.925873 0.188361 0.809993
O O15 0.064538 0.225286 0.000000
O O16 0.245592 0.359696 0.207011
O O17 0.401595 0.372366 0.000000
O O18 0.609826 0.114036 0.000000
O O19 0.136027 0.030488 0.000000
O O20 0.000000 0.000000 0.202328
O O21 0.736043 0.302021 0.500000
#
# Coordination Sequence:
#
# PCOD8226091 Si02
#       8
#     8   8   8   8   8   8   8   8
#     4   9  18  31  49  78 112 141 177 226 277 334
#     4  10  21  34  57  85 110 140 182 232 278 328
#     4  10  21  36  55  80 111 146 184 226 272 323
#     4   9  19  34  56  83 107 137 179 231 280 322
#     4   9  17  33  56  80 109 142 177 223 276 329
#     4   9  18  32  52  79 110 142 176 221 278 330
#     4  10  20  34  57  85 109 140 185 235 284 337
#     4  10  22  38  54  76 112 151 186 222 268 332
#
# _framework density 18.924644000000001
#
# number of rings (size 3 to 8) (size 9 to 14) (size 15 to 20)
#    0.000    2.500    0.000    1.500    3.500    4.250 
#    0.000    0.625    0.000    1.125    0.000    0.000 
#    0.000    0.000    0.000    0.000    0.000    0.000 
#
# Total GULP energy -793244.609835 kJ/mol
# GULP energy per Si atom -12394.447029 kJ/mol
# Density = 1.888157 g / cm^3
# Si number density = 18.924644 Si / 1000 Ang^3
#
#
#
# Elastic Constant Matrix: (Units=GPa)
#
#
# Indices 1 2 3 4 5 6 
#
# 1 122.4502 20.5819 28.8276 0.0000 0.0000 0.0000
# 2 20.5819 68.0566 16.8043 0.0000 0.0000 0.0000
# 3 28.8276 16.8043 56.1801 0.0000 0.0000 0.0000
# 4 0.0000 0.0000 0.0000 16.2702 0.0000 0.0000
# 5 0.0000 0.0000 0.0000 0.0000 -3.6848 0.0000
# 6 0.0000 0.0000 0.0000 0.0000 0.0000 9.5695
#
#
#
# Elastic Compliance Matrix: (Units=1/GPa)
#
#
# Indices 1 2 3 4 5 6 
#
# 1 0.009489 -0.001800 -0.004330 0.000000 0.000000 0.000000
# 2 -0.001800 0.016207 -0.003924 0.000000 0.000000 0.000000
# 3 -0.004330 -0.003924 0.021196 0.000000 0.000000 0.000000
# 4 0.000000 0.000000 0.000000 0.061462 0.000000 0.000000
# 5 0.000000 0.000000 0.000000 0.000000 -0.271383 0.000000
# 6 0.000000 0.000000 0.000000 0.000000 0.000000 0.104499
#
#
# Mechanical properties :
#
#
# Convention : Reuss Voigt Hill
#
# Bulk Modulus (GPa) = 37.33858 42.12383 39.73120
# Shear Modulus (GPa) = -169.52713 16.46251 -76.53231
#
# Velocity S-wave (km/s) = -9.47494 2.95260 -6.36619
# Velocity P-wave (km/s) = 9.99632 5.82502 5.74437
#
# Compressibility (1/GPa) = 0.02678195
#
# Stress axis : x y z
#
# Youngs Moduli (GPa) = 105.38885 61.70174 47.17944
#
# Poissons Ratio (x) = 0.11108 0.20431
# Poissons Ratio (y) = 0.18974 0.18513
# Poissons Ratio (z) = 0.45638 0.24211
#
# Static dielectric constant tensor:
#      x y z
#    x 3.621170 0.000000 0.000000 
#    y 0.000000 3.580340 0.000000 
#    z 0.000000 0.000000 3.402440 
# 
# 
# High freq. dielectric constant tensor:
#      x y z
#    x 1.740520 0.000000 0.000000 
#    y 0.000000 1.740830 0.000000 
#    z 0.000000 0.000000 1.702420 
# 
# From -- ./inp_files/4704.got.cif
#   From: 2010.03.12/outbox.cif.g09.slc.cpg/sg55_3_cif.got.tgz:4704.got - 2010.04.16 15:19:21.
