data_PCOD8226408
_publ_section_title
;
Structure prediction by ZEFSAII (Michael W. Deem and Ramdas Pophale) SiO2 
 PCOD8226408
Probable space group: P B A M
;
_chemical_formula_sum "Si O2"
_cell_formula_units_Z 64
_cell_length_a 18.359971
_cell_length_b 19.496407
_cell_length_c 9.238108
_cell_angle_alpha 90.000000
_cell_angle_beta 90.000000
_cell_angle_gamma 90.000000
_cell_volume 3306.812788
_symmetry_space_group_name_H-M "P B A M"
_symmetry_group_IT_number 55
_symmetry_cell_setting 'orthorhombic'
loop_
_space_group_symop_operation_xyz
x,y,z
-x,-y,z
1/2+x,1/2-y,-z
1/2-x,1/2+y,-z
-x,-y,-z
x,y,-z
1/2-x,1/2+y,z
1/2+x,1/2-y,z
loop_
_atom_site_type_symbol
_atom_site_label
_atom_site_fract_x
_atom_site_fract_y
_atom_site_fract_z
Si Si1 0.249258 0.626856 0.170867
Si Si2 0.391269 0.175210 0.332176
Si Si3 0.942592 0.054766 0.829059
Si Si4 0.828570 0.626574 0.669963
Si Si5 0.016647 0.424252 0.672169
Si Si6 0.478379 0.309996 0.336237
Si Si7 0.356598 0.718975 0.333820
Si Si8 0.278976 0.472042 0.830228
O O1 0.181073 0.664902 0.240575
O O2 0.322662 0.661017 0.231678
O O3 0.247989 0.546615 0.212394
O O4 0.248194 0.637265 0.000000
O O5 0.374716 0.159012 0.500000
O O6 0.453357 0.125108 0.269307
O O7 0.417100 0.252823 0.311008
O O8 0.962364 0.129107 0.771705
O O9 0.862547 0.031781 0.779237
O O10 0.948565 0.058156 0.000000
O O11 0.000000 0.000000 0.765628
O O12 0.822776 0.611785 0.500000
O O13 0.905301 0.599227 0.732720
O O14 0.821822 0.707234 0.703446
O O15 0.763826 0.587316 0.748290
O O16 0.018030 0.420367 0.500000
O O17 0.000000 0.500000 0.730245
O O18 0.474640 0.337775 0.500000
O O19 0.557151 0.276923 0.305398
O O20 0.339978 0.699804 0.500000
O O21 0.271590 0.458485 0.000000
#
# Coordination Sequence:
#
# PCOD8226408 Si02
#       8
#     8   8   8   8   8   8   8   8
#     4  11  24  40  59  84 117 157 199 239 289 352
#     4  10  20  37  59  87 120 152 189 240 292 339
#     4  10  22  41  63  84 114 157 201 245 297 353
#     4  10  20  36  59  87 115 150 193 236 286 347
#     4   9  16  30  56  85 112 146 186 224 273 338
#     4  10  21  38  61  89 120 150 190 246 297 346
#     4  10  21  39  61  87 119 153 193 243 294 349
#     4  10  23  41  58  83 119 155 196 245 293 348
#
# _framework density 19.353982999999999
#
# number of rings (size 3 to 8) (size 9 to 14) (size 15 to 20)
#    0.000    2.000    1.250    1.875    1.750    5.250 
#    0.000    0.625    0.000    2.250    0.000    0.000 
#    0.000    0.000    0.000    0.000    0.000    0.000 
#
# Total GULP energy -793840.339550 kJ/mol
# GULP energy per Si atom -12403.755305 kJ/mol
# Density = 1.930993 g / cm^3
# Si number density = 19.353983 Si / 1000 Ang^3
#
#
#
# Elastic Constant Matrix: (Units=GPa)
#
#
# Indices 1 2 3 4 5 6 
#
# 1 107.3567 37.5244 38.5336 0.0000 0.0000 0.0000
# 2 37.5244 100.0574 36.9244 0.0000 0.0000 0.0000
# 3 38.5336 36.9244 44.6100 0.0000 0.0000 0.0000
# 4 0.0000 0.0000 0.0000 31.3051 0.0000 0.0000
# 5 0.0000 0.0000 0.0000 0.0000 25.3822 0.0000
# 6 0.0000 0.0000 0.0000 0.0000 0.0000 39.5976
#
#
#
# Elastic Compliance Matrix: (Units=1/GPa)
#
#
# Indices 1 2 3 4 5 6 
#
# 1 0.013584 -0.001100 -0.010823 0.000000 0.000000 0.000000
# 2 -0.001100 0.014479 -0.011034 0.000000 0.000000 0.000000
# 3 -0.010823 -0.011034 0.040898 0.000000 0.000000 0.000000
# 4 0.000000 0.000000 0.000000 0.031944 0.000000 0.000000
# 5 0.000000 0.000000 0.000000 0.000000 0.039398 0.000000
# 6 0.000000 0.000000 0.000000 0.000000 0.000000 0.025254
#
#
# Mechanical properties :
#
#
# Convention : Reuss Voigt Hill
#
# Bulk Modulus (GPa) = 43.39027 53.10987 48.25007
# Shear Modulus (GPa) = 22.81515 28.52643 25.67079
#
# Velocity S-wave (km/s) = 3.43714 3.84335 3.64590
# Velocity P-wave (km/s) = 6.18222 6.86993 6.53513
#
# Compressibility (1/GPa) = 0.02304664
#
# Stress axis : x y z
#
# Youngs Moduli (GPa) = 73.61579 69.06672 24.45106
#
# Poissons Ratio (x) = 0.07600 0.26463
# Poissons Ratio (y) = 0.08101 0.26979
# Poissons Ratio (z) = 0.79674 0.76207
#
# Static dielectric constant tensor:
#      x y z
#    x 3.676890 0.000000 0.000000 
#    y 0.000000 3.587790 0.000000 
#    z 0.000000 0.000000 3.288920 
# 
# 
# High freq. dielectric constant tensor:
#      x y z
#    x 1.766780 0.000000 0.000000 
#    y 0.000000 1.765150 0.000000 
#    z 0.000000 0.000000 1.727370 
# 
# From -- ./inp_files/8042.got.cif
#   From: 2010.03.12/outbox.cif.g09.slc.cpg/sg55_5_cif.got.tgz:8042.got - 2010.04.16 15:19:21.
