data_PCOD8226463
_publ_section_title
;
Structure prediction by ZEFSAII (Michael W. Deem and Ramdas Pophale) SiO2 
 PCOD8226463
Probable space group: P B A M
;
_chemical_formula_sum "Si O2"
_cell_formula_units_Z 48
_cell_length_a 11.142265
_cell_length_b 14.662805
_cell_length_c 14.259356
_cell_angle_alpha 90.000000
_cell_angle_beta 90.000000
_cell_angle_gamma 90.000000
_cell_volume 2329.648794
_symmetry_space_group_name_H-M "P B A M"
_symmetry_group_IT_number 55
_symmetry_cell_setting 'orthorhombic'
loop_
_space_group_symop_operation_xyz
x,y,z
-x,-y,z
1/2+x,1/2-y,-z
1/2-x,1/2+y,-z
-x,-y,-z
x,y,-z
1/2-x,1/2+y,z
1/2+x,1/2-y,z
loop_
_atom_site_type_symbol
_atom_site_label
_atom_site_fract_x
_atom_site_fract_y
_atom_site_fract_z
Si Si1 0.251163 0.318287 0.766184
Si Si2 0.757813 0.887042 0.782861
Si Si3 0.629939 0.034128 0.890610
Si Si4 0.896007 0.428240 0.606589
Si Si5 0.925377 0.727215 0.396712
Si Si6 0.502505 0.601507 0.297786
O O1 0.285791 0.216804 0.802132
O O2 0.167759 0.372290 0.839567
O O3 0.178558 0.308802 0.670036
O O4 0.370481 0.376251 0.749157
O O5 0.709413 0.930719 0.683887
O O6 0.902014 0.888486 0.783125
O O7 0.718389 0.950437 0.868471
O O8 0.500000 0.000000 0.855602
O O9 0.631319 0.055708 0.000000
O O10 0.847223 0.446466 0.500000
O O11 0.000000 0.500000 0.632079
O O12 0.952275 0.328433 0.614327
O O13 0.870308 0.717179 0.500000
O O14 0.964973 0.830912 0.380753
O O15 0.500000 0.500000 0.339646
#
# Coordination Sequence:
#
# PCOD8226463 Si02
#       6
#     8   8   8   8   8   8
#     4  11  23  42  67  92 132 173 212 266 328 392
#     4  11  22  39  68  91 131 168 213 263 326 386
#     4  11  25  45  70  97 125 163 219 276 328 395
#     4  10  20  36  61  92 125 170 221 262 308 377
#     4  10  22  39  61  91 128 172 217 260 306 375
#     4  11  23  40  61  94 127 177 210 260 321 381
#
# _framework density 20.603964999999999
#
# number of rings (size 3 to 8) (size 9 to 14) (size 15 to 20)
#    0.000    1.333    3.333    2.500    2.333    4.333 
#    0.000    1.667    0.000    0.000    0.000    0.000 
#    0.000    0.000    0.000    0.000    0.000    0.000 
#
# Total GULP energy -595201.961994 kJ/mol
# GULP energy per Si atom -12400.040875 kJ/mol
# Density = 2.055707 g / cm^3
# Si number density = 20.603965 Si / 1000 Ang^3
#
#
#
# Elastic Constant Matrix: (Units=GPa)
#
#
# Indices 1 2 3 4 5 6 
#
# 1 100.4819 28.7473 39.3338 0.0000 0.0000 0.0000
# 2 28.7473 128.9880 46.1326 0.0000 0.0000 0.0000
# 3 39.3338 46.1326 75.8158 0.0000 0.0000 0.0000
# 4 0.0000 0.0000 0.0000 29.0374 0.0000 0.0000
# 5 0.0000 0.0000 0.0000 0.0000 21.1340 0.0000
# 6 0.0000 0.0000 0.0000 0.0000 0.0000 32.4140
#
#
#
# Elastic Compliance Matrix: (Units=1/GPa)
#
#
# Indices 1 2 3 4 5 6 
#
# 1 0.012524 -0.000597 -0.006134 0.000000 0.000000 0.000000
# 2 -0.000597 0.009938 -0.005737 0.000000 0.000000 0.000000
# 3 -0.006134 -0.005737 0.019863 0.000000 0.000000 0.000000
# 4 0.000000 0.000000 0.000000 0.034438 0.000000 0.000000
# 5 0.000000 0.000000 0.000000 0.000000 0.047317 0.000000
# 6 0.000000 0.000000 0.000000 0.000000 0.000000 0.030851
#
#
# Mechanical properties :
#
#
# Convention : Reuss Voigt Hill
#
# Bulk Modulus (GPa) = 57.51092 59.30146 58.40619
# Shear Modulus (GPa) = 26.93035 29.25522 28.09279
#
# Velocity S-wave (km/s) = 3.61923 3.77222 3.69652
# Velocity P-wave (km/s) = 6.74079 6.91498 6.82844
#
# Compressibility (1/GPa) = 0.01738800
#
# Stress axis : x y z
#
# Youngs Moduli (GPa) = 79.84565 100.62771 50.34444
#
# Poissons Ratio (x) = 0.06011 0.30882
# Poissons Ratio (y) = 0.04770 0.28882
# Poissons Ratio (z) = 0.48979 0.57730
#
# Static dielectric constant tensor:
#      x y z
#    x 3.822200 0.000000 0.000000 
#    y 0.000000 4.091220 0.000000 
#    z 0.000000 0.000000 3.414120 
# 
# 
# High freq. dielectric constant tensor:
#      x y z
#    x 1.809530 0.000000 0.000000 
#    y 0.000000 1.828530 0.000000 
#    z 0.000000 0.000000 1.773600 
# 
# From -- ./inp_files/18267.got.cif
#   From: 2010.03.12/outbox.cif.g09.slc.cpg/sg55_10_cif.got.tgz:18267.got - 2010.04.16 15:19:21.
