data_PCOD8226486
_publ_section_title
;
Structure prediction by ZEFSAII (Michael W. Deem and Ramdas Pophale) SiO2 
 PCOD8226486
Probable space group: P B A M
;
_chemical_formula_sum "Si O2"
_cell_formula_units_Z 48
_cell_length_a 18.790527
_cell_length_b 14.952411
_cell_length_c 9.129785
_cell_angle_alpha 90.000000
_cell_angle_beta 90.000000
_cell_angle_gamma 90.000000
_cell_volume 2565.138015
_symmetry_space_group_name_H-M "P B A M"
_symmetry_group_IT_number 55
_symmetry_cell_setting 'orthorhombic'
loop_
_space_group_symop_operation_xyz
x,y,z
-x,-y,z
1/2+x,1/2-y,-z
1/2-x,1/2+y,-z
-x,-y,-z
x,y,-z
1/2-x,1/2+y,z
1/2+x,1/2-y,z
loop_
_atom_site_type_symbol
_atom_site_label
_atom_site_fract_x
_atom_site_fract_y
_atom_site_fract_z
Si Si1 0.430767 0.271378 0.666882
Si Si2 0.923805 0.536730 0.328897
Si Si3 0.670689 0.381759 0.827271
Si Si4 0.921353 0.023525 0.331039
Si Si5 0.571777 0.218698 0.827087
Si Si6 0.317684 0.122338 0.668356
O O1 0.457480 0.256734 0.500000
O O2 0.405957 0.372357 0.693170
O O3 0.493625 0.245291 0.774825
O O4 0.363218 0.210447 0.700692
O O5 0.927856 0.559248 0.500000
O O6 0.902836 0.626144 0.243502
O O7 0.863906 0.464405 0.292326
O O8 0.000000 0.500000 0.274358
O O9 0.636668 0.470797 0.761082
O O10 0.626619 0.295044 0.776061
O O11 0.750707 0.372782 0.773236
O O12 0.670263 0.391693 0.000000
O O13 0.914185 0.994948 0.500000
O O14 0.000000 0.000000 0.272685
O O15 0.570644 0.207423 0.000000
O O16 0.292595 0.118894 0.500000
#
# Coordination Sequence:
#
# PCOD8226486 Si02
#       6
#     8   8   8   8   8   8
#     4  10  20  38  63  90 117 151 199 250 295 346
#     4  10  20  38  64  90 116 150 197 249 297 346
#     4  11  25  41  57  84 126 163 194 239 297 356
#     4  10  20  36  64  93 116 150 200 251 295 346
#     4  11  23  37  58  89 122 159 198 237 292 357
#     4  10  22  40  62  87 118 154 196 245 299 352
#
# _framework density 18.712443
#
# number of rings (size 3 to 8) (size 9 to 14) (size 15 to 20)
#    0.000    1.667    3.333    1.000    0.000    6.000 
#    0.000    5.000    0.000    0.000    0.000    0.000 
#    0.000    0.000    0.000    0.000    0.000    0.000 
#
# Total GULP energy -595473.092365 kJ/mol
# GULP energy per Si atom -12405.689424 kJ/mol
# Density = 1.866985 g / cm^3
# Si number density = 18.712443 Si / 1000 Ang^3
#
#
#
# Elastic Constant Matrix: (Units=GPa)
#
#
# Indices 1 2 3 4 5 6 
#
# 1 91.9753 62.7556 29.7070 0.0000 0.0000 0.0000
# 2 62.7556 148.4391 51.6875 0.0000 0.0000 0.0000
# 3 29.7070 51.6875 50.8251 0.0000 0.0000 0.0000
# 4 0.0000 0.0000 0.0000 23.0778 0.0000 0.0000
# 5 0.0000 0.0000 0.0000 0.0000 26.5264 0.0000
# 6 0.0000 0.0000 0.0000 0.0000 0.0000 25.9704
#
#
#
# Elastic Compliance Matrix: (Units=1/GPa)
#
#
# Indices 1 2 3 4 5 6 
#
# 1 0.015732 -0.005340 -0.003764 0.000000 0.000000 0.000000
# 2 -0.005340 0.012243 -0.009329 0.000000 0.000000 0.000000
# 3 -0.003764 -0.009329 0.031363 0.000000 0.000000 0.000000
# 4 0.000000 0.000000 0.000000 0.043332 0.000000 0.000000
# 5 0.000000 0.000000 0.000000 0.000000 0.037698 0.000000
# 6 0.000000 0.000000 0.000000 0.000000 0.000000 0.038505
#
#
# Mechanical properties :
#
#
# Convention : Reuss Voigt Hill
#
# Bulk Modulus (GPa) = 44.50338 64.39328 54.44833
# Shear Modulus (GPa) = 22.39821 24.92088 23.65954
#
# Velocity S-wave (km/s) = 3.46348 3.65332 3.55966
# Velocity P-wave (km/s) = 6.31099 7.23065 6.78642
#
# Compressibility (1/GPa) = 0.02247020
#
# Stress axis : x y z
#
# Youngs Moduli (GPa) = 63.56456 81.67918 31.88432
#
# Poissons Ratio (x) = 0.43618 0.12003
# Poissons Ratio (y) = 0.33945 0.29746
# Poissons Ratio (z) = 0.23929 0.76202
#
# Static dielectric constant tensor:
#      x y z
#    x 3.332500 0.000000 0.000000 
#    y 0.000000 3.515000 0.000000 
#    z 0.000000 0.000000 3.358720 
# 
# 
# High freq. dielectric constant tensor:
#      x y z
#    x 1.723190 0.000000 0.000000 
#    y 0.000000 1.745200 0.000000 
#    z 0.000000 0.000000 1.720810 
# 
# From -- ./inp_files/5545.got.cif
#   From: 2010.03.12/outbox.cif.g09.slc.cpg/sg55_3_cif.got.tgz:5545.got - 2010.04.16 15:19:21.
