data_PCOD8226273
_publ_section_title
;
Structure prediction by ZEFSAII (Michael W. Deem and Ramdas Pophale) SiO2 
 PCOD8226273
Probable space group: P B A M
;
_chemical_formula_sum "Si O2"
_cell_formula_units_Z 64
_cell_length_a 20.186129
_cell_length_b 9.723922
_cell_length_c 17.625055
_cell_angle_alpha 90.000000
_cell_angle_beta 90.000000
_cell_angle_gamma 90.000000
_cell_volume 3459.592857
_symmetry_space_group_name_H-M "P B A M"
_symmetry_group_IT_number 55
_symmetry_cell_setting 'orthorhombic'
loop_
_space_group_symop_operation_xyz
x,y,z
-x,-y,z
1/2+x,1/2-y,-z
1/2-x,1/2+y,-z
-x,-y,-z
x,y,-z
1/2-x,1/2+y,z
1/2+x,1/2-y,z
loop_
_atom_site_type_symbol
_atom_site_label
_atom_site_fract_x
_atom_site_fract_y
_atom_site_fract_z
Si Si1 0.325364 0.124025 0.915514
Si Si2 0.494626 0.345370 0.695384
Si Si3 0.623311 0.682216 0.200938
Si Si4 0.438888 0.907390 0.083755
Si Si5 0.443418 0.112768 0.587971
Si Si6 0.717899 0.427110 0.787889
Si Si7 0.159401 0.560364 0.704275
Si Si8 0.889001 0.710484 0.774854
O O1 0.368816 0.251489 0.882545
O O2 0.263312 0.085177 0.862600
O O3 0.371564 0.992456 0.920734
O O4 0.300171 0.164277 0.000000
O O5 0.500000 0.500000 0.663518
O O6 0.452241 0.344799 0.773694
O O7 0.462079 0.253530 0.629788
O O8 0.567420 0.288416 0.712462
O O9 0.661670 0.539295 0.201382
O O10 0.653398 0.788516 0.260775
O O11 0.426254 0.784569 0.143608
O O12 0.500000 0.000000 0.112671
O O13 0.455348 0.846506 0.000000
O O14 0.433978 0.144044 0.500000
O O15 0.372119 0.058760 0.619962
O O16 0.500000 0.000000 0.602934
O O17 0.761651 0.468063 0.712729
O O18 0.683023 0.279918 0.776620
O O19 0.118513 0.449813 0.753581
#
# Coordination Sequence:
#
# PCOD8226273 Si02
#       8
#     8   8   8   8   8   8   8   8
#     4  10  21  35  54  78 110 153 198 243 296 347
#     4  11  22  38  61  90 117 154 191 241 301 351
#     4  10  20  36  55  83 114 145 194 245 284 342
#     4  10  21  36  56  82 112 149 201 254 299 344
#     4  10  21  38  64  95 118 144 192 243 287 344
#     4  11  22  36  53  85 120 153 190 240 290 353
#     4  10  20  35  60  84 112 151 190 233 283 339
#     4  12  21  36  61  86 117 154 199 249 292 338
#
# _framework density 18.499286999999999
#
# number of rings (size 3 to 8) (size 9 to 14) (size 15 to 20)
#    0.000    1.500    5.000    2.250    1.750    1.250 
#    0.000    0.000    0.000    8.250    0.000    0.000 
#    0.000    0.000    0.000    0.000    0.000    0.000 
#
# Total GULP energy -793255.072584 kJ/mol
# GULP energy per Si atom -12394.610509 kJ/mol
# Density = 1.845718 g / cm^3
# Si number density = 18.499287 Si / 1000 Ang^3
#
#
#
# Elastic Constant Matrix: (Units=GPa)
#
#
# Indices 1 2 3 4 5 6 
#
# 1 91.1481 15.9937 48.9483 0.0000 0.0000 0.0000
# 2 15.9937 78.1080 36.0272 0.0000 0.0000 0.0000
# 3 48.9483 36.0272 114.2487 0.0000 0.0000 0.0000
# 4 0.0000 0.0000 0.0000 15.6077 0.0000 0.0000
# 5 0.0000 0.0000 0.0000 0.0000 23.4132 0.0000
# 6 0.0000 0.0000 0.0000 0.0000 0.0000 32.8654
#
#
#
# Elastic Compliance Matrix: (Units=1/GPa)
#
#
# Indices 1 2 3 4 5 6 
#
# 1 0.014251 -0.000119 -0.006068 0.000000 0.000000 0.000000
# 2 -0.000119 0.014983 -0.004674 0.000000 0.000000 0.000000
# 3 -0.006068 -0.004674 0.012826 0.000000 0.000000 0.000000
# 4 0.000000 0.000000 0.000000 0.064071 0.000000 0.000000
# 5 0.000000 0.000000 0.000000 0.000000 0.042711 0.000000
# 6 0.000000 0.000000 0.000000 0.000000 0.000000 0.030427
#
#
# Mechanical properties :
#
#
# Convention : Reuss Voigt Hill
#
# Bulk Modulus (GPa) = 49.16811 53.93813 51.55312
# Shear Modulus (GPa) = 24.06507 26.54630 25.30568
#
# Velocity S-wave (km/s) = 3.61066 3.79224 3.70256
# Velocity P-wave (km/s) = 6.63465 6.95664 6.79755
#
# Compressibility (1/GPa) = 0.02033839
#
# Stress axis : x y z
#
# Youngs Moduli (GPa) = 70.17216 66.74280 77.96460
#
# Poissons Ratio (x) = 0.00796 0.47308
# Poissons Ratio (y) = 0.00836 0.36438
# Poissons Ratio (z) = 0.42580 0.31193
#
# Static dielectric constant tensor:
#      x y z
#    x 3.581660 0.000000 0.000000 
#    y 0.000000 3.345660 0.000000 
#    z 0.000000 0.000000 3.420320 
# 
# 
# High freq. dielectric constant tensor:
#      x y z
#    x 1.723410 0.000000 0.000000 
#    y 0.000000 1.714440 0.000000 
#    z 0.000000 0.000000 1.691300 
# 
# From -- ./inp_files/21941.got.cif
#   From: 2010.03.12/outbox.cif.g09.slc.cpg/sg55_11_cif.got.tgz:21941.got - 2010.04.16 15:19:21.
