data_PCOD8226189
_publ_section_title
;
Structure prediction by ZEFSAII (Michael W. Deem and Ramdas Pophale) SiO2 
 PCOD8226189
Probable space group: P B A M
;
_chemical_formula_sum "Si O2"
_cell_formula_units_Z 56
_cell_length_a 18.366791
_cell_length_b 12.146081
_cell_length_c 13.333097
_cell_angle_alpha 90.000000
_cell_angle_beta 90.000000
_cell_angle_gamma 90.000000
_cell_volume 2974.407694
_symmetry_space_group_name_H-M "P B A M"
_symmetry_group_IT_number 55
_symmetry_cell_setting 'orthorhombic'
loop_
_space_group_symop_operation_xyz
x,y,z
-x,-y,z
1/2+x,1/2-y,-z
1/2-x,1/2+y,-z
-x,-y,-z
x,y,-z
1/2-x,1/2+y,z
1/2+x,1/2-y,z
loop_
_atom_site_type_symbol
_atom_site_label
_atom_site_fract_x
_atom_site_fract_y
_atom_site_fract_z
Si Si1 0.563908 0.563579 0.782378
Si Si2 0.157377 0.137618 0.751049
Si Si3 0.804290 0.661757 0.884582
Si Si4 0.054118 0.590402 0.384031
Si Si5 0.816009 0.439594 0.239306
Si Si6 0.643959 0.744158 0.110247
Si Si7 0.520891 0.323344 0.616745
O O1 0.500000 0.500000 0.843670
O O2 0.632408 0.482854 0.787195
O O3 0.582492 0.680863 0.828041
O O4 0.530884 0.587433 0.671134
O O5 0.156456 0.229121 0.839619
O O6 0.240098 0.111055 0.718414
O O7 0.103320 0.177380 0.662175
O O8 0.816611 0.561754 0.807108
O O9 0.718297 0.676827 0.887663
O O10 0.832113 0.641547 0.000000
O O11 0.068939 0.568388 0.500000
O O12 0.131829 0.573219 0.333546
O O13 0.000000 0.500000 0.338364
O O14 0.017141 0.707000 0.364971
O O15 0.846061 0.366436 0.149278
O O16 0.612201 0.755126 0.000000
O O17 0.526437 0.353279 0.500000
#
# Coordination Sequence:
#
# PCOD8226189 Si02
#       7
#     8   8   8   8   8   8   8
#     4  10  20  37  59  83 115 153 192 244 298 346
#     4  10  22  36  60  88 117 149 198 250 288 338
#     4  10  21  37  59  85 116 159 195 235 298 354
#     4  10  21  37  60  85 118 162 197 232 294 360
#     4  11  20  37  62  85 118 150 198 249 284 341
#     4  10  20  35  56  84 114 151 197 240 292 347
#     4  10  21  40  62  85 118 158 196 239 303 361
#
# _framework density 18.827276999999999
#
# number of rings (size 3 to 8) (size 9 to 14) (size 15 to 20)
#    0.000    1.857    2.857    1.286    0.000    4.571 
#    0.000    2.143    0.000    2.571    0.000    0.000 
#    0.000    0.000    0.000    0.000    0.000    0.000 
#
# Total GULP energy -693864.664536 kJ/mol
# GULP energy per Si atom -12390.440438 kJ/mol
# Density = 1.878442 g / cm^3
# Si number density = 18.827277 Si / 1000 Ang^3
#
#
#
# Elastic Constant Matrix: (Units=GPa)
#
#
# Indices 1 2 3 4 5 6 
#
# 1 93.7439 38.5728 51.2130 0.0000 0.0000 0.0000
# 2 38.5728 102.6205 40.3398 0.0000 0.0000 0.0000
# 3 51.2130 40.3398 99.4230 0.0000 0.0000 0.0000
# 4 0.0000 0.0000 0.0000 -21.0039 0.0000 0.0000
# 5 0.0000 0.0000 0.0000 0.0000 23.2347 0.0000
# 6 0.0000 0.0000 0.0000 0.0000 0.0000 36.3331
#
#
#
# Elastic Compliance Matrix: (Units=1/GPa)
#
#
# Indices 1 2 3 4 5 6 
#
# 1 0.015700 -0.003239 -0.006773 0.000000 0.000000 0.000000
# 2 -0.003239 0.012262 -0.003307 0.000000 0.000000 0.000000
# 3 -0.006773 -0.003307 0.014889 0.000000 0.000000 0.000000
# 4 0.000000 0.000000 0.000000 -0.047610 0.000000 0.000000
# 5 0.000000 0.000000 0.000000 0.000000 0.043039 0.000000
# 6 0.000000 0.000000 0.000000 0.000000 0.000000 0.027523
#
#
# Mechanical properties :
#
#
# Convention : Reuss Voigt Hill
#
# Bulk Modulus (GPa) = 61.67808 61.78208 61.73008
# Shear Modulus (GPa) = 51.10128 18.75688 34.92908
#
# Velocity S-wave (km/s) = 5.21546 3.15978 4.31192
# Velocity P-wave (km/s) = 8.31259 6.79697 7.59269
#
# Compressibility (1/GPa) = 0.01621322
#
# Stress axis : x y z
#
# Youngs Moduli (GPa) = 63.69314 81.55293 67.16562
#
# Poissons Ratio (x) = 0.26414 0.45492
# Poissons Ratio (y) = 0.20630 0.22210
# Poissons Ratio (z) = 0.43140 0.26968
#
# Static dielectric constant tensor:
#      x y z
#    x 3.619130 0.000000 0.000000 
#    y 0.000000 3.632370 0.000000 
#    z 0.000000 0.000000 3.359630 
# 
# 
# High freq. dielectric constant tensor:
#      x y z
#    x 1.730450 0.000000 0.000000 
#    y 0.000000 1.753400 0.000000 
#    z 0.000000 0.000000 1.716300 
# 
# From -- ./inp_files/15341.got.cif
#   From: 2010.03.12/outbox.cif.g09.slc.cpg/sg55_8_cif.got.tgz:15341.got - 2010.04.16 15:19:21.
