data_PCOD8226998
_publ_section_title
;
Structure prediction by ZEFSAII (Michael W. Deem and Ramdas Pophale) SiO2 
 PCOD8226998
Probable space group: P B A M
;
_chemical_formula_sum "Si O2"
_cell_formula_units_Z 32
_cell_length_a 14.028476
_cell_length_b 8.053311
_cell_length_c 12.939053
_cell_angle_alpha 90.000000
_cell_angle_beta 90.000000
_cell_angle_gamma 90.000000
_cell_volume 1461.798312
_symmetry_space_group_name_H-M "P B A M"
_symmetry_group_IT_number 55
_symmetry_cell_setting 'orthorhombic'
loop_
_space_group_symop_operation_xyz
x,y,z
-x,-y,z
1/2+x,1/2-y,-z
1/2-x,1/2+y,-z
-x,-y,-z
x,y,-z
1/2-x,1/2+y,z
1/2+x,1/2-y,z
loop_
_atom_site_type_symbol
_atom_site_label
_atom_site_fract_x
_atom_site_fract_y
_atom_site_fract_z
Si Si1 0.606151 0.938602 0.613274
Si Si2 0.945864 0.168368 0.235244
Si Si3 0.136506 0.331118 0.208700
Si Si4 0.293402 0.513457 0.883614
O O1 0.655458 0.922579 0.500000
O O2 0.606517 0.757588 0.668594
O O3 0.500000 0.000000 0.597117
O O4 0.658543 0.080938 0.681311
O O5 0.868576 0.132375 0.145809
O O6 0.023863 0.299894 0.189476
O O7 0.000000 0.000000 0.272011
O O8 0.184357 0.449644 0.122053
O O9 0.191740 0.156647 0.201332
O O10 0.314725 0.575010 0.000000
#
# Coordination Sequence:
#
# PCOD8226998 Si02
#       4
#     8   8   8   8
#     4   9  18  36  60  83 112 149 185 230 288 343
#     4   9  20  37  60  90 121 151 193 244 292 355
#     4  10  21  37  57  84 117 152 197 244 289 348
#     4  11  22  37  58  83 117 158 198 246 300 352
#
# _framework density 21.890843
#
# number of rings (size 3 to 8) (size 9 to 14) (size 15 to 20)
#    0.000    2.250    0.000    2.250    0.000    6.000 
#    0.000   10.000    0.000   21.750    0.000    0.000 
#    0.000    0.000    0.000    0.000    0.000    0.000 
#
# Total GULP energy -396422.934894 kJ/mol
# GULP energy per Si atom -12388.216715 kJ/mol
# Density = 2.184102 g / cm^3
# Si number density = 21.890843 Si / 1000 Ang^3
#
#
#
# Elastic Constant Matrix: (Units=GPa)
#
#
# Indices 1 2 3 4 5 6 
#
# 1 61.2746 37.6821 50.2855 0.0000 0.0000 0.0000
# 2 37.6821 113.0290 73.0193 0.0000 0.0000 0.0000
# 3 50.2855 73.0193 152.9611 0.0000 0.0000 0.0000
# 4 0.0000 0.0000 0.0000 30.3636 0.0000 0.0000
# 5 0.0000 0.0000 0.0000 0.0000 22.8858 0.0000
# 6 0.0000 0.0000 0.0000 0.0000 0.0000 35.9597
#
#
#
# Elastic Compliance Matrix: (Units=1/GPa)
#
#
# Indices 1 2 3 4 5 6 
#
# 1 0.023613 -0.004131 -0.005790 0.000000 0.000000 0.000000
# 2 -0.004131 0.013515 -0.005094 0.000000 0.000000 0.000000
# 3 -0.005790 -0.005094 0.010873 0.000000 0.000000 0.000000
# 4 0.000000 0.000000 0.000000 0.032934 0.000000 0.000000
# 5 0.000000 0.000000 0.000000 0.000000 0.043695 0.000000
# 6 0.000000 0.000000 0.000000 0.000000 0.000000 0.027809
#
#
# Mechanical properties :
#
#
# Convention : Reuss Voigt Hill
#
# Bulk Modulus (GPa) = 55.64882 72.13760 63.89321
# Shear Modulus (GPa) = 26.53093 28.92702 27.72897
#
# Velocity S-wave (km/s) = 3.48511 3.63908 3.56292
# Velocity P-wave (km/s) = 6.45530 7.11913 6.79533
#
# Compressibility (1/GPa) = 0.01796983
#
# Stress axis : x y z
#
# Youngs Moduli (GPa) = 42.35034 73.99080 91.97346
#
# Poissons Ratio (x) = 0.30568 0.53256
# Poissons Ratio (y) = 0.17496 0.46848
# Poissons Ratio (z) = 0.24522 0.37688
#
# Static dielectric constant tensor:
#      x y z
#    x 3.990610 0.000000 0.000000 
#    y 0.000000 4.197800 0.000000 
#    z 0.000000 0.000000 3.987390 
# 
# 
# High freq. dielectric constant tensor:
#      x y z
#    x 1.851470 0.000000 0.000000 
#    y 0.000000 1.873400 0.000000 
#    z 0.000000 0.000000 1.827930 
# 
# From -- ./inp_files/11608.got.cif
#   From: 2010.03.12/outbox.cif.g09.slc.cpg/sg55_6_cif.got.tgz:11608.got - 2010.04.16 15:19:21.
