data_PCOD8226696
_publ_section_title
;
Structure prediction by ZEFSAII (Michael W. Deem and Ramdas Pophale) SiO2 
 PCOD8226696
Probable space group: P B A M
;
_chemical_formula_sum "Si O2"
_cell_formula_units_Z 56
_cell_length_a 19.206373
_cell_length_b 9.623897
_cell_length_c 15.772085
_cell_angle_alpha 90.000000
_cell_angle_beta 90.000000
_cell_angle_gamma 90.000000
_cell_volume 2915.314644
_symmetry_space_group_name_H-M "P B A M"
_symmetry_group_IT_number 55
_symmetry_cell_setting 'orthorhombic'
loop_
_space_group_symop_operation_xyz
x,y,z
-x,-y,z
1/2+x,1/2-y,-z
1/2-x,1/2+y,-z
-x,-y,-z
x,y,-z
1/2-x,1/2+y,z
1/2+x,1/2-y,z
loop_
_atom_site_type_symbol
_atom_site_label
_atom_site_fract_x
_atom_site_fract_y
_atom_site_fract_z
Si Si1 0.585127 0.724116 0.345938
Si Si2 0.327226 0.655243 0.500000
Si Si3 0.675779 0.086322 0.902252
Si Si4 0.080268 0.506424 0.752552
Si Si5 0.072499 0.253806 0.353089
Si Si6 0.424516 0.526089 0.222585
Si Si7 0.309496 0.594172 0.096466
Si Si8 0.815316 0.173454 0.500000
O O1 0.507706 0.746804 0.386089
O O2 0.590012 0.577370 0.299778
O O3 0.642573 0.725906 0.418717
O O4 0.603683 0.840576 0.276167
O O5 0.374441 0.687754 0.581013
O O6 0.259760 0.753203 0.500000
O O7 0.305626 0.493454 0.500000
O O8 0.615768 0.039696 0.839314
O O9 0.699018 0.243539 0.881348
O O10 0.738138 0.981924 0.883164
O O11 0.650539 0.073643 0.000000
O O12 0.095745 0.410157 0.670045
O O13 0.000000 0.500000 0.775851
O O14 0.076966 0.178543 0.262549
O O15 0.500000 0.500000 0.180768
O O16 0.367902 0.515222 0.149846
O O17 0.332059 0.573530 0.000000
#
# Coordination Sequence:
#
# PCOD8226696 Si02
#       8
#     8   4   8   8   8   8   8   4
#     4  10  23  40  65  88 117 155 197 242 294 355
#     4  12  27  41  62  88 122 157 196 245 293 347
#     4  10  22  40  60  85 121 161 199 242 295 352
#     4  10  22  40  63  92 119 152 198 247 297 350
#     4  10  21  42  64  87 115 155 198 244 294 346
#     4  10  20  38  63  89 115 151 201 246 294 348
#     4  10  22  39  59  86 121 160 199 243 295 351
#     4  12  27  43  58  90 122 155 198 241 295 353
#
# _framework density 19.208905000000001
#
# number of rings (size 3 to 8) (size 9 to 14) (size 15 to 20)
#    0.000    1.714    2.857    0.429    4.000    3.429 
#    0.000    2.143    0.000    0.000    0.000    0.000 
#    0.000    0.000    0.000    0.000    0.000    0.000 
#
# Total GULP energy -694383.966570 kJ/mol
# GULP energy per Si atom -12399.713689 kJ/mol
# Density = 1.916519 g / cm^3
# Si number density = 19.208905 Si / 1000 Ang^3
#
#
#
# Elastic Constant Matrix: (Units=GPa)
#
#
# Indices 1 2 3 4 5 6 
#
# 1 114.3290 55.3485 70.7619 0.0000 0.0000 0.0000
# 2 55.3485 91.6120 37.7685 0.0000 0.0000 0.0000
# 3 70.7619 37.7685 87.0440 0.0000 0.0000 0.0000
# 4 0.0000 0.0000 0.0000 20.2254 0.0000 0.0000
# 5 0.0000 0.0000 0.0000 0.0000 38.9347 0.0000
# 6 0.0000 0.0000 0.0000 0.0000 0.0000 31.5350
#
#
#
# Elastic Compliance Matrix: (Units=1/GPa)
#
#
# Indices 1 2 3 4 5 6 
#
# 1 0.020521 -0.006723 -0.013766 0.000000 0.000000 0.000000
# 2 -0.006723 0.015496 -0.001258 0.000000 0.000000 0.000000
# 3 -0.013766 -0.001258 0.023225 0.000000 0.000000 0.000000
# 4 0.000000 0.000000 0.000000 0.049443 0.000000 0.000000
# 5 0.000000 0.000000 0.000000 0.000000 0.025684 0.000000
# 6 0.000000 0.000000 0.000000 0.000000 0.000000 0.031711
#
#
# Mechanical properties :
#
#
# Convention : Reuss Voigt Hill
#
# Bulk Modulus (GPa) = 63.49742 68.97142 66.23442
# Shear Modulus (GPa) = 23.27488 26.74611 25.01050
#
# Velocity S-wave (km/s) = 3.48468 3.73551 3.61227
# Velocity P-wave (km/s) = 7.02273 7.38846 7.20791
#
# Compressibility (1/GPa) = 0.01574867
#
# Stress axis : x y z
#
# Youngs Moduli (GPa) = 48.72947 64.53174 43.05699
#
# Poissons Ratio (x) = 0.43386 0.59270
# Poissons Ratio (y) = 0.32762 0.05418
# Poissons Ratio (z) = 0.67079 0.08120
#
# Static dielectric constant tensor:
#      x y z
#    x 3.476600 0.000000 0.000000 
#    y 0.000000 3.755400 0.000000 
#    z 0.000000 0.000000 3.343560 
# 
# 
# High freq. dielectric constant tensor:
#      x y z
#    x 1.744410 0.000000 0.000000 
#    y 0.000000 1.766790 0.000000 
#    z 0.000000 0.000000 1.741410 
# 
# From -- ./inp_files/19779.got.cif
#   From: 2010.03.12/outbox.cif.g09.slc.cpg/sg55_10_cif.got.tgz:19779.got - 2010.04.16 15:19:21.
