data_PCOD8226492
_publ_section_title
;
Structure prediction by ZEFSAII (Michael W. Deem and Ramdas Pophale) SiO2 
 PCOD8226492
Probable space group: P B A M
;
_chemical_formula_sum "Si O2"
_cell_formula_units_Z 64
_cell_length_a 22.564214
_cell_length_b 9.442990
_cell_length_c 14.593988
_cell_angle_alpha 90.000000
_cell_angle_beta 90.000000
_cell_angle_gamma 90.000000
_cell_volume 3109.594250
_symmetry_space_group_name_H-M "P B A M"
_symmetry_group_IT_number 55
_symmetry_cell_setting 'orthorhombic'
loop_
_space_group_symop_operation_xyz
x,y,z
-x,-y,z
1/2+x,1/2-y,-z
1/2-x,1/2+y,-z
-x,-y,-z
x,y,-z
1/2-x,1/2+y,z
1/2+x,1/2-y,z
loop_
_atom_site_type_symbol
_atom_site_label
_atom_site_fract_x
_atom_site_fract_y
_atom_site_fract_z
Si Si1 0.217832 0.846835 0.892642
Si Si2 0.372664 0.294220 0.240989
Si Si3 0.289978 0.282626 0.394600
Si Si4 0.565681 0.183239 0.894926
Si Si5 0.323365 0.961155 0.605603
Si Si6 0.542216 0.629277 0.099187
Si Si7 0.178738 0.152312 0.106252
Si Si8 0.067631 0.509172 0.725958
O O1 0.175353 0.741087 0.834512
O O2 0.283634 0.792892 0.867398
O O3 0.204798 0.005370 0.851371
O O4 0.205045 0.831021 0.000000
O O5 0.339270 0.359644 0.329990
O O6 0.412939 0.403885 0.182464
O O7 0.416017 0.172624 0.274404
O O8 0.305034 0.318846 0.500000
O O9 0.224769 0.340349 0.368837
O O10 0.293799 0.114630 0.373657
O O11 0.498101 0.232952 0.881484
O O12 0.610767 0.311568 0.868072
O O13 0.574234 0.050897 0.828364
O O14 0.577798 0.135228 0.000000
O O15 0.341057 0.950686 0.500000
O O16 0.384279 0.931162 0.660587
O O17 0.500000 0.500000 0.088109
O O18 0.575554 0.647603 0.000000
O O19 0.185084 0.122428 0.000000
O O20 0.000000 0.500000 0.688218
#
# Coordination Sequence:
#
# PCOD8226492 Si02
#       8
#     8   8   8   8   8   8   8   8
#     4  10  21  35  53  80 115 149 191 242 297 356
#     4  11  22  35  57  84 111 151 193 243 293 345
#     4   9  20  40  63  88 116 147 187 234 296 363
#     4  10  21  36  55  77 114 158 197 245 289 338
#     4   9  20  41  67  90 117 152 190 242 303 362
#     4  10  20  37  57  78 109 157 206 243 286 343
#     4   9  20  36  52  76 110 151 192 237 293 348
#     4  11  23  39  56  87 120 151 204 247 291 357
#
# _framework density 20.581462999999999
#
# number of rings (size 3 to 8) (size 9 to 14) (size 15 to 20)
#    0.000    2.125    1.250    1.125    3.500    4.500 
#    2.250    0.000    0.000    0.375    0.000    0.000 
#    0.000    0.000    0.000    0.000    0.000    0.000 
#
# Total GULP energy -792861.980577 kJ/mol
# GULP energy per Si atom -12388.468447 kJ/mol
# Density = 2.053462 g / cm^3
# Si number density = 20.581463 Si / 1000 Ang^3
#
#
#
# Elastic Constant Matrix: (Units=GPa)
#
#
# Indices 1 2 3 4 5 6 
#
# 1 144.0547 35.6933 69.2348 0.0000 0.0000 0.0000
# 2 35.6933 45.3878 25.5674 0.0000 0.0000 0.0000
# 3 69.2348 25.5674 108.6691 0.0000 0.0000 0.0000
# 4 0.0000 0.0000 0.0000 11.7963 0.0000 0.0000
# 5 0.0000 0.0000 0.0000 0.0000 4.7709 0.0000
# 6 0.0000 0.0000 0.0000 0.0000 0.0000 30.9005
#
#
#
# Elastic Compliance Matrix: (Units=1/GPa)
#
#
# Indices 1 2 3 4 5 6 
#
# 1 0.011064 -0.005453 -0.005766 0.000000 0.000000 0.000000
# 2 -0.005453 0.028086 -0.003134 0.000000 0.000000 0.000000
# 3 -0.005766 -0.003134 0.013613 0.000000 0.000000 0.000000
# 4 0.000000 0.000000 0.000000 0.084772 0.000000 0.000000
# 5 0.000000 0.000000 0.000000 0.000000 0.209606 0.000000
# 6 0.000000 0.000000 0.000000 0.000000 0.000000 0.032362
#
#
# Mechanical properties :
#
#
# Convention : Reuss Voigt Hill
#
# Bulk Modulus (GPa) = 41.56711 62.12251 51.84481
# Shear Modulus (GPa) = 12.01262 20.66793 16.34028
#
# Velocity S-wave (km/s) = 2.41853 3.17235 2.82074
# Velocity P-wave (km/s) = 5.29521 6.60815 5.98778
#
# Compressibility (1/GPa) = 0.02405748
#
# Stress axis : x y z
#
# Youngs Moduli (GPa) = 90.38139 35.60513 73.45720
#
# Poissons Ratio (x) = 0.19415 0.42357
# Poissons Ratio (y) = 0.49283 0.23021
# Poissons Ratio (z) = 0.52116 0.11158
#
# Static dielectric constant tensor:
#      x y z
#    x 4.146680 0.000000 0.000000 
#    y 0.000000 3.649400 0.000000 
#    z 0.000000 0.000000 3.772960 
# 
# 
# High freq. dielectric constant tensor:
#      x y z
#    x 1.814890 0.000000 0.000000 
#    y 0.000000 1.785140 0.000000 
#    z 0.000000 0.000000 1.789720 
# 
# From -- ./inp_files/19970.got.cif
#   From: 2010.03.12/outbox.cif.g09.slc.cpg/sg55_10_cif.got.tgz:19970.got - 2010.04.16 15:19:21.
