data_PCOD8226570
_publ_section_title
;
Structure prediction by ZEFSAII (Michael W. Deem and Ramdas Pophale) SiO2 
 PCOD8226570
Probable space group: P B A M
;
_chemical_formula_sum "Si O2"
_cell_formula_units_Z 64
_cell_length_a 18.950450
_cell_length_b 18.884706
_cell_length_c 8.994374
_cell_angle_alpha 90.000000
_cell_angle_beta 90.000000
_cell_angle_gamma 90.000000
_cell_volume 3218.849694
_symmetry_space_group_name_H-M "P B A M"
_symmetry_group_IT_number 55
_symmetry_cell_setting 'orthorhombic'
loop_
_space_group_symop_operation_xyz
x,y,z
-x,-y,z
1/2+x,1/2-y,-z
1/2-x,1/2+y,-z
-x,-y,-z
x,y,-z
1/2-x,1/2+y,z
1/2+x,1/2-y,z
loop_
_atom_site_type_symbol
_atom_site_label
_atom_site_fract_x
_atom_site_fract_y
_atom_site_fract_z
Si Si1 0.603017 0.767556 0.329868
Si Si2 0.019259 0.872593 0.671946
Si Si3 0.627496 0.371213 0.825168
Si Si4 0.375785 0.465692 0.172900
Si Si5 0.736542 0.116601 0.824369
Si Si6 0.263800 0.735578 0.676652
Si Si7 0.466536 0.107101 0.824410
Si Si8 0.395831 0.968572 0.824150
O O1 0.596804 0.789516 0.500000
O O2 0.577746 0.687741 0.303391
O O3 0.683056 0.777767 0.274398
O O4 0.551005 0.816839 0.238884
O O5 0.000177 0.883765 0.500000
O O6 0.054056 0.944309 0.736512
O O7 0.948659 0.851421 0.759266
O O8 0.644308 0.453362 0.791367
O O9 0.687621 0.324485 0.748302
O O10 0.627454 0.355018 0.000000
O O11 0.311877 0.414823 0.222498
O O12 0.393134 0.456156 0.000000
O O13 0.715816 0.187529 0.738131
O O14 0.680234 0.057767 0.771653
O O15 0.732315 0.131273 0.000000
O O16 0.273410 0.734997 0.500000
O O17 0.543553 0.084374 0.764698
O O18 0.409707 0.048561 0.767366
O O19 0.465560 0.113328 0.000000
O O20 0.401652 0.969467 0.000000
#
# Coordination Sequence:
#
# PCOD8226570 Si02
#       8
#     8   8   8   8   8   8   8   8
#     4  10  23  40  57  82 120 158 197 242 288 350
#     4  11  23  42  64  88 122 165 204 247 306 365
#     4  11  25  42  64  95 124 152 200 258 304 356
#     4  10  22  40  63  91 122 158 203 257 307 357
#     4  10  20  37  61  86 118 158 199 245 299 354
#     4  11  24  43  60  85 122 160 199 242 294 357
#     4   9  18  34  59  86 115 151 194 241 292 348
#     4   8  17  34  56  87 118 147 190 243 293 349
#
# _framework density 19.88288
#
# number of rings (size 3 to 8) (size 9 to 14) (size 15 to 20)
#    0.000    2.000    1.250    2.250    3.500    4.500 
#    0.000    1.875    0.000    0.000    0.000    0.000 
#    0.000    0.000    0.000    0.000    0.000    0.000 
#
# Total GULP energy -793632.651333 kJ/mol
# GULP energy per Si atom -12400.510177 kJ/mol
# Density = 1.983763 g / cm^3
# Si number density = 19.882880 Si / 1000 Ang^3
#
#
#
# Elastic Constant Matrix: (Units=GPa)
#
#
# Indices 1 2 3 4 5 6 
#
# 1 94.3170 32.7232 39.3225 0.0000 0.0000 0.0000
# 2 32.7232 84.5095 41.3782 0.0000 0.0000 0.0000
# 3 39.3225 41.3782 67.4791 0.0000 0.0000 0.0000
# 4 0.0000 0.0000 0.0000 -5.3288 0.0000 0.0000
# 5 0.0000 0.0000 0.0000 0.0000 28.6173 0.0000
# 6 0.0000 0.0000 0.0000 0.0000 0.0000 39.9033
#
#
#
# Elastic Compliance Matrix: (Units=1/GPa)
#
#
# Indices 1 2 3 4 5 6 
#
# 1 0.014255 -0.002076 -0.007034 0.000000 0.000000 0.000000
# 2 -0.002076 0.017212 -0.009345 0.000000 0.000000 0.000000
# 3 -0.007034 -0.009345 0.024649 0.000000 0.000000 0.000000
# 4 0.000000 0.000000 0.000000 -0.187661 0.000000 0.000000
# 5 0.000000 0.000000 0.000000 0.000000 0.034944 0.000000
# 6 0.000000 0.000000 0.000000 0.000000 0.000000 0.025061
#
#
# Mechanical properties :
#
#
# Convention : Reuss Voigt Hill
#
# Bulk Modulus (GPa) = 52.06547 52.57261 52.31904
# Shear Modulus (GPa) = -177.13306 21.49714 -77.81796
#
# Velocity S-wave (km/s) = -9.44890 3.29171 -6.26284
# Velocity P-wave (km/s) = 9.63324 6.39888 5.09183
#
# Compressibility (1/GPa) = 0.01920659
#
# Stress axis : x y z
#
# Youngs Moduli (GPa) = 70.14854 58.09800 40.56961
#
# Poissons Ratio (x) = 0.12059 0.28538
# Poissons Ratio (y) = 0.14561 0.37912
# Poissons Ratio (z) = 0.49345 0.54293
#
# Static dielectric constant tensor:
#      x y z
#    x 3.786180 0.000000 0.000000 
#    y 0.000000 3.695930 0.000000 
#    z 0.000000 0.000000 3.466200 
# 
# 
# High freq. dielectric constant tensor:
#      x y z
#    x 1.785150 0.000000 0.000000 
#    y 0.000000 1.783480 0.000000 
#    z 0.000000 0.000000 1.758490 
# 
# From -- ./inp_files/9003.got.cif
#   From: 2010.03.12/outbox.cif.g09.slc.cpg/sg55_5_cif.got.tgz:9003.got - 2010.04.16 15:19:21.
