data_PCOD8226771
_publ_section_title
;
Structure prediction by ZEFSAII (Michael W. Deem and Ramdas Pophale) SiO2 
 PCOD8226771
Probable space group: P B A M
;
_chemical_formula_sum "Si O2"
_cell_formula_units_Z 48
_cell_length_a 8.999440
_cell_length_b 33.853752
_cell_length_c 7.762597
_cell_angle_alpha 90.000000
_cell_angle_beta 90.000000
_cell_angle_gamma 90.000000
_cell_volume 2364.990139
_symmetry_space_group_name_H-M "P B A M"
_symmetry_group_IT_number 55
_symmetry_cell_setting 'orthorhombic'
loop_
_space_group_symop_operation_xyz
x,y,z
-x,-y,z
1/2+x,1/2-y,-z
1/2-x,1/2+y,-z
-x,-y,-z
x,y,-z
1/2-x,1/2+y,z
1/2+x,1/2-y,z
loop_
_atom_site_type_symbol
_atom_site_label
_atom_site_fract_x
_atom_site_fract_y
_atom_site_fract_z
Si Si1 0.644561 0.713798 0.500000
Si Si2 0.834654 0.157931 0.192746
Si Si3 0.175368 0.146998 0.195575
Si Si4 0.163317 0.997472 0.197994
Si Si5 0.356290 0.068509 0.200433
Si Si6 0.816547 0.581174 0.695185
Si Si7 0.297780 0.703347 0.500000
O O1 0.706107 0.691855 0.670311
O O2 0.468144 0.715764 0.500000
O O3 0.697406 0.758331 0.500000
O O4 0.720744 0.121778 0.208379
O O5 0.999989 0.141677 0.227581
O O6 0.820371 0.175749 0.000000
O O7 0.248147 0.105077 0.233672
O O8 0.242316 0.178773 0.328132
O O9 0.208644 0.161205 0.000000
O O10 0.230210 0.954104 0.212819
O O11 0.275138 0.029803 0.279323
O O12 0.145200 0.009652 0.000000
O O13 0.000000 0.000000 0.286126
O O14 0.507898 0.074356 0.302887
O O15 0.396231 0.063265 0.000000
O O16 0.760562 0.584029 0.500000
#
# Coordination Sequence:
#
# PCOD8226771 Si02
#       7
#     4   8   8   8   8   8   4
#     4  10  22  40  58  93 118 153 194 232 293 352
#     4  10  20  40  64  85 117 156 198 243 288 348
#     4   9  20  39  63  88 114 155 200 238 290 349
#     4  10  21  39  60  81 111 156 204 246 291 344
#     4  10  21  37  57  84 116 154 200 244 292 346
#     4  12  24  36  54  86 121 153 197 245 295 349
#     4  10  22  38  62  87 126 151 186 242 287 350
#
# _framework density 20.296068999999999
#
# number of rings (size 3 to 8) (size 9 to 14) (size 15 to 20)
#    0.000    1.833    0.833    3.000    1.167    7.667 
#    0.000    0.000    0.000    0.000    0.000    0.000 
#    0.000    0.000    0.000    0.000    0.000    0.000 
#
# Total GULP energy -595368.234008 kJ/mol
# GULP energy per Si atom -12403.504875 kJ/mol
# Density = 2.024987 g / cm^3
# Si number density = 20.296069 Si / 1000 Ang^3
#
#
#
# Elastic Constant Matrix: (Units=GPa)
#
#
# Indices 1 2 3 4 5 6 
#
# 1 46.7814 -5.3024 14.8509 0.0000 0.0000 0.0000
# 2 -5.3024 71.1888 34.0441 0.0000 0.0000 0.0000
# 3 14.8509 34.0441 96.1419 0.0000 0.0000 0.0000
# 4 0.0000 0.0000 0.0000 29.8867 0.0000 0.0000
# 5 0.0000 0.0000 0.0000 0.0000 16.7852 0.0000
# 6 0.0000 0.0000 0.0000 0.0000 0.0000 39.1266
#
#
#
# Elastic Compliance Matrix: (Units=1/GPa)
#
#
# Indices 1 2 3 4 5 6 
#
# 1 0.023474 0.004192 -0.005110 0.000000 0.000000 0.000000
# 2 0.004192 0.017660 -0.006901 0.000000 0.000000 0.000000
# 3 -0.005110 -0.006901 0.013634 0.000000 0.000000 0.000000
# 4 0.000000 0.000000 0.000000 0.033460 0.000000 0.000000
# 5 0.000000 0.000000 0.000000 0.000000 0.059576 0.000000
# 6 0.000000 0.000000 0.000000 0.000000 0.000000 0.025558
#
#
# Mechanical properties :
#
#
# Convention : Reuss Voigt Hill
#
# Bulk Modulus (GPa) = 25.55621 33.47747 29.51684
# Shear Modulus (GPa) = 24.74723 28.52765 26.63744
#
# Velocity S-wave (km/s) = 3.49565 3.75317 3.62670
# Velocity P-wave (km/s) = 5.37697 5.94239 5.66674
#
# Compressibility (1/GPa) = 0.03912944
#
# Stress axis : x y z
#
# Youngs Moduli (GPa) = 42.60116 56.62648 73.34431
#
# Poissons Ratio (x) = -0.23740 0.37482
# Poissons Ratio (y) = -0.17860 0.50614
# Poissons Ratio (z) = 0.21771 0.39077
#
# Static dielectric constant tensor:
#      x y z
#    x 3.658470 0.000000 0.000000 
#    y 0.000000 3.522600 0.000000 
#    z 0.000000 0.000000 3.744230 
# 
# 
# High freq. dielectric constant tensor:
#      x y z
#    x 1.792820 0.000000 0.000000 
#    y 0.000000 1.784470 0.000000 
#    z 0.000000 0.000000 1.796240 
# 
# From -- ./inp_files/2923.got.cif
#   From: 2010.03.12/outbox.cif.g09.slc.cpg/sg55_2_cif.got.tgz:2923.got - 2010.04.16 15:19:21.
