data_PCOD8226605
_publ_section_title
;
Structure prediction by ZEFSAII (Michael W. Deem and Ramdas Pophale) SiO2 
 PCOD8226605
Probable space group: P B A M
;
_chemical_formula_sum "Si O2"
_cell_formula_units_Z 48
_cell_length_a 20.080767
_cell_length_b 14.329557
_cell_length_c 8.504535
_cell_angle_alpha 90.000000
_cell_angle_beta 90.000000
_cell_angle_gamma 90.000000
_cell_volume 2447.167150
_symmetry_space_group_name_H-M "P B A M"
_symmetry_group_IT_number 55
_symmetry_cell_setting 'orthorhombic'
loop_
_space_group_symop_operation_xyz
x,y,z
-x,-y,z
1/2+x,1/2-y,-z
1/2-x,1/2+y,-z
-x,-y,-z
x,y,-z
1/2-x,1/2+y,z
1/2+x,1/2-y,z
loop_
_atom_site_type_symbol
_atom_site_label
_atom_site_fract_x
_atom_site_fract_y
_atom_site_fract_z
Si Si1 0.575873 0.313632 0.318630
Si Si2 0.225560 0.495609 0.816516
Si Si3 0.436225 0.299973 0.182908
Si Si4 0.120222 0.998913 0.184183
Si Si5 0.699888 0.214373 0.817415
Si Si6 0.323022 0.179311 0.318948
O O1 0.592563 0.296555 0.500000
O O2 0.502240 0.276758 0.280883
O O3 0.579458 0.423150 0.278068
O O4 0.627339 0.255928 0.212938
O O5 0.302618 0.506047 0.770922
O O6 0.199954 0.393626 0.767889
O O7 0.182960 0.569748 0.718508
O O8 0.214950 0.514999 0.000000
O O9 0.406293 0.398673 0.238575
O O10 0.382049 0.220516 0.213995
O O11 0.454292 0.301954 0.000000
O O12 0.108588 0.014683 0.000000
O O13 0.753582 0.270362 0.717171
O O14 0.719077 0.225506 0.000000
O O15 0.341204 0.193571 0.500000
#
# Coordination Sequence:
#
# PCOD8226605 Si02
#       6
#     8   8   8   8   8   8
#     4  12  25  39  58  92 129 161 197 251 312 363
#     4  10  21  39  64  91 119 156 206 252 292 351
#     4  11  23  42  64  87 120 166 209 249 296 361
#     4  10  20  37  62  90 121 160 204 248 296 357
#     4  11  22  41  65  88 118 163 210 249 291 356
#     4  12  24  38  61  93 126 158 195 251 309 358
#
# _framework density 19.614515000000001
#
# number of rings (size 3 to 8) (size 9 to 14) (size 15 to 20)
#    0.000    1.000    3.333    4.500    0.000    4.667 
#    0.000    0.833    0.000    5.000    0.000    0.000 
#    0.000    0.000    0.000    0.000    0.000    0.000 
#
# Total GULP energy -595584.599006 kJ/mol
# GULP energy per Si atom -12408.012479 kJ/mol
# Density = 1.956987 g / cm^3
# Si number density = 19.614515 Si / 1000 Ang^3
#
#
#
# Elastic Constant Matrix: (Units=GPa)
#
#
# Indices 1 2 3 4 5 6 
#
# 1 69.9516 17.7054 6.1282 0.0000 0.0000 0.0000
# 2 17.7054 100.7997 22.5957 0.0000 0.0000 0.0000
# 3 6.1282 22.5957 56.9605 0.0000 0.0000 0.0000
# 4 0.0000 0.0000 0.0000 7.7119 0.0000 0.0000
# 5 0.0000 0.0000 0.0000 0.0000 29.3883 0.0000
# 6 0.0000 0.0000 0.0000 0.0000 0.0000 26.6614
#
#
#
# Elastic Compliance Matrix: (Units=1/GPa)
#
#
# Indices 1 2 3 4 5 6 
#
# 1 0.014981 -0.002492 -0.000623 0.000000 0.000000 0.000000
# 2 -0.002492 0.011303 -0.004216 0.000000 0.000000 0.000000
# 3 -0.000623 -0.004216 0.019295 0.000000 0.000000 0.000000
# 4 0.000000 0.000000 0.000000 0.129671 0.000000 0.000000
# 5 0.000000 0.000000 0.000000 0.000000 0.034027 0.000000
# 6 0.000000 0.000000 0.000000 0.000000 0.000000 0.037507
#
#
# Mechanical properties :
#
#
# Convention : Reuss Voigt Hill
#
# Bulk Modulus (GPa) = 32.34363 35.61895 33.98129
# Shear Modulus (GPa) = 18.39909 24.83781 21.61845
#
# Velocity S-wave (km/s) = 3.06606 3.56237 3.32349
# Velocity P-wave (km/s) = 5.39071 5.92617 5.66477
#
# Compressibility (1/GPa) = 0.03091799
#
# Stress axis : x y z
#
# Youngs Moduli (GPa) = 66.75182 88.46920 51.82559
#
# Poissons Ratio (x) = 0.22043 0.03230
# Poissons Ratio (y) = 0.16632 0.21849
# Poissons Ratio (z) = 0.04161 0.37298
#
# Static dielectric constant tensor:
#      x y z
#    x 3.494070 0.000000 0.000000 
#    y 0.000000 3.652070 0.000000 
#    z 0.000000 0.000000 3.459540 
# 
# 
# High freq. dielectric constant tensor:
#      x y z
#    x 1.761940 0.000000 0.000000 
#    y 0.000000 1.766780 0.000000 
#    z 0.000000 0.000000 1.762410 
# 
# From -- ./inp_files/5668.got.cif
#   From: 2010.03.12/outbox.cif.g09.slc.cpg/sg55_3_cif.got.tgz:5668.got - 2010.04.16 15:19:21.
