data_PCOD8226748
_publ_section_title
;
Structure prediction by ZEFSAII (Michael W. Deem and Ramdas Pophale) SiO2 
 PCOD8226748
Probable space group: P B A M
;
_chemical_formula_sum "Si O2"
_cell_formula_units_Z 48
_cell_length_a 9.546957
_cell_length_b 17.740634
_cell_length_c 14.764292
_cell_angle_alpha 90.000000
_cell_angle_beta 90.000000
_cell_angle_gamma 90.000000
_cell_volume 2500.614405
_symmetry_space_group_name_H-M "P B A M"
_symmetry_group_IT_number 55
_symmetry_cell_setting 'orthorhombic'
loop_
_space_group_symop_operation_xyz
x,y,z
-x,-y,z
1/2+x,1/2-y,-z
1/2-x,1/2+y,-z
-x,-y,-z
x,y,-z
1/2-x,1/2+y,z
1/2+x,1/2-y,z
loop_
_atom_site_type_symbol
_atom_site_label
_atom_site_fract_x
_atom_site_fract_y
_atom_site_fract_z
Si Si1 0.098925 0.929990 0.102806
Si Si2 0.151215 0.966468 0.600860
Si Si3 0.962530 0.681503 0.261698
Si Si4 0.397539 0.067633 0.400725
Si Si5 0.640133 0.671437 0.735856
Si Si6 0.575362 0.074186 0.102999
O O1 0.077026 0.860103 0.169779
O O2 0.262520 0.949003 0.112632
O O3 0.061214 0.905790 0.000000
O O4 0.000000 0.000000 0.132187
O O5 0.205795 0.944333 0.500000
O O6 0.137907 0.892354 0.660335
O O7 0.255071 0.030954 0.641867
O O8 0.000000 0.000000 0.594210
O O9 0.798744 0.700582 0.265984
O O10 0.980482 0.644157 0.162429
O O11 0.024116 0.625531 0.336065
O O12 0.041972 0.758257 0.282515
O O13 0.365483 0.104992 0.500000
O O14 0.500000 0.000000 0.416914
O O15 0.500000 0.000000 0.138955
O O16 0.535620 0.094452 0.000000
#
# Coordination Sequence:
#
# PCOD8226748 Si02
#       6
#     8   8   8   8   8   8
#     4   9  19  37  60  85 112 147 192 239 284 335
#     4  10  22  40  63  88 113 146 193 243 287 342
#     4  11  24  37  56  84 119 154 192 235 293 346
#     4  10  20  39  64  84 108 150 195 237 287 343
#     4  11  24  38  55  86 120 155 189 237 290 348
#     4   9  19  36  59  85 112 147 192 237 282 338
#
# _framework density 19.195281000000001
#
# number of rings (size 3 to 8) (size 9 to 14) (size 15 to 20)
#    0.000    2.000    1.667    1.000    4.667    2.667 
#    0.000    0.000    0.000    0.000    0.000    0.000 
#    0.000    0.000    0.000    0.000    0.000    0.000 
#
# Total GULP energy -594721.087412 kJ/mol
# GULP energy per Si atom -12390.022654 kJ/mol
# Density = 1.915159 g / cm^3
# Si number density = 19.195281 Si / 1000 Ang^3
#
#
#
# Elastic Constant Matrix: (Units=GPa)
#
#
# Indices 1 2 3 4 5 6 
#
# 1 84.1721 40.8886 35.1848 0.0000 0.0000 0.0000
# 2 40.8886 83.0651 48.1517 0.0000 0.0000 0.0000
# 3 35.1848 48.1517 90.6054 0.0000 0.0000 0.0000
# 4 0.0000 0.0000 0.0000 -4.2607 0.0000 0.0000
# 5 0.0000 0.0000 0.0000 0.0000 28.0972 0.0000
# 6 0.0000 0.0000 0.0000 0.0000 0.0000 39.3880
#
#
#
# Elastic Compliance Matrix: (Units=1/GPa)
#
#
# Indices 1 2 3 4 5 6 
#
# 1 0.016144 -0.006233 -0.002957 0.000000 0.000000 0.000000
# 2 -0.006233 0.019805 -0.008105 0.000000 0.000000 0.000000
# 3 -0.002957 -0.008105 0.016492 0.000000 0.000000 0.000000
# 4 0.000000 0.000000 0.000000 -0.234705 0.000000 0.000000
# 5 0.000000 0.000000 0.000000 0.000000 0.035591 0.000000
# 6 0.000000 0.000000 0.000000 0.000000 0.000000 0.025388
#
#
# Mechanical properties :
#
#
# Convention : Reuss Voigt Hill
#
# Bulk Modulus (GPa) = 56.01469 56.25477 56.13473
# Shear Modulus (GPa) = -61.92401 21.55273 -20.18564
#
# Velocity S-wave (km/s) = -5.68595 3.35448 -3.24635
# Velocity P-wave (km/s) = 3.72316 6.66135 3.90587
#
# Compressibility (1/GPa) = 0.01785246
#
# Stress axis : x y z
#
# Youngs Moduli (GPa) = 61.94179 50.49178 60.63388
#
# Poissons Ratio (x) = 0.31471 0.17928
# Poissons Ratio (y) = 0.38608 0.49143
# Poissons Ratio (z) = 0.18315 0.40923
#
# Static dielectric constant tensor:
#      x y z
#    x 3.704260 0.000000 0.000000 
#    y 0.000000 2.908410 0.000000 
#    z 0.000000 0.000000 3.893920 
# 
# 
# High freq. dielectric constant tensor:
#      x y z
#    x 1.761010 0.000000 0.000000 
#    y 0.000000 1.724990 0.000000 
#    z 0.000000 0.000000 1.758320 
# 
# From -- ./inp_files/17320.got.cif
#   From: 2010.03.12/outbox.cif.g09.slc.cpg/sg55_9_cif.got.tgz:17320.got - 2010.04.16 15:19:21.
