data_PCOD8226315
_publ_section_title
;
Structure prediction by ZEFSAII (Michael W. Deem and Ramdas Pophale) SiO2 
 PCOD8226315
Probable space group: P B A M
;
_chemical_formula_sum "Si O2"
_cell_formula_units_Z 32
_cell_length_a 19.904853
_cell_length_b 10.075378
_cell_length_c 8.457774
_cell_angle_alpha 90.000000
_cell_angle_beta 90.000000
_cell_angle_gamma 90.000000
_cell_volume 1696.197424
_symmetry_space_group_name_H-M "P B A M"
_symmetry_group_IT_number 55
_symmetry_cell_setting 'orthorhombic'
loop_
_space_group_symop_operation_xyz
x,y,z
-x,-y,z
1/2+x,1/2-y,-z
1/2-x,1/2+y,-z
-x,-y,-z
x,y,-z
1/2-x,1/2+y,z
1/2+x,1/2-y,z
loop_
_atom_site_type_symbol
_atom_site_label
_atom_site_fract_x
_atom_site_fract_y
_atom_site_fract_z
Si Si1 0.797677 0.880163 0.814912
Si Si2 0.946565 0.899674 0.815825
Si Si3 0.202231 0.402084 0.317355
Si Si4 0.556980 0.100106 0.815572
O O1 0.871294 0.922544 0.748818
O O2 0.774713 0.746038 0.727594
O O3 0.745251 0.995828 0.785114
O O4 0.802442 0.846850 0.000000
O O5 0.969625 0.748784 0.783341
O O6 0.944690 0.932042 0.000000
O O7 0.000000 0.000000 0.733327
O O8 0.216937 0.428270 0.500000
O O9 0.124217 0.427486 0.281716
O O10 0.500000 0.000000 0.754970
O O11 0.573166 0.078509 0.000000
#
# Coordination Sequence:
#
# PCOD8226315 Si02
#       4
#     8   8   8   8
#     4  10  20  36  57  79 106 143 185 224 267 326
#     4   8  15  29  50  76 101 127 167 219 264 304
#     4  11  22  36  54  79 112 144 178 226 280 325
#     4   9  18  33  53  76 103 138 180 221 263 318
#
# _framework density 18.865729000000002
#
# number of rings (size 3 to 8) (size 9 to 14) (size 15 to 20)
#    0.000    2.500    0.000    4.500    0.000    2.500 
#    0.000    5.000    0.000   18.750    0.000    0.000 
#    0.000    0.000    0.000    0.000    0.000    0.000 
#
# Total GULP energy -396784.929952 kJ/mol
# GULP energy per Si atom -12399.529061 kJ/mol
# Density = 1.882279 g / cm^3
# Si number density = 18.865729 Si / 1000 Ang^3
#
#
#
# Elastic Constant Matrix: (Units=GPa)
#
#
# Indices 1 2 3 4 5 6 
#
# 1 81.4727 68.8702 6.9481 0.0000 0.0000 0.0000
# 2 68.8702 113.4879 4.2585 0.0000 0.0000 0.0000
# 3 6.9481 4.2585 42.2408 0.0000 0.0000 0.0000
# 4 0.0000 0.0000 0.0000 19.2251 0.0000 0.0000
# 5 0.0000 0.0000 0.0000 0.0000 17.1761 0.0000
# 6 0.0000 0.0000 0.0000 0.0000 0.0000 46.7336
#
#
#
# Elastic Compliance Matrix: (Units=1/GPa)
#
#
# Indices 1 2 3 4 5 6 
#
# 1 0.025493 -0.015371 -0.002644 0.000000 0.000000 0.000000
# 2 -0.015371 0.018113 0.000702 0.000000 0.000000 0.000000
# 3 -0.002644 0.000702 0.024038 0.000000 0.000000 0.000000
# 4 0.000000 0.000000 0.000000 0.052015 0.000000 0.000000
# 5 0.000000 0.000000 0.000000 0.000000 0.058220 0.000000
# 6 0.000000 0.000000 0.000000 0.000000 0.000000 0.021398
#
#
# Mechanical properties :
#
#
# Convention : Reuss Voigt Hill
#
# Bulk Modulus (GPa) = 30.28571 44.15055 37.21813
# Shear Modulus (GPa) = 20.41572 27.10194 23.75883
#
# Velocity S-wave (km/s) = 3.29319 3.79432 3.55260
# Velocity P-wave (km/s) = 5.52705 6.53063 6.04969
#
# Compressibility (1/GPa) = 0.03301888
#
# Stress axis : x y z
#
# Youngs Moduli (GPa) = 39.22622 55.20818 41.60112
#
# Poissons Ratio (x) = 0.84862 0.10998
# Poissons Ratio (y) = 0.60296 -0.02922
# Poissons Ratio (z) = 0.10370 -0.03877
#
# Static dielectric constant tensor:
#      x y z
#    x 3.581490 0.000000 0.000000 
#    y 0.000000 3.622710 0.000000 
#    z 0.000000 0.000000 3.145030 
# 
# 
# High freq. dielectric constant tensor:
#      x y z
#    x 1.733840 0.000000 0.000000 
#    y 0.000000 1.737750 0.000000 
#    z 0.000000 0.000000 1.708130 
# 
# From -- ./inp_files/1989.got.cif
#   From: 2010.03.12/outbox.cif.g09.slc.cpg/sg55_1_cif.got.tgz:1989.got - 2010.04.16 15:19:21.
