data_PCOD8226038
_publ_section_title
;
Structure prediction by ZEFSAII (Michael W. Deem and Ramdas Pophale) SiO2 
 PCOD8226038
Probable space group: P B A M
;
_chemical_formula_sum "Si O2"
_cell_formula_units_Z 56
_cell_length_a 23.188153
_cell_length_b 13.385591
_cell_length_c 9.053229
_cell_angle_alpha 90.000000
_cell_angle_beta 90.000000
_cell_angle_gamma 90.000000
_cell_volume 2810.005786
_symmetry_space_group_name_H-M "P B A M"
_symmetry_group_IT_number 55
_symmetry_cell_setting 'orthorhombic'
loop_
_space_group_symop_operation_xyz
x,y,z
-x,-y,z
1/2+x,1/2-y,-z
1/2-x,1/2+y,-z
-x,-y,-z
x,y,-z
1/2-x,1/2+y,z
1/2+x,1/2-y,z
loop_
_atom_site_type_symbol
_atom_site_label
_atom_site_fract_x
_atom_site_fract_y
_atom_site_fract_z
Si Si1 0.623595 0.315312 0.162325
Si Si2 0.477185 0.610552 0.669597
Si Si3 0.669398 0.032222 0.667749
Si Si4 0.957113 0.285979 0.174147
Si Si5 0.663569 0.806875 0.669186
Si Si6 0.734211 0.204537 0.174874
Si Si7 0.565573 0.100587 0.837773
O O1 0.589578 0.386433 0.275930
O O2 0.688732 0.292372 0.216438
O O3 0.591292 0.210744 0.151208
O O4 0.624484 0.366107 0.000000
O O5 0.500000 0.500000 0.692676
O O6 0.479293 0.644243 0.500000
O O7 0.516688 0.683647 0.764306
O O8 0.671834 0.071605 0.500000
O O9 0.711781 0.097686 0.767998
O O10 0.602600 0.037289 0.721414
O O11 0.690048 0.917993 0.678982
O O12 0.897089 0.306344 0.250447
O O13 0.998493 0.382557 0.208743
O O14 0.948962 0.272762 0.000000
O O15 0.655473 0.773329 0.500000
O O16 0.705527 0.728854 0.748597
O O17 0.742444 0.196155 0.000000
O O18 0.569561 0.049034 0.000000
#
# Coordination Sequence:
#
# PCOD8226038 Si02
#       7
#     8   8   8   8   8   8   8
#     4   8  16  32  54  79 105 140 186 232 276 329
#     4  10  20  34  54  83 116 151 189 234 289 346
#     4  10  21  37  59  86 114 150 190 234 291 348
#     4  10  21  37  57  82 114 152 190 236 290 338
#     4  11  24  40  58  84 119 154 191 239 292 346
#     4  10  21  39  61  83 110 148 194 241 286 340
#     4   8  16  32  55  82 111 143 182 227 275 333
#
# _framework density 19.928784
#
# number of rings (size 3 to 8) (size 9 to 14) (size 15 to 20)
#    0.000    2.429    0.000    3.857    0.000   10.286 
#    2.571    2.857    0.000    0.000    0.000    0.000 
#    0.000    0.000    0.000    0.000    0.000    0.000 
#
# Total GULP energy -694280.433794 kJ/mol
# GULP energy per Si atom -12397.864889 kJ/mol
# Density = 1.988343 g / cm^3
# Si number density = 19.928784 Si / 1000 Ang^3
#
#
#
# Elastic Constant Matrix: (Units=GPa)
#
#
# Indices 1 2 3 4 5 6 
#
# 1 97.8001 15.7976 43.9587 0.0000 0.0000 0.0000
# 2 15.7976 43.1661 36.6847 0.0000 0.0000 0.0000
# 3 43.9587 36.6847 124.7551 0.0000 0.0000 0.0000
# 4 0.0000 0.0000 0.0000 13.4756 0.0000 0.0000
# 5 0.0000 0.0000 0.0000 0.0000 9.6096 0.0000
# 6 0.0000 0.0000 0.0000 0.0000 0.0000 24.3677
#
#
#
# Elastic Compliance Matrix: (Units=1/GPa)
#
#
# Indices 1 2 3 4 5 6 
#
# 1 0.012187 -0.001081 -0.003976 0.000000 0.000000 0.000000
# 2 -0.001081 0.030980 -0.008729 0.000000 0.000000 0.000000
# 3 -0.003976 -0.008729 0.011984 0.000000 0.000000 0.000000
# 4 0.000000 0.000000 0.000000 0.074208 0.000000 0.000000
# 5 0.000000 0.000000 0.000000 0.000000 0.104063 0.000000
# 6 0.000000 0.000000 0.000000 0.000000 0.000000 0.041038
#
#
# Mechanical properties :
#
#
# Convention : Reuss Voigt Hill
#
# Bulk Modulus (GPa) = 36.26033 50.95594 43.60814
# Shear Modulus (GPa) = 16.06555 20.77592 18.42073
#
# Velocity S-wave (km/s) = 2.84235 3.23229 3.04357
# Velocity P-wave (km/s) = 5.38576 6.28926 5.85497
#
# Compressibility (1/GPa) = 0.02757835
#
# Stress axis : x y z
#
# Youngs Moduli (GPa) = 82.05626 32.27867 83.44731
#
# Poissons Ratio (x) = 0.03489 0.33181
# Poissons Ratio (y) = 0.08868 0.72842
# Poissons Ratio (z) = 0.32628 0.28176
#
# Static dielectric constant tensor:
#      x y z
#    x 3.937230 0.000000 0.000000 
#    y 0.000000 3.364580 0.000000 
#    z 0.000000 0.000000 3.762560 
# 
# 
# High freq. dielectric constant tensor:
#      x y z
#    x 1.777950 0.000000 0.000000 
#    y 0.000000 1.756670 0.000000 
#    z 0.000000 0.000000 1.786040 
# 
# From -- ./inp_files/8701.got.cif
#   From: 2010.03.12/outbox.cif.g09.slc.cpg/sg55_5_cif.got.tgz:8701.got - 2010.04.16 15:19:21.
