data_PCOD8226883
_publ_section_title
;
Structure prediction by ZEFSAII (Michael W. Deem and Ramdas Pophale) SiO2 
 PCOD8226883
Probable space group: P B A M
;
_chemical_formula_sum "Si O2"
_cell_formula_units_Z 48
_cell_length_a 18.075561
_cell_length_b 5.204378
_cell_length_c 23.716745
_cell_angle_alpha 90.000000
_cell_angle_beta 90.000000
_cell_angle_gamma 90.000000
_cell_volume 2231.082869
_symmetry_space_group_name_H-M "P B A M"
_symmetry_group_IT_number 55
_symmetry_cell_setting 'orthorhombic'
loop_
_space_group_symop_operation_xyz
x,y,z
-x,-y,z
1/2+x,1/2-y,-z
1/2-x,1/2+y,-z
-x,-y,-z
x,y,-z
1/2-x,1/2+y,z
1/2+x,1/2-y,z
loop_
_atom_site_type_symbol
_atom_site_label
_atom_site_fract_x
_atom_site_fract_y
_atom_site_fract_z
Si Si1 0.453771 0.249716 0.933589
Si Si2 0.703634 0.003283 0.435261
Si Si3 0.277176 0.645069 0.222670
Si Si4 0.785629 0.281888 0.098281
Si Si5 0.584205 0.016369 0.342549
Si Si6 0.917019 0.015938 0.271968
O O1 0.500000 0.500000 0.914489
O O2 0.374121 0.239780 0.903516
O O3 0.500000 0.000000 0.915131
O O4 0.439031 0.253519 0.000000
O O5 0.677927 0.986354 0.500000
O O6 0.738767 0.278255 0.421236
O O7 0.631929 0.963158 0.397465
O O8 0.231020 0.419052 0.255317
O O9 0.242385 0.725259 0.162661
O O10 0.362338 0.550838 0.219810
O O11 0.753831 0.537502 0.068036
O O12 0.599029 0.302437 0.319433
O O13 0.500000 0.000000 0.362739
O O14 0.599995 0.799204 0.295272
O O15 0.000000 0.000000 0.247986
#
# Coordination Sequence:
#
# PCOD8226883 Si02
#       6
#     8   8   8   8   8   8
#     4  10  21  38  61  89 121 158 198 241 293 348
#     4  10  21  36  54  80 112 144 180 222 274 336
#     4  10  21  37  55  80 111 145 187 231 280 336
#     4  10  21  38  58  86 119 152 194 241 290 347
#     4  10  21  36  56  82 108 142 185 228 279 331
#     4  10  21  37  56  79 109 142 184 235 280 332
#
# _framework density 21.514216000000001
#
# number of rings (size 3 to 8) (size 9 to 14) (size 15 to 20)
#    0.000    2.000    0.000    3.000    0.000    5.000 
#    0.000   10.000    0.000    6.000    0.000    0.000 
#    0.000    0.000    0.000    0.000    0.000    0.000 
#
# Total GULP energy -594911.307475 kJ/mol
# GULP energy per Si atom -12393.985572 kJ/mol
# Density = 2.146525 g / cm^3
# Si number density = 21.514216 Si / 1000 Ang^3
#
#
#
# Elastic Constant Matrix: (Units=GPa)
#
#
# Indices 1 2 3 4 5 6 
#
# 1 165.8066 58.6243 56.7376 0.0000 0.0000 0.0000
# 2 58.6243 177.2144 11.1039 0.0000 0.0000 0.0000
# 3 56.7376 11.1039 46.4178 0.0000 0.0000 0.0000
# 4 0.0000 0.0000 0.0000 12.0338 0.0000 0.0000
# 5 0.0000 0.0000 0.0000 0.0000 37.8034 0.0000
# 6 0.0000 0.0000 0.0000 0.0000 0.0000 37.2331
#
#
#
# Elastic Compliance Matrix: (Units=1/GPa)
#
#
# Indices 1 2 3 4 5 6 
#
# 1 0.011789 -0.003043 -0.013682 0.000000 0.000000 0.000000
# 2 -0.003043 0.006514 0.002161 0.000000 0.000000 0.000000
# 3 -0.013682 0.002161 0.037750 0.000000 0.000000 0.000000
# 4 0.000000 0.000000 0.000000 0.083099 0.000000 0.000000
# 5 0.000000 0.000000 0.000000 0.000000 0.026453 0.000000
# 6 0.000000 0.000000 0.000000 0.000000 0.000000 0.026858
#
#
# Mechanical properties :
#
#
# Convention : Reuss Voigt Hill
#
# Bulk Modulus (GPa) = 37.13932 71.37450 54.25691
# Shear Modulus (GPa) = 21.68590 34.94561 28.31576
#
# Velocity S-wave (km/s) = 3.17831 4.03464 3.63180
# Velocity P-wave (km/s) = 5.54699 7.41296 6.54679
#
# Compressibility (1/GPa) = 0.02692564
#
# Stress axis : x y z
#
# Youngs Moduli (GPa) = 84.82743 153.51554 26.49001
#
# Poissons Ratio (x) = 0.46708 0.36243
# Poissons Ratio (y) = 0.25809 -0.05724
# Poissons Ratio (z) = 1.16059 -0.33170
#
# Static dielectric constant tensor:
#      x y z
#    x 3.957480 0.000000 0.000000 
#    y 0.000000 5.057770 0.000000 
#    z 0.000000 0.000000 3.434640 
# 
# 
# High freq. dielectric constant tensor:
#      x y z
#    x 1.853300 0.000000 0.000000 
#    y 0.000000 1.884630 0.000000 
#    z 0.000000 0.000000 1.803020 
# 
# From -- ./inp_files/23645.got.cif
#   From: 2010.03.12/outbox.cif.g09.slc.cpg/sg55_12_cif.got.tgz:23645.got - 2010.04.16 15:19:21.
