data_PCOD8226061
_publ_section_title
;
Structure prediction by ZEFSAII (Michael W. Deem and Ramdas Pophale) SiO2 
 PCOD8226061
Probable space group: P B A M
;
_chemical_formula_sum "Si O2"
_cell_formula_units_Z 64
_cell_length_a 12.797623
_cell_length_b 27.727232
_cell_length_c 9.295948
_cell_angle_alpha 90.000000
_cell_angle_beta 90.000000
_cell_angle_gamma 90.000000
_cell_volume 3298.598934
_symmetry_space_group_name_H-M "P B A M"
_symmetry_group_IT_number 55
_symmetry_cell_setting 'orthorhombic'
loop_
_space_group_symop_operation_xyz
x,y,z
-x,-y,z
1/2+x,1/2-y,-z
1/2-x,1/2+y,-z
-x,-y,-z
x,y,-z
1/2-x,1/2+y,z
1/2+x,1/2-y,z
loop_
_atom_site_type_symbol
_atom_site_label
_atom_site_fract_x
_atom_site_fract_y
_atom_site_fract_z
Si Si1 0.359237 0.135778 0.336594
Si Si2 0.308068 0.694721 0.829462
Si Si3 0.244172 0.537935 0.662729
Si Si4 0.757759 0.199109 0.829257
Si Si5 0.529105 0.654250 0.169247
Si Si6 0.603805 0.025874 0.835996
Si Si7 0.050146 0.051142 0.168866
Si Si8 0.064383 0.362397 0.165044
O O1 0.360022 0.155048 0.500000
O O2 0.261653 0.156150 0.250848
O O3 0.347104 0.077999 0.333016
O O4 0.465469 0.151983 0.260227
O O5 0.267674 0.746880 0.778270
O O6 0.427661 0.684763 0.780456
O O7 0.296266 0.687658 0.000000
O O8 0.275513 0.524906 0.500000
O O9 0.201982 0.490085 0.740352
O O10 0.343947 0.558327 0.744835
O O11 0.866920 0.178956 0.762470
O O12 0.663128 0.166293 0.773103
O O13 0.762874 0.196425 0.000000
O O14 0.522270 0.597231 0.211059
O O15 0.538738 0.658458 0.000000
O O16 0.592275 0.082242 0.820283
O O17 0.500000 0.000000 0.778627
O O18 0.626352 0.010282 0.000000
O O19 0.075740 0.051938 0.000000
O O20 0.000000 0.000000 0.214046
O O21 0.039102 0.348348 0.000000
#
# Coordination Sequence:
#
# PCOD8226061 Si02
#       8
#     8   8   8   8   8   8   8   8
#     4  11  23  38  57  83 117 154 194 240 287 344
#     4  10  20  36  62  87 111 146 190 242 291 346
#     4  11  23  37  55  80 115 155 193 235 284 345
#     4   9  20  35  58  90 117 145 188 241 296 345
#     4   9  18  34  55  87 120 143 182 239 291 341
#     4  10  20  34  55  84 115 147 188 236 284 338
#     4  10  21  36  59  84 111 150 192 238 289 340
#     4  10  21  37  60  87 117 153 193 242 290 343
#
# _framework density 19.402177999999999
#
# number of rings (size 3 to 8) (size 9 to 14) (size 15 to 20)
#    0.000    2.000    2.500    0.750    3.500    2.000 
#    0.000    0.625    0.000    1.500    0.000    0.000 
#    0.000    0.000    0.000    0.000    0.000    0.000 
#
# Total GULP energy -793568.897334 kJ/mol
# GULP energy per Si atom -12399.514021 kJ/mol
# Density = 1.935802 g / cm^3
# Si number density = 19.402178 Si / 1000 Ang^3
#
#
#
# Elastic Constant Matrix: (Units=GPa)
#
#
# Indices 1 2 3 4 5 6 
#
# 1 136.3000 47.6721 41.8075 0.0000 0.0000 0.0000
# 2 47.6721 93.8335 26.2740 0.0000 0.0000 0.0000
# 3 41.8075 26.2740 58.6488 0.0000 0.0000 0.0000
# 4 0.0000 0.0000 0.0000 6.1590 0.0000 0.0000
# 5 0.0000 0.0000 0.0000 0.0000 -8.3428 0.0000
# 6 0.0000 0.0000 0.0000 0.0000 0.0000 36.2682
#
#
#
# Elastic Compliance Matrix: (Units=1/GPa)
#
#
# Indices 1 2 3 4 5 6 
#
# 1 0.010385 -0.003663 -0.005762 0.000000 0.000000 0.000000
# 2 -0.003663 0.013478 -0.003427 0.000000 0.000000 0.000000
# 3 -0.005762 -0.003427 0.022693 0.000000 0.000000 0.000000
# 4 0.000000 0.000000 0.000000 0.162363 0.000000 0.000000
# 5 0.000000 0.000000 0.000000 0.000000 -0.119864 0.000000
# 6 0.000000 0.000000 0.000000 0.000000 0.000000 0.027572
#
#
# Mechanical properties :
#
#
# Convention : Reuss Voigt Hill
#
# Bulk Modulus (GPa) = 47.95553 57.80993 52.88273
# Shear Modulus (GPa) = 33.49339 18.35212 25.92276
#
# Velocity S-wave (km/s) = 4.15935 3.07885 3.65920
# Velocity P-wave (km/s) = 6.91644 6.51915 6.72073
#
# Compressibility (1/GPa) = 0.02085265
#
# Stress axis : x y z
#
# Youngs Moduli (GPa) = 96.28985 74.19726 44.06568
#
# Poissons Ratio (x) = 0.27177 0.25392
# Poissons Ratio (y) = 0.35269 0.15100
# Poissons Ratio (z) = 0.55484 0.25426
#
# Static dielectric constant tensor:
#      x y z
#    x 3.789390 0.000000 0.000000 
#    y 0.000000 3.676810 0.000000 
#    z 0.000000 0.000000 3.247230 
# 
# 
# High freq. dielectric constant tensor:
#      x y z
#    x 1.761780 0.000000 0.000000 
#    y 0.000000 1.761110 0.000000 
#    z 0.000000 0.000000 1.717860 
# 
# From -- ./inp_files/4490.got.cif
#   From: 2010.03.12/outbox.cif.g09.slc.cpg/sg55_3_cif.got.tgz:4490.got - 2010.04.16 15:19:21.
