data_PCOD8226631
_publ_section_title
;
Structure prediction by ZEFSAII (Michael W. Deem and Ramdas Pophale) SiO2 
 PCOD8226631
Probable space group: P B A M
;
_chemical_formula_sum "Si O2"
_cell_formula_units_Z 64
_cell_length_a 12.815317
_cell_length_b 27.848356
_cell_length_c 9.141660
_cell_angle_alpha 90.000000
_cell_angle_beta 90.000000
_cell_angle_gamma 90.000000
_cell_volume 3262.525992
_symmetry_space_group_name_H-M "P B A M"
_symmetry_group_IT_number 55
_symmetry_cell_setting 'orthorhombic'
loop_
_space_group_symop_operation_xyz
x,y,z
-x,-y,z
1/2+x,1/2-y,-z
1/2-x,1/2+y,-z
-x,-y,-z
x,y,-z
1/2-x,1/2+y,z
1/2+x,1/2-y,z
loop_
_atom_site_type_symbol
_atom_site_label
_atom_site_fract_x
_atom_site_fract_y
_atom_site_fract_z
Si Si1 0.807815 0.697845 0.826884
Si Si2 0.025808 0.653319 0.826813
Si Si3 0.247536 0.956308 0.337999
Si Si4 0.545749 0.050142 0.173111
Si Si5 0.259390 0.197137 0.826580
Si Si6 0.590676 0.463889 0.666310
Si Si7 0.362687 0.361396 0.333497
Si Si8 0.569323 0.367525 0.172442
O O1 0.770917 0.749947 0.770695
O O2 0.737797 0.659734 0.744552
O O3 0.927470 0.686606 0.781942
O O4 0.792759 0.692148 0.000000
O O5 0.130222 0.678185 0.760793
O O6 0.013949 0.598111 0.768450
O O7 0.034920 0.651160 0.000000
O O8 0.297729 0.951229 0.500000
O O9 0.333998 0.945770 0.217438
O O10 0.151079 0.918975 0.324307
O O11 0.201347 0.009374 0.317066
O O12 0.500000 0.000000 0.238283
O O13 0.539982 0.048950 0.000000
O O14 0.168281 0.162338 0.772130
O O15 0.266257 0.197350 0.000000
O O16 0.500000 0.500000 0.709964
O O17 0.575128 0.444518 0.500000
O O18 0.590730 0.421792 0.782986
O O19 0.369693 0.343192 0.500000
O O20 0.467253 0.345858 0.249942
O O21 0.552608 0.363376 0.000000
#
# Coordination Sequence:
#
# PCOD8226631 Si02
#       8
#     8   8   8   8   8   8   8   8
#     4  10  20  37  64  89 110 147 197 244 288 351
#     4   9  18  35  56  84 119 149 183 235 293 343
#     4  10  21  37  57  79 111 155 196 232 285 349
#     4  10  21  35  56  83 114 150 186 236 294 339
#     4   9  21  37  58  88 121 152 188 241 303 351
#     4  10  20  38  57  78 115 159 189 227 294 350
#     4  11  22  39  60  84 118 156 192 244 298 347
#     4  11  23  37  59  90 118 154 201 246 291 351
#
# _framework density 19.616702
#
# number of rings (size 3 to 8) (size 9 to 14) (size 15 to 20)
#    0.000    2.000    2.500    0.750    3.500    1.500 
#    0.000    1.250    0.000    2.250    0.000    0.000 
#    0.000    0.000    0.000    0.000    0.000    0.000 
#
# Total GULP energy -793524.055123 kJ/mol
# GULP energy per Si atom -12398.813361 kJ/mol
# Density = 1.957205 g / cm^3
# Si number density = 19.616702 Si / 1000 Ang^3
#
#
#
# Elastic Constant Matrix: (Units=GPa)
#
#
# Indices 1 2 3 4 5 6 
#
# 1 141.6647 52.5596 35.5673 0.0000 0.0000 0.0000
# 2 52.5596 104.4338 24.7701 0.0000 0.0000 0.0000
# 3 35.5673 24.7701 43.5343 0.0000 0.0000 0.0000
# 4 0.0000 0.0000 0.0000 5.9670 0.0000 0.0000
# 5 0.0000 0.0000 0.0000 0.0000 17.2591 0.0000
# 6 0.0000 0.0000 0.0000 0.0000 0.0000 32.5242
#
#
#
# Elastic Compliance Matrix: (Units=1/GPa)
#
#
# Indices 1 2 3 4 5 6 
#
# 1 0.009897 -0.003541 -0.006071 0.000000 0.000000 0.000000
# 2 -0.003541 0.012336 -0.004126 0.000000 0.000000 0.000000
# 3 -0.006071 -0.004126 0.030278 0.000000 0.000000 0.000000
# 4 0.000000 0.000000 0.000000 0.167589 0.000000 0.000000
# 5 0.000000 0.000000 0.000000 0.000000 0.057941 0.000000
# 6 0.000000 0.000000 0.000000 0.000000 0.000000 0.030746
#
#
# Mechanical properties :
#
#
# Convention : Reuss Voigt Hill
#
# Bulk Modulus (GPa) = 39.94398 57.26963 48.60680
# Shear Modulus (GPa) = 14.50924 22.93243 18.72083
#
# Velocity S-wave (km/s) = 2.72258 3.42281 3.09258
# Velocity P-wave (km/s) = 5.50360 6.69915 6.13059
#
# Compressibility (1/GPa) = 0.02503506
#
# Stress axis : x y z
#
# Youngs Moduli (GPa) = 101.04183 81.06229 33.02727
#
# Poissons Ratio (x) = 0.28704 0.20051
# Poissons Ratio (y) = 0.35779 0.13627
# Poissons Ratio (z) = 0.61342 0.33447
#
# Static dielectric constant tensor:
#      x y z
#    x 3.671940 0.000000 0.000000 
#    y 0.000000 3.836100 0.000000 
#    z 0.000000 0.000000 3.214750 
# 
# 
# High freq. dielectric constant tensor:
#      x y z
#    x 1.772280 0.000000 0.000000 
#    y 0.000000 1.770650 0.000000 
#    z 0.000000 0.000000 1.730510 
# 
# From -- ./inp_files/4529.got.cif
#   From: 2010.03.12/outbox.cif.g09.slc.cpg/sg55_3_cif.got.tgz:4529.got - 2010.04.16 15:19:21.
