data_PCOD8226916
_publ_section_title
;
Structure prediction by ZEFSAII (Michael W. Deem and Ramdas Pophale) SiO2 
 PCOD8226916
Probable space group: P B A M
;
_chemical_formula_sum "Si O2"
_cell_formula_units_Z 64
_cell_length_a 9.556678
_cell_length_b 17.156458
_cell_length_c 20.178830
_cell_angle_alpha 90.000000
_cell_angle_beta 90.000000
_cell_angle_gamma 90.000000
_cell_volume 3308.495637
_symmetry_space_group_name_H-M "P B A M"
_symmetry_group_IT_number 55
_symmetry_cell_setting 'orthorhombic'
loop_
_space_group_symop_operation_xyz
x,y,z
-x,-y,z
1/2+x,1/2-y,-z
1/2-x,1/2+y,-z
-x,-y,-z
x,y,-z
1/2-x,1/2+y,z
1/2+x,1/2-y,z
loop_
_atom_site_type_symbol
_atom_site_label
_atom_site_fract_x
_atom_site_fract_y
_atom_site_fract_z
Si Si1 0.971898 0.656949 0.784497
Si Si2 0.792839 0.811670 0.787803
Si Si3 0.746876 0.294399 0.929920
Si Si4 0.624362 0.048987 0.667812
Si Si5 0.439141 0.670621 0.423487
Si Si6 0.878817 0.941421 0.309335
Si Si7 0.238304 0.317221 0.423665
Si Si8 0.549587 0.156851 0.071066
O O1 0.859612 0.726558 0.777221
O O2 0.937763 0.592209 0.731097
O O3 0.957274 0.613561 0.857313
O O4 0.127497 0.690702 0.770578
O O5 0.810799 0.838959 0.864867
O O6 0.877784 0.871906 0.743292
O O7 0.690435 0.206654 0.929709
O O8 0.914802 0.286115 0.927322
O O9 0.702590 0.335976 0.000000
O O10 0.691136 0.106697 0.615075
O O11 0.500000 0.000000 0.633056
O O12 0.735415 0.987254 0.693560
O O13 0.407607 0.650982 0.500000
O O14 0.405607 0.592936 0.382658
O O15 0.598116 0.697657 0.412810
O O16 0.342050 0.740970 0.397137
O O17 0.000000 0.000000 0.288648
O O18 0.200404 0.331605 0.500000
O O19 0.545243 0.107999 0.000000
#
# Coordination Sequence:
#
# PCOD8226916 Si02
#       8
#     8   8   8   8   8   8   8   8
#     4  10  21  36  57  83 115 150 189 237 282 334
#     4  10  21  36  57  84 113 149 191 235 283 337
#     4   8  14  27  49  77 106 138 180 232 281 326
#     4  12  25  40  58  83 119 155 188 233 280 331
#     4  10  23  43  66  89 115 146 186 233 280 335
#     4  12  25  40  59  84 114 155 192 230 280 333
#     4  10  23  43  65  89 115 147 187 231 280 336
#     4   8  14  27  49  77 106 138 182 232 280 326
#
# _framework density 19.344139999999999
#
# number of rings (size 3 to 8) (size 9 to 14) (size 15 to 20)
#    0.000    2.000    2.500    0.750    3.500    3.000 
#    0.000    0.000    0.000    1.500    0.000    0.000 
#    0.000    0.000    0.000    0.000    0.000    0.000 
#
# Total GULP energy -792975.004981 kJ/mol
# GULP energy per Si atom -12390.234453 kJ/mol
# Density = 1.930011 g / cm^3
# Si number density = 19.344140 Si / 1000 Ang^3
#
#
#
# Elastic Constant Matrix: (Units=GPa)
#
#
# Indices 1 2 3 4 5 6 
#
# 1 87.3553 27.0772 24.9261 0.0000 0.0000 0.0000
# 2 27.0772 64.4604 35.2272 0.0000 0.0000 0.0000
# 3 24.9261 35.2272 91.5522 0.0000 0.0000 0.0000
# 4 0.0000 0.0000 0.0000 7.4929 0.0000 0.0000
# 5 0.0000 0.0000 0.0000 0.0000 23.4039 0.0000
# 6 0.0000 0.0000 0.0000 0.0000 0.0000 35.2105
#
#
#
# Elastic Compliance Matrix: (Units=1/GPa)
#
#
# Indices 1 2 3 4 5 6 
#
# 1 0.013412 -0.004607 -0.001879 0.000000 0.000000 0.000000
# 2 -0.004607 0.021227 -0.006913 0.000000 0.000000 0.000000
# 3 -0.001879 -0.006913 0.014094 0.000000 0.000000 0.000000
# 4 0.000000 0.000000 0.000000 0.133460 0.000000 0.000000
# 5 0.000000 0.000000 0.000000 0.000000 0.042728 0.000000
# 6 0.000000 0.000000 0.000000 0.000000 0.000000 0.028401
#
#
# Mechanical properties :
#
#
# Convention : Reuss Voigt Hill
#
# Bulk Modulus (GPa) = 45.59008 46.42544 46.00776
# Shear Modulus (GPa) = 17.39553 23.63061 20.51307
#
# Velocity S-wave (km/s) = 3.00203 3.49892 3.25995
# Velocity P-wave (km/s) = 5.96953 6.35414 6.16484
#
# Compressibility (1/GPa) = 0.02193460
#
# Stress axis : x y z
#
# Youngs Moduli (GPa) = 74.56232 47.11072 70.95061
#
# Poissons Ratio (x) = 0.21703 0.13330
# Poissons Ratio (y) = 0.34350 0.49050
# Poissons Ratio (z) = 0.14009 0.32569
#
# Static dielectric constant tensor:
#      x y z
#    x 3.693450 0.000000 0.000000 
#    y 0.000000 3.173550 0.000000 
#    z 0.000000 0.000000 4.004930 
# 
# 
# High freq. dielectric constant tensor:
#      x y z
#    x 1.767350 0.000000 0.000000 
#    y 0.000000 1.708480 0.000000 
#    z 0.000000 0.000000 1.776770 
# 
# From -- ./inp_files/22703.got.cif
#   From: 2010.03.12/outbox.cif.g09.slc.cpg/sg55_12_cif.got.tgz:22703.got - 2010.04.16 15:19:21.
