data_PCOD8226660
_publ_section_title
;
Structure prediction by ZEFSAII (Michael W. Deem and Ramdas Pophale) SiO2 
 PCOD8226660
Probable space group: P B A M
;
_chemical_formula_sum "Si O2"
_cell_formula_units_Z 64
_cell_length_a 23.205629
_cell_length_b 15.060934
_cell_length_c 9.156513
_cell_angle_alpha 90.000000
_cell_angle_beta 90.000000
_cell_angle_gamma 90.000000
_cell_volume 3200.187072
_symmetry_space_group_name_H-M "P B A M"
_symmetry_group_IT_number 55
_symmetry_cell_setting 'orthorhombic'
loop_
_space_group_symop_operation_xyz
x,y,z
-x,-y,z
1/2+x,1/2-y,-z
1/2-x,1/2+y,-z
-x,-y,-z
x,y,-z
1/2-x,1/2+y,z
1/2+x,1/2-y,z
loop_
_atom_site_type_symbol
_atom_site_label
_atom_site_fract_x
_atom_site_fract_y
_atom_site_fract_z
Si Si1 0.691274 0.801278 0.327552
Si Si2 0.786884 0.501607 0.331290
Si Si3 0.174293 0.007026 0.167861
Si Si4 0.552373 0.559225 0.828274
Si Si5 0.372537 0.844609 0.336145
Si Si6 0.922693 0.256496 0.171916
Si Si7 0.497584 0.100528 0.666269
Si Si8 0.195746 0.211940 0.832926
O O1 0.686298 0.786378 0.500000
O O2 0.691490 0.904702 0.281616
O O3 0.639388 0.751200 0.247894
O O4 0.750571 0.759565 0.268228
O O5 0.770424 0.500274 0.500000
O O6 0.729489 0.534840 0.248691
O O7 0.839644 0.565441 0.293310
O O8 0.175905 0.111926 0.189948
O O9 0.114158 0.972072 0.236565
O O10 0.179139 0.978337 0.000000
O O11 0.500000 0.500000 0.760143
O O12 0.543794 0.663997 0.793661
O O13 0.553886 0.541255 0.000000
O O14 0.355035 0.814945 0.500000
O O15 0.439838 0.858539 0.326117
O O16 0.358243 0.769730 0.218639
O O17 0.956601 0.340636 0.233621
O O18 0.914101 0.268994 0.000000
O O19 0.473317 0.100893 0.500000
O O20 0.500000 0.000000 0.726118
O O21 0.211470 0.231935 0.000000
#
# Coordination Sequence:
#
# PCOD8226660 Si02
#       8
#     8   8   8   8   8   8   8   8
#     4  10  20  38  61  83 117 157 193 234 292 354
#     4   9  19  36  58  84 112 149 189 232 285 347
#     4   9  19  36  58  82 110 149 191 232 286 346
#     4   9  20  38  59  81 113 156 195 237 294 356
#     4  10  21  36  57  84 114 150 193 235 286 353
#     4  11  23  37  61  93 122 151 198 252 297 350
#     4  10  22  42  64  85 117 161 203 241 293 360
#     4  10  21  35  56  86 117 148 190 241 292 347
#
# _framework density 19.998830999999999
#
# number of rings (size 3 to 8) (size 9 to 14) (size 15 to 20)
#    0.000    2.250    0.000    1.875    3.500    4.250 
#    0.000    1.875    0.000    1.875    0.000    0.000 
#    0.000    0.000    0.000    0.000    0.000    0.000 
#
# Total GULP energy -793693.820368 kJ/mol
# GULP energy per Si atom -12401.465943 kJ/mol
# Density = 1.995331 g / cm^3
# Si number density = 19.998831 Si / 1000 Ang^3
#
#
#
# Elastic Constant Matrix: (Units=GPa)
#
#
# Indices 1 2 3 4 5 6 
#
# 1 84.0588 24.5277 33.1848 0.0000 0.0000 0.0000
# 2 24.5277 69.2950 38.8916 0.0000 0.0000 0.0000
# 3 33.1848 38.8916 72.1277 0.0000 0.0000 0.0000
# 4 0.0000 0.0000 0.0000 22.1407 0.0000 0.0000
# 5 0.0000 0.0000 0.0000 0.0000 31.6175 0.0000
# 6 0.0000 0.0000 0.0000 0.0000 0.0000 33.5703
#
#
#
# Elastic Compliance Matrix: (Units=1/GPa)
#
#
# Indices 1 2 3 4 5 6 
#
# 1 0.014732 -0.002022 -0.005687 0.000000 0.000000 0.000000
# 2 -0.002022 0.020971 -0.010377 0.000000 0.000000 0.000000
# 3 -0.005687 -0.010377 0.022076 0.000000 0.000000 0.000000
# 4 0.000000 0.000000 0.000000 0.045166 0.000000 0.000000
# 5 0.000000 0.000000 0.000000 0.000000 0.031628 0.000000
# 6 0.000000 0.000000 0.000000 0.000000 0.000000 0.029788
#
#
# Mechanical properties :
#
#
# Convention : Reuss Voigt Hill
#
# Bulk Modulus (GPa) = 46.28504 46.52109 46.40307
# Shear Modulus (GPa) = 24.06887 26.05752 25.06320
#
# Velocity S-wave (km/s) = 3.47293 3.61356 3.54394
# Velocity P-wave (km/s) = 6.26704 6.38144 6.32450
#
# Compressibility (1/GPa) = 0.02160525
#
# Stress axis : x y z
#
# Youngs Moduli (GPa) = 67.88019 47.68462 45.29722
#
# Poissons Ratio (x) = 0.09644 0.25762
# Poissons Ratio (y) = 0.13729 0.47006
# Poissons Ratio (z) = 0.38606 0.49483
#
# Static dielectric constant tensor:
#      x y z
#    x 3.801540 0.000000 0.000000 
#    y 0.000000 3.653710 0.000000 
#    z 0.000000 0.000000 3.526350 
# 
# 
# High freq. dielectric constant tensor:
#      x y z
#    x 1.787400 0.000000 0.000000 
#    y 0.000000 1.784570 0.000000 
#    z 0.000000 0.000000 1.762470 
# 
# From -- ./inp_files/9741.got.cif
#   From: 2010.03.12/outbox.cif.g09.slc.cpg/sg55_5_cif.got.tgz:9741.got - 2010.04.16 15:19:21.
