data_PCOD8226327
_publ_section_title
;
Structure prediction by ZEFSAII (Michael W. Deem and Ramdas Pophale) SiO2 
 PCOD8226327
Probable space group: P B A M
;
_chemical_formula_sum "Si O2"
_cell_formula_units_Z 64
_cell_length_a 16.292832
_cell_length_b 13.610318
_cell_length_c 14.943029
_cell_angle_alpha 90.000000
_cell_angle_beta 90.000000
_cell_angle_gamma 90.000000
_cell_volume 3313.626015
_symmetry_space_group_name_H-M "P B A M"
_symmetry_group_IT_number 55
_symmetry_cell_setting 'orthorhombic'
loop_
_space_group_symop_operation_xyz
x,y,z
-x,-y,z
1/2+x,1/2-y,-z
1/2-x,1/2+y,-z
-x,-y,-z
x,y,-z
1/2-x,1/2+y,z
1/2+x,1/2-y,z
loop_
_atom_site_type_symbol
_atom_site_label
_atom_site_fract_x
_atom_site_fract_y
_atom_site_fract_z
Si Si1 0.234954 0.984957 0.667214
Si Si2 0.164435 0.545500 0.831008
Si Si3 0.484293 0.157932 0.253729
Si Si4 0.609723 0.158525 0.899994
Si Si5 0.888223 0.630481 0.399863
Si Si6 0.220039 0.746364 0.100492
Si Si7 0.851759 0.200509 0.280927
Si Si8 0.722822 0.307630 0.601326
O O1 0.311701 0.942265 0.612218
O O2 0.161359 0.905021 0.673069
O O3 0.263088 0.009822 0.766808
O O4 0.198573 0.078910 0.616106
O O5 0.086467 0.581628 0.773279
O O6 0.137228 0.454546 0.891529
O O7 0.201212 0.630453 0.893558
O O8 0.537723 0.185924 0.167669
O O9 0.539704 0.107249 0.329990
O O10 0.444320 0.259122 0.291948
O O11 0.684464 0.232474 0.880145
O O12 0.575633 0.173947 0.000000
O O13 0.923081 0.617484 0.500000
O O14 0.857659 0.741744 0.382189
O O15 0.167551 0.804519 0.174697
O O16 0.197131 0.782747 0.000000
O O17 0.792838 0.280942 0.327451
O O18 0.755186 0.291121 0.500000
#
# Coordination Sequence:
#
# PCOD8226327 Si02
#       8
#     8   8   8   8   8   8   8   8
#     4  11  19  37  61  83 109 148 196 237 278 329
#     4  11  21  35  60  85 113 145 191 241 280 334
#     4  11  22  36  54  85 119 150 177 229 293 345
#     4  11  22  37  59  84 118 152 186 233 289 343
#     4  10  22  38  57  84 121 153 183 234 286 342
#     4  10  20  36  57  83 112 153 194 231 278 335
#     4  10  21  37  58  83 116 147 190 242 280 339
#     4  10  20  37  61  83 110 152 197 236 280 334
#
# _framework density 19.314188999999999
#
# number of rings (size 3 to 8) (size 9 to 14) (size 15 to 20)
#    0.000    1.500    5.000    1.875    0.000    4.000 
#    0.000    1.250    0.000    1.500    0.000    1.750 
#    0.000    0.000    0.000    0.000    0.000    0.000 
#
# Total GULP energy -793590.385084 kJ/mol
# GULP energy per Si atom -12399.849767 kJ/mol
# Density = 1.927023 g / cm^3
# Si number density = 19.314189 Si / 1000 Ang^3
#
#
#
# Elastic Constant Matrix: (Units=GPa)
#
#
# Indices 1 2 3 4 5 6 
#
# 1 54.0265 26.6430 17.8656 0.0000 0.0000 0.0000
# 2 26.6430 103.4398 12.9333 0.0000 0.0000 0.0000
# 3 17.8656 12.9333 91.4904 0.0000 0.0000 0.0000
# 4 0.0000 0.0000 0.0000 23.8164 0.0000 0.0000
# 5 0.0000 0.0000 0.0000 0.0000 10.7830 0.0000
# 6 0.0000 0.0000 0.0000 0.0000 0.0000 20.1034
#
#
#
# Elastic Compliance Matrix: (Units=1/GPa)
#
#
# Indices 1 2 3 4 5 6 
#
# 1 0.022315 -0.005296 -0.003609 0.000000 0.000000 0.000000
# 2 -0.005296 0.011098 -0.000535 0.000000 0.000000 0.000000
# 3 -0.003609 -0.000535 0.011710 0.000000 0.000000 0.000000
# 4 0.000000 0.000000 0.000000 0.041988 0.000000 0.000000
# 5 0.000000 0.000000 0.000000 0.000000 0.092739 0.000000
# 6 0.000000 0.000000 0.000000 0.000000 0.000000 0.049743
#
#
# Mechanical properties :
#
#
# Convention : Reuss Voigt Hill
#
# Bulk Modulus (GPa) = 38.10397 40.42670 39.26534
# Shear Modulus (GPa) = 19.43859 23.70823 21.57341
#
# Velocity S-wave (km/s) = 3.17589 3.50738 3.34574
# Velocity P-wave (km/s) = 5.76365 6.11382 5.94131
#
# Compressibility (1/GPa) = 0.02624398
#
# Stress axis : x y z
#
# Youngs Moduli (GPa) = 44.81356 90.10227 85.39431
#
# Poissons Ratio (x) = 0.47722 0.30817
# Poissons Ratio (y) = 0.23735 0.04566
# Poissons Ratio (z) = 0.16172 0.04818
#
# Static dielectric constant tensor:
#      x y z
#    x 3.354510 0.000000 0.000000 
#    y 0.000000 3.676590 0.000000 
#    z 0.000000 0.000000 3.627200 
# 
# 
# High freq. dielectric constant tensor:
#      x y z
#    x 1.722880 0.000000 0.000000 
#    y 0.000000 1.749350 0.000000 
#    z 0.000000 0.000000 1.764110 
# 
# From -- ./inp_files/19525.got.cif
#   From: 2010.03.12/outbox.cif.g09.slc.cpg/sg55_10_cif.got.tgz:19525.got - 2010.04.16 15:19:21.
