data_PCOD8226247
_publ_section_title
;
Structure prediction by ZEFSAII (Michael W. Deem and Ramdas Pophale) SiO2 
 PCOD8226247
Probable space group: P B A M
;
_chemical_formula_sum "Si O2"
_cell_formula_units_Z 64
_cell_length_a 19.693324
_cell_length_b 18.367533
_cell_length_c 9.012442
_cell_angle_alpha 90.000000
_cell_angle_beta 90.000000
_cell_angle_gamma 90.000000
_cell_volume 3259.960499
_symmetry_space_group_name_H-M "P B A M"
_symmetry_group_IT_number 55
_symmetry_cell_setting 'orthorhombic'
loop_
_space_group_symop_operation_xyz
x,y,z
-x,-y,z
1/2+x,1/2-y,-z
1/2-x,1/2+y,-z
-x,-y,-z
x,y,-z
1/2-x,1/2+y,z
1/2+x,1/2-y,z
loop_
_atom_site_type_symbol
_atom_site_label
_atom_site_fract_x
_atom_site_fract_y
_atom_site_fract_z
Si Si1 0.446397 0.058569 0.323436
Si Si2 0.621645 0.250789 0.173094
Si Si3 0.132480 0.832737 0.675483
Si Si4 0.518478 0.781358 0.324438
Si Si5 0.766644 0.635715 0.173409
Si Si6 0.299549 0.012516 0.671545
Si Si7 0.325385 0.611002 0.328921
Si Si8 0.574628 0.514580 0.676363
O O1 0.445690 0.060297 0.500000
O O2 0.467007 0.137794 0.262668
O O3 0.372475 0.035938 0.264079
O O4 0.500000 0.000000 0.261853
O O5 0.549751 0.249774 0.254122
O O6 0.663083 0.177187 0.208057
O O7 0.666502 0.317658 0.230795
O O8 0.608713 0.260588 0.000000
O O9 0.143699 0.834190 0.500000
O O10 0.081748 0.768495 0.722904
O O11 0.205048 0.819750 0.751836
O O12 0.101634 0.908427 0.735903
O O13 0.508292 0.780521 0.500000
O O14 0.770305 0.555000 0.238353
O O15 0.752366 0.631038 0.000000
O O16 0.303804 0.988399 0.500000
O O17 0.251028 0.082041 0.690072
O O18 0.341145 0.629900 0.500000
O O19 0.376592 0.549553 0.268529
O O20 0.500000 0.500000 0.742168
O O21 0.572707 0.517146 0.500000
#
# Coordination Sequence:
#
# PCOD8226247 Si02
#       8
#     8   8   8   8   8   8   8   8
#     4   9  18  33  57  90 122 147 185 246 305 352
#     4  11  25  41  57  82 120 162 201 241 293 355
#     4  10  20  36  60  88 116 150 195 247 298 348
#     4  10  21  38  63  91 115 152 201 250 306 359
#     4  11  24  40  58  83 120 164 202 237 291 358
#     4  10  20  37  62  90 117 150 195 249 301 350
#     4  10  20  35  58  87 114 149 195 242 295 348
#     4   9  16  30  53  82 113 140 174 226 282 337
#
# _framework density 19.632138999999999
#
# number of rings (size 3 to 8) (size 9 to 14) (size 15 to 20)
#    0.000    2.000    1.250    2.250    1.750    6.000 
#    0.000    0.625    0.000    3.750    0.000    0.000 
#    0.000    0.000    0.000    0.000    0.000    0.000 
#
# Total GULP energy -793833.991088 kJ/mol
# GULP energy per Si atom -12403.656111 kJ/mol
# Density = 1.958745 g / cm^3
# Si number density = 19.632139 Si / 1000 Ang^3
#
#
#
# Elastic Constant Matrix: (Units=GPa)
#
#
# Indices 1 2 3 4 5 6 
#
# 1 139.8178 37.1650 36.5435 0.0000 0.0000 0.0000
# 2 37.1650 108.6275 30.6286 0.0000 0.0000 0.0000
# 3 36.5435 30.6286 44.6909 0.0000 0.0000 0.0000
# 4 0.0000 0.0000 0.0000 19.1255 0.0000 0.0000
# 5 0.0000 0.0000 0.0000 0.0000 18.0095 0.0000
# 6 0.0000 0.0000 0.0000 0.0000 0.0000 35.2472
#
#
#
# Elastic Compliance Matrix: (Units=1/GPa)
#
#
# Indices 1 2 3 4 5 6 
#
# 1 0.009237 -0.001277 -0.006678 0.000000 0.000000 0.000000
# 2 -0.001277 0.011587 -0.006897 0.000000 0.000000 0.000000
# 3 -0.006678 -0.006897 0.032563 0.000000 0.000000 0.000000
# 4 0.000000 0.000000 0.000000 0.052286 0.000000 0.000000
# 5 0.000000 0.000000 0.000000 0.000000 0.055526 0.000000
# 6 0.000000 0.000000 0.000000 0.000000 0.000000 0.028371
#
#
# Mechanical properties :
#
#
# Convention : Reuss Voigt Hill
#
# Bulk Modulus (GPa) = 42.22327 55.75670 48.98998
# Shear Modulus (GPa) = 22.01007 27.06306 24.53656
#
# Velocity S-wave (km/s) = 3.35195 3.71685 3.53911
# Velocity P-wave (km/s) = 6.04439 6.84707 6.45821
#
# Compressibility (1/GPa) = 0.02368362
#
# Stress axis : x y z
#
# Youngs Moduli (GPa) = 108.26014 86.30026 30.70992
#
# Poissons Ratio (x) = 0.11025 0.20507
# Poissons Ratio (y) = 0.13830 0.21180
# Poissons Ratio (z) = 0.72291 0.59519
#
# Static dielectric constant tensor:
#      x y z
#    x 3.753500 0.000000 0.000000 
#    y 0.000000 3.668350 0.000000 
#    z 0.000000 0.000000 3.186460 
# 
# 
# High freq. dielectric constant tensor:
#      x y z
#    x 1.782270 0.000000 0.000000 
#    y 0.000000 1.773800 0.000000 
#    z 0.000000 0.000000 1.725090 
# 
# From -- ./inp_files/8972.got.cif
#   From: 2010.03.12/outbox.cif.g09.slc.cpg/sg55_5_cif.got.tgz:8972.got - 2010.04.16 15:19:21.
