data_PCOD8226262
_publ_section_title
;
Structure prediction by ZEFSAII (Michael W. Deem and Ramdas Pophale) SiO2 
 PCOD8226262
Probable space group: P B A M
;
_chemical_formula_sum "Si O2"
_cell_formula_units_Z 64
_cell_length_a 14.249199
_cell_length_b 25.137491
_cell_length_c 9.348340
_cell_angle_alpha 90.000000
_cell_angle_beta 90.000000
_cell_angle_gamma 90.000000
_cell_volume 3348.473600
_symmetry_space_group_name_H-M "P B A M"
_symmetry_group_IT_number 55
_symmetry_cell_setting 'orthorhombic'
loop_
_space_group_symop_operation_xyz
x,y,z
-x,-y,z
1/2+x,1/2-y,-z
1/2-x,1/2+y,-z
-x,-y,-z
x,y,-z
1/2-x,1/2+y,z
1/2+x,1/2-y,z
loop_
_atom_site_type_symbol
_atom_site_label
_atom_site_fract_x
_atom_site_fract_y
_atom_site_fract_z
Si Si1 0.045626 0.250314 0.667135
Si Si2 0.896259 0.490725 0.169650
Si Si3 0.790906 0.385959 0.167976
Si Si4 0.863074 0.270908 0.164722
Si Si5 0.606846 0.367505 0.665315
Si Si6 0.804319 0.690606 0.835012
Si Si7 0.445344 0.446292 0.334561
Si Si8 0.257903 0.425950 0.168780
O O1 0.036698 0.262072 0.500000
O O2 0.096567 0.194679 0.698256
O O3 0.104340 0.297272 0.740848
O O4 0.942850 0.247831 0.734081
O O5 0.857562 0.433656 0.221130
O O6 0.827523 0.537348 0.223452
O O7 0.000000 0.500000 0.235498
O O8 0.902447 0.491908 0.000000
O O9 0.841564 0.331232 0.210111
O O10 0.691172 0.391804 0.243978
O O11 0.771020 0.388840 0.000000
O O12 0.771507 0.236030 0.192339
O O13 0.895529 0.267212 0.000000
O O14 0.629572 0.378396 0.500000
O O15 0.510696 0.396665 0.709122
O O16 0.763102 0.634352 0.785062
O O17 0.836013 0.688453 0.000000
O O18 0.500000 0.500000 0.299135
O O19 0.416207 0.443278 0.500000
O O20 0.352339 0.445603 0.241448
O O21 0.272087 0.431101 0.000000
#
# Coordination Sequence:
#
# PCOD8226262 Si02
#       8
#     8   8   8   8   8   8   8   8
#     4  11  23  36  55  82 112 149 188 229 281 338
#     4   9  19  35  56  83 112 145 186 230 279 331
#     4  10  20  35  59  85 109 145 187 230 279 328
#     4  10  21  36  56  83 112 145 186 231 280 332
#     4  10  21  37  56  82 115 149 183 226 280 337
#     4  10  21  38  58  83 114 147 186 233 285 336
#     4  10  21  37  58  83 114 153 188 224 281 342
#     4  10  21  36  58  85 112 146 188 237 284 331
#
# _framework density 19.113187
#
# number of rings (size 3 to 8) (size 9 to 14) (size 15 to 20)
#    0.000    2.000    1.250    1.875    1.750    2.750 
#    0.000    0.000    0.000    0.750    0.000    0.000 
#    0.000    0.000    0.000    0.000    0.000    0.000 
#
# Total GULP energy -793893.766478 kJ/mol
# GULP energy per Si atom -12404.590101 kJ/mol
# Density = 1.906968 g / cm^3
# Si number density = 19.113187 Si / 1000 Ang^3
#
#
#
# Elastic Constant Matrix: (Units=GPa)
#
#
# Indices 1 2 3 4 5 6 
#
# 1 118.5046 39.8416 47.2117 0.0000 0.0000 0.0000
# 2 39.8416 110.8738 28.8773 0.0000 0.0000 0.0000
# 3 47.2117 28.8773 52.1028 0.0000 0.0000 0.0000
# 4 0.0000 0.0000 0.0000 15.8491 0.0000 0.0000
# 5 0.0000 0.0000 0.0000 0.0000 15.5993 0.0000
# 6 0.0000 0.0000 0.0000 0.0000 0.0000 29.4222
#
#
#
# Elastic Compliance Matrix: (Units=1/GPa)
#
#
# Indices 1 2 3 4 5 6 
#
# 1 0.013559 -0.001954 -0.011203 0.000000 0.000000 0.000000
# 2 -0.001954 0.010823 -0.004227 0.000000 0.000000 0.000000
# 3 -0.011203 -0.004227 0.031687 0.000000 0.000000 0.000000
# 4 0.000000 0.000000 0.000000 0.063095 0.000000 0.000000
# 5 0.000000 0.000000 0.000000 0.000000 0.064106 0.000000
# 6 0.000000 0.000000 0.000000 0.000000 0.000000 0.033988
#
#
# Mechanical properties :
#
#
# Convention : Reuss Voigt Hill
#
# Bulk Modulus (GPa) = 46.95006 57.03804 51.99405
# Shear Modulus (GPa) = 19.29570 23.21081 21.25325
#
# Velocity S-wave (km/s) = 3.18079 3.48859 3.33824
# Velocity P-wave (km/s) = 6.17312 6.79220 6.49005
#
# Compressibility (1/GPa) = 0.02129923
#
# Stress axis : x y z
#
# Youngs Moduli (GPa) = 73.75364 92.39932 31.55899
#
# Poissons Ratio (x) = 0.18059 0.35354
# Poissons Ratio (y) = 0.14415 0.13341
# Poissons Ratio (z) = 0.82623 0.39060
#
# Static dielectric constant tensor:
#      x y z
#    x 3.467250 0.000000 0.000000 
#    y 0.000000 3.709890 0.000000 
#    z 0.000000 0.000000 3.285580 
# 
# 
# High freq. dielectric constant tensor:
#      x y z
#    x 1.750230 0.000000 0.000000 
#    y 0.000000 1.758170 0.000000 
#    z 0.000000 0.000000 1.721390 
# 
# From -- ./inp_files/6592.got.cif
#   From: 2010.03.12/outbox.cif.g09.slc.cpg/sg55_4_cif.got.tgz:6592.got - 2010.04.16 15:19:21.
