data_PCOD8226213
_publ_section_title
;
Structure prediction by ZEFSAII (Michael W. Deem and Ramdas Pophale) SiO2 
 PCOD8226213
Probable space group: P B A M
;
_chemical_formula_sum "Si O2"
_cell_formula_units_Z 64
_cell_length_a 31.971370
_cell_length_b 11.087598
_cell_length_c 8.848785
_cell_angle_alpha 90.000000
_cell_angle_beta 90.000000
_cell_angle_gamma 90.000000
_cell_volume 3136.767728
_symmetry_space_group_name_H-M "P B A M"
_symmetry_group_IT_number 55
_symmetry_cell_setting 'orthorhombic'
loop_
_space_group_symop_operation_xyz
x,y,z
-x,-y,z
1/2+x,1/2-y,-z
1/2-x,1/2+y,-z
-x,-y,-z
x,y,-z
1/2-x,1/2+y,z
1/2+x,1/2-y,z
loop_
_atom_site_type_symbol
_atom_site_label
_atom_site_fract_x
_atom_site_fract_y
_atom_site_fract_z
Si Si1 0.173037 0.769954 0.174244
Si Si2 0.520181 0.875433 0.324935
Si Si3 0.383496 0.094752 0.668473
Si Si4 0.614035 0.556007 0.326156
Si Si5 0.973467 0.118535 0.178963
Si Si6 0.259586 0.086222 0.177134
Si Si7 0.680228 0.097412 0.670764
Si Si8 0.824417 0.863388 0.323848
O O1 0.138692 0.665969 0.197007
O O2 0.157387 0.876150 0.282904
O O3 0.218080 0.713706 0.224319
O O4 0.173556 0.811728 0.000000
O O5 0.507570 0.860550 0.500000
O O6 0.568212 0.901801 0.298130
O O7 0.508663 0.746063 0.245687
O O8 0.500000 0.000000 0.258555
O O9 0.374312 0.149990 0.500000
O O10 0.366205 0.959210 0.674552
O O11 0.602085 0.579561 0.500000
O O12 0.574625 0.597021 0.227778
O O13 0.629122 0.419131 0.295090
O O14 0.975294 0.129735 0.000000
O O15 0.000000 0.000000 0.233206
O O16 0.286417 0.973871 0.231797
O O17 0.213316 0.068944 0.240576
O O18 0.257369 0.077586 0.000000
O O19 0.697328 0.102371 0.500000
O O20 0.674499 0.228997 0.741364
O O21 0.814096 0.867871 0.500000
#
# Coordination Sequence:
#
# PCOD8226213 Si02
#       8
#     8   8   8   8   8   8   8   8
#     4  10  20  35  57  84 114 151 194 240 291 353
#     4  10  21  37  62  97 128 159 205 259 316 377
#     4   9  17  33  58  84 111 147 189 237 293 352
#     4  11  23  39  62  90 118 156 206 254 306 368
#     4  11  25  44  65  92 129 171 215 263 323 389
#     4  10  22  37  56  84 117 155 197 243 299 356
#     4   9  19  37  57  79 111 150 195 245 296 355
#     4  10  23  39  57  85 119 157 201 249 303 360
#
# _framework density 20.403168999999998
#
# number of rings (size 3 to 8) (size 9 to 14) (size 15 to 20)
#    0.000    2.000    1.250    1.500    1.750    5.250 
#    0.000    2.500    0.000    3.000    0.000    0.000 
#    0.000    0.000    0.000    0.000    0.000    0.000 
#
# Total GULP energy -792940.279348 kJ/mol
# GULP energy per Si atom -12389.691865 kJ/mol
# Density = 2.035673 g / cm^3
# Si number density = 20.403169 Si / 1000 Ang^3
#
#
#
# Elastic Constant Matrix: (Units=GPa)
#
#
# Indices 1 2 3 4 5 6 
#
# 1 66.9177 40.2392 19.4369 0.0000 0.0000 0.0000
# 2 40.2392 132.8309 28.6959 0.0000 0.0000 0.0000
# 3 19.4369 28.6959 48.8826 0.0000 0.0000 0.0000
# 4 0.0000 0.0000 0.0000 21.0813 0.0000 0.0000
# 5 0.0000 0.0000 0.0000 0.0000 17.7464 0.0000
# 6 0.0000 0.0000 0.0000 0.0000 0.0000 24.3707
#
#
#
# Elastic Compliance Matrix: (Units=1/GPa)
#
#
# Indices 1 2 3 4 5 6 
#
# 1 0.019222 -0.004778 -0.004838 0.000000 0.000000 0.000000
# 2 -0.004778 0.009809 -0.003859 0.000000 0.000000 0.000000
# 3 -0.004838 -0.003859 0.024646 0.000000 0.000000 0.000000
# 4 0.000000 0.000000 0.000000 0.047435 0.000000 0.000000
# 5 0.000000 0.000000 0.000000 0.000000 0.056349 0.000000
# 6 0.000000 0.000000 0.000000 0.000000 0.000000 0.041033
#
#
# Mechanical properties :
#
#
# Convention : Reuss Voigt Hill
#
# Bulk Modulus (GPa) = 37.41416 47.26392 42.33904
# Shear Modulus (GPa) = 21.33520 23.32363 22.32941
#
# Velocity S-wave (km/s) = 3.23721 3.38470 3.31177
# Velocity P-wave (km/s) = 5.68770 6.20405 5.95148
#
# Compressibility (1/GPa) = 0.02672785
#
# Stress axis : x y z
#
# Youngs Moduli (GPa) = 52.02343 101.94370 40.57417
#
# Poissons Ratio (x) = 0.48707 0.19632
# Poissons Ratio (y) = 0.24856 0.15656
# Poissons Ratio (z) = 0.25171 0.39337
#
# Static dielectric constant tensor:
#      x y z
#    x 3.694030 0.000000 0.000000 
#    y 0.000000 4.150680 0.000000 
#    z 0.000000 0.000000 3.587070 
# 
# 
# High freq. dielectric constant tensor:
#      x y z
#    x 1.787900 0.000000 0.000000 
#    y 0.000000 1.808810 0.000000 
#    z 0.000000 0.000000 1.787260 
# 
# From -- ./inp_files/10734.got.cif
#   From: 2010.03.12/outbox.cif.g09.slc.cpg/sg55_6_cif.got.tgz:10734.got - 2010.04.16 15:19:21.
