data_PCOD8226780
_publ_section_title
;
Structure prediction by ZEFSAII (Michael W. Deem and Ramdas Pophale) SiO2 
 PCOD8226780
Probable space group: P B A M
;
_chemical_formula_sum "Si O2"
_cell_formula_units_Z 48
_cell_length_a 28.335829
_cell_length_b 10.206453
_cell_length_c 7.733807
_cell_angle_alpha 90.000000
_cell_angle_beta 90.000000
_cell_angle_gamma 90.000000
_cell_volume 2236.681228
_symmetry_space_group_name_H-M "P B A M"
_symmetry_group_IT_number 55
_symmetry_cell_setting 'orthorhombic'
loop_
_space_group_symop_operation_xyz
x,y,z
-x,-y,z
1/2+x,1/2-y,-z
1/2-x,1/2+y,-z
-x,-y,-z
x,y,-z
1/2-x,1/2+y,z
1/2+x,1/2-y,z
loop_
_atom_site_type_symbol
_atom_site_label
_atom_site_fract_x
_atom_site_fract_y
_atom_site_fract_z
Si Si1 0.705275 0.297377 0.795167
Si Si2 0.641044 0.071454 0.309001
Si Si3 0.141497 0.961840 0.204202
Si Si4 0.687873 0.810410 0.204043
Si Si5 0.027300 0.703141 0.000000
Si Si6 0.427844 0.921660 0.000000
Si Si7 0.540772 0.599330 0.303943
O O1 0.673487 0.418253 0.731004
O O2 0.758437 0.319643 0.729954
O O3 0.686597 0.163137 0.713857
O O4 0.704393 0.283048 0.000000
O O5 0.619295 0.090859 0.500000
O O6 0.656937 0.921780 0.292692
O O7 0.601682 0.112039 0.170621
O O8 0.166812 0.828369 0.261621
O O9 0.090802 0.974813 0.295097
O O10 0.134172 0.966287 0.000000
O O11 0.684909 0.831885 0.000000
O O12 0.057842 0.572418 0.000000
O O13 0.041588 0.778837 0.173594
O O14 0.971965 0.675151 0.000000
O O15 0.500000 0.500000 0.244639
O O16 0.531614 0.648747 0.500000
#
# Coordination Sequence:
#
# PCOD8226780 Si02
#       7
#     8   8   8   8   4   4   8
#     4  10  21  39  66  97 133 175 221 269 320 384
#     4  12  25  41  66  96 134 175 215 266 328 392
#     4  10  21  37  66  97 128 173 217 268 327 383
#     4  10  20  40  66  96 132 175 223 267 320 388
#     4  11  25  46  72  90 127 168 215 271 329 391
#     4  11  26  46  66  96 124 169 219 269 324 392
#     4  11  25  42  67 100 131 166 215 272 331 394
#
# _framework density 21.460367999999999
#
# number of rings (size 3 to 8) (size 9 to 14) (size 15 to 20)
#    0.000    1.333    2.500    2.250    2.333    7.333 
#    0.000    3.333    0.000    0.000    0.000    0.000 
#    0.000    0.000    0.000    0.000    0.000    0.000 
#
# Total GULP energy -595494.676096 kJ/mol
# GULP energy per Si atom -12406.139085 kJ/mol
# Density = 2.141152 g / cm^3
# Si number density = 21.460368 Si / 1000 Ang^3
#
#
#
# Elastic Constant Matrix: (Units=GPa)
#
#
# Indices 1 2 3 4 5 6 
#
# 1 133.8814 20.5048 28.9971 0.0000 0.0000 0.0000
# 2 20.5048 79.4372 9.2814 0.0000 0.0000 0.0000
# 3 28.9971 9.2814 87.8626 0.0000 0.0000 0.0000
# 4 0.0000 0.0000 0.0000 7.0222 0.0000 0.0000
# 5 0.0000 0.0000 0.0000 0.0000 -4.1753 0.0000
# 6 0.0000 0.0000 0.0000 0.0000 0.0000 35.9920
#
#
#
# Elastic Compliance Matrix: (Units=1/GPa)
#
#
# Indices 1 2 3 4 5 6 
#
# 1 0.008303 -0.001846 -0.002545 0.000000 0.000000 0.000000
# 2 -0.001846 0.013156 -0.000781 0.000000 0.000000 0.000000
# 3 -0.002545 -0.000781 0.012304 0.000000 0.000000 0.000000
# 4 0.000000 0.000000 0.000000 0.142405 0.000000 0.000000
# 5 0.000000 0.000000 0.000000 0.000000 -0.239505 0.000000
# 6 0.000000 0.000000 0.000000 0.000000 0.000000 0.027784
#
#
# Mechanical properties :
#
#
# Convention : Reuss Voigt Hill
#
# Bulk Modulus (GPa) = 42.69883 46.52752 44.61317
# Shear Modulus (GPa) = -287.31814 23.92765 -131.69524
#
# Velocity S-wave (km/s) = -11.58334 3.34274 -7.84219
# Velocity P-wave (km/s) = 12.60788 6.05196 7.82088
#
# Compressibility (1/GPa) = 0.02341985
#
# Stress axis : x y z
#
# Youngs Moduli (GPa) = 120.43407 76.00956 81.27508
#
# Poissons Ratio (x) = 0.14031 0.20687
# Poissons Ratio (y) = 0.22231 0.06344
# Poissons Ratio (z) = 0.30654 0.05933
#
# Static dielectric constant tensor:
#      x y z
#    x 4.078410 0.000000 0.000000 
#    y 0.000000 3.869950 0.000000 
#    z 0.000000 0.000000 3.766710 
# 
# 
# High freq. dielectric constant tensor:
#      x y z
#    x 1.852820 0.000000 0.000000 
#    y 0.000000 1.845610 0.000000 
#    z 0.000000 0.000000 1.836350 
# 
# From -- ./inp_files/10558.got.cif
#   From: 2010.03.12/outbox.cif.g09.slc.cpg/sg55_6_cif.got.tgz:10558.got - 2010.04.16 15:19:21.
