data_PCOD8226109
_publ_section_title
;
Structure prediction by ZEFSAII (Michael W. Deem and Ramdas Pophale) SiO2 
 PCOD8226109
Probable space group: P B A M
;
_chemical_formula_sum "Si O2"
_cell_formula_units_Z 64
_cell_length_a 28.350132
_cell_length_b 14.167045
_cell_length_c 8.877470
_cell_angle_alpha 90.000000
_cell_angle_beta 90.000000
_cell_angle_gamma 90.000000
_cell_volume 3565.525708
_symmetry_space_group_name_H-M "P B A M"
_symmetry_group_IT_number 55
_symmetry_cell_setting 'orthorhombic'
loop_
_space_group_symop_operation_xyz
x,y,z
-x,-y,z
1/2+x,1/2-y,-z
1/2-x,1/2+y,-z
-x,-y,-z
x,y,-z
1/2-x,1/2+y,z
1/2+x,1/2-y,z
loop_
_atom_site_type_symbol
_atom_site_label
_atom_site_fract_x
_atom_site_fract_y
_atom_site_fract_z
Si Si1 0.622695 0.115098 0.822274
Si Si2 0.620563 0.406667 0.820701
Si Si3 0.128292 0.890678 0.322913
Si Si4 0.801465 0.764176 0.823415
Si Si5 0.120604 0.598665 0.176991
Si Si6 0.303581 0.250448 0.821012
Si Si7 0.552607 0.764812 0.675416
Si Si8 0.945452 0.758465 0.321611
O O1 0.671634 0.167377 0.781251
O O2 0.579825 0.163521 0.734368
O O3 0.627214 0.007959 0.765148
O O4 0.612459 0.122778 0.000000
O O5 0.620198 0.510728 0.757013
O O6 0.668128 0.353300 0.764793
O O7 0.575624 0.351063 0.756832
O O8 0.617204 0.407951 0.000000
O O9 0.134031 0.905717 0.500000
O O10 0.175419 0.843355 0.257169
O O11 0.083307 0.826643 0.281687
O O12 0.749008 0.763945 0.754045
O O13 0.795668 0.773884 0.000000
O O14 0.166269 0.658796 0.227231
O O15 0.073032 0.642350 0.244544
O O16 0.114974 0.600131 0.000000
O O17 0.304156 0.266250 0.000000
O O18 0.554881 0.785757 0.500000
O O19 0.499628 0.747221 0.729909
O O20 0.940128 0.768372 0.500000
#
# Coordination Sequence:
#
# PCOD8226109 Si02
#       8
#     8   8   8   8   8   8   8   8
#     4   9  18  33  50  73 103 133 164 206 254 298
#     4  10  20  35  54  77 102 131 166 207 250 296
#     4  10  20  35  52  73 102 134 165 204 250 298
#     4   8  16  31  52  74  99 129 163 201 243 290
#     4   9  18  31  50  74 100 128 164 207 248 288
#     4   9  17  32  53  76  99 130 169 206 242 289
#     4   9  20  36  52  70  98 133 167 202 248 301
#     4  10  20  35  53  73  97 130 168 207 248 298
#
# _framework density 17.949667000000002
#
# number of rings (size 3 to 8) (size 9 to 14) (size 15 to 20)
#    0.000    2.750    0.000    1.875    0.000    4.000 
#    0.000   11.875    0.000    3.000    0.000    0.000 
#    0.000    0.000    0.000    0.000    0.000    0.000 
#
# Total GULP energy -793593.231543 kJ/mol
# GULP energy per Si atom -12399.894243 kJ/mol
# Density = 1.790881 g / cm^3
# Si number density = 17.949667 Si / 1000 Ang^3
#
#
#
# Elastic Constant Matrix: (Units=GPa)
#
#
# Indices 1 2 3 4 5 6 
#
# 1 148.3242 60.4441 32.7281 0.0000 0.0000 0.0000
# 2 60.4441 145.0434 36.4786 0.0000 0.0000 0.0000
# 3 32.7281 36.4786 44.4198 0.0000 0.0000 0.0000
# 4 0.0000 0.0000 0.0000 25.6936 0.0000 0.0000
# 5 0.0000 0.0000 0.0000 0.0000 18.5719 0.0000
# 6 0.0000 0.0000 0.0000 0.0000 0.0000 14.2875
#
#
#
# Elastic Compliance Matrix: (Units=1/GPa)
#
#
# Indices 1 2 3 4 5 6 
#
# 1 0.008740 -0.002549 -0.004346 0.000000 0.000000 0.000000
# 2 -0.002549 0.009433 -0.005868 0.000000 0.000000 0.000000
# 3 -0.004346 -0.005868 0.030534 0.000000 0.000000 0.000000
# 4 0.000000 0.000000 0.000000 0.038920 0.000000 0.000000
# 5 0.000000 0.000000 0.000000 0.000000 0.053845 0.000000
# 6 0.000000 0.000000 0.000000 0.000000 0.000000 0.069991
#
#
# Mechanical properties :
#
#
# Convention : Reuss Voigt Hill
#
# Bulk Modulus (GPa) = 43.14152 66.34324 54.74238
# Shear Modulus (GPa) = 20.43193 25.58638 23.00915
#
# Velocity S-wave (km/s) = 3.37752 3.77961 3.58421
# Velocity P-wave (km/s) = 6.26874 7.48921 6.90599
#
# Compressibility (1/GPa) = 0.02317953
#
# Stress axis : x y z
#
# Youngs Moduli (GPa) = 114.42000 106.01505 32.75080
#
# Poissons Ratio (x) = 0.27024 0.14233
# Poissons Ratio (y) = 0.29167 0.19219
# Poissons Ratio (z) = 0.49727 0.62211
#
# Static dielectric constant tensor:
#      x y z
#    x 3.574720 0.000000 0.000000 
#    y 0.000000 3.429290 0.000000 
#    z 0.000000 0.000000 3.185030 
# 
# 
# High freq. dielectric constant tensor:
#      x y z
#    x 1.698260 0.000000 0.000000 
#    y 0.000000 1.698900 0.000000 
#    z 0.000000 0.000000 1.683350 
# 
# From -- ./inp_files/10900.got.cif
#   From: 2010.03.12/outbox.cif.g09.slc.cpg/sg55_6_cif.got.tgz:10900.got - 2010.04.16 15:19:21.
