data_PCOD8226074
_publ_section_title
;
Structure prediction by ZEFSAII (Michael W. Deem and Ramdas Pophale) SiO2 
 PCOD8226074
Probable space group: P B A M
;
_chemical_formula_sum "Si O2"
_cell_formula_units_Z 56
_cell_length_a 21.912055
_cell_length_b 14.481579
_cell_length_c 9.283274
_cell_angle_alpha 90.000000
_cell_angle_beta 90.000000
_cell_angle_gamma 90.000000
_cell_volume 2945.779233
_symmetry_space_group_name_H-M "P B A M"
_symmetry_group_IT_number 55
_symmetry_cell_setting 'orthorhombic'
loop_
_space_group_symop_operation_xyz
x,y,z
-x,-y,z
1/2+x,1/2-y,-z
1/2-x,1/2+y,-z
-x,-y,-z
x,y,-z
1/2-x,1/2+y,z
1/2+x,1/2-y,z
loop_
_atom_site_type_symbol
_atom_site_label
_atom_site_fract_x
_atom_site_fract_y
_atom_site_fract_z
Si Si1 0.421583 0.584077 0.830327
Si Si2 0.815211 0.408956 0.831003
Si Si3 0.087249 0.704735 0.664918
Si Si4 0.653313 0.112708 0.166634
Si Si5 0.530718 0.092130 0.335902
Si Si6 0.556418 0.621729 0.169703
Si Si7 0.805535 0.809164 0.169993
O O1 0.412704 0.476300 0.793235
O O2 0.486564 0.621044 0.772621
O O3 0.365665 0.642005 0.762113
O O4 0.423303 0.596808 0.000000
O O5 0.872867 0.372652 0.743389
O O6 0.809691 0.518788 0.800802
O O7 0.755002 0.358477 0.769176
O O8 0.825054 0.388843 0.000000
O O9 0.108741 0.713777 0.500000
O O10 0.095227 0.802168 0.744988
O O11 0.016744 0.675799 0.675238
O O12 0.589954 0.119719 0.248626
O O13 0.695005 0.200597 0.211520
O O14 0.635932 0.119826 0.000000
O O15 0.550488 0.072353 0.500000
O O16 0.500000 0.000000 0.270231
O O17 0.559870 0.643048 0.000000
O O18 0.806404 0.824362 0.000000
#
# Coordination Sequence:
#
# PCOD8226074 Si02
#       7
#     8   8   8   8   8   8   8
#     4   8  15  30  53  81 109 137 170 212 262 312
#     4  10  21  35  52  76 105 138 177 218 261 309
#     4  11  22  35  52  76 107 141 176 217 269 320
#     4  10  20  34  56  84 108 136 179 226 265 310
#     4  10  20  35  54  76 106 144 174 212 275 330
#     4   9  17  31  55  83 108 136 171 212 261 315
#     4   9  18  33  53  78 109 141 176 219 264 313
#
# _framework density 19.010251
#
# number of rings (size 3 to 8) (size 9 to 14) (size 15 to 20)
#    0.000    2.429    1.429    2.143    0.000    3.714 
#    0.000    6.429    0.000    4.286    0.000    0.000 
#    0.000    0.000    0.000    0.000    0.000    0.000 
#
# Total GULP energy -694334.924236 kJ/mol
# GULP energy per Si atom -12398.837933 kJ/mol
# Density = 1.896698 g / cm^3
# Si number density = 19.010251 Si / 1000 Ang^3
#
#
#
# Elastic Constant Matrix: (Units=GPa)
#
#
# Indices 1 2 3 4 5 6 
#
# 1 93.6571 52.2732 30.2749 0.0000 0.0000 0.0000
# 2 52.2732 141.6420 42.5731 0.0000 0.0000 0.0000
# 3 30.2749 42.5731 50.2897 0.0000 0.0000 0.0000
# 4 0.0000 0.0000 0.0000 13.5440 0.0000 0.0000
# 5 0.0000 0.0000 0.0000 0.0000 10.9146 0.0000
# 6 0.0000 0.0000 0.0000 0.0000 0.0000 32.9815
#
#
#
# Elastic Compliance Matrix: (Units=1/GPa)
#
#
# Indices 1 2 3 4 5 6 
#
# 1 0.014554 -0.003672 -0.005653 0.000000 0.000000 0.000000
# 2 -0.003672 0.010396 -0.006590 0.000000 0.000000 0.000000
# 3 -0.005653 -0.006590 0.028867 0.000000 0.000000 0.000000
# 4 0.000000 0.000000 0.000000 0.073833 0.000000 0.000000
# 5 0.000000 0.000000 0.000000 0.000000 0.091621 0.000000
# 6 0.000000 0.000000 0.000000 0.000000 0.000000 0.030320
#
#
# Mechanical properties :
#
#
# Convention : Reuss Voigt Hill
#
# Bulk Modulus (GPa) = 45.48272 59.53681 52.50977
# Shear Modulus (GPa) = 17.31598 22.18586 19.75092
#
# Velocity S-wave (km/s) = 3.02135 3.41991 3.22679
# Velocity P-wave (km/s) = 6.01238 6.85424 6.44707
#
# Compressibility (1/GPa) = 0.02198637
#
# Stress axis : x y z
#
# Youngs Moduli (GPa) = 68.70891 96.19038 34.64165
#
# Poissons Ratio (x) = 0.35322 0.19583
# Poissons Ratio (y) = 0.25231 0.22830
# Poissons Ratio (z) = 0.38842 0.63391
#
# Static dielectric constant tensor:
#      x y z
#    x 3.519220 0.000000 0.000000 
#    y 0.000000 3.689260 0.000000 
#    z 0.000000 0.000000 3.113090 
# 
# 
# High freq. dielectric constant tensor:
#      x y z
#    x 1.727690 0.000000 0.000000 
#    y 0.000000 1.755800 0.000000 
#    z 0.000000 0.000000 1.697990 
# 
# From -- ./inp_files/6159.got.cif
#   From: 2010.03.12/outbox.cif.g09.slc.cpg/sg55_4_cif.got.tgz:6159.got - 2010.04.16 15:19:21.
