data_PCOD8226236
_publ_section_title
;
Structure prediction by ZEFSAII (Michael W. Deem and Ramdas Pophale) SiO2 
 PCOD8226236
Probable space group: P B A M
;
_chemical_formula_sum "Si O2"
_cell_formula_units_Z 48
_cell_length_a 26.642173
_cell_length_b 10.283360
_cell_length_c 8.441444
_cell_angle_alpha 90.000000
_cell_angle_beta 90.000000
_cell_angle_gamma 90.000000
_cell_volume 2312.711328
_symmetry_space_group_name_H-M "P B A M"
_symmetry_group_IT_number 55
_symmetry_cell_setting 'orthorhombic'
loop_
_space_group_symop_operation_xyz
x,y,z
-x,-y,z
1/2+x,1/2-y,-z
1/2-x,1/2+y,-z
-x,-y,-z
x,y,-z
1/2-x,1/2+y,z
1/2+x,1/2-y,z
loop_
_atom_site_type_symbol
_atom_site_label
_atom_site_fract_x
_atom_site_fract_y
_atom_site_fract_z
Si Si1 0.696139 0.876483 0.316498
Si Si2 0.474156 0.369483 0.811299
Si Si3 0.305020 0.615681 0.184971
Si Si4 0.143020 0.360280 0.683778
Si Si5 0.637828 0.636809 0.185414
Si Si6 0.035237 0.378696 0.815004
O O1 0.685426 0.850815 0.500000
O O2 0.754649 0.860854 0.282484
O O3 0.665663 0.770811 0.217971
O O4 0.677972 0.019172 0.264505
O O5 0.500000 0.500000 0.746765
O O6 0.417984 0.360215 0.739847
O O7 0.506825 0.248571 0.750769
O O8 0.472133 0.367904 0.000000
O O9 0.342088 0.736504 0.211275
O O10 0.331172 0.485633 0.253749
O O11 0.292103 0.602555 0.000000
O O12 0.150713 0.327146 0.500000
O O13 0.085785 0.398041 0.716698
O O14 0.632578 0.615518 0.000000
O O15 0.000000 0.500000 0.779790
O O16 0.048599 0.367427 0.000000
#
# Coordination Sequence:
#
# PCOD8226236 Si02
#       6
#     8   8   8   8   8   8
#     4  11  24  40  58  83 117 155 192 233 286 345
#     4   9  17  32  55  83 113 143 181 232 285 333
#     4  11  23  39  62  89 114 146 192 242 290 343
#     4  11  24  40  59  85 120 159 194 234 287 347
#     4  10  21  38  62  89 115 148 192 241 290 341
#     4  10  20  35  58  85 113 150 195 241 286 334
#
# _framework density 20.754859
#
# number of rings (size 3 to 8) (size 9 to 14) (size 15 to 20)
#    0.000    1.667    0.000    4.500    0.000   11.000 
#    0.000    0.833    0.000    2.000    0.000    0.000 
#    0.000    0.000    0.000    0.000    0.000    0.000 
#
# Total GULP energy -595481.688434 kJ/mol
# GULP energy per Si atom -12405.868509 kJ/mol
# Density = 2.070762 g / cm^3
# Si number density = 20.754859 Si / 1000 Ang^3
#
#
#
# Elastic Constant Matrix: (Units=GPa)
#
#
# Indices 1 2 3 4 5 6 
#
# 1 122.6738 28.7398 14.1401 0.0000 0.0000 0.0000
# 2 28.7398 120.9954 20.8751 0.0000 0.0000 0.0000
# 3 14.1401 20.8751 18.3450 0.0000 0.0000 0.0000
# 4 0.0000 0.0000 0.0000 18.1187 0.0000 0.0000
# 5 0.0000 0.0000 0.0000 0.0000 16.4149 0.0000
# 6 0.0000 0.0000 0.0000 0.0000 0.0000 41.9466
#
#
#
# Elastic Compliance Matrix: (Units=1/GPa)
#
#
# Indices 1 2 3 4 5 6 
#
# 1 0.009080 -0.001181 -0.005655 0.000000 0.000000 0.000000
# 2 -0.001181 0.010437 -0.010966 0.000000 0.000000 0.000000
# 3 -0.005655 -0.010966 0.071349 0.000000 0.000000 0.000000
# 4 0.000000 0.000000 0.000000 0.055191 0.000000 0.000000
# 5 0.000000 0.000000 0.000000 0.000000 0.060920 0.000000
# 6 0.000000 0.000000 0.000000 0.000000 0.000000 0.023840
#
#
# Mechanical properties :
#
#
# Convention : Reuss Voigt Hill
#
# Bulk Modulus (GPa) = 18.09589 43.28045 30.68817
# Shear Modulus (GPa) = 17.55353 28.51332 23.03342
#
# Velocity S-wave (km/s) = 2.91134 3.71052 3.33496
# Velocity P-wave (km/s) = 4.47650 6.26544 5.44494
#
# Compressibility (1/GPa) = 0.05526116
#
# Stress axis : x y z
#
# Youngs Moduli (GPa) = 110.12935 95.80958 14.01571
#
# Poissons Ratio (x) = 0.11317 0.07926
# Poissons Ratio (y) = 0.13008 0.15370
# Poissons Ratio (z) = 0.62276 1.05069
#
# Static dielectric constant tensor:
#      x y z
#    x 3.932910 0.000000 0.000000 
#    y 0.000000 3.894160 0.000000 
#    z 0.000000 0.000000 3.395930 
# 
# 
# High freq. dielectric constant tensor:
#      x y z
#    x 1.829060 0.000000 0.000000 
#    y 0.000000 1.828770 0.000000 
#    z 0.000000 0.000000 1.784040 
# 
# From -- ./inp_files/10519.got.cif
#   From: 2010.03.12/outbox.cif.g09.slc.cpg/sg55_6_cif.got.tgz:10519.got - 2010.04.16 15:19:21.
