data_PCOD8226929
_publ_section_title
;
Structure prediction by ZEFSAII (Michael W. Deem and Ramdas Pophale) SiO2 
 PCOD8226929
Probable space group: P B A M
;
_chemical_formula_sum "Si O2"
_cell_formula_units_Z 64
_cell_length_a 9.374493
_cell_length_b 20.225252
_cell_length_c 17.896100
_cell_angle_alpha 90.000000
_cell_angle_beta 90.000000
_cell_angle_gamma 90.000000
_cell_volume 3393.127105
_symmetry_space_group_name_H-M "P B A M"
_symmetry_group_IT_number 55
_symmetry_cell_setting 'orthorhombic'
loop_
_space_group_symop_operation_xyz
x,y,z
-x,-y,z
1/2+x,1/2-y,-z
1/2-x,1/2+y,-z
-x,-y,-z
x,y,-z
1/2-x,1/2+y,z
1/2+x,1/2-y,z
loop_
_atom_site_type_symbol
_atom_site_label
_atom_site_fract_x
_atom_site_fract_y
_atom_site_fract_z
Si Si1 0.548794 0.799650 0.413956
Si Si2 0.703526 0.242796 0.319314
Si Si3 0.698834 0.802252 0.084288
Si Si4 0.120119 0.548727 0.585503
Si Si5 0.714321 0.622223 0.784577
Si Si6 0.126490 0.329390 0.915548
Si Si7 0.838844 0.988754 0.704234
Si Si8 0.384775 0.640385 0.210775
O O1 0.574986 0.778844 0.500000
O O2 0.391844 0.778186 0.389666
O O3 0.648417 0.761561 0.356480
O O4 0.567133 0.877279 0.402901
O O5 0.724000 0.181987 0.263926
O O6 0.638866 0.304151 0.273680
O O7 0.531495 0.803721 0.107524
O O8 0.757037 0.728392 0.091702
O O9 0.793220 0.848146 0.136744
O O10 0.717573 0.828529 0.000000
O O11 0.154238 0.532753 0.500000
O O12 0.263840 0.534178 0.629011
O O13 0.000000 0.500000 0.617234
O O14 0.815695 0.615303 0.858017
O O15 0.730050 0.554607 0.738789
O O16 0.551837 0.636355 0.808660
O O17 0.124190 0.357776 0.000000
O O18 0.827167 0.930366 0.763720
O O19 0.000000 0.000000 0.679410
#
# Coordination Sequence:
#
# PCOD8226929 Si02
#       8
#     8   8   8   8   8   8   8   8
#     4  11  24  40  60  86 120 157 195 250 305 353
#     4  12  22  38  60  89 116 153 199 246 297 355
#     4  10  21  36  58  88 122 157 194 242 294 352
#     4  10  21  39  60  85 118 156 198 246 303 360
#     4  11  23  38  61  88 118 156 195 246 297 348
#     4  10  21  36  57  89 122 155 196 241 297 357
#     4  10  23  41  59  86 117 155 203 245 291 355
#     4  11  22  38  60  87 120 153 201 244 292 352
#
# _framework density 18.861657000000001
#
# number of rings (size 3 to 8) (size 9 to 14) (size 15 to 20)
#    0.000    1.375    3.750    1.875    1.750    2.750 
#    0.000    1.250    0.000    3.750    0.000    0.000 
#    0.000    0.000    0.000    0.000    0.000    0.000 
#
# Total GULP energy -793676.845159 kJ/mol
# GULP energy per Si atom -12401.200706 kJ/mol
# Density = 1.881873 g / cm^3
# Si number density = 18.861657 Si / 1000 Ang^3
#
#
#
# Elastic Constant Matrix: (Units=GPa)
#
#
# Indices 1 2 3 4 5 6 
#
# 1 76.3658 9.1041 32.4227 0.0000 0.0000 0.0000
# 2 9.1041 51.4168 2.4001 0.0000 0.0000 0.0000
# 3 32.4227 2.4001 69.4268 0.0000 0.0000 0.0000
# 4 0.0000 0.0000 0.0000 -0.2419 0.0000 0.0000
# 5 0.0000 0.0000 0.0000 0.0000 36.6884 0.0000
# 6 0.0000 0.0000 0.0000 0.0000 0.0000 24.3367
#
#
#
# Elastic Compliance Matrix: (Units=1/GPa)
#
#
# Indices 1 2 3 4 5 6 
#
# 1 0.016671 -0.002593 -0.007696 0.000000 0.000000 0.000000
# 2 -0.002593 0.019884 0.000523 0.000000 0.000000 0.000000
# 3 -0.007696 0.000523 0.017980 0.000000 0.000000 0.000000
# 4 0.000000 0.000000 0.000000 -4.134530 0.000000 0.000000
# 5 0.000000 0.000000 0.000000 0.000000 0.027257 0.000000
# 6 0.000000 0.000000 0.000000 0.000000 0.000000 0.041090
#
#
# Mechanical properties :
#
#
# Convention : Reuss Voigt Hill
#
# Bulk Modulus (GPa) = 28.56811 31.67369 30.12090
# Shear Modulus (GPa) = -1.25614 22.37548 10.55967
#
# Velocity S-wave (km/s) = -0.81696 3.44800 2.36868
# Velocity P-wave (km/s) = 3.78009 5.71670 4.84612
#
# Compressibility (1/GPa) = 0.03500407
#
# Stress axis : x y z
#
# Youngs Moduli (GPa) = 59.98265 50.29284 55.61836
#
# Poissons Ratio (x) = 0.13039 0.42804
# Poissons Ratio (y) = 0.15552 -0.02911
# Poissons Ratio (z) = 0.46163 -0.02633
#
# Static dielectric constant tensor:
#      x y z
#    x 3.622630 0.000000 0.000000 
#    y 0.000000 3.476830 0.000000 
#    z 0.000000 0.000000 3.532270 
# 
# 
# High freq. dielectric constant tensor:
#      x y z
#    x 1.745250 0.000000 0.000000 
#    y 0.000000 1.722970 0.000000 
#    z 0.000000 0.000000 1.740370 
# 
# From -- ./inp_files/21087.got.cif
#   From: 2010.03.12/outbox.cif.g09.slc.cpg/sg55_11_cif.got.tgz:21087.got - 2010.04.16 15:19:21.
