data_PCOD8226400
_publ_section_title
;
Structure prediction by ZEFSAII (Michael W. Deem and Ramdas Pophale) SiO2 
 PCOD8226400
Probable space group: P B A M
;
_chemical_formula_sum "Si O2"
_cell_formula_units_Z 64
_cell_length_a 24.417255
_cell_length_b 14.005575
_cell_length_c 9.197280
_cell_angle_alpha 90.000000
_cell_angle_beta 90.000000
_cell_angle_gamma 90.000000
_cell_volume 3145.264626
_symmetry_space_group_name_H-M "P B A M"
_symmetry_group_IT_number 55
_symmetry_cell_setting 'orthorhombic'
loop_
_space_group_symop_operation_xyz
x,y,z
-x,-y,z
1/2+x,1/2-y,-z
1/2-x,1/2+y,-z
-x,-y,-z
x,y,-z
1/2-x,1/2+y,z
1/2+x,1/2-y,z
loop_
_atom_site_type_symbol
_atom_site_label
_atom_site_fract_x
_atom_site_fract_y
_atom_site_fract_z
Si Si1 0.502101 0.792995 0.162477
Si Si2 0.132787 0.019213 0.329962
Si Si3 0.741097 0.979533 0.667853
Si Si4 0.586029 0.938625 0.163486
Si Si5 0.343537 0.889901 0.833845
Si Si6 0.666569 0.813112 0.333571
Si Si7 0.391395 0.337679 0.165974
Si Si8 0.398446 0.730168 0.670813
O O1 0.522912 0.903542 0.182834
O O2 0.554266 0.724639 0.185154
O O3 0.457951 0.766429 0.282121
O O4 0.477381 0.779496 0.000000
O O5 0.124223 0.003067 0.500000
O O6 0.196203 0.012286 0.285897
O O7 0.108668 0.120888 0.281350
O O8 0.099109 0.938570 0.244804
O O9 0.731528 0.008690 0.500000
O O10 0.724185 0.867982 0.690482
O O11 0.706215 0.049738 0.768502
O O12 0.620596 0.889101 0.289447
O O13 0.598066 0.051980 0.176811
O O14 0.605025 0.904919 0.000000
O O15 0.350961 0.791857 0.747118
O O16 0.329210 0.866568 0.000000
O O17 0.658253 0.782540 0.500000
O O18 0.660651 0.717403 0.237744
O O19 0.376760 0.357431 0.000000
O O20 0.391657 0.743305 0.500000
#
# Coordination Sequence:
#
# PCOD8226400 Si02
#       8
#     8   8   8   8   8   8   8   8
#     4   9  19  37  58  80 110 147 183 227 284 335
#     4  10  23  41  57  76 107 147 189 231 274 324
#     4   9  19  37  59  82 110 145 182 221 270 328
#     4   8  16  32  54  81 112 145 181 220 267 325
#     4  10  20  36  59  86 116 148 182 225 278 333
#     4   9  16  29  54  84 110 138 174 218 270 326
#     4  10  21  37  58  83 109 140 184 234 281 331
#     4  11  24  39  55  80 114 150 189 231 276 331
#
# _framework density 20.348047999999999
#
# number of rings (size 3 to 8) (size 9 to 14) (size 15 to 20)
#    0.000    2.500    0.000    2.250    0.000    7.000 
#    0.000    7.500    0.000    0.000    0.000    0.000 
#    0.000    0.000    0.000    0.000    0.000    0.000 
#
# Total GULP energy -793386.616278 kJ/mol
# GULP energy per Si atom -12396.665879 kJ/mol
# Density = 2.030174 g / cm^3
# Si number density = 20.348048 Si / 1000 Ang^3
#
#
#
# Elastic Constant Matrix: (Units=GPa)
#
#
# Indices 1 2 3 4 5 6 
#
# 1 29.4559 -3.7356 17.5866 0.0000 0.0000 0.0000
# 2 -3.7356 94.1146 44.4571 0.0000 0.0000 0.0000
# 3 17.5866 44.4571 89.4689 0.0000 0.0000 0.0000
# 4 0.0000 0.0000 0.0000 33.6161 0.0000 0.0000
# 5 0.0000 0.0000 0.0000 0.0000 23.2059 0.0000
# 6 0.0000 0.0000 0.0000 0.0000 0.0000 15.9552
#
#
#
# Elastic Compliance Matrix: (Units=1/GPa)
#
#
# Indices 1 2 3 4 5 6 
#
# 1 0.041949 0.007265 -0.011856 0.000000 0.000000 0.000000
# 2 0.007265 0.015143 -0.008953 0.000000 0.000000 0.000000
# 3 -0.011856 -0.008953 0.017956 0.000000 0.000000 0.000000
# 4 0.000000 0.000000 0.000000 0.029748 0.000000 0.000000
# 5 0.000000 0.000000 0.000000 0.000000 0.043092 0.000000
# 6 0.000000 0.000000 0.000000 0.000000 0.000000 0.062676
#
#
# Mechanical properties :
#
#
# Convention : Reuss Voigt Hill
#
# Bulk Modulus (GPa) = 20.84998 36.62839 28.73919
# Shear Modulus (GPa) = 19.71323 24.87086 22.29204
#
# Velocity S-wave (km/s) = 3.11593 3.49989 3.31348
# Velocity P-wave (km/s) = 4.81812 5.86279 5.36594
#
# Compressibility (1/GPa) = 0.04796167
#
# Stress axis : x y z
#
# Youngs Moduli (GPa) = 23.83846 66.03862 55.69146
#
# Poissons Ratio (x) = -0.47980 0.66028
# Poissons Ratio (y) = -0.17320 0.49858
# Poissons Ratio (z) = 0.28263 0.59121
#
# Static dielectric constant tensor:
#      x y z
#    x 3.469210 0.000000 0.000000 
#    y 0.000000 3.818140 0.000000 
#    z 0.000000 0.000000 3.671580 
# 
# 
# High freq. dielectric constant tensor:
#      x y z
#    x 1.775290 0.000000 0.000000 
#    y 0.000000 1.798790 0.000000 
#    z 0.000000 0.000000 1.797070 
# 
# From -- ./inp_files/9792.got.cif
#   From: 2010.03.12/outbox.cif.g09.slc.cpg/sg55_5_cif.got.tgz:9792.got - 2010.04.16 15:19:21.
