data_PCOD8226889
_publ_section_title
;
Structure prediction by ZEFSAII (Michael W. Deem and Ramdas Pophale) SiO2 
 PCOD8226889
Probable space group: P B A M
;
_chemical_formula_sum "Si O2"
_cell_formula_units_Z 48
_cell_length_a 18.509518
_cell_length_b 15.024059
_cell_length_c 9.219061
_cell_angle_alpha 90.000000
_cell_angle_beta 90.000000
_cell_angle_gamma 90.000000
_cell_volume 2563.711070
_symmetry_space_group_name_H-M "P B A M"
_symmetry_group_IT_number 55
_symmetry_cell_setting 'orthorhombic'
loop_
_space_group_symop_operation_xyz
x,y,z
-x,-y,z
1/2+x,1/2-y,-z
1/2-x,1/2+y,-z
-x,-y,-z
x,y,-z
1/2-x,1/2+y,z
1/2+x,1/2-y,z
loop_
_atom_site_type_symbol
_atom_site_label
_atom_site_fract_x
_atom_site_fract_y
_atom_site_fract_z
Si Si1 0.921622 0.753839 0.330217
Si Si2 0.181052 0.915651 0.168883
Si Si3 0.337276 0.100710 0.833307
Si Si4 0.691445 0.406545 0.329695
Si Si5 0.654554 0.101704 0.834369
Si Si6 0.432514 0.265090 0.831370
O O1 0.932493 0.742861 0.500000
O O2 0.863714 0.828646 0.290491
O O3 0.896139 0.659578 0.267871
O O4 0.996918 0.783730 0.261587
O O5 0.261735 0.882815 0.206843
O O6 0.126613 0.838117 0.213106
O O7 0.161081 0.003108 0.259499
O O8 0.176394 0.940926 0.000000
O O9 0.268561 0.121344 0.734216
O O10 0.401361 0.167893 0.792696
O O11 0.366424 0.001163 0.808183
O O12 0.312699 0.114058 0.000000
O O13 0.699430 0.421364 0.500000
O O14 0.639749 0.129766 0.000000
O O15 0.452468 0.272218 0.000000
#
# Coordination Sequence:
#
# PCOD8226889 Si02
#       6
#     8   8   8   8   8   8
#     4  11  24  37  50  76 113 148 179 213 260 318
#     4   9  19  36  59  84 105 133 178 226 268 311
#     4   9  19  37  60  83 105 133 176 225 267 312
#     4  10  21  36  55  79 108 143 178 215 264 317
#     4   9  18  35  59  82 104 134 174 221 267 311
#     4  10  21  37  57  80 107 141 179 220 267 315
#
# _framework density 18.722859
#
# number of rings (size 3 to 8) (size 9 to 14) (size 15 to 20)
#    0.000    2.333    0.000    3.000    0.000    9.333 
#    0.000    6.667    0.000    0.000    0.000    0.000 
#    0.000    0.000    0.000    0.000    0.000    0.000 
#
# Total GULP energy -595392.718366 kJ/mol
# GULP energy per Si atom -12404.014966 kJ/mol
# Density = 1.868024 g / cm^3
# Si number density = 18.722859 Si / 1000 Ang^3
#
#
#
# Elastic Constant Matrix: (Units=GPa)
#
#
# Indices 1 2 3 4 5 6 
#
# 1 46.4484 18.8122 25.6688 0.0000 0.0000 0.0000
# 2 18.8122 73.4180 33.9673 0.0000 0.0000 0.0000
# 3 25.6688 33.9673 59.9140 0.0000 0.0000 0.0000
# 4 0.0000 0.0000 0.0000 27.7800 0.0000 0.0000
# 5 0.0000 0.0000 0.0000 0.0000 23.3468 0.0000
# 6 0.0000 0.0000 0.0000 0.0000 0.0000 13.6869
#
#
#
# Elastic Compliance Matrix: (Units=1/GPa)
#
#
# Indices 1 2 3 4 5 6 
#
# 1 0.028477 -0.002240 -0.010931 0.000000 0.000000 0.000000
# 2 -0.002240 0.018640 -0.009608 0.000000 0.000000 0.000000
# 3 -0.010931 -0.009608 0.026821 0.000000 0.000000 0.000000
# 4 0.000000 0.000000 0.000000 0.035997 0.000000 0.000000
# 5 0.000000 0.000000 0.000000 0.000000 0.042832 0.000000
# 6 0.000000 0.000000 0.000000 0.000000 0.000000 0.073063
#
#
# Mechanical properties :
#
#
# Convention : Reuss Voigt Hill
#
# Bulk Modulus (GPa) = 35.23499 37.40857 36.32178
# Shear Modulus (GPa) = 17.80333 19.71821 18.76077
#
# Velocity S-wave (km/s) = 3.08699 3.24877 3.16891
# Velocity P-wave (km/s) = 5.61837 5.83919 5.72985
#
# Compressibility (1/GPa) = 0.02838088
#
# Stress axis : x y z
#
# Youngs Moduli (GPa) = 35.11616 53.64892 37.28469
#
# Poissons Ratio (x) = 0.12015 0.40754
# Poissons Ratio (y) = 0.07865 0.35823
# Poissons Ratio (z) = 0.38384 0.51546
#
# Static dielectric constant tensor:
#      x y z
#    x 3.359970 0.000000 0.000000 
#    y 0.000000 3.567000 0.000000 
#    z 0.000000 0.000000 3.373370 
# 
# 
# High freq. dielectric constant tensor:
#      x y z
#    x 1.721870 0.000000 0.000000 
#    y 0.000000 1.737310 0.000000 
#    z 0.000000 0.000000 1.722860 
# 
# From -- ./inp_files/5597.got.cif
#   From: 2010.03.12/outbox.cif.g09.slc.cpg/sg55_3_cif.got.tgz:5597.got - 2010.04.16 15:19:21.
