data_PCOD8226792
_publ_section_title
;
Structure prediction by ZEFSAII (Michael W. Deem and Ramdas Pophale) SiO2 
 PCOD8226792
Probable space group: P B A M
;
_chemical_formula_sum "Si O2"
_cell_formula_units_Z 48
_cell_length_a 8.985637
_cell_length_b 17.320506
_cell_length_c 14.817606
_cell_angle_alpha 90.000000
_cell_angle_beta 90.000000
_cell_angle_gamma 90.000000
_cell_volume 2306.149661
_symmetry_space_group_name_H-M "P B A M"
_symmetry_group_IT_number 55
_symmetry_cell_setting 'orthorhombic'
loop_
_space_group_symop_operation_xyz
x,y,z
-x,-y,z
1/2+x,1/2-y,-z
1/2-x,1/2+y,-z
-x,-y,-z
x,y,-z
1/2-x,1/2+y,z
1/2+x,1/2-y,z
loop_
_atom_site_type_symbol
_atom_site_label
_atom_site_fract_x
_atom_site_fract_y
_atom_site_fract_z
Si Si1 0.120471 0.897667 0.650516
Si Si2 0.289655 0.568666 0.348097
Si Si3 0.715087 0.194176 0.500000
Si Si4 0.147802 0.658733 0.000000
Si Si5 0.353162 0.042616 0.840609
Si Si6 0.628590 0.850016 0.500000
Si Si7 0.387548 0.431545 0.153633
Si Si8 0.506972 0.322648 0.000000
O O1 0.210440 0.837634 0.590885
O O2 0.159836 0.885489 0.756248
O O3 0.943363 0.884191 0.637802
O O4 0.176027 0.981850 0.621265
O O5 0.235128 0.576846 0.244891
O O6 0.157247 0.599613 0.410731
O O7 0.539147 0.180363 0.500000
O O8 0.746974 0.284173 0.500000
O O9 0.108313 0.609940 0.089036
O O10 0.317483 0.684047 0.000000
O O11 0.051943 0.736141 0.000000
O O12 0.500000 0.000000 0.805488
O O13 0.253053 0.976430 0.889865
O O14 0.500000 0.500000 0.183213
O O15 0.456055 0.369986 0.086702
#
# Coordination Sequence:
#
# PCOD8226792 Si02
#       8
#     8   8   4   4   8   4   8   4
#     4  10  20  41  68  96 123 161 213 262 318 369
#     4  10  21  41  67  96 125 162 209 266 313 374
#     4  12  27  42  63  91 130 173 208 258 321 386
#     4  12  26  44  60  99 133 175 211 267 321 386
#     4  11  24  41  70  97 132 164 222 268 316 374
#     4  12  27  42  61  91 131 172 209 257 325 382
#     4  11  20  44  70  95 122 176 214 265 318 381
#     4  12  26  41  66  93 137 170 217 259 327 384
#
# _framework density 20.813912999999999
#
# number of rings (size 3 to 8) (size 9 to 14) (size 15 to 20)
#    0.000    1.000    5.000    3.000    7.000    3.333 
#    0.000    3.333    0.000    0.000    0.000    0.000 
#    0.000    0.000    0.000    0.000    0.000    0.000 
#
# Total GULP energy -595190.876236 kJ/mol
# GULP energy per Si atom -12399.809922 kJ/mol
# Density = 2.076654 g / cm^3
# Si number density = 20.813913 Si / 1000 Ang^3
#
#
#
# Elastic Constant Matrix: (Units=GPa)
#
#
# Indices 1 2 3 4 5 6 
#
# 1 127.9619 36.0521 35.9120 0.0000 0.0000 0.0000
# 2 36.0521 77.4569 52.7924 0.0000 0.0000 0.0000
# 3 35.9120 52.7924 128.3272 0.0000 0.0000 0.0000
# 4 0.0000 0.0000 0.0000 -19.9693 0.0000 0.0000
# 5 0.0000 0.0000 0.0000 0.0000 37.4329 0.0000
# 6 0.0000 0.0000 0.0000 0.0000 0.0000 39.6501
#
#
#
# Elastic Compliance Matrix: (Units=1/GPa)
#
#
# Indices 1 2 3 4 5 6 
#
# 1 0.009108 -0.003477 -0.001118 0.000000 0.000000 0.000000
# 2 -0.003477 0.019268 -0.006954 0.000000 0.000000 0.000000
# 3 -0.001118 -0.006954 0.010966 0.000000 0.000000 0.000000
# 4 0.000000 0.000000 0.000000 -0.050077 0.000000 0.000000
# 5 0.000000 0.000000 0.000000 0.000000 0.026714 0.000000
# 6 0.000000 0.000000 0.000000 0.000000 0.000000 0.025221
#
#
# Mechanical properties :
#
#
# Convention : Reuss Voigt Hill
#
# Bulk Modulus (GPa) = 61.56018 64.80655 63.18336
# Shear Modulus (GPa) = 71.72114 25.35537 48.53826
#
# Velocity S-wave (km/s) = 5.87648 3.49405 4.83433
# Velocity P-wave (km/s) = 8.69970 6.89069 7.84750
#
# Compressibility (1/GPa) = 0.01624427
#
# Stress axis : x y z
#
# Youngs Moduli (GPa) = 109.78898 51.89881 91.18887
#
# Poissons Ratio (x) = 0.18046 0.10199
# Poissons Ratio (y) = 0.38175 0.63410
# Poissons Ratio (z) = 0.12280 0.36089
#
# Static dielectric constant tensor:
#      x y z
#    x 3.992310 0.000000 0.000000 
#    y 0.000000 3.611610 0.000000 
#    z 0.000000 0.000000 3.963120 
# 
# 
# High freq. dielectric constant tensor:
#      x y z
#    x 1.827720 0.000000 0.000000 
#    y 0.000000 1.796180 0.000000 
#    z 0.000000 0.000000 1.823080 
# 
# From -- ./inp_files/17445.got.cif
#   From: 2010.03.12/outbox.cif.g09.slc.cpg/sg55_9_cif.got.tgz:17445.got - 2010.04.16 15:19:21.
