data_PCOD8226499
_publ_section_title
;
Structure prediction by ZEFSAII (Michael W. Deem and Ramdas Pophale) SiO2 
 PCOD8226499
Probable space group: P B A M
;
_chemical_formula_sum "Si O2"
_cell_formula_units_Z 48
_cell_length_a 16.254836
_cell_length_b 17.952177
_cell_length_c 9.214443
_cell_angle_alpha 90.000000
_cell_angle_beta 90.000000
_cell_angle_gamma 90.000000
_cell_volume 2688.863783
_symmetry_space_group_name_H-M "P B A M"
_symmetry_group_IT_number 55
_symmetry_cell_setting 'orthorhombic'
loop_
_space_group_symop_operation_xyz
x,y,z
-x,-y,z
1/2+x,1/2-y,-z
1/2-x,1/2+y,-z
-x,-y,-z
x,y,-z
1/2-x,1/2+y,z
1/2+x,1/2-y,z
loop_
_atom_site_type_symbol
_atom_site_label
_atom_site_fract_x
_atom_site_fract_y
_atom_site_fract_z
Si Si1 0.831849 0.406208 0.165122
Si Si2 0.160921 0.161508 0.832395
Si Si3 0.592476 0.477087 0.329847
Si Si4 0.991954 0.414604 0.670960
Si Si5 0.733609 0.551922 0.167010
Si Si6 0.864646 0.669408 0.830992
O O1 0.758058 0.348666 0.193214
O O2 0.801113 0.489085 0.203432
O O3 0.906067 0.382748 0.269354
O O4 0.863383 0.402173 0.000000
O O5 0.108565 0.104015 0.737584
O O6 0.139161 0.244767 0.784669
O O7 0.139097 0.146364 0.000000
O O8 0.500000 0.500000 0.292598
O O9 0.608775 0.472492 0.500000
O O10 0.652841 0.540111 0.264408
O O11 0.993470 0.405454 0.500000
O O12 0.065759 0.367646 0.735544
O O13 0.000000 0.500000 0.720392
O O14 0.776042 0.631181 0.200996
O O15 0.705646 0.545079 0.000000
O O16 0.886668 0.659518 0.000000
#
# Coordination Sequence:
#
# PCOD8226499 Si02
#       6
#     8   8   8   8   8   8
#     4   9  17  33  55  78 105 138 178 219 264 317
#     4   9  20  38  59  82 107 139 182 230 276 319
#     4  10  21  37  57  80 110 146 183 223 268 322
#     4  11  22  33  51  82 115 145 180 218 262 324
#     4   9  18  33  57  82 104 136 180 225 267 318
#     4  10  20  37  58  81 110 141 178 228 278 319
#
# _framework density 17.851406999999998
#
# number of rings (size 3 to 8) (size 9 to 14) (size 15 to 20)
#    0.000    2.333    1.667    2.000    0.000    6.000 
#    3.000    0.000    0.000    0.000    0.000    0.000 
#    0.000    0.000    0.000    0.000    0.000    0.000 
#
# Total GULP energy -595282.600853 kJ/mol
# GULP energy per Si atom -12401.720851 kJ/mol
# Density = 1.781078 g / cm^3
# Si number density = 17.851407 Si / 1000 Ang^3
#
#
#
# Elastic Constant Matrix: (Units=GPa)
#
#
# Indices 1 2 3 4 5 6 
#
# 1 124.7492 61.1234 71.4507 0.0000 0.0000 0.0000
# 2 61.1234 105.7791 52.4652 0.0000 0.0000 0.0000
# 3 71.4507 52.4652 83.2898 0.0000 0.0000 0.0000
# 4 0.0000 0.0000 0.0000 14.1329 0.0000 0.0000
# 5 0.0000 0.0000 0.0000 0.0000 20.0566 0.0000
# 6 0.0000 0.0000 0.0000 0.0000 0.0000 23.9891
#
#
#
# Elastic Compliance Matrix: (Units=1/GPa)
#
#
# Indices 1 2 3 4 5 6 
#
# 1 0.016699 -0.003700 -0.011995 0.000000 0.000000 0.000000
# 2 -0.003700 0.014569 -0.006003 0.000000 0.000000 0.000000
# 3 -0.011995 -0.006003 0.026077 0.000000 0.000000 0.000000
# 4 0.000000 0.000000 0.000000 0.070757 0.000000 0.000000
# 5 0.000000 0.000000 0.000000 0.000000 0.049859 0.000000
# 6 0.000000 0.000000 0.000000 0.000000 0.000000 0.041686
#
#
# Mechanical properties :
#
#
# Convention : Reuss Voigt Hill
#
# Bulk Modulus (GPa) = 71.68534 75.98853 73.83693
# Shear Modulus (GPa) = 18.67813 20.22096 19.44955
#
# Velocity S-wave (km/s) = 3.23818 3.36927 3.30438
# Velocity P-wave (km/s) = 7.36376 7.60234 7.48400
#
# Compressibility (1/GPa) = 0.01394985
#
# Stress axis : x y z
#
# Youngs Moduli (GPa) = 59.88370 68.63764 38.34750
#
# Poissons Ratio (x) = 0.25397 0.45996
# Poissons Ratio (y) = 0.22158 0.23020
# Poissons Ratio (z) = 0.71828 0.41204
#
# Static dielectric constant tensor:
#      x y z
#    x 3.244540 0.000000 0.000000 
#    y 0.000000 3.419510 0.000000 
#    z 0.000000 0.000000 3.245640 
# 
# 
# High freq. dielectric constant tensor:
#      x y z
#    x 1.691290 0.000000 0.000000 
#    y 0.000000 1.681020 0.000000 
#    z 0.000000 0.000000 1.689290 
# 
# From -- ./inp_files/5628.got.cif
#   From: 2010.03.12/outbox.cif.g09.slc.cpg/sg55_3_cif.got.tgz:5628.got - 2010.04.16 15:19:21.
