data_PCOD8226415
_publ_section_title
;
Structure prediction by ZEFSAII (Michael W. Deem and Ramdas Pophale) SiO2 
 PCOD8226415
Probable space group: P B A M
;
_chemical_formula_sum "Si O2"
_cell_formula_units_Z 64
_cell_length_a 14.494663
_cell_length_b 17.408181
_cell_length_c 12.561212
_cell_angle_alpha 90.000000
_cell_angle_beta 90.000000
_cell_angle_gamma 90.000000
_cell_volume 3169.516825
_symmetry_space_group_name_H-M "P B A M"
_symmetry_group_IT_number 55
_symmetry_cell_setting 'orthorhombic'
loop_
_space_group_symop_operation_xyz
x,y,z
-x,-y,z
1/2+x,1/2-y,-z
1/2-x,1/2+y,-z
-x,-y,-z
x,y,-z
1/2-x,1/2+y,z
1/2+x,1/2-y,z
loop_
_atom_site_type_symbol
_atom_site_label
_atom_site_fract_x
_atom_site_fract_y
_atom_site_fract_z
Si Si1 0.437547 0.924728 0.879288
Si Si2 0.188024 0.259118 0.622163
Si Si3 0.631025 0.474550 0.879756
Si Si4 0.794762 0.493718 0.745287
Si Si5 0.504375 0.221701 0.242056
Si Si6 0.674770 0.604406 0.622626
Si Si7 0.036006 0.886065 0.201448
Si Si8 0.850450 0.351576 0.376720
O O1 0.490914 0.849202 0.839570
O O2 0.500000 0.000000 0.876800
O O3 0.354605 0.938324 0.797017
O O4 0.402203 0.910552 0.000000
O O5 0.154642 0.268533 0.500000
O O6 0.257569 0.326672 0.653920
O O7 0.246754 0.180956 0.636592
O O8 0.100886 0.259813 0.699907
O O9 0.734608 0.457304 0.841361
O O10 0.607630 0.566439 0.873544
O O11 0.562718 0.427474 0.803435
O O12 0.619383 0.445532 0.000000
O O13 0.725676 0.526341 0.656534
O O14 0.858828 0.430658 0.689045
O O15 0.475355 0.296157 0.171423
O O16 0.427102 0.206290 0.331350
O O17 0.651081 0.602478 0.500000
O O18 0.575654 0.611533 0.678877
O O19 0.874038 0.366496 0.500000
#
# Coordination Sequence:
#
# PCOD8226415 Si02
#       8
#     8   8   8   8   8   8   8   8
#     4  11  24  41  59  84 120 160 203 255 308 355
#     4  10  21  37  58  88 125 161 197 245 306 361
#     4  10  22  42  66  91 120 160 209 262 315 362
#     4  11  21  41  62  89 119 163 203 253 306 366
#     4  12  22  39  63  92 122 167 208 252 306 377
#     4  10  20  36  59  87 124 162 197 242 300 368
#     4  10  21  37  63  90 123 158 203 255 309 359
#     4  11  23  39  61  92 127 162 205 255 303 369
#
# _framework density 20.192352
#
# number of rings (size 3 to 8) (size 9 to 14) (size 15 to 20)
#    0.000    1.375    3.750    2.625    0.000    1.500 
#    0.000    6.250    0.000    0.750    0.000    0.000 
#    0.000    0.000    0.000    0.000    0.000    0.000 
#
# Total GULP energy -793505.564466 kJ/mol
# GULP energy per Si atom -12398.524445 kJ/mol
# Density = 2.014639 g / cm^3
# Si number density = 20.192352 Si / 1000 Ang^3
#
#
#
# Elastic Constant Matrix: (Units=GPa)
#
#
# Indices 1 2 3 4 5 6 
#
# 1 70.0680 27.4110 34.3032 0.0000 0.0000 0.0000
# 2 27.4110 115.6478 47.9731 0.0000 0.0000 0.0000
# 3 34.3032 47.9731 89.7952 0.0000 0.0000 0.0000
# 4 0.0000 0.0000 0.0000 19.7210 0.0000 0.0000
# 5 0.0000 0.0000 0.0000 0.0000 23.8549 0.0000
# 6 0.0000 0.0000 0.0000 0.0000 0.0000 31.1712
#
#
#
# Elastic Compliance Matrix: (Units=1/GPa)
#
#
# Indices 1 2 3 4 5 6 
#
# 1 0.017842 -0.001801 -0.005854 0.000000 0.000000 0.000000
# 2 -0.001801 0.011291 -0.005344 0.000000 0.000000 0.000000
# 3 -0.005854 -0.005344 0.016228 0.000000 0.000000 0.000000
# 4 0.000000 0.000000 0.000000 0.050707 0.000000 0.000000
# 5 0.000000 0.000000 0.000000 0.000000 0.041920 0.000000
# 6 0.000000 0.000000 0.000000 0.000000 0.000000 0.032081
#
#
# Mechanical properties :
#
#
# Convention : Reuss Voigt Hill
#
# Bulk Modulus (GPa) = 51.64453 54.98729 53.31591
# Shear Modulus (GPa) = 24.68880 26.00434 25.34657
#
# Velocity S-wave (km/s) = 3.50048 3.59253 3.54680
# Velocity P-wave (km/s) = 6.47840 6.67077 6.57529
#
# Compressibility (1/GPa) = 0.01936314
#
# Stress axis : x y z
#
# Youngs Moduli (GPa) = 56.04678 88.56944 61.62229
#
# Poissons Ratio (x) = 0.15948 0.36074
# Poissons Ratio (y) = 0.10092 0.32932
# Poissons Ratio (z) = 0.32810 0.47333
#
# Static dielectric constant tensor:
#      x y z
#    x 3.636290 0.000000 0.000000 
#    y 0.000000 3.708550 0.000000 
#    z 0.000000 0.000000 3.561120 
# 
# 
# High freq. dielectric constant tensor:
#      x y z
#    x 1.788340 0.000000 0.000000 
#    y 0.000000 1.790620 0.000000 
#    z 0.000000 0.000000 1.778830 
# 
# From -- ./inp_files/14395.got.cif
#   From: 2010.03.12/outbox.cif.g09.slc.cpg/sg55_8_cif.got.tgz:14395.got - 2010.04.16 15:19:21.
