data_PCOD8226541
_publ_section_title
;
Structure prediction by ZEFSAII (Michael W. Deem and Ramdas Pophale) SiO2 
 PCOD8226541
Probable space group: P B A M
;
_chemical_formula_sum "Si O2"
_cell_formula_units_Z 64
_cell_length_a 23.747537
_cell_length_b 14.150449
_cell_length_c 9.479894
_cell_angle_alpha 90.000000
_cell_angle_beta 90.000000
_cell_angle_gamma 90.000000
_cell_volume 3185.607570
_symmetry_space_group_name_H-M "P B A M"
_symmetry_group_IT_number 55
_symmetry_cell_setting 'orthorhombic'
loop_
_space_group_symop_operation_xyz
x,y,z
-x,-y,z
1/2+x,1/2-y,-z
1/2-x,1/2+y,-z
-x,-y,-z
x,y,-z
1/2-x,1/2+y,z
1/2+x,1/2-y,z
loop_
_atom_site_type_symbol
_atom_site_label
_atom_site_fract_x
_atom_site_fract_y
_atom_site_fract_z
Si Si1 0.338522 0.855864 0.837531
Si Si2 0.463921 0.610795 0.345756
Si Si3 0.590592 0.638428 0.660269
Si Si4 0.169140 0.566840 0.836905
Si Si5 0.278680 0.669362 0.832766
Si Si6 0.071915 0.649257 0.333877
Si Si7 0.947631 0.667262 0.656952
Si Si8 0.128147 0.022185 0.166495
O O1 0.297834 0.772889 0.775137
O O2 0.398719 0.859995 0.763175
O O3 0.309184 0.958256 0.820105
O O4 0.350739 0.831992 0.000000
O O5 0.442063 0.574099 0.500000
O O6 0.529983 0.585010 0.329071
O O7 0.458853 0.722465 0.344750
O O8 0.429726 0.570409 0.214522
O O9 0.612546 0.638561 0.500000
O O10 0.586264 0.744711 0.718275
O O11 0.634106 0.580013 0.758114
O O12 0.216956 0.638534 0.777401
O O13 0.112373 0.577709 0.747818
O O14 0.155715 0.588131 0.000000
O O15 0.322018 0.589838 0.780239
O O16 0.277160 0.669798 0.000000
O O17 0.082351 0.640518 0.500000
O O18 0.007434 0.620759 0.297444
O O19 0.930691 0.632131 0.500000
O O20 0.128249 0.007099 0.000000
#
# Coordination Sequence:
#
# PCOD8226541 Si02
#       8
#     8   8   8   8   8   8   8   8
#     4  10  20  37  60  84 112 145 183 232 282 331
#     4   9  17  31  50  74 108 149 185 219 269 332
#     4   9  19  34  51  74 110 151 182 216 274 336
#     4  10  22  39  60  83 108 146 190 228 280 338
#     4   9  20  38  56  79 113 149 185 230 281 332
#     4   9  20  39  58  80 114 150 185 231 282 331
#     4   9  18  34  58  84 111 148 187 225 279 338
#     4  11  20  30  50  80 109 143 188 232 272 317
#
# _framework density 20.090358999999999
#
# number of rings (size 3 to 8) (size 9 to 14) (size 15 to 20)
#    0.000    2.500    1.250    2.250    0.000    5.000 
#    0.000    9.375    0.000    0.000    0.000    0.000 
#    0.000    0.000    0.000    0.000    0.000    0.000 
#
# Total GULP energy -793348.345081 kJ/mol
# GULP energy per Si atom -12396.067892 kJ/mol
# Density = 2.004463 g / cm^3
# Si number density = 20.090359 Si / 1000 Ang^3
#
#
#
# Elastic Constant Matrix: (Units=GPa)
#
#
# Indices 1 2 3 4 5 6 
#
# 1 92.2114 50.7499 35.4880 0.0000 0.0000 0.0000
# 2 50.7499 65.4255 27.0446 0.0000 0.0000 0.0000
# 3 35.4880 27.0446 55.3804 0.0000 0.0000 0.0000
# 4 0.0000 0.0000 0.0000 27.4514 0.0000 0.0000
# 5 0.0000 0.0000 0.0000 0.0000 15.1192 0.0000
# 6 0.0000 0.0000 0.0000 0.0000 0.0000 29.4832
#
#
#
# Elastic Compliance Matrix: (Units=1/GPa)
#
#
# Indices 1 2 3 4 5 6 
#
# 1 0.020798 -0.013310 -0.006827 0.000000 0.000000 0.000000
# 2 -0.013310 0.027669 -0.004983 0.000000 0.000000 0.000000
# 3 -0.006827 -0.004983 0.024865 0.000000 0.000000 0.000000
# 4 0.000000 0.000000 0.000000 0.036428 0.000000 0.000000
# 5 0.000000 0.000000 0.000000 0.000000 0.066141 0.000000
# 6 0.000000 0.000000 0.000000 0.000000 0.000000 0.033918
#
#
# Mechanical properties :
#
#
# Convention : Reuss Voigt Hill
#
# Bulk Modulus (GPa) = 43.30634 48.84248 46.07441
# Shear Modulus (GPa) = 18.67371 21.05974 19.86672
#
# Velocity S-wave (km/s) = 3.05206 3.24118 3.14804
# Velocity P-wave (km/s) = 5.83289 6.19445 6.01639
#
# Compressibility (1/GPa) = 0.02309131
#
# Stress axis : x y z
#
# Youngs Moduli (GPa) = 48.08215 36.14155 40.21709
#
# Poissons Ratio (x) = 0.48106 0.27457
# Poissons Ratio (y) = 0.64000 0.20038
# Poissons Ratio (z) = 0.32827 0.18008
#
# Static dielectric constant tensor:
#      x y z
#    x 3.625610 0.000000 0.000000 
#    y 0.000000 3.860520 0.000000 
#    z 0.000000 0.000000 3.568030 
# 
# 
# High freq. dielectric constant tensor:
#      x y z
#    x 1.765900 0.000000 0.000000 
#    y 0.000000 1.801420 0.000000 
#    z 0.000000 0.000000 1.759010 
# 
# From -- ./inp_files/9679.got.cif
#   From: 2010.03.12/outbox.cif.g09.slc.cpg/sg55_5_cif.got.tgz:9679.got - 2010.04.16 15:19:21.
