data_PCOD8226050
_publ_section_title
;
Structure prediction by ZEFSAII (Michael W. Deem and Ramdas Pophale) SiO2 
 PCOD8226050
Probable space group: P B A M
;
_chemical_formula_sum "Si O2"
_cell_formula_units_Z 64
_cell_length_a 16.373964
_cell_length_b 22.199377
_cell_length_c 9.205984
_cell_angle_alpha 90.000000
_cell_angle_beta 90.000000
_cell_angle_gamma 90.000000
_cell_volume 3346.299693
_symmetry_space_group_name_H-M "P B A M"
_symmetry_group_IT_number 55
_symmetry_cell_setting 'orthorhombic'
loop_
_space_group_symop_operation_xyz
x,y,z
-x,-y,z
1/2+x,1/2-y,-z
1/2-x,1/2+y,-z
-x,-y,-z
x,y,-z
1/2-x,1/2+y,z
1/2+x,1/2-y,z
loop_
_atom_site_type_symbol
_atom_site_label
_atom_site_fract_x
_atom_site_fract_y
_atom_site_fract_z
Si Si1 0.929159 0.214551 0.158487
Si Si2 0.901610 0.847596 0.160926
Si Si3 0.264466 0.707318 0.331029
Si Si4 0.413994 0.533725 0.333803
Si Si5 0.583152 0.964548 0.328643
Si Si6 0.117098 0.655286 0.171371
Si Si7 0.254438 0.966979 0.329374
Si Si8 0.708196 0.661753 0.669345
O O1 0.931390 0.283677 0.214552
O O2 0.881188 0.169075 0.262655
O O3 0.018990 0.191614 0.144279
O O4 0.885793 0.214467 0.000000
O O5 0.853422 0.812167 0.284510
O O6 0.920807 0.913435 0.218683
O O7 0.860203 0.851716 0.000000
O O8 0.247772 0.695068 0.500000
O O9 0.207241 0.663893 0.236325
O O10 0.258277 0.778005 0.292648
O O11 0.500000 0.500000 0.318876
O O12 0.402895 0.556258 0.500000
O O13 0.333256 0.495841 0.287884
O O14 0.590684 0.953285 0.500000
O O15 0.573946 0.900826 0.248559
O O16 0.500000 0.000000 0.291203
O O17 0.665236 0.998393 0.267396
O O18 0.120710 0.643174 0.000000
O O19 0.265849 0.965896 0.500000
O O20 0.253622 0.897891 0.269354
O O21 0.693448 0.653358 0.500000
#
# Coordination Sequence:
#
# PCOD8226050 Si02
#       8
#     8   8   8   8   8   8   8   8
#     4   9  20  36  53  76 107 140 172 217 271 319
#     4  11  22  35  52  77 110 144 178 216 265 325
#     4  10  20  34  55  82 108 135 174 224 270 318
#     4  10  20  34  55  81 109 144 183 225 274 325
#     4  10  21  36  55  79 108 144 184 227 274 322
#     4  10  20  37  58  77 103 140 181 223 273 328
#     4   9  18  34  54  77 108 140 174 221 271 321
#     4   9  18  34  56  78 100 133 176 218 265 320
#
# _framework density 19.125602000000001
#
# number of rings (size 3 to 8) (size 9 to 14) (size 15 to 20)
#    0.000    2.250    0.000    2.625    0.000    5.500 
#    0.000    2.500    0.000    0.000    0.000    0.000 
#    0.000    0.000    0.000    0.000    0.000    0.000 
#
# Total GULP energy -793221.784950 kJ/mol
# GULP energy per Si atom -12394.090390 kJ/mol
# Density = 1.908207 g / cm^3
# Si number density = 19.125602 Si / 1000 Ang^3
#
#
#
# Elastic Constant Matrix: (Units=GPa)
#
#
# Indices 1 2 3 4 5 6 
#
# 1 101.2404 51.9226 29.6796 0.0000 0.0000 0.0000
# 2 51.9226 121.1988 44.6479 0.0000 0.0000 0.0000
# 3 29.6796 44.6479 57.0028 0.0000 0.0000 0.0000
# 4 0.0000 0.0000 0.0000 0.2475 0.0000 0.0000
# 5 0.0000 0.0000 0.0000 0.0000 22.2154 0.0000
# 6 0.0000 0.0000 0.0000 0.0000 0.0000 -7.0495
#
#
#
# Elastic Compliance Matrix: (Units=1/GPa)
#
#
# Indices 1 2 3 4 5 6 
#
# 1 0.013115 -0.004361 -0.003412 0.000000 0.000000 0.000000
# 2 -0.004361 0.013048 -0.007949 0.000000 0.000000 0.000000
# 3 -0.003412 -0.007949 0.025546 0.000000 0.000000 0.000000
# 4 0.000000 0.000000 0.000000 4.040565 0.000000 0.000000
# 5 0.000000 0.000000 0.000000 0.000000 0.045014 0.000000
# 6 0.000000 0.000000 0.000000 0.000000 0.000000 -0.141854
#
#
# Mechanical properties :
#
#
# Convention : Reuss Voigt Hill
#
# Bulk Modulus (GPa) = 49.35124 59.10469 54.22797
# Shear Modulus (GPa) = 1.23958 13.29548 7.26753
#
# Velocity S-wave (km/s) = 0.80594 2.63946 1.95145
# Velocity P-wave (km/s) = 5.16970 6.34504 5.78729
#
# Compressibility (1/GPa) = 0.02026291
#
# Stress axis : x y z
#
# Youngs Moduli (GPa) = 76.25080 76.64262 39.14560
#
# Poissons Ratio (x) = 0.33427 0.13358
# Poissons Ratio (y) = 0.33256 0.31116
# Poissons Ratio (z) = 0.26019 0.60922
#
# Static dielectric constant tensor:
#      x y z
#    x 3.485720 0.000000 0.000000 
#    y 0.000000 3.680800 0.000000 
#    z 0.000000 0.000000 3.542320 
# 
# 
# High freq. dielectric constant tensor:
#      x y z
#    x 1.736580 0.000000 0.000000 
#    y 0.000000 1.754660 0.000000 
#    z 0.000000 0.000000 1.733820 
# 
# From -- ./inp_files/6553.got.cif
#   From: 2010.03.12/outbox.cif.g09.slc.cpg/sg55_4_cif.got.tgz:6553.got - 2010.04.16 15:19:21.
