data_PCOD8226405
_publ_section_title
;
Structure prediction by ZEFSAII (Michael W. Deem and Ramdas Pophale) SiO2 
 PCOD8226405
Probable space group: P B A M
;
_chemical_formula_sum "Si O2"
_cell_formula_units_Z 64
_cell_length_a 17.091437
_cell_length_b 14.629686
_cell_length_c 12.855714
_cell_angle_alpha 90.000000
_cell_angle_beta 90.000000
_cell_angle_gamma 90.000000
_cell_volume 3214.473024
_symmetry_space_group_name_H-M "P B A M"
_symmetry_group_IT_number 55
_symmetry_cell_setting 'orthorhombic'
loop_
_space_group_symop_operation_xyz
x,y,z
-x,-y,z
1/2+x,1/2-y,-z
1/2-x,1/2+y,-z
-x,-y,-z
x,y,-z
1/2-x,1/2+y,z
1/2+x,1/2-y,z
loop_
_atom_site_type_symbol
_atom_site_label
_atom_site_fract_x
_atom_site_fract_y
_atom_site_fract_z
Si Si1 0.798329 0.275690 0.622715
Si Si2 0.042224 0.086459 0.249756
Si Si3 0.054819 0.629471 0.118006
Si Si4 0.556682 0.082916 0.296481
Si Si5 0.880658 0.763054 0.617533
Si Si6 0.169156 0.994219 0.880228
Si Si7 0.390184 0.312722 0.800901
Si Si8 0.318312 0.043675 0.752940
O O1 0.819390 0.272804 0.500000
O O2 0.709892 0.242519 0.644025
O O3 0.854482 0.206749 0.686229
O O4 0.814130 0.377375 0.666273
O O5 0.097871 0.143822 0.323768
O O6 0.089779 0.045724 0.151645
O O7 0.978434 0.154767 0.206638
O O8 0.000000 0.000000 0.307628
O O9 0.103317 0.723133 0.129213
O O10 0.116765 0.555515 0.157096
O O11 0.975878 0.618561 0.185446
O O12 0.030059 0.612122 0.000000
O O13 0.561931 0.176120 0.363773
O O14 0.500000 0.000000 0.340292
O O15 0.646994 0.048409 0.298939
O O16 0.890001 0.792235 0.500000
O O17 0.235155 0.032810 0.804979
O O18 0.162814 0.885695 0.861846
O O19 0.188606 0.014872 0.000000
#
# Coordination Sequence:
#
# PCOD8226405 Si02
#       8
#     8   8   8   8   8   8   8   8
#     4  10  22  41  65  88 120 167 208 260 315 365
#     4  10  22  40  61  90 124 157 203 260 310 372
#     4  10  20  36  59  86 122 165 205 248 311 369
#     4  10  22  39  59  91 125 164 203 260 306 370
#     4  11  22  41  63  87 123 164 208 258 319 368
#     4  11  22  38  63  90 123 162 205 257 315 367
#     4  10  21  39  60  89 120 156 205 256 299 377
#     4  10  21  38  60  86 128 156 210 261 303 375
#
# _framework density 19.909949999999998
#
# number of rings (size 3 to 8) (size 9 to 14) (size 15 to 20)
#    0.000    1.750    2.500    1.500    0.000    7.000 
#    0.000    2.500    0.000    0.000    0.000    0.000 
#    0.000    0.000    0.000    0.000    0.000    0.000 
#
# Total GULP energy -793104.776906 kJ/mol
# GULP energy per Si atom -12392.262139 kJ/mol
# Density = 1.986463 g / cm^3
# Si number density = 19.909950 Si / 1000 Ang^3
#
#
#
# Elastic Constant Matrix: (Units=GPa)
#
#
# Indices 1 2 3 4 5 6 
#
# 1 78.0349 16.3469 25.4314 0.0000 0.0000 0.0000
# 2 16.3469 85.2699 23.1945 0.0000 0.0000 0.0000
# 3 25.4314 23.1945 66.3678 0.0000 0.0000 0.0000
# 4 0.0000 0.0000 0.0000 19.6447 0.0000 0.0000
# 5 0.0000 0.0000 0.0000 0.0000 26.1464 0.0000
# 6 0.0000 0.0000 0.0000 0.0000 0.0000 38.1079
#
#
#
# Elastic Compliance Matrix: (Units=1/GPa)
#
#
# Indices 1 2 3 4 5 6 
#
# 1 0.014800 -0.001431 -0.005171 0.000000 0.000000 0.000000
# 2 -0.001431 0.013098 -0.004029 0.000000 0.000000 0.000000
# 3 -0.005171 -0.004029 0.018457 0.000000 0.000000 0.000000
# 4 0.000000 0.000000 0.000000 0.050904 0.000000 0.000000
# 5 0.000000 0.000000 0.000000 0.000000 0.038246 0.000000
# 6 0.000000 0.000000 0.000000 0.000000 0.000000 0.026241
#
#
# Mechanical properties :
#
#
# Convention : Reuss Voigt Hill
#
# Bulk Modulus (GPa) = 39.85222 39.95759 39.90490
# Shear Modulus (GPa) = 26.12704 27.75978 26.94341
#
# Velocity S-wave (km/s) = 3.62644 3.73804 3.68266
# Velocity P-wave (km/s) = 6.13143 6.22441 6.17810
#
# Compressibility (1/GPa) = 0.02509271
#
# Stress axis : x y z
#
# Youngs Moduli (GPa) = 67.56886 76.34904 54.17938
#
# Poissons Ratio (x) = 0.10923 0.28017
# Poissons Ratio (y) = 0.09667 0.21830
# Poissons Ratio (z) = 0.34941 0.30763
#
# Static dielectric constant tensor:
#      x y z
#    x 3.772880 0.000000 0.000000 
#    y 0.000000 3.910700 0.000000 
#    z 0.000000 0.000000 3.362930 
# 
# 
# High freq. dielectric constant tensor:
#      x y z
#    x 1.784470 0.000000 0.000000 
#    y 0.000000 1.790940 0.000000 
#    z 0.000000 0.000000 1.753720 
# 
# From -- ./inp_files/14988.got.cif
#   From: 2010.03.12/outbox.cif.g09.slc.cpg/sg55_8_cif.got.tgz:14988.got - 2010.04.16 15:19:21.
