data_PCOD8226113
_publ_section_title
;
Structure prediction by ZEFSAII (Michael W. Deem and Ramdas Pophale) SiO2 
 PCOD8226113
Probable space group: P B A M
;
_chemical_formula_sum "Si O2"
_cell_formula_units_Z 64
_cell_length_a 19.723418
_cell_length_b 20.290642
_cell_length_c 8.947272
_cell_angle_alpha 90.000000
_cell_angle_beta 90.000000
_cell_angle_gamma 90.000000
_cell_volume 3580.705534
_symmetry_space_group_name_H-M "P B A M"
_symmetry_group_IT_number 55
_symmetry_cell_setting 'orthorhombic'
loop_
_space_group_symop_operation_xyz
x,y,z
-x,-y,z
1/2+x,1/2-y,-z
1/2-x,1/2+y,-z
-x,-y,-z
x,y,-z
1/2-x,1/2+y,z
1/2+x,1/2-y,z
loop_
_atom_site_type_symbol
_atom_site_label
_atom_site_fract_x
_atom_site_fract_y
_atom_site_fract_z
Si Si1 0.174949 0.427696 0.675360
Si Si2 0.919982 0.178502 0.825157
Si Si3 0.422214 0.186834 0.674840
Si Si4 0.817777 0.425550 0.676445
Si Si5 0.328358 0.430364 0.323638
Si Si6 0.076820 0.317001 0.675874
Si Si7 0.322435 0.568502 0.823281
Si Si8 0.576107 0.317084 0.826628
O O1 0.164223 0.425394 0.500000
O O2 0.158589 0.501854 0.731057
O O3 0.251851 0.408873 0.718483
O O4 0.123004 0.375111 0.747742
O O5 0.896953 0.250125 0.767306
O O6 0.878792 0.123784 0.737739
O O7 0.998542 0.166414 0.786725
O O8 0.904562 0.173108 0.000000
O O9 0.415901 0.203330 0.500000
O O10 0.376078 0.125327 0.721420
O O11 0.499003 0.168320 0.719085
O O12 0.802762 0.425682 0.500000
O O13 0.749005 0.405700 0.760169
O O14 0.337333 0.437837 0.500000
O O15 0.345608 0.500047 0.249135
O O16 0.086757 0.313338 0.500000
O O17 0.101545 0.247511 0.740537
O O18 0.378803 0.621473 0.776254
O O19 0.317483 0.559549 0.000000
O O20 0.584481 0.301579 0.000000
#
# Coordination Sequence:
#
# PCOD8226113 Si02
#       8
#     8   8   8   8   8   8   8   8
#     4   8  16  31  50  73 100 129 161 201 246 289
#     4  10  20  35  53  72  98 132 166 202 247 297
#     4   9  18  32  51  75 101 130 166 207 247 290
#     4   9  18  33  51  73 103 134 164 204 252 294
#     4  10  20  35  53  75 103 130 161 204 251 297
#     4   9  17  31  52  75  98 128 167 205 243 293
#     4  10  20  35  53  73  98 130 169 207 246 297
#     4   9  20  36  51  70  99 131 163 204 249 291
#
# _framework density 17.873573
#
# number of rings (size 3 to 8) (size 9 to 14) (size 15 to 20)
#    0.000    2.750    0.000    1.875    0.000    4.000 
#    0.000   11.875    0.000    0.000    0.000    7.000 
#    0.000    0.000    0.000    0.000    0.000    0.000 
#
# Total GULP energy -793613.745328 kJ/mol
# GULP energy per Si atom -12400.214771 kJ/mol
# Density = 1.783289 g / cm^3
# Si number density = 17.873573 Si / 1000 Ang^3
#
#
#
# Elastic Constant Matrix: (Units=GPa)
#
#
# Indices 1 2 3 4 5 6 
#
# 1 106.7133 101.9828 41.6715 0.0000 0.0000 0.0000
# 2 101.9828 155.5318 56.3434 0.0000 0.0000 0.0000
# 3 41.6715 56.3434 49.7161 0.0000 0.0000 0.0000
# 4 0.0000 0.0000 0.0000 15.8261 0.0000 0.0000
# 5 0.0000 0.0000 0.0000 0.0000 23.9215 0.0000
# 6 0.0000 0.0000 0.0000 0.0000 0.0000 38.5976
#
#
#
# Elastic Compliance Matrix: (Units=1/GPa)
#
#
# Indices 1 2 3 4 5 6 
#
# 1 0.025588 -0.015283 -0.004127 0.000000 0.000000 0.000000
# 2 -0.015283 0.020036 -0.009897 0.000000 0.000000 0.000000
# 3 -0.004127 -0.009897 0.034790 0.000000 0.000000 0.000000
# 4 0.000000 0.000000 0.000000 0.063187 0.000000 0.000000
# 5 0.000000 0.000000 0.000000 0.000000 0.041803 0.000000
# 6 0.000000 0.000000 0.000000 0.000000 0.000000 0.025908
#
#
# Mechanical properties :
#
#
# Convention : Reuss Voigt Hill
#
# Bulk Modulus (GPa) = 45.87258 79.10628 62.48943
# Shear Modulus (GPa) = 18.03796 23.13329 20.58562
#
# Velocity S-wave (km/s) = 3.18023 3.60150 3.39740
# Velocity P-wave (km/s) = 6.26146 7.85171 7.10124
#
# Compressibility (1/GPa) = 0.02179952
#
# Stress axis : x y z
#
# Youngs Moduli (GPa) = 39.08037 49.91030 28.74423
#
# Poissons Ratio (x) = 0.76279 0.11864
# Poissons Ratio (y) = 0.59727 0.28447
# Poissons Ratio (z) = 0.16130 0.49394
#
# Static dielectric constant tensor:
#      x y z
#    x 3.416160 0.000000 0.000000 
#    y 0.000000 3.500250 0.000000 
#    z 0.000000 0.000000 3.197350 
# 
# 
# High freq. dielectric constant tensor:
#      x y z
#    x 1.691260 0.000000 0.000000 
#    y 0.000000 1.699250 0.000000 
#    z 0.000000 0.000000 1.681250 
# 
# From -- ./inp_files/7979.got.cif
#   From: 2010.03.12/outbox.cif.g09.slc.cpg/sg55_4_cif.got.tgz:7979.got - 2010.04.16 15:19:21.
