data_PCOD8226975
_publ_section_title
;
Structure prediction by ZEFSAII (Michael W. Deem and Ramdas Pophale) SiO2 
 PCOD8226975
Probable space group: P B A M
;
_chemical_formula_sum "Si O2"
_cell_formula_units_Z 40
_cell_length_a 18.357769
_cell_length_b 13.351692
_cell_length_c 8.606361
_cell_angle_alpha 90.000000
_cell_angle_beta 90.000000
_cell_angle_gamma 90.000000
_cell_volume 2109.481714
_symmetry_space_group_name_H-M "P B A M"
_symmetry_group_IT_number 55
_symmetry_cell_setting 'orthorhombic'
loop_
_space_group_symop_operation_xyz
x,y,z
-x,-y,z
1/2+x,1/2-y,-z
1/2-x,1/2+y,-z
-x,-y,-z
x,y,-z
1/2-x,1/2+y,z
1/2+x,1/2-y,z
loop_
_atom_site_type_symbol
_atom_site_label
_atom_site_fract_x
_atom_site_fract_y
_atom_site_fract_z
Si Si1 0.718688 0.106863 0.320365
Si Si2 0.858475 0.784447 0.180917
Si Si3 0.503069 0.385040 0.680333
Si Si4 0.784214 0.400770 0.178716
Si Si5 0.640076 0.696466 0.821040
O O1 0.738088 0.119207 0.500000
O O2 0.653275 0.181639 0.275268
O O3 0.790106 0.129372 0.218977
O O4 0.692953 0.994017 0.285158
O O5 0.796205 0.863760 0.228209
O O6 0.936620 0.829202 0.218862
O O7 0.852643 0.758373 0.000000
O O8 0.500000 0.500000 0.734179
O O9 0.523551 0.376406 0.500000
O O10 0.426049 0.333229 0.710713
O O11 0.842275 0.312820 0.208789
O O12 0.785068 0.434296 0.000000
O O13 0.619478 0.676535 0.000000
#
# Coordination Sequence:
#
# PCOD8226975 Si02
#       5
#     8   8   8   8   8
#     4  11  21  34  56  83 111 142 177 223 273 318
#     4  10  21  37  57  80 109 145 184 223 263 318
#     4  11  23  37  55  82 114 143 174 220 275 323
#     4   9  19  36  57  80 106 140 182 223 265 316
#     4  10  21  37  57  80 108 144 184 223 264 318
#
# _framework density 18.962004
#
# number of rings (size 3 to 8) (size 9 to 14) (size 15 to 20)
#    0.000    1.800    0.000    6.000    0.000    9.600 
#    0.000    1.000    0.000    6.000    0.000    0.000 
#    0.000    0.000    0.000    0.000    0.000    0.000 
#
# Total GULP energy -496240.617456 kJ/mol
# GULP energy per Si atom -12406.015436 kJ/mol
# Density = 1.891885 g / cm^3
# Si number density = 18.962004 Si / 1000 Ang^3
#
#
#
# Elastic Constant Matrix: (Units=GPa)
#
#
# Indices 1 2 3 4 5 6 
#
# 1 84.1608 39.2463 9.5303 0.0000 0.0000 0.0000
# 2 39.2463 126.4288 42.2827 0.0000 0.0000 0.0000
# 3 9.5303 42.2827 66.6858 0.0000 0.0000 0.0000
# 4 0.0000 0.0000 0.0000 28.0822 0.0000 0.0000
# 5 0.0000 0.0000 0.0000 0.0000 31.4797 0.0000
# 6 0.0000 0.0000 0.0000 0.0000 0.0000 19.9782
#
#
#
# Elastic Compliance Matrix: (Units=1/GPa)
#
#
# Indices 1 2 3 4 5 6 
#
# 1 0.013941 -0.004647 0.000954 0.000000 0.000000 0.000000
# 2 -0.004647 0.011587 -0.006683 0.000000 0.000000 0.000000
# 3 0.000954 -0.006683 0.019097 0.000000 0.000000 0.000000
# 4 0.000000 0.000000 0.000000 0.035610 0.000000 0.000000
# 5 0.000000 0.000000 0.000000 0.000000 0.031767 0.000000
# 6 0.000000 0.000000 0.000000 0.000000 0.000000 0.050055
#
#
# Mechanical properties :
#
#
# Convention : Reuss Voigt Hill
#
# Bulk Modulus (GPa) = 41.88746 51.04378 46.46562
# Shear Modulus (GPa) = 26.21040 28.32241 27.26640
#
# Velocity S-wave (km/s) = 3.72191 3.86896 3.79614
# Velocity P-wave (km/s) = 6.37246 6.85097 6.61605
#
# Compressibility (1/GPa) = 0.02387349
#
# Stress axis : x y z
#
# Youngs Moduli (GPa) = 71.73191 86.30401 52.36524
#
# Poissons Ratio (x) = 0.40101 -0.04995
# Poissons Ratio (y) = 0.33330 0.34994
# Poissons Ratio (z) = -0.06842 0.57675
#
# Static dielectric constant tensor:
#      x y z
#    x 3.258070 0.000000 0.000000 
#    y 0.000000 3.538530 0.000000 
#    z 0.000000 0.000000 3.415580 
# 
# 
# High freq. dielectric constant tensor:
#      x y z
#    x 1.719920 0.000000 0.000000 
#    y 0.000000 1.743460 0.000000 
#    z 0.000000 0.000000 1.744770 
# 
# From -- ./inp_files/3592.got.cif
#   From: 2010.03.12/outbox.cif.g09.slc.cpg/sg55_2_cif.got.tgz:3592.got - 2010.04.16 15:19:21.
