data_PCOD8226525
_publ_section_title
;
Structure prediction by ZEFSAII (Michael W. Deem and Ramdas Pophale) SiO2 
 PCOD8226525
Probable space group: P B A M
;
_chemical_formula_sum "Si O2"
_cell_formula_units_Z 64
_cell_length_a 14.301075
_cell_length_b 25.209694
_cell_length_c 9.009159
_cell_angle_alpha 90.000000
_cell_angle_beta 90.000000
_cell_angle_gamma 90.000000
_cell_volume 3248.033577
_symmetry_space_group_name_H-M "P B A M"
_symmetry_group_IT_number 55
_symmetry_cell_setting 'orthorhombic'
loop_
_space_group_symop_operation_xyz
x,y,z
-x,-y,z
1/2+x,1/2-y,-z
1/2-x,1/2+y,-z
-x,-y,-z
x,y,-z
1/2-x,1/2+y,z
1/2+x,1/2-y,z
loop_
_atom_site_type_symbol
_atom_site_label
_atom_site_fract_x
_atom_site_fract_y
_atom_site_fract_z
Si Si1 0.745535 0.922314 0.824786
Si Si2 0.940219 0.448780 0.671220
Si Si3 0.048710 0.250379 0.331250
Si Si4 0.137263 0.776218 0.174942
Si Si5 0.604341 0.508102 0.823796
Si Si6 0.786123 0.110498 0.175644
Si Si7 0.098859 0.367690 0.672120
Si Si8 0.736244 0.310414 0.669262
O O1 0.649784 0.949986 0.775497
O O2 0.754622 0.866025 0.748613
O O3 0.831683 0.958945 0.772727
O O4 0.744995 0.914526 0.000000
O O5 0.908188 0.449608 0.500000
O O6 0.000000 0.500000 0.711596
O O7 0.001485 0.396807 0.706541
O O8 0.010589 0.255295 0.500000
O O9 0.087951 0.306956 0.276533
O O10 0.129468 0.207137 0.320783
O O11 0.969716 0.230878 0.220082
O O12 0.169845 0.834071 0.229346
O O13 0.198511 0.732082 0.253120
O O14 0.147836 0.769835 0.000000
O O15 0.500000 0.500000 0.757734
O O16 0.648805 0.562919 0.762763
O O17 0.599525 0.510930 0.000000
O O18 0.682022 0.104210 0.238975
O O19 0.778856 0.107465 0.000000
O O20 0.125281 0.371764 0.500000
O O21 0.769919 0.316254 0.500000
#
# Coordination Sequence:
#
# PCOD8226525 Si02
#       8
#     8   8   8   8   8   8   8   8
#     4  11  23  38  62  91 119 157 205 256 308 358
#     4  10  21  37  60  89 122 160 197 241 302 365
#     4  10  22  38  58  83 115 161 204 241 299 365
#     4  11  23  37  60  93 123 154 200 253 303 356
#     4   9  20  39  61  85 119 160 198 240 299 363
#     4  10  21  37  60  89 118 154 195 243 297 352
#     4  10  20  37  59  84 115 156 197 237 292 358
#     4  11  23  41  62  85 122 164 202 245 303 367
#
# _framework density 19.704229999999999
#
# number of rings (size 3 to 8) (size 9 to 14) (size 15 to 20)
#    0.000    1.750    1.250    2.625    1.750    3.750 
#    0.000    0.625    0.000    1.875    0.000    0.000 
#    0.000    0.000    0.000    0.000    0.000    0.000 
#
# Total GULP energy -793897.801316 kJ/mol
# GULP energy per Si atom -12404.653146 kJ/mol
# Density = 1.965938 g / cm^3
# Si number density = 19.704230 Si / 1000 Ang^3
#
#
#
# Elastic Constant Matrix: (Units=GPa)
#
#
# Indices 1 2 3 4 5 6 
#
# 1 116.4532 45.9424 37.3734 0.0000 0.0000 0.0000
# 2 45.9424 127.4091 46.1015 0.0000 0.0000 0.0000
# 3 37.3734 46.1015 50.6807 0.0000 0.0000 0.0000
# 4 0.0000 0.0000 0.0000 5.0840 0.0000 0.0000
# 5 0.0000 0.0000 0.0000 0.0000 1.4491 0.0000
# 6 0.0000 0.0000 0.0000 0.0000 0.0000 30.3888
#
#
#
# Elastic Compliance Matrix: (Units=1/GPa)
#
#
# Indices 1 2 3 4 5 6 
#
# 1 0.011465 -0.001602 -0.006997 0.000000 0.000000 0.000000
# 2 -0.001602 0.011924 -0.009665 0.000000 0.000000 0.000000
# 3 -0.006997 -0.009665 0.033682 0.000000 0.000000 0.000000
# 4 0.000000 0.000000 0.000000 0.196695 0.000000 0.000000
# 5 0.000000 0.000000 0.000000 0.000000 0.690097 0.000000
# 6 0.000000 0.000000 0.000000 0.000000 0.000000 0.032907
#
#
# Mechanical properties :
#
#
# Convention : Reuss Voigt Hill
#
# Bulk Modulus (GPa) = 48.67811 61.48639 55.08225
# Shear Modulus (GPa) = 4.90126 18.39276 11.64701
#
# Velocity S-wave (km/s) = 1.57887 3.05854 2.43388
# Velocity P-wave (km/s) = 5.29922 6.61402 5.99279
#
# Compressibility (1/GPa) = 0.02054312
#
# Stress axis : x y z
#
# Youngs Moduli (GPa) = 87.22346 83.86773 29.68908
#
# Poissons Ratio (x) = 0.13439 0.20773
# Poissons Ratio (y) = 0.13976 0.28693
# Poissons Ratio (z) = 0.61029 0.81055
#
# Static dielectric constant tensor:
#      x y z
#    x 3.675120 0.000000 0.000000 
#    y 0.000000 3.903640 0.000000 
#    z 0.000000 0.000000 3.444330 
# 
# 
# High freq. dielectric constant tensor:
#      x y z
#    x 1.777980 0.000000 0.000000 
#    y 0.000000 1.784150 0.000000 
#    z 0.000000 0.000000 1.752600 
# 
# From -- ./inp_files/6651.got.cif
#   From: 2010.03.12/outbox.cif.g09.slc.cpg/sg55_4_cif.got.tgz:6651.got - 2010.04.16 15:19:21.
