data_PCOD8226312
_publ_section_title
;
Structure prediction by ZEFSAII (Michael W. Deem and Ramdas Pophale) SiO2 
 PCOD8226312
Probable space group: P B A M
;
_chemical_formula_sum "Si O2"
_cell_formula_units_Z 64
_cell_length_a 28.279037
_cell_length_b 11.580796
_cell_length_c 9.456446
_cell_angle_alpha 90.000000
_cell_angle_beta 90.000000
_cell_angle_gamma 90.000000
_cell_volume 3096.927043
_symmetry_space_group_name_H-M "P B A M"
_symmetry_group_IT_number 55
_symmetry_cell_setting 'orthorhombic'
loop_
_space_group_symop_operation_xyz
x,y,z
-x,-y,z
1/2+x,1/2-y,-z
1/2-x,1/2+y,-z
-x,-y,-z
x,y,-z
1/2-x,1/2+y,z
1/2+x,1/2-y,z
loop_
_atom_site_type_symbol
_atom_site_label
_atom_site_fract_x
_atom_site_fract_y
_atom_site_fract_z
Si Si1 0.869835 0.121271 0.831477
Si Si2 0.664284 0.383780 0.843627
Si Si3 0.770299 0.442958 0.152755
Si Si4 0.062737 0.714593 0.332950
Si Si5 0.290536 0.263076 0.343714
Si Si6 0.521255 0.126523 0.840592
Si Si7 0.901926 0.535203 0.653125
Si Si8 0.809765 0.651885 0.715168
O O1 0.912546 0.180231 0.748104
O O2 0.820447 0.160705 0.763706
O O3 0.874042 0.982608 0.803827
O O4 0.871067 0.148943 0.000000
O O5 0.714117 0.449654 0.833821
O O6 0.662596 0.269979 0.749080
O O7 0.654453 0.337741 0.000000
O O8 0.789708 0.365536 0.280289
O O9 0.792212 0.572012 0.154940
O O10 0.784135 0.388784 0.000000
O O11 0.057197 0.740712 0.500000
O O12 0.094168 0.599845 0.304026
O O13 0.011378 0.704738 0.260028
O O14 0.314288 0.257421 0.500000
O O15 0.237973 0.315335 0.367839
O O16 0.572974 0.116650 0.769364
O O17 0.500000 0.000000 0.847724
O O18 0.525568 0.178117 0.000000
O O19 0.927310 0.549399 0.500000
O O20 0.847516 0.573254 0.632487
#
# Coordination Sequence:
#
# PCOD8226312 Si02
#       8
#     8   8   8   8   8   8   8   8
#     4  11  21  37  57  80 110 149 194 237 282 334
#     4   9  20  36  53  77 108 145 189 239 286 332
#     4  10  20  36  57  77 103 143 191 239 286 336
#     4  10  20  36  60  88 118 151 184 231 289 342
#     4  11  23  36  52  79 114 149 189 237 286 337
#     4   9  18  34  57  87 118 146 183 229 281 341
#     4  10  21  36  55  83 119 152 186 228 283 343
#     4  11  21  36  56  82 110 152 193 238 285 339
#
# _framework density 20.665645999999999
#
# number of rings (size 3 to 8) (size 9 to 14) (size 15 to 20)
#    0.000    1.875    1.250    3.000    0.000    6.000 
#    0.000    1.875    0.000    0.750    0.000    4.375 
#    0.000    0.000    0.000    0.000    0.000    0.000 
#
# Total GULP energy -792892.588317 kJ/mol
# GULP energy per Si atom -12388.946692 kJ/mol
# Density = 2.061861 g / cm^3
# Si number density = 20.665646 Si / 1000 Ang^3
#
#
#
# Elastic Constant Matrix: (Units=GPa)
#
#
# Indices 1 2 3 4 5 6 
#
# 1 45.9250 6.9189 14.0070 0.0000 0.0000 0.0000
# 2 6.9189 67.3468 22.7205 0.0000 0.0000 0.0000
# 3 14.0070 22.7205 123.7283 0.0000 0.0000 0.0000
# 4 0.0000 0.0000 0.0000 9.2207 0.0000 0.0000
# 5 0.0000 0.0000 0.0000 0.0000 17.9544 0.0000
# 6 0.0000 0.0000 0.0000 0.0000 0.0000 28.6255
#
#
#
# Elastic Compliance Matrix: (Units=1/GPa)
#
#
# Indices 1 2 3 4 5 6 
#
# 1 0.022707 -0.001562 -0.002284 0.000000 0.000000 0.000000
# 2 -0.001562 0.015937 -0.002750 0.000000 0.000000 0.000000
# 3 -0.002284 -0.002750 0.008846 0.000000 0.000000 0.000000
# 4 0.000000 0.000000 0.000000 0.108451 0.000000 0.000000
# 5 0.000000 0.000000 0.000000 0.000000 0.055697 0.000000
# 6 0.000000 0.000000 0.000000 0.000000 0.000000 0.034934
#
#
# Mechanical properties :
#
#
# Convention : Reuss Voigt Hill
#
# Bulk Modulus (GPa) = 29.15654 36.03253 32.59454
# Shear Modulus (GPa) = 18.43697 24.05038 21.24367
#
# Velocity S-wave (km/s) = 2.99014 3.41513 3.20968
# Velocity P-wave (km/s) = 5.10495 5.74671 5.43531
#
# Compressibility (1/GPa) = 0.03429762
#
# Stress axis : x y z
#
# Youngs Moduli (GPa) = 44.04024 62.74842 113.04964
#
# Poissons Ratio (x) = 0.09803 0.25817
# Poissons Ratio (y) = 0.06881 0.31084
# Poissons Ratio (z) = 0.10057 0.17253
#
# Static dielectric constant tensor:
#      x y z
#    x 3.537270 0.000000 0.000000 
#    y 0.000000 3.647600 0.000000 
#    z 0.000000 0.000000 3.735570 
# 
# 
# High freq. dielectric constant tensor:
#      x y z
#    x 1.786190 0.000000 0.000000 
#    y 0.000000 1.793710 0.000000 
#    z 0.000000 0.000000 1.812200 
# 
# From -- ./inp_files/10860.got.cif
#   From: 2010.03.12/outbox.cif.g09.slc.cpg/sg55_6_cif.got.tgz:10860.got - 2010.04.16 15:19:21.
