data_PCOD8226624
_publ_section_title
;
Structure prediction by ZEFSAII (Michael W. Deem and Ramdas Pophale) SiO2 
 PCOD8226624
Probable space group: P B A M
;
_chemical_formula_sum "Si O2"
_cell_formula_units_Z 64
_cell_length_a 23.516179
_cell_length_b 15.171458
_cell_length_c 8.937494
_cell_angle_alpha 90.000000
_cell_angle_beta 90.000000
_cell_angle_gamma 90.000000
_cell_volume 3188.671937
_symmetry_space_group_name_H-M "P B A M"
_symmetry_group_IT_number 55
_symmetry_cell_setting 'orthorhombic'
loop_
_space_group_symop_operation_xyz
x,y,z
-x,-y,z
1/2+x,1/2-y,-z
1/2-x,1/2+y,-z
-x,-y,-z
x,y,-z
1/2-x,1/2+y,z
1/2+x,1/2-y,z
loop_
_atom_site_type_symbol
_atom_site_label
_atom_site_fract_x
_atom_site_fract_y
_atom_site_fract_z
Si Si1 0.673584 0.742876 0.172967
Si Si2 0.377769 0.606325 0.327425
Si Si3 0.615103 0.921154 0.826228
Si Si4 0.007233 0.354412 0.168429
Si Si5 0.494317 0.651618 0.171035
Si Si6 0.192869 0.248407 0.827029
Si Si7 0.878827 0.600041 0.324292
Si Si8 0.604178 0.593053 0.327496
O O1 0.647179 0.834234 0.232151
O O2 0.740434 0.744915 0.197759
O O3 0.649226 0.663057 0.268587
O O4 0.656807 0.728063 0.000000
O O5 0.375520 0.634198 0.500000
O O6 0.438216 0.636234 0.265461
O O7 0.327748 0.655784 0.240104
O O8 0.367835 0.502574 0.305788
O O9 0.547584 0.913969 0.797333
O O10 0.638824 0.003880 0.734649
O O11 0.628625 0.936181 0.000000
O O12 0.987560 0.253448 0.183719
O O13 0.056241 0.377901 0.284178
O O14 0.029832 0.372665 0.000000
O O15 0.545375 0.593714 0.236625
O O16 0.483570 0.623509 0.000000
O O17 0.163073 0.329375 0.746425
O O18 0.175610 0.251195 0.000000
O O19 0.871280 0.602841 0.500000
O O20 0.590208 0.612464 0.500000
#
# Coordination Sequence:
#
# PCOD8226624 Si02
#       8
#     8   8   8   8   8   8   8   8
#     4  10  23  44  67  90 117 157 212 261 303 356
#     4  11  24  41  61  91 128 164 201 249 309 370
#     4  10  21  41  65  90 122 157 199 253 305 355
#     4  10  20  37  63  91 123 159 199 249 303 357
#     4  11  21  37  64  94 124 162 206 249 300 362
#     4  11  24  43  66  89 117 159 210 261 306 356
#     4  12  25  39  60  92 128 162 200 245 301 373
#     4  11  24  40  62  93 131 165 197 246 310 367
#
# _framework density 20.071052000000002
#
# number of rings (size 3 to 8) (size 9 to 14) (size 15 to 20)
#    0.000    1.250    2.500    3.375    0.000    8.500 
#    0.000    3.750    0.000    0.000    0.000    0.000 
#    0.000    0.000    0.000    0.000    0.000    0.000 
#
# Total GULP energy -794034.649683 kJ/mol
# GULP energy per Si atom -12406.791401 kJ/mol
# Density = 2.002537 g / cm^3
# Si number density = 20.071052 Si / 1000 Ang^3
#
#
#
# Elastic Constant Matrix: (Units=GPa)
#
#
# Indices 1 2 3 4 5 6 
#
# 1 66.2464 30.2286 46.9219 0.0000 0.0000 0.0000
# 2 30.2286 110.6593 60.7952 0.0000 0.0000 0.0000
# 3 46.9219 60.7952 125.9726 0.0000 0.0000 0.0000
# 4 0.0000 0.0000 0.0000 33.5322 0.0000 0.0000
# 5 0.0000 0.0000 0.0000 0.0000 12.6180 0.0000
# 6 0.0000 0.0000 0.0000 0.0000 0.0000 10.7492
#
#
#
# Elastic Compliance Matrix: (Units=1/GPa)
#
#
# Indices 1 2 3 4 5 6 
#
# 1 0.020807 -0.001940 -0.006814 0.000000 0.000000 0.000000
# 2 -0.001940 0.012478 -0.005299 0.000000 0.000000 0.000000
# 3 -0.006814 -0.005299 0.013034 0.000000 0.000000 0.000000
# 4 0.000000 0.000000 0.000000 0.029822 0.000000 0.000000
# 5 0.000000 0.000000 0.000000 0.000000 0.079252 0.000000
# 6 0.000000 0.000000 0.000000 0.000000 0.000000 0.093030
#
#
# Mechanical properties :
#
#
# Convention : Reuss Voigt Hill
#
# Bulk Modulus (GPa) = 54.90920 64.30776 59.60848
# Shear Modulus (GPa) = 17.69289 22.37540 20.03414
#
# Velocity S-wave (km/s) = 2.97225 3.34250 3.16280
# Velocity P-wave (km/s) = 6.26066 6.85609 6.56513
#
# Compressibility (1/GPa) = 0.01821188
#
# Stress axis : x y z
#
# Youngs Moduli (GPa) = 48.06184 80.13988 76.72488
#
# Poissons Ratio (x) = 0.15550 0.52277
# Poissons Ratio (y) = 0.09326 0.40659
# Poissons Ratio (z) = 0.32747 0.42468
#
# Static dielectric constant tensor:
#      x y z
#    x 3.516890 0.000000 0.000000 
#    y 0.000000 3.846970 0.000000 
#    z 0.000000 0.000000 3.752550 
# 
# 
# High freq. dielectric constant tensor:
#      x y z
#    x 1.778080 0.000000 0.000000 
#    y 0.000000 1.800380 0.000000 
#    z 0.000000 0.000000 1.785610 
# 
# From -- ./inp_files/6574.got.cif
#   From: 2010.03.12/outbox.cif.g09.slc.cpg/sg55_4_cif.got.tgz:6574.got - 2010.04.16 15:19:21.
