data_PCOD8226279
_publ_section_title
;
Structure prediction by ZEFSAII (Michael W. Deem and Ramdas Pophale) SiO2 
 PCOD8226279
Probable space group: P B A M
;
_chemical_formula_sum "Si O2"
_cell_formula_units_Z 56
_cell_length_a 14.118369
_cell_length_b 14.659912
_cell_length_c 13.916757
_cell_angle_alpha 90.000000
_cell_angle_beta 90.000000
_cell_angle_gamma 90.000000
_cell_volume 2880.407519
_symmetry_space_group_name_H-M "P B A M"
_symmetry_group_IT_number 55
_symmetry_cell_setting 'orthorhombic'
loop_
_space_group_symop_operation_xyz
x,y,z
-x,-y,z
1/2+x,1/2-y,-z
1/2-x,1/2+y,-z
-x,-y,-z
x,y,-z
1/2-x,1/2+y,z
1/2+x,1/2-y,z
loop_
_atom_site_type_symbol
_atom_site_label
_atom_site_fract_x
_atom_site_fract_y
_atom_site_fract_z
Si Si1 0.205645 0.178379 0.388539
Si Si2 0.414056 0.059806 0.889843
Si Si3 0.685847 0.665107 0.287701
Si Si4 0.739485 0.465031 0.242218
Si Si5 0.069100 0.084955 0.107495
Si Si6 0.914695 0.230250 0.890500
Si Si7 0.996465 0.104363 0.610694
O O1 0.234148 0.174221 0.500000
O O2 0.236775 0.275660 0.345183
O O3 0.094358 0.158329 0.374362
O O4 0.263944 0.100952 0.331370
O O5 0.440520 0.164899 0.875339
O O6 0.500000 0.000000 0.850208
O O7 0.324149 0.029369 0.831030
O O8 0.392231 0.036531 0.000000
O O9 0.724219 0.563443 0.286831
O O10 0.672119 0.702636 0.179121
O O11 0.583283 0.665135 0.338182
O O12 0.649716 0.424742 0.185982
O O13 0.009499 0.174592 0.134368
O O14 0.112703 0.093071 0.000000
O O15 0.000000 0.000000 0.113256
O O16 0.881564 0.209729 0.000000
O O17 0.967981 0.097129 0.500000
O O18 0.000000 0.000000 0.652858
#
# Coordination Sequence:
#
# PCOD8226279 Si02
#       7
#     8   8   8   8   8   8   8
#     4  11  25  42  62  95 127 163 214 269 324 376
#     4  10  23  44  63  87 128 174 214 251 304 380
#     4  12  23  39  66  95 127 165 209 262 320 382
#     4  12  23  38  65  97 121 169 209 264 309 386
#     4  10  20  35  60  97 134 159 197 259 317 370
#     4  10  21  38  59  90 129 165 204 253 308 372
#     4  10  21  40  67  93 123 161 208 263 318 375
#
# _framework density 19.441693000000001
#
# number of rings (size 3 to 8) (size 9 to 14) (size 15 to 20)
#    0.000    1.286    4.286    1.714    0.000    3.429 
#    0.000    0.000    0.000    0.429    0.000    0.000 
#    0.000    0.000    0.000    0.000    0.000    0.000 
#
# Total GULP energy -694541.634584 kJ/mol
# GULP energy per Si atom -12402.529189 kJ/mol
# Density = 1.939744 g / cm^3
# Si number density = 19.441693 Si / 1000 Ang^3
#
#
#
# Elastic Constant Matrix: (Units=GPa)
#
#
# Indices 1 2 3 4 5 6 
#
# 1 76.7750 21.2374 40.5935 0.0000 0.0000 0.0000
# 2 21.2374 58.1360 39.9625 0.0000 0.0000 0.0000
# 3 40.5935 39.9625 105.1189 0.0000 0.0000 0.0000
# 4 0.0000 0.0000 0.0000 29.2768 0.0000 0.0000
# 5 0.0000 0.0000 0.0000 0.0000 35.7457 0.0000
# 6 0.0000 0.0000 0.0000 0.0000 0.0000 32.9041
#
#
#
# Elastic Compliance Matrix: (Units=1/GPa)
#
#
# Indices 1 2 3 4 5 6 
#
# 1 0.016580 -0.002241 -0.005551 0.000000 0.000000 0.000000
# 2 -0.002241 0.023589 -0.008102 0.000000 0.000000 0.000000
# 3 -0.005551 -0.008102 0.014737 0.000000 0.000000 0.000000
# 4 0.000000 0.000000 0.000000 0.034157 0.000000 0.000000
# 5 0.000000 0.000000 0.000000 0.000000 0.027975 0.000000
# 6 0.000000 0.000000 0.000000 0.000000 0.000000 0.030391
#
#
# Mechanical properties :
#
#
# Convention : Reuss Voigt Hill
#
# Bulk Modulus (GPa) = 43.25717 49.29077 46.27397
# Shear Modulus (GPa) = 26.74892 28.80108 27.77500
#
# Velocity S-wave (km/s) = 3.71327 3.85308 3.78382
# Velocity P-wave (km/s) = 6.37829 6.72333 6.55308
#
# Compressibility (1/GPa) = 0.02311756
#
# Stress axis : x y z
#
# Youngs Moduli (GPa) = 60.31438 42.39204 67.85785
#
# Poissons Ratio (x) = 0.09501 0.37665
# Poissons Ratio (y) = 0.13518 0.54981
# Poissons Ratio (z) = 0.33478 0.34347
#
# Static dielectric constant tensor:
#      x y z
#    x 3.235890 0.000000 0.000000 
#    y 0.000000 3.588650 0.000000 
#    z 0.000000 0.000000 3.883340 
# 
# 
# High freq. dielectric constant tensor:
#      x y z
#    x 1.738430 0.000000 0.000000 
#    y 0.000000 1.761920 0.000000 
#    z 0.000000 0.000000 1.774830 
# 
# From -- ./inp_files/18416.got.cif
#   From: 2010.03.12/outbox.cif.g09.slc.cpg/sg55_10_cif.got.tgz:18416.got - 2010.04.16 15:19:21.
