data_PCOD8226684
_publ_section_title
;
Structure prediction by ZEFSAII (Michael W. Deem and Ramdas Pophale) SiO2 
 PCOD8226684
Probable space group: P B A M
;
_chemical_formula_sum "Si O2"
_cell_formula_units_Z 48
_cell_length_a 18.609135
_cell_length_b 14.736553
_cell_length_c 8.861742
_cell_angle_alpha 90.000000
_cell_angle_beta 90.000000
_cell_angle_gamma 90.000000
_cell_volume 2430.195424
_symmetry_space_group_name_H-M "P B A M"
_symmetry_group_IT_number 55
_symmetry_cell_setting 'orthorhombic'
loop_
_space_group_symop_operation_xyz
x,y,z
-x,-y,z
1/2+x,1/2-y,-z
1/2-x,1/2+y,-z
-x,-y,-z
x,y,-z
1/2-x,1/2+y,z
1/2+x,1/2-y,z
loop_
_atom_site_type_symbol
_atom_site_label
_atom_site_fract_x
_atom_site_fract_y
_atom_site_fract_z
Si Si1 0.718116 0.008317 0.176056
Si Si2 0.023666 0.902257 0.679403
Si Si3 0.679583 0.652827 0.678643
Si Si4 0.927305 0.549102 0.673888
Si Si5 0.407770 0.742899 0.325338
Si Si6 0.260239 0.693044 0.176264
O O1 0.752764 0.912080 0.218478
O O2 0.758935 0.084126 0.270484
O O3 0.635011 0.008843 0.221806
O O4 0.725712 0.030071 0.000000
O O5 0.025802 0.904502 0.500000
O O6 0.102542 0.878807 0.742934
O O7 0.967872 0.826412 0.735676
O O8 0.000000 0.000000 0.744390
O O9 0.679157 0.657297 0.500000
O O10 0.696608 0.752515 0.741442
O O11 0.908922 0.527425 0.500000
O O12 0.937688 0.656294 0.698882
O O13 0.000000 0.500000 0.724944
O O14 0.389208 0.723904 0.500000
O O15 0.336763 0.729792 0.228531
O O16 0.252071 0.710075 0.000000
#
# Coordination Sequence:
#
# PCOD8226684 Si02
#       6
#     8   8   8   8   8   8
#     4  11  24  41  61  86 122 163 202 246 298 360
#     4   9  19  35  58  89 121 150 189 243 299 354
#     4  11  22  38  64  93 118 154 199 249 302 352
#     4  10  22  38  60  89 119 155 202 253 300 353
#     4  10  20  38  62  89 119 156 198 245 299 354
#     4  11  24  40  59  87 122 161 198 242 298 357
#
# _framework density 19.751497000000001
#
# number of rings (size 3 to 8) (size 9 to 14) (size 15 to 20)
#    0.000    1.667    1.667    2.500    2.333    4.333 
#    0.000    1.667    0.000    4.500    0.000    0.000 
#    0.000    0.000    0.000    0.000    0.000    0.000 
#
# Total GULP energy -595464.539517 kJ/mol
# GULP energy per Si atom -12405.511240 kJ/mol
# Density = 1.970654 g / cm^3
# Si number density = 19.751497 Si / 1000 Ang^3
#
#
#
# Elastic Constant Matrix: (Units=GPa)
#
#
# Indices 1 2 3 4 5 6 
#
# 1 107.9566 30.9705 18.2848 0.0000 0.0000 0.0000
# 2 30.9705 97.1145 30.8681 0.0000 0.0000 0.0000
# 3 18.2848 30.8681 53.7305 0.0000 0.0000 0.0000
# 4 0.0000 0.0000 0.0000 25.5426 0.0000 0.0000
# 5 0.0000 0.0000 0.0000 0.0000 9.7374 0.0000
# 6 0.0000 0.0000 0.0000 0.0000 0.0000 43.8284
#
#
#
# Elastic Compliance Matrix: (Units=1/GPa)
#
#
# Indices 1 2 3 4 5 6 
#
# 1 0.010367 -0.002673 -0.001992 0.000000 0.000000 0.000000
# 2 -0.002673 0.013287 -0.006724 0.000000 0.000000 0.000000
# 3 -0.001992 -0.006724 0.023152 0.000000 0.000000 0.000000
# 4 0.000000 0.000000 0.000000 0.039150 0.000000 0.000000
# 5 0.000000 0.000000 0.000000 0.000000 0.102697 0.000000
# 6 0.000000 0.000000 0.000000 0.000000 0.000000 0.022816
#
#
# Mechanical properties :
#
#
# Convention : Reuss Voigt Hill
#
# Bulk Modulus (GPa) = 41.61778 46.56093 44.08935
# Shear Modulus (GPa) = 20.63924 27.73355 24.18640
#
# Velocity S-wave (km/s) = 3.23607 3.75123 3.50313
# Velocity P-wave (km/s) = 5.92278 6.51052 6.22359
#
# Compressibility (1/GPa) = 0.02402819
#
# Stress axis : x y z
#
# Youngs Moduli (GPa) = 96.45762 75.26372 43.19263
#
# Poissons Ratio (x) = 0.20117 0.08606
# Poissons Ratio (y) = 0.25782 0.29041
# Poissons Ratio (z) = 0.19219 0.50604
#
# Static dielectric constant tensor:
#      x y z
#    x 3.760570 0.000000 0.000000 
#    y 0.000000 3.846050 0.000000 
#    z 0.000000 0.000000 3.395360 
# 
# 
# High freq. dielectric constant tensor:
#      x y z
#    x 1.778370 0.000000 0.000000 
#    y 0.000000 1.786860 0.000000 
#    z 0.000000 0.000000 1.751430 
# 
# From -- ./inp_files/5648.got.cif
#   From: 2010.03.12/outbox.cif.g09.slc.cpg/sg55_3_cif.got.tgz:5648.got - 2010.04.16 15:19:21.
